#       Name:                AV-unprocessed.smi:1940
#       Creating user name   scv26
#       Creation time:       Fri Mar 27 09:58:39 2020


#       File generated by GOLD software.
#

@<TRIPOS>MOLECULE
AV-unprocessed.smi:1940
    55    57     1
SMALL
NO_CHARGES


@<TRIPOS>ATOM
      1 ****        -4.4524  -2.9513  -1.8301 C.3            1 S1                 0.0000
      2 ****        -4.0058  -2.1373  -0.6060 C.3            1 S1                 0.0000
      3 ****        -2.5488  -2.0277  -0.6254 N.am           1 S1                 0.0000
      4 ****        -1.8444  -0.8905  -0.5340 C.2            1 S1                 0.0000
      5 ****        -2.3543   0.2255  -0.4379 O.2            1 S1                 0.0000
      6 ****        -0.5240  -1.1405  -0.5394 N.am           1 S1                 0.0000
      7 ****         0.5525  -0.2140  -0.5079 C.ar           1 S1                 0.0000
      8 ****         1.8230  -0.6965  -0.1268 C.ar           1 S1                 0.0000
      9 ****         2.9273   0.1792  -0.1061 C.ar           1 S1                 0.0000
     10 ****         2.7458   1.5302  -0.4800 C.ar           1 S1                 0.0000
     11 ****         3.7850   2.4695  -0.5007 N.3            1 S1                 0.0000
     12 ****         4.2470   2.8238   0.8390 C.3            1 S1                 0.0000
     13 ****         5.2574   3.9825   0.7821 C.3            1 S1                 0.0000
     14 ****         6.4177   3.6529  -0.1707 C.3            1 S1                 0.0000
     15 ****         5.8730   3.2657  -1.5548 C.3            1 S1                 0.0000
     16 ****         4.8491   2.1236  -1.4407 C.3            1 S1                 0.0000
     17 ****         1.5162   1.9543  -0.8440 N.pl3          1 S1                 1.0000
     18 ****         0.4321   1.1488  -0.8752 C.ar           1 S1                 0.0000
     19 ****        -4.4543  -2.7775   0.7228 C.3            1 S1                 0.0000
     20 ****        -5.9691  -2.8991   0.8947 C.3            1 S1                 0.0000
     21 ****        -6.1014  -2.9648   2.3984 C.3            1 S1                 0.0000
     22 ****        -5.0336  -1.9724   2.8473 C.3            1 S1                 0.0000
     23 ****        -4.0347  -1.9822   1.8306 O.3            1 S1                 0.0000
     24 ****        -5.5387  -3.0172  -1.8904 H              1 S1                 0.0000
     25 ****        -4.0583  -3.9675  -1.7969 H              1 S1                 0.0000
     26 ****        -4.1051  -2.4889  -2.7547 H              1 S1                 0.0000
     27 ****        -4.4592  -1.1474  -0.6829 H              1 S1                 0.0000
     28 ****        -2.0370  -2.8948  -0.6963 H              1 S1                 0.0000
     29 ****        -0.2588  -2.1145  -0.5303 H              1 S1                 0.0000
     30 ****         1.9543  -1.7320   0.1516 H              1 S1                 0.0000
     31 ****         3.8990  -0.1870   0.1913 H              1 S1                 0.0000
     32 ****         3.3954   3.1058   1.4595 H              1 S1                 0.0000
     33 ****         4.7091   1.9535   1.3072 H              1 S1                 0.0000
     34 ****         4.7543   4.8896   0.4439 H              1 S1                 0.0000
     35 ****         5.6401   4.1940   1.7809 H              1 S1                 0.0000
     36 ****         7.0916   4.5058  -0.2550 H              1 S1                 0.0000
     37 ****         7.0052   2.8292   0.2367 H              1 S1                 0.0000
     38 ****         5.4024   4.1340  -2.0181 H              1 S1                 0.0000
     39 ****         6.6918   2.9695  -2.2111 H              1 S1                 0.0000
     40 ****         5.3512   1.2133  -1.1100 H              1 S1                 0.0000
     41 ****         4.4188   1.9135  -2.4209 H              1 S1                 0.0000
     42 ****        -0.4772   1.6262  -1.2076 H              1 S1                 0.0000
     43 ****        -4.0034  -3.7648   0.8372 H              1 S1                 0.0000
     44 ****        -6.4744  -2.0099   0.5149 H              1 S1                 0.0000
     45 ****        -6.3869  -3.7723   0.3929 H              1 S1                 0.0000
     46 ****        -7.0993  -2.7095   2.7559 H              1 S1                 0.0000
     47 ****        -5.8566  -3.9674   2.7518 H              1 S1                 0.0000
     48 ****        -5.4503  -0.9666   2.9114 H              1 S1                 0.0000
     49 ****        -4.6138  -2.2277   3.8203 H              1 S1                 0.0000
     50 ****         1.4007   2.9311  -1.1158 H              1 S1                 0.0000
     51 ****        -3.3496   0.3210  -0.4246 LP             1 S1                 0.0000
     52 ****        -1.7732   1.0368  -0.3731 LP             1 S1                 0.0000
     53 ****         3.3996   3.3159  -0.8683 LP             1 S1                 0.0000
     54 ****        -3.8724  -1.0456   1.5201 LP             1 S1                 0.0000
     55 ****        -3.1882  -2.3606   2.2050 LP             1 S1                 0.0000
@<TRIPOS>BOND
    1    1    2 1     
    2    1   24 1     
    3    1   25 1     
    4    1   26 1     
    5    2    3 1     
    6    2   19 1     
    7    2   27 1     
    8    3    4 am    
    9    3   28 1     
   10    4    5 2     
   11    4    6 am    
   12    6    7 1     
   13    6   29 1     
   14    7   18 ar    
   15    7    8 ar    
   16    8    9 ar    
   17    8   30 1     
   18    9   10 ar    
   19    9   31 1     
   20   10   11 1     
   21   10   17 ar    
   22   11   16 1     
   23   11   12 1     
   24   12   13 1     
   25   12   32 1     
   26   12   33 1     
   27   13   14 1     
   28   13   34 1     
   29   13   35 1     
   30   14   15 1     
   31   14   36 1     
   32   14   37 1     
   33   15   16 1     
   34   15   38 1     
   35   15   39 1     
   36   16   40 1     
   37   16   41 1     
   38   17   18 ar    
   39   17   50 1     
   40   18   42 1     
   41   19   23 1     
   42   19   20 1     
   43   19   43 1     
   44   20   21 1     
   45   20   44 1     
   46   20   45 1     
   47   21   22 1     
   48   21   46 1     
   49   21   47 1     
   50   22   23 1     
   51   22   48 1     
   52   22   49 1     
   53    5   51 1     
   54    5   52 1     
   55   11   53 1     
   56   23   54 1     
   57   23   55 1     
@<TRIPOS>SUBSTRUCTURE
      1 S1             1
@<TRIPOS>SET
LONE_PAIRS      STATIC     ATOMS    <user>   **** ""
5 51 52 53 54 55
DONOR_HYDROGENS      STATIC     ATOMS    <user>   **** ""
3 28 29 50
ATOM$BLUE        STATIC     ATOMS    COLORGROUP SYSTEM
5 51 52 53 54 55
ATOM$RED        STATIC     ATOMS    COLORGROUP SYSTEM
3 28 29 50
