AV-unprocessed.smi:3281|AV-procd|sdf|12557|dock10
  -GOLD-   2272018473D 1   1.00000     0.00000
 Structure written by MMmdl.
 37 38  0  0  0  0  0  0  0  0  2 V2000
  149.6794  135.0563  156.2362 C   0  0  0  0  0  0  0  0  0  0  0  0
  150.5356  135.6183  155.0957 C   0  0  0  0  0  0  0  0  0  0  0  0
  150.4801  137.1076  154.9958 C   0  0  0  0  0  0  0  0  0  0  0  0
  151.1447  137.9123  154.1031 C   0  0  0  0  0  0  0  0  0  0  0  0
  150.8818  139.2744  154.2662 N   0  0  0  0  0  0  0  0  0  0  0  0
  150.0447  139.5139  155.2778 C   0  0  0  0  0  0  0  0  0  0  0  0
  149.5775  140.8799  155.6529 C   0  0  0  0  0  0  0  0  0  0  0  0
  150.7282  141.7910  156.0986 C   0  0  0  0  0  0  0  0  0  0  0  0
  150.2737  142.7561  157.1192 N   0  3  0  0  0  0  0  0  0  0  0  0
  151.2989  143.1383  158.1143 C   0  0  1  0  0  0  0  0  0  0  0  0
  150.8272  144.3795  158.8963 C   0  0  0  0  0  0  0  0  0  0  0  0
  151.8647  144.8701  159.9202 C   0  0  0  0  0  0  0  0  0  0  0  0
  152.1898  143.8095  160.9813 C   0  0  0  0  0  0  0  0  0  0  0  0
  152.9115  142.3287  160.2244 S   0  0  0  0  0  0  0  0  0  0  0  0
  151.5824  141.9501  159.0504 C   0  0  0  0  0  0  0  0  0  0  0  0
  149.4912  138.0501  156.0819 S   0  0  0  0  0  0  0  0  0  0  0  0
  149.7566  133.9698  156.2801 H   0  0  0  0  0  0  0  0  0  0  0  0
  148.6272  135.3090  156.1032 H   0  0  0  0  0  0  0  0  0  0  0  0
  150.0001  135.4527  157.2000 H   0  0  0  0  0  0  0  0  0  0  0  0
  151.5699  135.3012  155.2349 H   0  0  0  0  0  0  0  0  0  0  0  0
  150.2112  135.1808  154.1512 H   0  0  0  0  0  0  0  0  0  0  0  0
  151.8204  137.6009  153.3200 H   0  0  0  0  0  0  0  0  0  0  0  0
  149.0614  141.3158  154.7968 H   0  0  0  0  0  0  0  0  0  0  0  0
  148.8387  140.7897  156.4503 H   0  0  0  0  0  0  0  0  0  0  0  0
  151.5416  141.1913  156.5098 H   0  0  0  0  0  0  0  0  0  0  0  0
  151.1263  142.3359  155.2412 H   0  0  0  0  0  0  0  0  0  0  0  0
  149.9600  143.5935  156.6496 H   0  0  0  0  0  0  0  0  0  0  0  0
  152.2251  143.3918  157.5949 H   0  0  0  0  0  0  0  0  0  0  0  0
  150.6146  145.1890  158.1971 H   0  0  0  0  0  0  0  0  0  0  0  0
  149.8874  144.1629  159.4062 H   0  0  0  0  0  0  0  0  0  0  0  0
  152.7793  145.1686  159.4063 H   0  0  0  0  0  0  0  0  0  0  0  0
  151.4863  145.7661  160.4136 H   0  0  0  0  0  0  0  0  0  0  0  0
  152.8951  144.2084  161.7107 H   0  0  0  0  0  0  0  0  0  0  0  0
  151.2893  143.5281  161.5284 H   0  0  0  0  0  0  0  0  0  0  0  0
  150.6861  141.6774  159.6089 H   0  0  0  0  0  0  0  0  0  0  0  0
  151.8785  141.0732  158.4737 H   0  0  0  0  0  0  0  0  0  0  0  0
  149.4888  142.3532  157.6111 H   0  0  0  0  0  0  0  0  0  0  0  0
  1  2  1  0  0  0  0
  1 17  1  0  0  0  0
  1 18  1  0  0  0  0
  1 19  1  0  0  0  0
  2  3  1  0  0  0  0
  2 20  1  0  0  0  0
  2 21  1  0  0  0  0
  3 16  1  0  0  0  0
  3  4  2  0  0  0  0
  4  5  1  0  0  0  0
  4 22  1  0  0  0  0
  5  6  2  0  0  0  0
  6  7  1  0  0  0  0
  6 16  1  0  0  0  0
  7  8  1  0  0  0  0
  7 23  1  0  0  0  0
  7 24  1  0  0  0  0
  8  9  1  0  0  0  0
  8 25  1  0  0  0  0
  8 26  1  0  0  0  0
  9 10  1  0  0  0  0
  9 27  1  0  0  0  0
  9 37  1  0  0  0  0
 10 15  1  0  0  0  0
 10 11  1  0  0  0  0
 10 28  1  0  0  0  0
 11 12  1  0  0  0  0
 11 29  1  0  0  0  0
 11 30  1  0  0  0  0
 12 13  1  0  0  0  0
 12 31  1  0  0  0  0
 12 32  1  0  0  0  0
 13 14  1  0  0  0  0
 13 33  1  0  0  0  0
 13 34  1  0  0  0  0
 14 15  1  0  0  0  0
 15 35  1  0  0  0  0
 15 36  1  0  0  0  0
M  CHG  1   9   1
M  END
> <s_m_source_file>
AV-unprocessed.smi

> <i_m_source_file_index>
3281

> <i_lp_mmshare_version>
43012

> <i_f3d_flags>
0

> <s_epik_input>
W0NIM11bQ0gyXWMxW2NIXW5jKHMxKVtDSDJdW0NIMl1bTkhdW0NAQEhdMltDSDJdW0NIMl1bQ0gyXVNbQ0gyXTI=

> <s_epik_cmdline>
J2VwaWtfcHl0aG9uJywgJy1waCcsICc3LjAnLCAnLXRuJywgJzgnLCAnLW1hJywgJzIwMCcsICctbWV0YWxfYmluZGluZycsICctaW1hZScsICc8aW5maWxlLm1hZT4nLCAnLW9tYWUnLCAnPG91dGZpbGUubWFlPic=

> <r_epik_Ionization_Penalty>
0.00827702

> <r_epik_Ionization_Penalty_Charging>
0.00826679

> <r_epik_Ionization_Penalty_Neutral>
1.02314e-05

> <r_epik_State_Penalty>
0.00622064

> <r_epik_Charging_Adjusted_Penalty>
0.0144874

> <i_epik_Tot_Q>
1

> <i_epik_Tot_abs_Q>
1

> <r_epik_Metal_State_Penalty>
0.0062521

> <b_epik_Metal_Only>
0

> <s_lp_Force_Field>
OPLS_2005

> <r_lp_Energy>
0.380523

> <b_lp_Chiralities_Consistent>
1

> <s_lp_Variant>
AV-unprocessed.smi:3281-2

> <Gold.Version>
5.8.1

> <Gold.Id.Protein>
6NUR|6NUR_protein|mol2

> <Gold.PLP.Fitness>
45.9711

> <Gold.PLP.PLP>
-35.3357

> <Gold.PLP.part.hbond>
-2.0000

> <Gold.PLP.part.metal>
0.0000

> <Gold.PLP.part.buried>
-4.7152

> <Gold.PLP.part.nonpolar>
-28.8592

> <Gold.PLP.part.repulsive>
0.1748

> <Gold.PLP.ligand.clash>
0.0000

> <Gold.PLP.ligand.torsion>
0.4950

> <Gold.PLP.Chemscore.Hbond>
3.0000

> <Gold.PLP.Chemscore.CHOScore>
0.8656

> <Gold.PLP.Chemscore.Metal>
0.0000

> <Gold.Chemscore.Hbonds>
donor molecule, donor type, donor heavy atom, donor atom, acceptor molecule, acceptor atom, score
      L1  H     9    27       P1  8028  2.00
      P1  H  7989  7998       L1     5  1.00
      L1  C     4    22       P1  7949  0.87

> <Gold.PLP.Chemscore.Internal.Correction>
0.0287

> <Gold.Rescore>
     Score         DG    S(hbond)    S(metal)    S(lipo)     H(rot)  DE(clash)    DE(int)     intcor
     21.28     -21.82       1.97        0.00     113.60       1.38       0.09       0.45       ----

> <Gold.Chemscore.Fitness>
21.2754

> <Gold.Chemscore.DG>
-21.8240

> <Gold.Chemscore.ZeroCoef>
-5.4800

> <Gold.Chemscore.Hbond>
1.9691

> <Gold.Chemscore.Metal>
0.0000

> <Gold.Chemscore.Lipo>
113.6026

> <Gold.Chemscore.Internal_Hbond>
0.0000

> <Gold.Chemscore.DEClash>
0.0945

> <Gold.Chemscore.DEInternal>
0.4542

> <Gold.Chemscore.Rot>
1.3767

> <Gold.Chemscore.Internal.Correction>
   9.000000E+99

> <Gold.Chemscore.Hbonds>
donor molecule, donor type, donor heavy atom, donor atom, acceptor molecule, acceptor atom, score
      L1  H     9    27       P1  8028  1.00
      P1  H  7989  7998       L1     5  0.88

> <Gold.Chemscore.Hbond.Weighted>
-6.5768

> <Gold.Chemscore.Metal.Weighted>
-0.0000

> <Gold.Chemscore.Lipo.Weighted>
-13.2915

> <Gold.Chemscore.Internal_Hbond.Weighted>
0.0000

> <Gold.Chemscore.DEClash.Weighted>
0.0945

> <Gold.Chemscore.DEInternal.Weighted>
0.4542

> <Gold.Chemscore.Rot.Weighted>
3.5243

> <Gold.Chemscore.Internal.Correction.Weighted>
   9.000000E+99

> <Gold.Protein.RotatedTorsions>
[ 6907 6896 6895 6894 ] final   -7.97 input  -60.11 | X-H torsion
[ 7974 7965 7964 7962 ] final    4.71 input  175.53 | X-H torsion
[ 8008 7997 7996 7995 ] final   71.66 input   59.86 | X-H torsion
[ 10167 10162 10161 10158 ] final   18.85 input  -65.29 | X-H torsion
[ 10718 10713 10712 10709 ] final  -66.76 input   66.30 | X-H torsion
[ 10763 10752 10751 10750 ] final -175.87 input  -60.55 | X-H torsion
[ 11005 11000 10999 10996 ] final   63.86 input  -57.11 | X-H torsion

> <Gold.Protein.ActiveResidues>
 VAL166  LYS551  ARG553  GLY616  TRP617  ASP618  TYR619  PRO620  LYS621  CYS622 
 ASP623  PHE694  ASN695  SER759  ASP760  ASP761  ALA762  ILE779  LEU786  VAL792 
 PHE793  MET794  SER795  GLU796  ALA797  LYS798  CYS799  TRP800  GLU811  SER814 

> <Gold.Protein.RotatedAtoms>
  151.4410  135.1020  159.9669 H   0  0  0  0  0  0  0  0  0  0  0  0  # atno 6907 bound_to 6896
  152.4922  133.8528  159.7221 H   0  0  0  0  0  0  0  0  0  0  0  0  # atno 6908 bound_to 6896
  150.9088  133.6965  159.2887 H   0  0  0  0  0  0  0  0  0  0  0  0  # atno 6909 bound_to 6896
  146.2443  140.0494  142.8376 H   0  0  0  0  0  0  0  0  0  0  0  0  # atno 7974 bound_to 7965
  155.7573  140.3487  155.5180 H   0  0  0  0  0  0  0  0  0  0  0  0  # atno 8008 bound_to 7997
  155.8948  140.1024  157.1414 H   0  0  0  0  0  0  0  0  0  0  0  0  # atno 8009 bound_to 7997
  154.4037  140.1297  156.4348 H   0  0  0  0  0  0  0  0  0  0  0  0  # atno 8010 bound_to 7997
  140.5623  143.9315  150.6651 H   0  0  0  0  0  0  0  0  0  0  0  0  # atno 10167 bound_to 10162
  156.0594  130.4267  150.1756 H   0  0  0  0  0  0  0  0  0  0  0  0  # atno 10718 bound_to 10713
  154.5792  135.2834  155.0750 H   0  0  0  0  0  0  0  0  0  0  0  0  # atno 10763 bound_to 10752
  154.2093  135.6410  153.5114 H   0  0  0  0  0  0  0  0  0  0  0  0  # atno 10764 bound_to 10752
  153.0082  135.5488  154.6440 H   0  0  0  0  0  0  0  0  0  0  0  0  # atno 10765 bound_to 10752
  139.9996  134.6462  155.9952 H   0  0  0  0  0  0  0  0  0  0  0  0  # atno 11005 bound_to 11000
  145.0998  140.9338  143.4719 LP  0  0  0  0  0  0  0  0  0  0  0  0  # atno 17320 bound_to 7965
  145.0684  139.3050  143.5844 LP  0  0  0  0  0  0  0  0  0  0  0  0  # atno 17321 bound_to 7965
  140.2768  143.3417  152.1187 LP  0  0  0  0  0  0  0  0  0  0  0  0  # atno 17342 bound_to 10162
  139.5076  144.6835  151.5948 LP  0  0  0  0  0  0  0  0  0  0  0  0  # atno 17343 bound_to 10162
  156.9827  130.9869  151.3433 LP  0  0  0  0  0  0  0  0  0  0  0  0  # atno 17370 bound_to 10713
  157.5591  130.8233  149.8242 LP  0  0  0  0  0  0  0  0  0  0  0  0  # atno 17371 bound_to 10713
  141.1632  133.6538  156.4389 LP  0  0  0  0  0  0  0  0  0  0  0  0  # atno 17394 bound_to 11000
  140.4752  134.6716  157.5147 LP  0  0  0  0  0  0  0  0  0  0  0  0  # atno 17395 bound_to 11000

$$$$
