AV-unprocessed.smi:3314|AV-procd|sdf|12746|dock10
  -GOLD-   2272019 83D 1   1.00000     0.00000
 Structure written by MMmdl.
 37 38  0  0  0  0  0  0  0  0  3 V2000
  153.5115  142.3163  162.6295 C   0  0  0  0  0  0  0  0  0  0  0  0
  153.0233  142.5492  161.2153 C   0  0  0  0  0  0  0  0  0  0  0  0
  152.4533  143.7827  160.8486 C   0  0  0  0  0  0  0  0  0  0  0  0
  152.0224  143.9445  159.5176 C   0  0  0  0  0  0  0  0  0  0  0  0
  151.3983  145.2454  159.0587 C   0  0  0  0  0  0  0  0  0  0  0  0
  152.1272  142.9736  158.5845 N   0  0  0  0  0  0  0  0  0  0  0  0
  152.6669  141.7795  158.9260 C   0  0  0  0  0  0  0  0  0  0  0  0
  152.7745  140.8282  157.9875 N   0  5  0  0  0  0  0  0  0  0  0  0
  152.4821  139.5399  158.2924 C   0  0  0  0  0  0  0  0  0  0  0  0
  152.1787  139.0533  159.3836 O   0  0  0  0  0  0  0  0  0  0  0  0
  152.5752  138.6355  157.0561 C   0  0  1  0  0  0  0  0  0  0  0  0
  151.2886  137.7999  156.8788 C   0  0  0  0  0  0  0  0  0  0  0  0
  151.3610  136.9972  155.6374 N   0  3  1  0  0  0  0  0  0  0  0  0
  150.1716  136.1414  155.4416 C   0  0  0  0  0  0  0  0  0  0  0  0
  151.6464  137.8576  154.4674 C   0  0  0  0  0  0  0  0  0  0  0  0
  152.9177  138.6856  154.7149 C   0  0  0  0  0  0  0  0  0  0  0  0
  152.7617  139.4524  155.9017 O   0  0  0  0  0  0  0  0  0  0  0  0
  153.1348  141.5386  160.2391 C   0  0  0  0  0  0  0  0  0  0  0  0
  152.8614  142.8155  163.3486 H   0  0  0  0  0  0  0  0  0  0  0  0
  154.5219  142.7082  162.7472 H   0  0  0  0  0  0  0  0  0  0  0  0
  153.5250  141.2523  162.8675 H   0  0  0  0  0  0  0  0  0  0  0  0
  152.3510  144.5826  161.5672 H   0  0  0  0  0  0  0  0  0  0  0  0
  151.7228  146.0761  159.6857 H   0  0  0  0  0  0  0  0  0  0  0  0
  150.3116  145.1785  159.1116 H   0  0  0  0  0  0  0  0  0  0  0  0
  151.6796  145.4699  158.0292 H   0  0  0  0  0  0  0  0  0  0  0  0
  153.4406  137.9758  157.1576 H   0  0  0  0  0  0  0  0  0  0  0  0
  151.1535  137.1317  157.7306 H   0  0  0  0  0  0  0  0  0  0  0  0
  150.4136  138.4518  156.8408 H   0  0  0  0  0  0  0  0  0  0  0  0
  149.2704  136.7446  155.3239 H   0  0  0  0  0  0  0  0  0  0  0  0
  150.0310  135.4782  156.2956 H   0  0  0  0  0  0  0  0  0  0  0  0
  150.2869  135.5205  154.5527 H   0  0  0  0  0  0  0  0  0  0  0  0
  151.7721  137.2405  153.5770 H   0  0  0  0  0  0  0  0  0  0  0  0
  150.7992  138.5202  154.2838 H   0  0  0  0  0  0  0  0  0  0  0  0
  153.7947  138.0414  154.7954 H   0  0  0  0  0  0  0  0  0  0  0  0
  153.0949  139.3618  153.8786 H   0  0  0  0  0  0  0  0  0  0  0  0
  153.5716  140.5839  160.4946 H   0  0  0  0  0  0  0  0  0  0  0  0
  152.1522  136.3782  155.7429 H   0  0  0  0  0  0  0  0  0  0  0  0
  1  2  1  0  0  0  0
  1 19  1  0  0  0  0
  1 20  1  0  0  0  0
  1 21  1  0  0  0  0
  2 18  2  0  0  0  0
  2  3  1  0  0  0  0
  3  4  2  0  0  0  0
  3 22  1  0  0  0  0
  4  5  1  0  0  0  0
  4  6  1  0  0  0  0
  5 23  1  0  0  0  0
  5 24  1  0  0  0  0
  5 25  1  0  0  0  0
  6  7  2  0  0  0  0
  7  8  1  0  0  0  0
  7 18  1  0  0  0  0
  8  9  1  0  0  0  0
  9 10  2  0  0  0  0
  9 11  1  0  0  0  0
 11 17  1  0  0  0  0
 11 12  1  0  0  0  0
 11 26  1  0  0  0  0
 12 13  1  0  0  0  0
 12 27  1  0  0  0  0
 12 28  1  0  0  0  0
 13 14  1  0  0  0  0
 13 15  1  0  0  0  0
 13 37  1  0  0  0  0
 14 29  1  0  0  0  0
 14 30  1  0  0  0  0
 14 31  1  0  0  0  0
 15 16  1  0  0  0  0
 15 32  1  0  0  0  0
 15 33  1  0  0  0  0
 16 17  1  0  0  0  0
 16 34  1  0  0  0  0
 16 35  1  0  0  0  0
 18 36  1  0  0  0  0
M  CHG  1   8  -1
M  CHG  1  13   1
M  END
> <s_m_source_file>
AV-unprocessed.smi

> <i_m_source_file_index>
3314

> <i_lp_mmshare_version>
43012

> <i_f3d_flags>
0

> <s_epik_input>
W0NIM11jMVtjSF1jKFtDSDNdKW5jKFtjSF0xKVtOSF1DKD1PKVtDQEBIXTJbQ0gyXU4oW0NIM10pW0NIMl1bQ0gyXU8y

> <s_epik_cmdline>
J2VwaWtfcHl0aG9uJywgJy1waCcsICc3LjAnLCAnLXRuJywgJzgnLCAnLW1hJywgJzIwMCcsICctbWV0YWxfYmluZGluZycsICctaW1hZScsICc8aW5maWxlLm1hZT4nLCAnLW9tYWUnLCAnPG91dGZpbGUubWFlPic=

> <r_epik_Ionization_Penalty>
13.8964

> <r_epik_Ionization_Penalty_Charging>
7.88995

> <r_epik_Ionization_Penalty_Neutral>
6.00641

> <r_epik_State_Penalty>
8.39989

> <r_epik_Charging_Adjusted_Penalty>
16.2898

> <i_epik_Tot_Q>
0

> <i_epik_Tot_abs_Q>
2

> <r_epik_Metal_State_Penalty>
4.31145

> <b_epik_Metal_Only>
1

> <s_lp_Force_Field>
OPLS_2005

> <r_lp_Energy>
9.09812

> <b_lp_Chiralities_Consistent>
1

> <s_lp_Variant>
AV-unprocessed.smi:3314-16

> <Gold.Version>
5.8.1

> <Gold.Id.Protein>
6NUR|6NUR_protein|mol2

> <Gold.PLP.Fitness>
41.2140

> <Gold.PLP.PLP>
-39.1843

> <Gold.PLP.part.hbond>
-2.0000

> <Gold.PLP.part.metal>
0.0000

> <Gold.PLP.part.buried>
-3.3960

> <Gold.PLP.part.nonpolar>
-33.1245

> <Gold.PLP.part.repulsive>
0.0998

> <Gold.PLP.ligand.clash>
0.0514

> <Gold.PLP.ligand.torsion>
0.4642

> <Gold.PLP.Chemscore.Hbond>
1.0000

> <Gold.PLP.Chemscore.CHOScore>
0.0000

> <Gold.PLP.Chemscore.Metal>
0.0000

> <Gold.Chemscore.Hbonds>
donor molecule, donor type, donor heavy atom, donor atom, acceptor molecule, acceptor atom, score
      P1  H  7997  8008       L1    17  1.00

> <Gold.PLP.Chemscore.Internal.Correction>
0.0094

> <Gold.Rescore>
     Score         DG    S(hbond)    S(metal)    S(lipo)     H(rot)  DE(clash)    DE(int)     intcor
     15.71     -17.52       0.77        0.00     102.85       1.00       0.06       1.76       ----

> <Gold.Chemscore.Fitness>
15.7069

> <Gold.Chemscore.DG>
-17.5225

> <Gold.Chemscore.ZeroCoef>
-5.4800

> <Gold.Chemscore.Hbond>
0.7693

> <Gold.Chemscore.Metal>
0.0000

> <Gold.Chemscore.Lipo>
102.8474

> <Gold.Chemscore.Internal_Hbond>
0.0000

> <Gold.Chemscore.DEClash>
0.0599

> <Gold.Chemscore.DEInternal>
1.7558

> <Gold.Chemscore.Rot>
1.0000

> <Gold.Chemscore.Internal.Correction>
   9.000000E+99

> <Gold.Chemscore.Hbonds>
donor molecule, donor type, donor heavy atom, donor atom, acceptor molecule, acceptor atom, score
      P1  H  7997  8008       L1    17  0.14

> <Gold.Chemscore.Hbond.Weighted>
-2.5694

> <Gold.Chemscore.Metal.Weighted>
-0.0000

> <Gold.Chemscore.Lipo.Weighted>
-12.0331

> <Gold.Chemscore.Internal_Hbond.Weighted>
0.0000

> <Gold.Chemscore.DEClash.Weighted>
0.0599

> <Gold.Chemscore.DEInternal.Weighted>
1.7558

> <Gold.Chemscore.Rot.Weighted>
2.5600

> <Gold.Chemscore.Internal.Correction.Weighted>
   9.000000E+99

> <Gold.Protein.RotatedTorsions>
[ 6907 6896 6895 6894 ] final  132.03 input  -60.11 | X-H torsion
[ 7974 7965 7964 7962 ] final  146.78 input  175.53 | X-H torsion
[ 8008 7997 7996 7995 ] final  -38.30 input   59.86 | X-H torsion
[ 10167 10162 10161 10158 ] final -118.00 input  -65.29 | X-H torsion
[ 10718 10713 10712 10709 ] final -174.53 input   66.30 | X-H torsion
[ 10763 10752 10751 10750 ] final   23.69 input  -60.55 | X-H torsion
[ 11005 11000 10999 10996 ] final  141.01 input  -57.11 | X-H torsion

> <Gold.Protein.ActiveResidues>
 VAL166  LYS551  ARG553  GLY616  TRP617  ASP618  TYR619  PRO620  LYS621  CYS622 
 ASP623  PHE694  ASN695  SER759  ASP760  ASP761  ALA762  ILE779  LEU786  VAL792 
 PHE793  MET794  SER795  GLU796  ALA797  LYS798  CYS799  TRP800  GLU811  SER814 

> <Gold.Protein.RotatedAtoms>
  152.3366  133.6019  159.5846 H   0  0  0  0  0  0  0  0  0  0  0  0  # atno 6907 bound_to 6896
  150.7454  133.9786  159.3578 H   0  0  0  0  0  0  0  0  0  0  0  0  # atno 6908 bound_to 6896
  151.7655  135.0800  160.0403 H   0  0  0  0  0  0  0  0  0  0  0  0  # atno 6909 bound_to 6896
  144.8644  139.5947  143.5916 H   0  0  0  0  0  0  0  0  0  0  0  0  # atno 7974 bound_to 7965
  154.4039  140.1581  156.2678 H   0  0  0  0  0  0  0  0  0  0  0  0  # atno 8008 bound_to 7997
  155.8980  140.3435  155.5983 H   0  0  0  0  0  0  0  0  0  0  0  0  # atno 8009 bound_to 7997
  155.7481  140.0801  157.2205 H   0  0  0  0  0  0  0  0  0  0  0  0  # atno 8010 bound_to 7997
  140.0622  143.4957  152.2025 H   0  0  0  0  0  0  0  0  0  0  0  0  # atno 10167 bound_to 10162
  156.7865  130.9502  151.3120 H   0  0  0  0  0  0  0  0  0  0  0  0  # atno 10718 bound_to 10713
  153.0819  135.6621  154.0027 H   0  0  0  0  0  0  0  0  0  0  0  0  # atno 10763 bound_to 10752
  153.9647  135.2970  155.3432 H   0  0  0  0  0  0  0  0  0  0  0  0  # atno 10764 bound_to 10752
  154.7220  135.5160  153.8899 H   0  0  0  0  0  0  0  0  0  0  0  0  # atno 10765 bound_to 10752
  140.0369  134.9324  157.0770 H   0  0  0  0  0  0  0  0  0  0  0  0  # atno 11005 bound_to 11000
  146.2884  139.7070  142.9178 LP  0  0  0  0  0  0  0  0  0  0  0  0  # atno 17320 bound_to 7965
  145.4250  141.0410  143.2942 LP  0  0  0  0  0  0  0  0  0  0  0  0  # atno 17321 bound_to 7965
  139.5886  144.7541  151.3456 LP  0  0  0  0  0  0  0  0  0  0  0  0  # atno 17342 bound_to 10162
  140.7166  143.7249  150.7667 LP  0  0  0  0  0  0  0  0  0  0  0  0  # atno 17343 bound_to 10162
  157.6621  130.8975  149.9853 LP  0  0  0  0  0  0  0  0  0  0  0  0  # atno 17370 bound_to 10713
  156.1186  130.3647  149.9926 LP  0  0  0  0  0  0  0  0  0  0  0  0  # atno 17371 bound_to 10713
  140.4132  134.1959  155.7163 LP  0  0  0  0  0  0  0  0  0  0  0  0  # atno 17394 bound_to 11000
  141.1862  133.8307  157.1076 LP  0  0  0  0  0  0  0  0  0  0  0  0  # atno 17395 bound_to 11000

$$$$
