AV-unprocessed.smi:1662|AV-procd|sdf|6658|dock6
  -GOLD-   22720 7363D 1   1.00000     0.00000
 Structure written by MMmdl.
 47 48  0  0  0  0  0  0  0  0  1 V2000
  154.1652  143.7650  164.2991 C   0  0  0  0  0  0  0  0  0  0  0  0
  154.7497  142.3892  164.4738 C   0  0  0  0  0  0  0  0  0  0  0  0
  154.8097  141.6465  163.4176 N   0  0  0  0  0  0  0  0  0  0  0  0
  155.3234  140.3652  163.4673 N   0  0  0  0  0  0  0  0  0  0  0  0
  155.2992  139.6577  162.1786 C   0  0  0  0  0  0  0  0  0  0  0  0
  154.9540  140.5729  160.9953 C   0  0  0  0  0  0  0  0  0  0  0  0
  155.8448  141.1066  160.3327 O   0  0  0  0  0  0  0  0  0  0  0  0
  153.6474  140.7339  160.7371 N   0  0  0  0  0  0  0  0  0  0  0  0
  153.0910  141.5815  159.6850 C   0  0  1  0  0  0  0  0  0  0  0  0
  151.7701  140.9760  159.1720 C   0  0  0  0  0  0  0  0  0  0  0  0
  151.1712  141.8245  158.0404 C   0  0  0  0  0  0  0  0  0  0  0  0
  150.9894  143.2892  158.4684 C   0  0  0  0  0  0  0  0  0  0  0  0
  152.3093  143.8931  158.9891 C   0  0  1  0  0  0  0  0  0  0  0  0
  152.1607  145.3867  159.3240 C   0  0  0  0  0  0  0  0  0  0  0  0
  152.9049  143.0528  160.1504 C   0  0  1  0  0  0  0  0  0  0  0  0
  152.1142  143.1779  161.4742 C   0  0  0  0  0  0  0  0  0  0  0  0
  155.8153  139.7685  164.5917 C   0  0  0  0  0  0  0  0  0  0  0  0
  156.2725  138.6243  164.5884 O   0  0  0  0  0  0  0  0  0  0  0  0
  155.7437  140.6154  165.7844 C   0  0  0  0  0  0  0  0  0  0  0  0
  156.2404  140.0260  166.9856 C   0  0  0  0  0  0  0  0  0  0  0  0
  156.6243  139.5493  167.9683 N   0  0  0  0  0  0  0  0  0  0  0  0
  155.2385  141.8741  165.7490 C   0  0  0  0  0  0  0  0  0  0  0  0
  155.1428  142.7930  166.9592 C   0  0  0  0  0  0  0  0  0  0  0  0
  154.9226  144.5301  164.4690 H   0  0  0  0  0  0  0  0  0  0  0  0
  153.3497  143.9332  165.0023 H   0  0  0  0  0  0  0  0  0  0  0  0
  153.7659  143.9126  163.2947 H   0  0  0  0  0  0  0  0  0  0  0  0
  156.2689  139.1989  161.9774 H   0  0  0  0  0  0  0  0  0  0  0  0
  154.5881  138.8304  162.2258 H   0  0  0  0  0  0  0  0  0  0  0  0
  152.9858  140.2521  161.3284 H   0  0  0  0  0  0  0  0  0  0  0  0
  153.7926  141.5757  158.8481 H   0  0  0  0  0  0  0  0  0  0  0  0
  151.9415  139.9612  158.8109 H   0  0  0  0  0  0  0  0  0  0  0  0
  151.0502  140.8920  159.9868 H   0  0  0  0  0  0  0  0  0  0  0  0
  151.8255  141.7796  157.1689 H   0  0  0  0  0  0  0  0  0  0  0  0
  150.2139  141.4063  157.7282 H   0  0  0  0  0  0  0  0  0  0  0  0
  150.6255  143.8690  157.6195 H   0  0  0  0  0  0  0  0  0  0  0  0
  150.2164  143.3557  159.2345 H   0  0  0  0  0  0  0  0  0  0  0  0
  153.0256  143.8407  158.1676 H   0  0  0  0  0  0  0  0  0  0  0  0
  151.3839  145.5609  160.0688 H   0  0  0  0  0  0  0  0  0  0  0  0
  151.8907  145.9581  158.4356 H   0  0  0  0  0  0  0  0  0  0  0  0
  153.0944  145.7991  159.7074 H   0  0  0  0  0  0  0  0  0  0  0  0
  153.8988  143.4546  160.3529 H   0  0  0  0  0  0  0  0  0  0  0  0
  151.0887  142.8237  161.3752 H   0  0  0  0  0  0  0  0  0  0  0  0
  152.0743  144.2104  161.8192 H   0  0  0  0  0  0  0  0  0  0  0  0
  152.5821  142.6075  162.2765 H   0  0  0  0  0  0  0  0  0  0  0  0
  155.6140  142.3626  167.8425 H   0  0  0  0  0  0  0  0  0  0  0  0
  154.0987  142.9895  167.2055 H   0  0  0  0  0  0  0  0  0  0  0  0
  155.6351  143.7456  166.7607 H   0  0  0  0  0  0  0  0  0  0  0  0
  1  2  1  0  0  0  0
  1 24  1  0  0  0  0
  1 25  1  0  0  0  0
  1 26  1  0  0  0  0
  2 22  1  0  0  0  0
  2  3  2  0  0  0  0
  3  4  1  0  0  0  0
  4  5  1  0  0  0  0
  4 17  1  0  0  0  0
  5  6  1  0  0  0  0
  5 27  1  0  0  0  0
  5 28  1  0  0  0  0
  6  7  2  0  0  0  0
  6  8  1  0  0  0  0
  8  9  1  0  0  0  0
  8 29  1  0  0  0  0
  9 15  1  0  0  0  0
  9 10  1  0  0  0  0
  9 30  1  0  0  0  0
 10 11  1  0  0  0  0
 10 31  1  0  0  0  0
 10 32  1  0  0  0  0
 11 12  1  0  0  0  0
 11 33  1  0  0  0  0
 11 34  1  0  0  0  0
 12 13  1  0  0  0  0
 12 35  1  0  0  0  0
 12 36  1  0  0  0  0
 13 14  1  0  0  0  0
 13 15  1  0  0  0  0
 13 37  1  0  0  0  0
 14 38  1  0  0  0  0
 14 39  1  0  0  0  0
 14 40  1  0  0  0  0
 15 16  1  0  0  0  0
 15 41  1  0  0  0  0
 16 42  1  0  0  0  0
 16 43  1  0  0  0  0
 16 44  1  0  0  0  0
 17 18  2  0  0  0  0
 17 19  1  0  0  0  0
 19 20  1  0  0  0  0
 19 22  2  0  0  0  0
 20 21  3  0  0  0  0
 22 23  1  0  0  0  0
 23 45  1  0  0  0  0
 23 46  1  0  0  0  0
 23 47  1  0  0  0  0
M  END
> <s_m_source_file>
AV-unprocessed.smi

> <i_m_source_file_index>
1662

> <i_lp_mmshare_version>
43012

> <i_f3d_flags>
0

> <s_epik_input>
TiNDYyhjMVtDSDNdKWMoPU8pbihuYzFbQ0gzXSlbQ0gyXUMoPU8pW05IXVtDQEBIXTJbQ0gyXVtDSDJdW0NIMl1bQ0BASF0oW0NIM10pW0NASF0yW0NIM10=

> <s_epik_cmdline>
J2VwaWtfcHl0aG9uJywgJy1waCcsICc3LjAnLCAnLXRuJywgJzgnLCAnLW1hJywgJzIwMCcsICctbWV0YWxfYmluZGluZycsICctaW1hZScsICc8aW5maWxlLm1hZT4nLCAnLW9tYWUnLCAnPG91dGZpbGUubWFlPic=

> <r_lp_tautomer_probability>
1

> <r_epik_Ionization_Penalty>
1.90709e-08

> <r_epik_Ionization_Penalty_Charging>
2.37982e-11

> <r_epik_Ionization_Penalty_Neutral>
1.90471e-08

> <r_epik_State_Penalty>
-0

> <r_epik_Charging_Adjusted_Penalty>
2.37982e-11

> <i_epik_Tot_Q>
0

> <i_epik_Tot_abs_Q>
0

> <r_epik_Metal_State_Penalty>
-0

> <b_epik_Metal_Only>
0

> <s_lp_Force_Field>
OPLS_2005

> <r_lp_Energy>
29.2459

> <b_lp_Chiralities_Consistent>
1

> <s_lp_Variant>
AV-unprocessed.smi:1662-2

> <Gold.Version>
5.8.1

> <Gold.Id.Protein>
6NUR|6NUR_protein|mol2

> <Gold.PLP.Fitness>
49.6182

> <Gold.PLP.PLP>
-51.2808

> <Gold.PLP.part.hbond>
-3.0000

> <Gold.PLP.part.metal>
0.0000

> <Gold.PLP.part.buried>
-4.5857

> <Gold.PLP.part.nonpolar>
-42.5044

> <Gold.PLP.part.repulsive>
0.1353

> <Gold.PLP.ligand.clash>
0.0000

> <Gold.PLP.ligand.torsion>
0.8377

> <Gold.PLP.Chemscore.Hbond>
0.0000

> <Gold.PLP.Chemscore.CHOScore>
0.0000

> <Gold.PLP.Chemscore.Metal>
0.0000

> <Gold.PLP.Chemscore.Internal.Correction>
0.0127

> <Gold.Rescore>
     Score         DG    S(hbond)    S(metal)    S(lipo)     H(rot)  DE(clash)    DE(int)     intcor
     15.53     -17.00       0.00        0.00     130.16       1.45       0.52       0.95       ----

> <Gold.Chemscore.Fitness>
15.5285

> <Gold.Chemscore.DG>
-16.9952

> <Gold.Chemscore.ZeroCoef>
-5.4800

> <Gold.Chemscore.Hbond>
0.0000

> <Gold.Chemscore.Metal>
0.0000

> <Gold.Chemscore.Lipo>
130.1553

> <Gold.Chemscore.Internal_Hbond>
0.0000

> <Gold.Chemscore.DEClash>
0.5215

> <Gold.Chemscore.DEInternal>
0.9453

> <Gold.Chemscore.Rot>
1.4504

> <Gold.Chemscore.Internal.Correction>
   9.000000E+99

> <Gold.Chemscore.Hbond.Weighted>
-0.0000

> <Gold.Chemscore.Metal.Weighted>
-0.0000

> <Gold.Chemscore.Lipo.Weighted>
-15.2282

> <Gold.Chemscore.Internal_Hbond.Weighted>
0.0000

> <Gold.Chemscore.DEClash.Weighted>
0.5215

> <Gold.Chemscore.DEInternal.Weighted>
0.9453

> <Gold.Chemscore.Rot.Weighted>
3.7129

> <Gold.Chemscore.Internal.Correction.Weighted>
   9.000000E+99

> <Gold.Protein.RotatedTorsions>
[ 6907 6896 6895 6894 ] final -106.52 input  -60.11 | X-H torsion
[ 7974 7965 7964 7962 ] final   16.00 input  175.53 | X-H torsion
[ 8008 7997 7996 7995 ] final  106.22 input   59.86 | X-H torsion
[ 10167 10162 10161 10158 ] final -108.41 input  -65.29 | X-H torsion
[ 10718 10713 10712 10709 ] final  -49.12 input   66.30 | X-H torsion
[ 10763 10752 10751 10750 ] final  110.96 input  -60.55 | X-H torsion
[ 11005 11000 10999 10996 ] final  145.24 input  -57.11 | X-H torsion

> <Gold.Protein.ActiveResidues>
 VAL166  LYS551  ARG553  GLY616  TRP617  ASP618  TYR619  PRO620  LYS621  CYS622 
 ASP623  PHE694  ASN695  SER759  ASP760  ASP761  ALA762  ILE779  LEU786  VAL792 
 PHE793  MET794  SER795  GLU796  ALA797  LYS798  CYS799  TRP800  GLU811  SER814 

> <Gold.Protein.RotatedAtoms>
  150.7393  133.9964  159.3623 H   0  0  0  0  0  0  0  0  0  0  0  0  # atno 6907 bound_to 6896
  151.7915  135.0732  160.0397 H   0  0  0  0  0  0  0  0  0  0  0  0  # atno 6908 bound_to 6896
  152.3204  133.5811  159.5777 H   0  0  0  0  0  0  0  0  0  0  0  0  # atno 6909 bound_to 6896
  146.2262  139.8812  142.8570 H   0  0  0  0  0  0  0  0  0  0  0  0  # atno 7974 bound_to 7965
  156.1725  140.3116  155.8999 H   0  0  0  0  0  0  0  0  0  0  0  0  # atno 8008 bound_to 7997
  155.3557  140.0473  157.3063 H   0  0  0  0  0  0  0  0  0  0  0  0  # atno 8009 bound_to 7997
  154.5255  140.2213  155.8908 H   0  0  0  0  0  0  0  0  0  0  0  0  # atno 8010 bound_to 7997
  140.1665  143.4078  152.1387 H   0  0  0  0  0  0  0  0  0  0  0  0  # atno 10167 bound_to 10162
  156.1923  130.4153  149.9354 H   0  0  0  0  0  0  0  0  0  0  0  0  # atno 10718 bound_to 10713
  153.4565  135.3732  155.2313 H   0  0  0  0  0  0  0  0  0  0  0  0  # atno 10763 bound_to 10752
  154.8757  135.3898  154.3976 H   0  0  0  0  0  0  0  0  0  0  0  0  # atno 10764 bound_to 10752
  153.4543  135.7086  153.6153 H   0  0  0  0  0  0  0  0  0  0  0  0  # atno 10765 bound_to 10752
  140.0696  134.9159  157.1323 H   0  0  0  0  0  0  0  0  0  0  0  0  # atno 11005 bound_to 11000
  145.2510  141.0044  143.3881 LP  0  0  0  0  0  0  0  0  0  0  0  0  # atno 17320 bound_to 7965
  144.9374  139.4228  143.6465 LP  0  0  0  0  0  0  0  0  0  0  0  0  # atno 17321 bound_to 7965
  139.5357  144.7207  151.4901 LP  0  0  0  0  0  0  0  0  0  0  0  0  # atno 17342 bound_to 10162
  140.6610  143.8499  150.6888 LP  0  0  0  0  0  0  0  0  0  0  0  0  # atno 17343 bound_to 10162
  156.7091  130.8963  151.3607 LP  0  0  0  0  0  0  0  0  0  0  0  0  # atno 17370 bound_to 10713
  157.6936  130.9259  150.0583 LP  0  0  0  0  0  0  0  0  0  0  0  0  # atno 17371 bound_to 10713
  140.3647  134.2456  155.7183 LP  0  0  0  0  0  0  0  0  0  0  0  0  # atno 17394 bound_to 11000
  141.2006  133.7982  157.0479 LP  0  0  0  0  0  0  0  0  0  0  0  0  # atno 17395 bound_to 11000

$$$$
