AV-unprocessed.smi:2604|AV-procd|sdf|10191|dock8
  -GOLD-   2272014203D 1   1.00000     0.00000
 Structure written by MMmdl.
 26 27  0  0  0  0  0  0  0  0  2 V2000
  152.4993  142.8235  159.7961 C   0  0  0  0  0  0  0  0  0  0  0  0
  152.7893  144.1177  159.3213 C   0  0  0  0  0  0  0  0  0  0  0  0
  152.3277  144.5944  158.1455 N   0  0  0  0  0  0  0  0  0  0  0  0
  151.5491  143.7856  157.3956 C   0  0  0  0  0  0  0  0  0  0  0  0
  151.1959  142.4721  157.7759 C   0  0  0  0  0  0  0  0  0  0  0  0
  150.3231  141.6151  156.8720 C   0  0  2  0  0  0  0  0  0  0  0  0
  150.9670  140.2519  156.5284 C   0  0  0  0  0  0  0  0  0  0  0  0
  150.0615  139.4698  155.6924 N   0  0  0  0  0  0  0  0  0  0  0  0
  149.8356  140.1865  154.4409 C   0  0  0  0  0  0  0  0  0  0  0  0
  149.1569  141.5387  154.7296 C   0  0  0  0  0  0  0  0  0  0  0  0
  150.0020  142.3498  155.6295 N   0  3  0  0  0  0  0  0  0  0  0  0
  151.6872  141.9860  159.0077 C   0  0  0  0  0  0  0  0  0  0  0  0
  152.8929  142.4816  160.7420 H   0  0  0  0  0  0  0  0  0  0  0  0
  153.4110  144.7860  159.8988 H   0  0  0  0  0  0  0  0  0  0  0  0
  151.2019  144.2011  156.4611 H   0  0  0  0  0  0  0  0  0  0  0  0
  149.3834  141.4286  157.3956 H   0  0  0  0  0  0  0  0  0  0  0  0
  151.9203  140.3759  156.0131 H   0  0  0  0  0  0  0  0  0  0  0  0
  151.1676  139.6923  157.4426 H   0  0  0  0  0  0  0  0  0  0  0  0
  150.4752  138.5684  155.4971 H   0  0  0  0  0  0  0  0  0  0  0  0
  150.7811  140.3287  153.9152 H   0  0  0  0  0  0  0  0  0  0  0  0
  149.1994  139.5793  153.7965 H   0  0  0  0  0  0  0  0  0  0  0  0
  148.9950  142.0882  153.8022 H   0  0  0  0  0  0  0  0  0  0  0  0
  148.1780  141.3874  155.1871 H   0  0  0  0  0  0  0  0  0  0  0  0
  149.5213  143.2075  155.8602 H   0  0  0  0  0  0  0  0  0  0  0  0
  151.4559  140.9864  159.3448 H   0  0  0  0  0  0  0  0  0  0  0  0
  150.8639  142.5710  155.1520 H   0  0  0  0  0  0  0  0  0  0  0  0
  1 12  1  0  0  0  0
  1  2  2  0  0  0  0
  1 13  1  0  0  0  0
  2  3  1  0  0  0  0
  2 14  1  0  0  0  0
  3  4  2  0  0  0  0
  4  5  1  0  0  0  0
  4 15  1  0  0  0  0
  5  6  1  0  0  0  0
  5 12  2  0  0  0  0
  6 11  1  0  0  0  0
  6  7  1  0  0  0  0
  6 16  1  0  0  0  0
  7  8  1  0  0  0  0
  7 17  1  0  0  0  0
  7 18  1  0  0  0  0
  8  9  1  0  0  0  0
  8 19  1  0  0  0  0
  9 10  1  0  0  0  0
  9 20  1  0  0  0  0
  9 21  1  0  0  0  0
 10 11  1  0  0  0  0
 10 22  1  0  0  0  0
 10 23  1  0  0  0  0
 11 24  1  0  0  0  0
 11 26  1  0  0  0  0
 12 25  1  0  0  0  0
M  CHG  1  11   1
M  END
> <s_m_source_file>
AV-unprocessed.smi

> <i_m_source_file_index>
2604

> <i_lp_mmshare_version>
43012

> <i_f3d_flags>
0

> <s_epik_input>
W2NIXTFbY0hdW2NIXW5bY0hdYzFbQ0BASF0yW0NIMl1bTkhdW0NIMl1bQ0gyXVtOSF0y

> <s_epik_cmdline>
J2VwaWtfcHl0aG9uJywgJy1waCcsICc3LjAnLCAnLXRuJywgJzgnLCAnLW1hJywgJzIwMCcsICctbWV0YWxfYmluZGluZycsICctaW1hZScsICc8aW5maWxlLm1hZT4nLCAnLW9tYWUnLCAnPG91dGZpbGUubWFlPic=

> <r_epik_Ionization_Penalty>
0.0278512

> <r_epik_Ionization_Penalty_Charging>
0.015072

> <r_epik_Ionization_Penalty_Neutral>
0.0127792

> <r_epik_State_Penalty>
0.548815

> <r_epik_Charging_Adjusted_Penalty>
0.563887

> <i_epik_Tot_Q>
1

> <i_epik_Tot_abs_Q>
1

> <r_epik_Metal_State_Penalty>
0.542887

> <b_epik_Metal_Only>
0

> <s_lp_Force_Field>
OPLS_2005

> <r_lp_Energy>
7.72855

> <b_lp_Chiralities_Consistent>
1

> <s_lp_Variant>
AV-unprocessed.smi:2604-3

> <Gold.Version>
5.8.1

> <Gold.Id.Protein>
6NUR|6NUR_protein|mol2

> <Gold.PLP.Fitness>
35.7859

> <Gold.PLP.PLP>
-26.8457

> <Gold.PLP.part.hbond>
-1.0000

> <Gold.PLP.part.metal>
0.0000

> <Gold.PLP.part.buried>
-1.5431

> <Gold.PLP.part.nonpolar>
-23.9690

> <Gold.PLP.part.repulsive>
0.2304

> <Gold.PLP.ligand.clash>
0.0000

> <Gold.PLP.ligand.torsion>
0.0359

> <Gold.PLP.Chemscore.Hbond>
2.0000

> <Gold.PLP.Chemscore.CHOScore>
1.0000

> <Gold.PLP.Chemscore.Metal>
0.0000

> <Gold.Chemscore.Hbonds>
donor molecule, donor type, donor heavy atom, donor atom, acceptor molecule, acceptor atom, score
      L1  H    11    24       P1  8028  2.00
      L1  C     4    15       P1  8028  1.00

> <Gold.PLP.Chemscore.Internal.Correction>
0.0121

> <Gold.Rescore>
     Score         DG    S(hbond)    S(metal)    S(lipo)     H(rot)  DE(clash)    DE(int)     intcor
     15.91     -16.05       1.00        0.00      83.72       1.00       0.13       0.01       ----

> <Gold.Chemscore.Fitness>
15.9135

> <Gold.Chemscore.DG>
-16.0538

> <Gold.Chemscore.ZeroCoef>
-5.4800

> <Gold.Chemscore.Hbond>
0.9997

> <Gold.Chemscore.Metal>
0.0000

> <Gold.Chemscore.Lipo>
83.7164

> <Gold.Chemscore.Internal_Hbond>
0.0000

> <Gold.Chemscore.DEClash>
0.1292

> <Gold.Chemscore.DEInternal>
0.0110

> <Gold.Chemscore.Rot>
1.0000

> <Gold.Chemscore.Internal.Correction>
   9.000000E+99

> <Gold.Chemscore.Hbonds>
donor molecule, donor type, donor heavy atom, donor atom, acceptor molecule, acceptor atom, score
      L1  H    11    24       P1  8028  0.99

> <Gold.Chemscore.Hbond.Weighted>
-3.3390

> <Gold.Chemscore.Metal.Weighted>
-0.0000

> <Gold.Chemscore.Lipo.Weighted>
-9.7948

> <Gold.Chemscore.Internal_Hbond.Weighted>
0.0000

> <Gold.Chemscore.DEClash.Weighted>
0.1292

> <Gold.Chemscore.DEInternal.Weighted>
0.0110

> <Gold.Chemscore.Rot.Weighted>
2.5600

> <Gold.Chemscore.Internal.Correction.Weighted>
   9.000000E+99

> <Gold.Protein.RotatedTorsions>
[ 6907 6896 6895 6894 ] final  154.61 input  -60.11 | X-H torsion
[ 7974 7965 7964 7962 ] final  -39.07 input  175.53 | X-H torsion
[ 8008 7997 7996 7995 ] final  -12.71 input   59.86 | X-H torsion
[ 10167 10162 10161 10158 ] final  109.63 input  -65.29 | X-H torsion
[ 10718 10713 10712 10709 ] final  -97.70 input   66.30 | X-H torsion
[ 10763 10752 10751 10750 ] final   47.44 input  -60.55 | X-H torsion
[ 11005 11000 10999 10996 ] final  174.54 input  -57.11 | X-H torsion

> <Gold.Protein.ActiveResidues>
 VAL166  LYS551  ARG553  GLY616  TRP617  ASP618  TYR619  PRO620  LYS621  CYS622 
 ASP623  PHE694  ASN695  SER759  ASP760  ASP761  ALA762  ILE779  LEU786  VAL792 
 PHE793  MET794  SER795  GLU796  ALA797  LYS798  CYS799  TRP800  GLU811  SER814 

> <Gold.Protein.RotatedAtoms>
  152.0559  133.4040  159.4396 H   0  0  0  0  0  0  0  0  0  0  0  0  # atno 6907 bound_to 6896
  150.6868  134.3255  159.4814 H   0  0  0  0  0  0  0  0  0  0  0  0  # atno 6908 bound_to 6896
  152.1070  134.9301  160.0618 H   0  0  0  0  0  0  0  0  0  0  0  0  # atno 6909 bound_to 6896
  146.0430  140.6583  142.9078 H   0  0  0  0  0  0  0  0  0  0  0  0  # atno 7974 bound_to 7965
  154.5354  140.2269  155.8732 H   0  0  0  0  0  0  0  0  0  0  0  0  # atno 8008 bound_to 7997
  156.1806  140.3101  155.9104 H   0  0  0  0  0  0  0  0  0  0  0  0  # atno 8009 bound_to 7997
  155.3366  140.0448  157.3034 H   0  0  0  0  0  0  0  0  0  0  0  0  # atno 8010 bound_to 7997
  139.6751  144.7123  151.1616 H   0  0  0  0  0  0  0  0  0  0  0  0  # atno 10167 bound_to 10162
  156.0089  130.5205  150.6413 H   0  0  0  0  0  0  0  0  0  0  0  0  # atno 10718 bound_to 10713
  152.9800  135.5976  154.3763 H   0  0  0  0  0  0  0  0  0  0  0  0  # atno 10763 bound_to 10752
  154.3432  135.2767  155.2413 H   0  0  0  0  0  0  0  0  0  0  0  0  # atno 10764 bound_to 10752
  154.4486  135.5995  153.6231 H   0  0  0  0  0  0  0  0  0  0  0  0  # atno 10765 bound_to 10752
  140.3524  134.7184  157.4276 H   0  0  0  0  0  0  0  0  0  0  0  0  # atno 11005 bound_to 11000
  144.7084  140.3942  143.7100 LP  0  0  0  0  0  0  0  0  0  0  0  0  # atno 17320 bound_to 7965
  145.6853  139.1627  143.2678 LP  0  0  0  0  0  0  0  0  0  0  0  0  # atno 17321 bound_to 7965
  140.7632  143.5784  150.8921 LP  0  0  0  0  0  0  0  0  0  0  0  0  # atno 17342 bound_to 10162
  139.9452  143.6336  152.3043 LP  0  0  0  0  0  0  0  0  0  0  0  0  # atno 17343 bound_to 10162
  157.4192  131.0834  151.1147 LP  0  0  0  0  0  0  0  0  0  0  0  0  # atno 17370 bound_to 10713
  157.1754  130.6286  149.5654 LP  0  0  0  0  0  0  0  0  0  0  0  0  # atno 17371 bound_to 10713
  140.0692  134.5886  155.8660 LP  0  0  0  0  0  0  0  0  0  0  0  0  # atno 17394 bound_to 11000
  141.2008  133.6615  156.5917 LP  0  0  0  0  0  0  0  0  0  0  0  0  # atno 17395 bound_to 11000

$$$$
