#       Name:                AV-unprocessed.smi:1645
#       Creating user name   scv26
#       Creation time:       Fri Mar 27 07:31:37 2020


#       File generated by GOLD software.
#

@<TRIPOS>MOLECULE
AV-unprocessed.smi:1645
    59    62     1
SMALL
NO_CHARGES


@<TRIPOS>ATOM
      1 ****        -0.5615   2.2389  -0.0255 O.2            1 S1                 0.0000
      2 ****        -1.0972   1.1334  -0.1628 C.2            1 S1                 0.0000
      3 ****        -0.3468   0.0215  -0.2588 N.am           1 S1                 0.0000
      4 ****         1.0681  -0.0988  -0.2385 C.ar           1 S1                 0.0000
      5 ****         1.6236  -1.3057   0.2373 C.ar           1 S1                 0.0000
      6 ****         3.0241  -1.4666   0.2653 C.ar           1 S1                 0.0000
      7 ****         3.8498  -0.4168  -0.1979 C.ar           1 S1                 0.0000
      8 ****         5.2490  -0.4779  -0.1954 N.3            1 S1                 0.0000
      9 ****         5.8133  -0.5512   1.1496 C.3            1 S1                 0.0000
     10 ****         7.3439  -0.4047   1.1066 C.3            1 S1                 0.0000
     11 ****         7.9664  -1.4389   0.1546 C.3            1 S1                 0.0000
     12 ****         7.3132  -1.3461  -1.2345 C.3            1 S1                 0.0000
     13 ****         5.7820  -1.4627  -1.1329 C.3            1 S1                 0.0000
     14 ****         3.2801   0.7132  -0.6696 N.pl3          1 S1                 1.0000
     15 ****         1.9443   0.9075  -0.7115 C.ar           1 S1                 0.0000
     16 ****        -2.4278   0.8588  -0.2178 N.pl3          1 S1                -1.0000
     17 ****        -3.4966   1.8601  -0.0938 C.3            1 S1                 0.0000
     18 ****        -3.9907   2.2666  -1.4963 C.3            1 S1                 0.0000
     19 ****        -5.1638   1.3196  -1.8261 C.3            1 S1                 0.0000
     20 ****        -5.3521   0.4828  -0.6239 N.4            1 S1                 1.0000
     21 ****        -6.7220  -0.0040  -0.3479 C.3            1 S1                 0.0000
     22 ****        -6.7062  -0.9086   0.9012 C.3            1 S1                 0.0000
     23 ****        -6.0628  -0.2032   2.1127 C.3            1 S1                 0.0000
     24 ****        -4.6649   0.3399   1.7592 C.3            1 S1                 0.0000
     25 ****        -4.7675   1.2311   0.5011 C.3            1 S1                 0.0000
     26 ****        -0.8601  -0.8476  -0.2711 H              1 S1                 0.0000
     27 ****         0.9827  -2.1006   0.5899 H              1 S1                 0.0000
     28 ****         3.4534  -2.3840   0.6403 H              1 S1                 0.0000
     29 ****         5.3829   0.2338   1.7731 H              1 S1                 0.0000
     30 ****         5.5468  -1.5051   1.6067 H              1 S1                 0.0000
     31 ****         7.6046   0.6012   0.7750 H              1 S1                 0.0000
     32 ****         7.7590  -0.5179   2.1086 H              1 S1                 0.0000
     33 ****         9.0426  -1.2816   0.0776 H              1 S1                 0.0000
     34 ****         7.8253  -2.4417   0.5600 H              1 S1                 0.0000
     35 ****         7.5762  -0.3940  -1.6979 H              1 S1                 0.0000
     36 ****         7.7056  -2.1268  -1.8864 H              1 S1                 0.0000
     37 ****         5.5084  -2.4660  -0.8033 H              1 S1                 0.0000
     38 ****         5.3334  -1.3153  -2.1162 H              1 S1                 0.0000
     39 ****         1.6324   1.8537  -1.1280 H              1 S1                 0.0000
     40 ****        -3.1949   2.7327   0.4870 H              1 S1                 0.0000
     41 ****        -4.3558   3.2939  -1.4678 H              1 S1                 0.0000
     42 ****        -3.2052   2.2323  -2.2530 H              1 S1                 0.0000
     43 ****        -6.0650   1.8953  -2.0442 H              1 S1                 0.0000
     44 ****        -4.9509   0.6876  -2.6891 H              1 S1                 0.0000
     45 ****        -7.3914   0.8439  -0.1951 H              1 S1                 0.0000
     46 ****        -7.0928  -0.5581  -1.2107 H              1 S1                 0.0000
     47 ****        -7.7210  -1.2219   1.1478 H              1 S1                 0.0000
     48 ****        -6.1484  -1.8194   0.6791 H              1 S1                 0.0000
     49 ****        -6.7019   0.6197   2.4352 H              1 S1                 0.0000
     50 ****        -5.9950  -0.8911   2.9558 H              1 S1                 0.0000
     51 ****        -4.2629   0.9034   2.6027 H              1 S1                 0.0000
     52 ****        -3.9905  -0.5023   1.5939 H              1 S1                 0.0000
     53 ****        -5.4476   2.0531   0.7357 H              1 S1                 0.0000
     54 ****        -4.7565  -0.3237  -0.7475 H              1 S1                 0.0000
     55 ****         3.8878   1.4583  -1.0103 H              1 S1                 0.0000
     56 ****         0.4352   2.3100   0.0147 LP             1 S1                 0.0000
     57 ****        -1.1248   3.0621   0.0453 LP             1 S1                 0.0000
     58 ****         5.5683   0.3998  -0.5528 LP             1 S1                 0.0000
     59 ****        -2.6990  -0.0942  -0.3525 LP             1 S1                 0.0000
@<TRIPOS>BOND
    1    1    2 2     
    2    2    3 am    
    3    2   16 1     
    4    3    4 1     
    5    3   26 1     
    6    4   15 ar    
    7    4    5 ar    
    8    5    6 ar    
    9    5   27 1     
   10    6    7 ar    
   11    6   28 1     
   12    7    8 1     
   13    7   14 ar    
   14    8   13 1     
   15    8    9 1     
   16    9   10 1     
   17    9   29 1     
   18    9   30 1     
   19   10   11 1     
   20   10   31 1     
   21   10   32 1     
   22   11   12 1     
   23   11   33 1     
   24   11   34 1     
   25   12   13 1     
   26   12   35 1     
   27   12   36 1     
   28   13   37 1     
   29   13   38 1     
   30   14   15 ar    
   31   14   55 1     
   32   15   39 1     
   33   16   17 1     
   34   17   25 1     
   35   17   18 1     
   36   17   40 1     
   37   18   19 1     
   38   18   41 1     
   39   18   42 1     
   40   19   20 1     
   41   19   43 1     
   42   19   44 1     
   43   20   25 1     
   44   20   21 1     
   45   20   54 1     
   46   21   22 1     
   47   21   45 1     
   48   21   46 1     
   49   22   23 1     
   50   22   47 1     
   51   22   48 1     
   52   23   24 1     
   53   23   49 1     
   54   23   50 1     
   55   24   25 1     
   56   24   51 1     
   57   24   52 1     
   58   25   53 1     
   59    1   56 1     
   60    1   57 1     
   61    8   58 1     
   62   16   59 1     
@<TRIPOS>SUBSTRUCTURE
      1 S1             1
@<TRIPOS>SET
LONE_PAIRS      STATIC     ATOMS    <user>   **** ""
4 56 57 58 59
DONOR_HYDROGENS      STATIC     ATOMS    <user>   **** ""
3 26 55 54
ATOM$BLUE        STATIC     ATOMS    COLORGROUP SYSTEM
4 56 57 58 59
ATOM$RED        STATIC     ATOMS    COLORGROUP SYSTEM
3 26 55 54
