#       Name:                AV-unprocessed.smi:1701
#       Creating user name   scv26
#       Creation time:       Fri Mar 27 08:01:48 2020


#       File generated by GOLD software.
#

@<TRIPOS>MOLECULE
AV-unprocessed.smi:1701
    57    59     1
SMALL
NO_CHARGES


@<TRIPOS>ATOM
      1 ****        -6.5282  -1.6066  -0.4368 C.3            1 S1                 0.0000
      2 ****        -6.3349  -1.1644   1.0213 C.3            1 S1                 0.0000
      3 ****        -5.5867   0.0872   1.1394 N.pl3          1 S1                 0.0000
      4 ****        -6.2876   1.3189   0.7684 C.3            1 S1                 0.0000
      5 ****        -5.9160   2.5140   1.6604 C.3            1 S1                 0.0000
      6 ****        -4.1939  -0.0018   0.9082 C.ar           1 S1                 0.0000
      7 ****        -3.3920  -1.0146   1.4873 C.ar           1 S1                 0.0000
      8 ****        -2.0092  -1.0566   1.2171 C.ar           1 S1                 0.0000
      9 ****        -1.4327  -0.0963   0.3614 C.ar           1 S1                 0.0000
     10 ****        -0.0311  -0.1649   0.1394 N.am           1 S1                 0.0000
     11 ****         0.7003   0.3018  -0.9028 C.2            1 S1                 0.0000
     12 ****         0.1215   0.8341  -1.8480 O.2            1 S1                 0.0000
     13 ****         2.0595   0.1488  -0.9004 N.pl3          1 S1                -1.0000
     14 ****         2.9257  -0.4486   0.1337 C.3            1 S1                 0.0000
     15 ****         3.0955  -1.9560  -0.1412 C.3            1 S1                 0.0000
     16 ****         4.3567  -2.0893  -1.0205 C.3            1 S1                 0.0000
     17 ****         4.8981  -0.7219  -1.1534 N.4            1 S1                 1.0000
     18 ****         6.3627  -0.5902  -1.3189 C.3            1 S1                 0.0000
     19 ****         6.7305   0.8959  -1.5044 C.3            1 S1                 0.0000
     20 ****         6.1699   1.7732  -0.3663 C.3            1 S1                 0.0000
     21 ****         4.6543   1.5559  -0.1944 C.3            1 S1                 0.0000
     22 ****         4.3739   0.0474  -0.0131 C.3            1 S1                 0.0000
     23 ****        -2.2706   0.9050  -0.1826 C.ar           1 S1                 0.0000
     24 ****        -3.5903   0.9083   0.1042 N.pl3          1 S1                 1.0000
     25 ****        -7.1020  -2.5320  -0.4847 H              1 S1                 0.0000
     26 ****        -5.5722  -1.7851  -0.9298 H              1 S1                 0.0000
     27 ****        -7.0684  -0.8548  -1.0130 H              1 S1                 0.0000
     28 ****        -7.3123  -1.0254   1.4847 H              1 S1                 0.0000
     29 ****        -5.8598  -1.9618   1.5905 H              1 S1                 0.0000
     30 ****        -6.0944   1.5547  -0.2788 H              1 S1                 0.0000
     31 ****        -7.3628   1.1516   0.8418 H              1 S1                 0.0000
     32 ****        -6.4870   3.3970   1.3737 H              1 S1                 0.0000
     33 ****        -4.8598   2.7721   1.5888 H              1 S1                 0.0000
     34 ****        -6.1380   2.3042   2.7070 H              1 S1                 0.0000
     35 ****        -3.8148  -1.7530   2.1512 H              1 S1                 0.0000
     36 ****        -1.3968  -1.8254   1.6657 H              1 S1                 0.0000
     37 ****         0.4908  -0.6785   0.8342 H              1 S1                 0.0000
     38 ****         2.5564  -0.2694   1.1442 H              1 S1                 0.0000
     39 ****         3.2579  -2.4807   0.8010 H              1 S1                 0.0000
     40 ****         2.2183  -2.4081  -0.6064 H              1 S1                 0.0000
     41 ****         5.0819  -2.7502  -0.5430 H              1 S1                 0.0000
     42 ****         4.1290  -2.4960  -2.0064 H              1 S1                 0.0000
     43 ****         6.8718  -1.0018  -0.4461 H              1 S1                 0.0000
     44 ****         6.6854  -1.1695  -2.1845 H              1 S1                 0.0000
     45 ****         7.8135   1.0072  -1.5621 H              1 S1                 0.0000
     46 ****         6.3337   1.2486  -2.4571 H              1 S1                 0.0000
     47 ****         6.6805   1.5284   0.5660 H              1 S1                 0.0000
     48 ****         6.3775   2.8248  -0.5658 H              1 S1                 0.0000
     49 ****         4.2941   2.1246   0.6644 H              1 S1                 0.0000
     50 ****         4.1388   1.9514  -1.0717 H              1 S1                 0.0000
     51 ****         4.9127  -0.2813   0.8787 H              1 S1                 0.0000
     52 ****        -1.9410   1.7103  -0.8218 H              1 S1                 0.0000
     53 ****         4.4570  -0.3232  -1.9703 H              1 S1                 0.0000
     54 ****        -4.1652   1.6435  -0.3073 H              1 S1                 0.0000
     55 ****        -0.8750   0.9180  -1.8410 LP             1 S1                 0.0000
     56 ****         0.6472   1.1831  -2.6238 LP             1 S1                 0.0000
     57 ****         2.5321   0.4894  -1.7132 LP             1 S1                 0.0000
@<TRIPOS>BOND
    1    1    2 1     
    2    1   25 1     
    3    1   26 1     
    4    1   27 1     
    5    2    3 1     
    6    2   28 1     
    7    2   29 1     
    8    3    4 1     
    9    3    6 1     
   10    4    5 1     
   11    4   30 1     
   12    4   31 1     
   13    5   32 1     
   14    5   33 1     
   15    5   34 1     
   16    6   24 ar    
   17    6    7 ar    
   18    7    8 ar    
   19    7   35 1     
   20    8    9 ar    
   21    8   36 1     
   22    9   10 1     
   23    9   23 ar    
   24   10   11 am    
   25   10   37 1     
   26   11   12 2     
   27   11   13 1     
   28   13   14 1     
   29   14   22 1     
   30   14   15 1     
   31   14   38 1     
   32   15   16 1     
   33   15   39 1     
   34   15   40 1     
   35   16   17 1     
   36   16   41 1     
   37   16   42 1     
   38   17   22 1     
   39   17   18 1     
   40   17   53 1     
   41   18   19 1     
   42   18   43 1     
   43   18   44 1     
   44   19   20 1     
   45   19   45 1     
   46   19   46 1     
   47   20   21 1     
   48   20   47 1     
   49   20   48 1     
   50   21   22 1     
   51   21   49 1     
   52   21   50 1     
   53   22   51 1     
   54   23   24 ar    
   55   23   52 1     
   56   24   54 1     
   57   12   55 1     
   58   12   56 1     
   59   13   57 1     
@<TRIPOS>SUBSTRUCTURE
      1 S1             1
@<TRIPOS>SET
LONE_PAIRS      STATIC     ATOMS    <user>   **** ""
3 55 56 57
DONOR_HYDROGENS      STATIC     ATOMS    <user>   **** ""
3 37 53 54
ATOM$BLUE        STATIC     ATOMS    COLORGROUP SYSTEM
3 55 56 57
ATOM$RED        STATIC     ATOMS    COLORGROUP SYSTEM
3 37 53 54
