AV-unprocessed.smi:644|AV-procd|sdf|3155|dock1
  -GOLD-   22720 0 73D 1   1.00000     0.00000
 Structure written by MMmdl.
 37 39  0  0  0  0  0  0  0  0  1 V2000
  151.5761  144.9991  160.3907 C   0  0  0  0  0  0  0  0  0  0  0  0
  152.1959  143.6129  160.3765 C   0  0  0  0  0  0  0  0  0  0  0  0
  153.0871  143.2485  161.4109 C   0  0  0  0  0  0  0  0  0  0  0  0
  153.6827  141.9685  161.4361 C   0  0  0  0  0  0  0  0  0  0  0  0
  154.5679  141.4062  162.3399 N   0  0  0  0  0  0  0  0  0  0  0  0
  154.7500  140.1960  161.8197 C   0  0  0  0  0  0  0  0  0  0  0  0
  154.0836  139.9057  160.6858 N   0  0  0  0  0  0  0  0  0  0  0  0
  154.1212  138.6596  159.9408 C   0  0  0  0  0  0  0  0  0  0  0  0
  152.7306  138.0091  159.8120 C   0  0  2  0  0  0  0  0  0  0  0  0
  152.8497  136.6067  159.9592 O   0  0  0  0  0  0  0  0  0  0  0  0
  152.0715  138.3186  158.4586 C   0  0  0  0  0  0  0  0  0  0  0  0
  153.2101  138.0542  157.0685 S   0  0  0  0  0  0  0  0  0  0  0  0
  152.1023  138.4882  155.7783 C   0  0  0  0  0  0  0  0  0  0  0  0
  151.8143  139.7505  155.4385 N   0  0  0  0  0  0  0  0  0  0  0  0
  150.9102  139.8152  154.3857 N   0  0  0  0  0  0  0  0  0  0  0  0
  150.5495  138.5964  153.9744 C   0  0  0  0  0  0  0  0  0  0  0  0
  151.2820  137.2527  154.8316 S   0  0  0  0  0  0  0  0  0  0  0  0
  153.3611  141.0561  160.3889 C   0  0  0  0  0  0  0  0  0  0  0  0
  152.4773  141.4074  159.3534 C   0  0  0  0  0  0  0  0  0  0  0  0
  151.8892  142.6897  159.3445 C   0  0  0  0  0  0  0  0  0  0  0  0
  150.9330  143.0587  158.2239 C   0  0  0  0  0  0  0  0  0  0  0  0
  151.9344  145.5864  161.2365 H   0  0  0  0  0  0  0  0  0  0  0  0
  150.4906  144.9312  160.4665 H   0  0  0  0  0  0  0  0  0  0  0  0
  151.8273  145.5403  159.4782 H   0  0  0  0  0  0  0  0  0  0  0  0
  153.3204  143.9509  162.1974 H   0  0  0  0  0  0  0  0  0  0  0  0
  155.4022  139.4762  162.2924 H   0  0  0  0  0  0  0  0  0  0  0  0
  154.5345  138.8673  158.9530 H   0  0  0  0  0  0  0  0  0  0  0  0
  154.8171  137.9782  160.4328 H   0  0  0  0  0  0  0  0  0  0  0  0
  152.0890  138.3795  160.6124 H   0  0  0  0  0  0  0  0  0  0  0  0
  153.4598  136.4297  160.6589 H   0  0  0  0  0  0  0  0  0  0  0  0
  151.2059  137.6720  158.3093 H   0  0  0  0  0  0  0  0  0  0  0  0
  151.7066  139.3464  158.4394 H   0  0  0  0  0  0  0  0  0  0  0  0
  149.8473  138.4884  153.1611 H   0  0  0  0  0  0  0  0  0  0  0  0
  152.2530  140.6943  158.5739 H   0  0  0  0  0  0  0  0  0  0  0  0
  150.7888  142.2274  157.5332 H   0  0  0  0  0  0  0  0  0  0  0  0
  151.3206  143.9037  157.6546 H   0  0  0  0  0  0  0  0  0  0  0  0
  149.9571  143.3304  158.6271 H   0  0  0  0  0  0  0  0  0  0  0  0
  1  2  1  0  0  0  0
  1 22  1  0  0  0  0
  1 23  1  0  0  0  0
  1 24  1  0  0  0  0
  2 20  1  0  0  0  0
  2  3  2  0  0  0  0
  3  4  1  0  0  0  0
  3 25  1  0  0  0  0
  4 18  2  0  0  0  0
  4  5  1  0  0  0  0
  5  6  2  0  0  0  0
  6  7  1  0  0  0  0
  6 26  1  0  0  0  0
  7  8  1  0  0  0  0
  7 18  1  0  0  0  0
  8  9  1  0  0  0  0
  8 27  1  0  0  0  0
  8 28  1  0  0  0  0
  9 10  1  0  0  0  0
  9 11  1  0  0  0  0
  9 29  1  0  0  0  0
 10 30  1  0  0  0  0
 11 12  1  0  0  0  0
 11 31  1  0  0  0  0
 11 32  1  0  0  0  0
 12 13  1  0  0  0  0
 13 17  1  0  0  0  0
 13 14  2  0  0  0  0
 14 15  1  0  0  0  0
 15 16  2  0  0  0  0
 16 17  1  0  0  0  0
 16 33  1  0  0  0  0
 18 19  1  0  0  0  0
 19 20  2  0  0  0  0
 19 34  1  0  0  0  0
 20 21  1  0  0  0  0
 21 35  1  0  0  0  0
 21 36  1  0  0  0  0
 21 37  1  0  0  0  0
M  END
> <s_m_source_file>
AV-unprocessed.smi

> <i_m_source_file_index>
644

> <i_lp_mmshare_version>
43012

> <i_f3d_flags>
0

> <s_epik_input>
W0NIM11jKFtjSF0xKWMoW0NIM10pW2NIXWMoYzEyKW4oW2NIXW4yKVtDSDJdW0NASF0oW09IXSlbQ0gyXVNjM25uW2NIXXMz

> <s_epik_cmdline>
J2VwaWtfcHl0aG9uJywgJy1waCcsICc3LjAnLCAnLXRuJywgJzgnLCAnLW1hJywgJzIwMCcsICctbWV0YWxfYmluZGluZycsICctaW1hZScsICc8aW5maWxlLm1hZT4nLCAnLW9tYWUnLCAnPG91dGZpbGUubWFlPic=

> <r_lp_tautomer_probability>
1

> <r_epik_Ionization_Penalty>
0.105397

> <r_epik_Ionization_Penalty_Charging>
0

> <r_epik_Ionization_Penalty_Neutral>
0.105397

> <r_epik_State_Penalty>
0.0952713

> <r_epik_Charging_Adjusted_Penalty>
0.0952713

> <i_epik_Tot_Q>
0

> <i_epik_Tot_abs_Q>
0

> <r_epik_Metal_State_Penalty>
0.0807681

> <b_epik_Metal_Only>
0

> <s_lp_Force_Field>
OPLS_2005

> <r_lp_Energy>
9.27729

> <b_lp_Chiralities_Consistent>
1

> <s_lp_Variant>
AV-unprocessed.smi:644-1

> <Gold.Version>
5.8.1

> <Gold.Id.Protein>
6NUR|6NUR_protein|mol2

> <Gold.PLP.Fitness>
53.3552

> <Gold.PLP.PLP>
-44.5848

> <Gold.PLP.part.hbond>
-3.6380

> <Gold.PLP.part.metal>
0.0000

> <Gold.PLP.part.buried>
-6.4669

> <Gold.PLP.part.nonpolar>
-34.1583

> <Gold.PLP.part.repulsive>
0.1250

> <Gold.PLP.ligand.clash>
0.0000

> <Gold.PLP.ligand.torsion>
0.9037

> <Gold.PLP.Chemscore.Hbond>
1.9760

> <Gold.PLP.Chemscore.CHOScore>
1.4876

> <Gold.PLP.Chemscore.Metal>
0.0000

> <Gold.Chemscore.Hbonds>
donor molecule, donor type, donor heavy atom, donor atom, acceptor molecule, acceptor atom, score
      P1  H  6896  6908       L1    10  0.98
      P1  H  7989  7998       L1    15  1.00
      L1  C    16    33       P1  7948  0.56
      L1  C    16    33       P1  7957  0.93

> <Gold.PLP.Chemscore.Internal.Correction>
0.1872

> <Gold.Rescore>
     Score         DG    S(hbond)    S(metal)    S(lipo)     H(rot)  DE(clash)    DE(int)     intcor
     18.59     -19.91       1.82        0.00     125.23       2.46       0.19       1.12       ----

> <Gold.Chemscore.Fitness>
18.5912

> <Gold.Chemscore.DG>
-19.9094

> <Gold.Chemscore.ZeroCoef>
-5.4800

> <Gold.Chemscore.Hbond>
1.8178

> <Gold.Chemscore.Metal>
0.0000

> <Gold.Chemscore.Lipo>
125.2347

> <Gold.Chemscore.Internal_Hbond>
0.0000

> <Gold.Chemscore.DEClash>
0.1945

> <Gold.Chemscore.DEInternal>
1.1237

> <Gold.Chemscore.Rot>
2.4588

> <Gold.Chemscore.Internal.Correction>
   9.000000E+99

> <Gold.Chemscore.Hbonds>
donor molecule, donor type, donor heavy atom, donor atom, acceptor molecule, acceptor atom, score
      P1  H  6896  6908       L1    10  0.37
      P1  H  7989  7998       L1    15  0.24

> <Gold.Chemscore.Hbond.Weighted>
-6.0715

> <Gold.Chemscore.Metal.Weighted>
-0.0000

> <Gold.Chemscore.Lipo.Weighted>
-14.6525

> <Gold.Chemscore.Internal_Hbond.Weighted>
0.0000

> <Gold.Chemscore.DEClash.Weighted>
0.1945

> <Gold.Chemscore.DEInternal.Weighted>
1.1237

> <Gold.Chemscore.Rot.Weighted>
6.2946

> <Gold.Chemscore.Internal.Correction.Weighted>
   9.000000E+99

> <Gold.Protein.RotatedTorsions>
[ 6907 6896 6895 6894 ] final -114.07 input  -60.11 | X-H torsion
[ 7974 7965 7964 7962 ] final   26.26 input  175.53 | X-H torsion
[ 8008 7997 7996 7995 ] final   53.53 input   59.86 | X-H torsion
[ 10167 10162 10161 10158 ] final   32.13 input  -65.29 | X-H torsion
[ 10718 10713 10712 10709 ] final   74.96 input   66.30 | X-H torsion
[ 10763 10752 10751 10750 ] final  147.34 input  -60.55 | X-H torsion
[ 11005 11000 10999 10996 ] final  -41.56 input  -57.11 | X-H torsion

> <Gold.Protein.ActiveResidues>
 VAL166  LYS551  ARG553  GLY616  TRP617  ASP618  TYR619  PRO620  LYS621  CYS622 
 ASP623  PHE694  ASN695  SER759  ASP760  ASP761  ALA762  ILE779  LEU786  VAL792 
 PHE793  MET794  SER795  GLU796  ALA797  LYS798  CYS799  TRP800  GLU811  SER814 

> <Gold.Protein.RotatedAtoms>
  150.7875  133.8854  159.3297 H   0  0  0  0  0  0  0  0  0  0  0  0  # atno 6907 bound_to 6896
  151.6701  135.0975  160.0206 H   0  0  0  0  0  0  0  0  0  0  0  0  # atno 6908 bound_to 6896
  152.3942  133.6684  159.6298 H   0  0  0  0  0  0  0  0  0  0  0  0  # atno 6909 bound_to 6896
  146.1847  139.7353  142.8875 H   0  0  0  0  0  0  0  0  0  0  0  0  # atno 7974 bound_to 7965
  155.4697  140.3465  155.4324 H   0  0  0  0  0  0  0  0  0  0  0  0  # atno 8008 bound_to 7997
  156.1108  140.1460  156.9370 H   0  0  0  0  0  0  0  0  0  0  0  0  # atno 8009 bound_to 7997
  154.4755  140.0886  156.7230 H   0  0  0  0  0  0  0  0  0  0  0  0  # atno 8010 bound_to 7997
  140.4526  144.1025  150.6195 H   0  0  0  0  0  0  0  0  0  0  0  0  # atno 10167 bound_to 10162
  157.6614  130.9703  150.1285 H   0  0  0  0  0  0  0  0  0  0  0  0  # atno 10718 bound_to 10713
  154.0368  135.2893  155.3361 H   0  0  0  0  0  0  0  0  0  0  0  0  # atno 10763 bound_to 10752
  154.6954  135.5210  153.8454 H   0  0  0  0  0  0  0  0  0  0  0  0  # atno 10764 bound_to 10752
  153.0617  135.6616  154.0576 H   0  0  0  0  0  0  0  0  0  0  0  0  # atno 10765 bound_to 10752
  141.0255  133.6843  156.2475 H   0  0  0  0  0  0  0  0  0  0  0  0  # atno 11005 bound_to 11000
  145.3975  141.0381  143.3089 LP  0  0  0  0  0  0  0  0  0  0  0  0  # atno 17320 bound_to 7965
  144.8375  139.5525  143.6915 LP  0  0  0  0  0  0  0  0  0  0  0  0  # atno 17321 bound_to 7965
  140.4189  143.2621  151.9741 LP  0  0  0  0  0  0  0  0  0  0  0  0  # atno 17342 bound_to 10162
  139.4798  144.5849  151.7870 LP  0  0  0  0  0  0  0  0  0  0  0  0  # atno 17343 bound_to 10162
  156.2138  130.3668  149.8638 LP  0  0  0  0  0  0  0  0  0  0  0  0  # atno 17370 bound_to 10713
  156.6509  130.8743  151.3531 LP  0  0  0  0  0  0  0  0  0  0  0  0  # atno 17371 bound_to 10713
  140.6499  134.5078  157.5576 LP  0  0  0  0  0  0  0  0  0  0  0  0  # atno 17394 bound_to 11000
  139.9173  134.8220  156.1325 LP  0  0  0  0  0  0  0  0  0  0  0  0  # atno 17395 bound_to 11000

$$$$
