AV-unprocessed.smi:72|AV-procd|sdf|752|dock9
  -GOLD-   2262017 93D 1   1.00000     0.00000
 Structure written by MMmdl.
 29 30  0  0  0  0  0  0  0  0  1 V2000
  153.6346  137.6453  156.0878 N   0  0  0  0  0  0  0  0  0  0  0  0
  152.6706  138.6097  155.8833 C   0  0  0  0  0  0  0  0  0  0  0  0
  151.8876  138.4726  154.7296 N   0  0  0  0  0  0  0  0  0  0  0  0
  150.9704  139.3674  154.5410 C   0  0  0  0  0  0  0  0  0  0  0  0
  150.7498  140.4413  155.4981 N   0  0  0  0  0  0  0  0  0  0  0  0
  149.7000  141.5245  155.2943 C   0  0  1  0  0  0  0  0  0  0  0  0
  149.1412  141.4281  154.0181 O   0  0  0  0  0  0  0  0  0  0  0  0
  147.9598  140.6381  154.0727 C   0  0  2  0  0  0  0  0  0  0  0  0
  147.0913  140.9074  152.8350 C   0  0  0  0  0  0  0  0  0  0  0  0
  146.2278  139.8144  152.6055 O   0  0  0  0  0  0  0  0  0  0  0  0
  147.3256  141.1049  155.3839 C   0  0  1  0  0  0  0  0  0  0  0  0
  146.5099  140.0852  155.9247 O   0  0  0  0  0  0  0  0  0  0  0  0
  148.5273  141.3718  156.2895 C   0  0  2  0  0  0  0  0  0  0  0  0
  148.3207  142.5546  157.0345 O   0  0  0  0  0  0  0  0  0  0  0  0
  151.6210  140.5464  156.6191 C   0  0  0  0  0  0  0  0  0  0  0  0
  151.5070  141.4875  157.4045 O   0  0  0  0  0  0  0  0  0  0  0  0
  152.5899  139.5494  156.7803 N   0  0  0  0  0  0  0  0  0  0  0  0
  150.2526  142.4615  155.3858 H   0  0  0  0  0  0  0  0  0  0  0  0
  148.2186  139.5799  154.1454 H   0  0  0  0  0  0  0  0  0  0  0  0
  146.7446  142.0143  155.2200 H   0  0  0  0  0  0  0  0  0  0  0  0
  148.7111  140.5345  156.9649 H   0  0  0  0  0  0  0  0  0  0  0  0
  154.2582  137.6432  156.8819 H   0  0  0  0  0  0  0  0  0  0  0  0
  153.7914  136.8732  155.4566 H   0  0  0  0  0  0  0  0  0  0  0  0
  150.3238  139.3658  153.6637 H   0  0  0  0  0  0  0  0  0  0  0  0
  146.4684  141.7874  152.9986 H   0  0  0  0  0  0  0  0  0  0  0  0
  147.7031  141.1016  151.9537 H   0  0  0  0  0  0  0  0  0  0  0  0
  145.3365  140.1282  152.6130 H   0  0  0  0  0  0  0  0  0  0  0  0
  145.6625  140.1285  155.5082 H   0  0  0  0  0  0  0  0  0  0  0  0
  148.2367  143.2777  156.4318 H   0  0  0  0  0  0  0  0  0  0  0  0
  1  2  1  0  0  0  0
  1 22  1  0  0  0  0
  1 23  1  0  0  0  0
  2 17  2  0  0  0  0
  2  3  1  0  0  0  0
  3  4  2  0  0  0  0
  4  5  1  0  0  0  0
  4 24  1  0  0  0  0
  5  6  1  0  0  0  0
  5 15  1  0  0  0  0
  6 18  1  0  0  0  0
  6 13  1  0  0  0  0
  6  7  1  0  0  0  0
  7  8  1  0  0  0  0
  8 19  1  0  0  0  0
  8  9  1  0  0  0  0
  8 11  1  0  0  0  0
  9 10  1  0  0  0  0
  9 25  1  0  0  0  0
  9 26  1  0  0  0  0
 10 27  1  0  0  0  0
 11 20  1  0  0  0  0
 11 12  1  0  0  0  0
 11 13  1  0  0  0  0
 12 28  1  0  0  0  0
 13 21  1  0  0  0  0
 13 14  1  0  0  0  0
 14 29  1  0  0  0  0
 15 16  2  0  0  0  0
 15 17  1  0  0  0  0
M  END
> <s_m_source_file>
AV-unprocessed.smi

> <i_m_source_file_index>
72

> <i_lp_mmshare_version>
43012

> <i_f3d_flags>
0

> <s_epik_input>
W05IMl1jMW5bY0hdbihjKD1PKW4xKVtDQEBIXTJPW0NASF0oW0NIMl1bT0hdKVtDQEBIXShbT0hdKVtDQEhdMltPSF0=

> <s_epik_cmdline>
J2VwaWtfcHl0aG9uJywgJy1waCcsICc3LjAnLCAnLXRuJywgJzgnLCAnLW1hJywgJzIwMCcsICctbWV0YWxfYmluZGluZycsICctaW1hZScsICc8aW5maWxlLm1hZT4nLCAnLW9tYWUnLCAnPG91dGZpbGUubWFlPic=

> <r_lp_tautomer_probability>
4.77166e-05

> <r_epik_Ionization_Penalty>
1.3546

> <r_epik_Ionization_Penalty_Charging>
1.46833e-10

> <r_epik_Ionization_Penalty_Neutral>
1.3546

> <r_epik_State_Penalty>
3.51908

> <r_epik_Charging_Adjusted_Penalty>
3.51908

> <i_epik_Tot_Q>
0

> <i_epik_Tot_abs_Q>
0

> <r_epik_Metal_State_Penalty>
3.44088

> <b_epik_Metal_Only>
1

> <s_epik_Chemistry_Notes>
This compound contains an acetal/aminal-like group ( X-CH(R)-Y where X, Y are N, S, or O) that may be acid/base labile, releasing an aldehyde.

> <s_lp_Force_Field>
OPLS_2005

> <r_lp_Energy>
23.1081

> <b_lp_Chiralities_Consistent>
1

> <s_lp_Variant>
AV-unprocessed.smi:72-90

> <Gold.Version>
5.8.1

> <Gold.Id.Protein>
6NUR|6NUR_protein|mol2

> <Gold.PLP.Fitness>
34.3324

> <Gold.PLP.PLP>
-22.2004

> <Gold.PLP.part.hbond>
-4.8306

> <Gold.PLP.part.metal>
0.0000

> <Gold.PLP.part.buried>
0.3067

> <Gold.PLP.part.nonpolar>
-17.4707

> <Gold.PLP.part.repulsive>
1.7022

> <Gold.PLP.ligand.clash>
0.0000

> <Gold.PLP.ligand.torsion>
0.5378

> <Gold.PLP.Chemscore.Hbond>
3.7137

> <Gold.PLP.Chemscore.CHOScore>
0.6748

> <Gold.PLP.Chemscore.Metal>
0.0000

> <Gold.Chemscore.Hbonds>
donor molecule, donor type, donor heavy atom, donor atom, acceptor molecule, acceptor atom, score
      L1  H    10    27       P1 10175  1.00
      L1  H    14    29       P1  8028  1.00
      P1  H  7997  8008       L1    17  0.90
      P1  H  8011  8017       L1     7  0.67
      L1  C     4    24       P1  7957  0.63

> <Gold.PLP.Chemscore.Internal.Correction>
0.0422

> <Gold.Rescore>
     Score         DG    S(hbond)    S(metal)    S(lipo)     H(rot)  DE(clash)    DE(int)     intcor
      5.45      -7.83       3.01        0.00      23.02       4.06       1.75       0.63       ----

> <Gold.Chemscore.Fitness>
5.4492

> <Gold.Chemscore.DG>
-7.8256

> <Gold.Chemscore.ZeroCoef>
-5.4800

> <Gold.Chemscore.Hbond>
3.0078

> <Gold.Chemscore.Metal>
0.0000

> <Gold.Chemscore.Lipo>
23.0181

> <Gold.Chemscore.Internal_Hbond>
0.0000

> <Gold.Chemscore.DEClash>
1.7473

> <Gold.Chemscore.DEInternal>
0.6291

> <Gold.Chemscore.Rot>
4.0600

> <Gold.Chemscore.Internal.Correction>
   9.000000E+99

> <Gold.Chemscore.Hbonds>
donor molecule, donor type, donor heavy atom, donor atom, acceptor molecule, acceptor atom, score
      L1  H    10    27       P1 10175  0.94
      L1  H    14    29       P1  8028  0.38
      P1  H  7997  8008       L1    17  0.17
      P1  H  8011  8017       L1     7  0.63

> <Gold.Chemscore.Hbond.Weighted>
-10.0461

> <Gold.Chemscore.Metal.Weighted>
-0.0000

> <Gold.Chemscore.Lipo.Weighted>
-2.6931

> <Gold.Chemscore.Internal_Hbond.Weighted>
0.0000

> <Gold.Chemscore.DEClash.Weighted>
1.7473

> <Gold.Chemscore.DEInternal.Weighted>
0.6291

> <Gold.Chemscore.Rot.Weighted>
10.3936

> <Gold.Chemscore.Internal.Correction.Weighted>
   9.000000E+99

> <Gold.Protein.RotatedTorsions>
[ 6907 6896 6895 6894 ] final  159.42 input  -60.11 | X-H torsion
[ 7974 7965 7964 7962 ] final    9.09 input  175.53 | X-H torsion
[ 8008 7997 7996 7995 ] final  -70.26 input   59.86 | X-H torsion
[ 10167 10162 10161 10158 ] final -117.03 input  -65.29 | X-H torsion
[ 10718 10713 10712 10709 ] final  101.51 input   66.30 | X-H torsion
[ 10763 10752 10751 10750 ] final  -38.25 input  -60.55 | X-H torsion
[ 11005 11000 10999 10996 ] final  -51.74 input  -57.11 | X-H torsion

> <Gold.Protein.ActiveResidues>
 VAL166  LYS551  ARG553  GLY616  TRP617  ASP618  TYR619  PRO620  LYS621  CYS622 
 ASP623  PHE694  ASN695  SER759  ASP760  ASP761  ALA762  ILE779  LEU786  VAL792 
 PHE793  MET794  SER795  GLU796  ALA797  LYS798  CYS799  TRP800  GLU811  SER814 

> <Gold.Protein.RotatedAtoms>
  151.9858  133.3773  159.4125 H   0  0  0  0  0  0  0  0  0  0  0  0  # atno 6907 bound_to 6896
  150.6928  134.3989  159.5119 H   0  0  0  0  0  0  0  0  0  0  0  0  # atno 6908 bound_to 6896
  152.1715  134.8830  160.0584 H   0  0  0  0  0  0  0  0  0  0  0  0  # atno 6909 bound_to 6896
  146.2408  139.9836  142.8433 H   0  0  0  0  0  0  0  0  0  0  0  0  # atno 7974 bound_to 7965
  154.4998  140.0838  156.7774 H   0  0  0  0  0  0  0  0  0  0  0  0  # atno 8008 bound_to 7997
  155.4029  140.3438  155.4240 H   0  0  0  0  0  0  0  0  0  0  0  0  # atno 8009 bound_to 7997
  156.1442  140.1538  156.8861 H   0  0  0  0  0  0  0  0  0  0  0  0  # atno 8010 bound_to 7997
  140.0728  143.4861  152.1970 H   0  0  0  0  0  0  0  0  0  0  0  0  # atno 10167 bound_to 10162
  157.6827  131.0728  150.5264 H   0  0  0  0  0  0  0  0  0  0  0  0  # atno 10718 bound_to 10713
  153.9098  135.6793  153.4751 H   0  0  0  0  0  0  0  0  0  0  0  0  # atno 10763 bound_to 10752
  153.1085  135.4794  154.8990 H   0  0  0  0  0  0  0  0  0  0  0  0  # atno 10764 bound_to 10752
  154.7533  135.3190  154.8472 H   0  0  0  0  0  0  0  0  0  0  0  0  # atno 10765 bound_to 10752
  141.0887  133.6637  156.3922 H   0  0  0  0  0  0  0  0  0  0  0  0  # atno 11005 bound_to 11000
  145.1569  140.9652  143.4400 LP  0  0  0  0  0  0  0  0  0  0  0  0  # atno 17320 bound_to 7965
  145.0153  139.3473  143.6100 LP  0  0  0  0  0  0  0  0  0  0  0  0  # atno 17321 bound_to 7965
  139.5826  144.7517  151.3602 LP  0  0  0  0  0  0  0  0  0  0  0  0  # atno 17342 bound_to 10162
  140.7117  143.7373  150.7579 LP  0  0  0  0  0  0  0  0  0  0  0  0  # atno 17343 bound_to 10162
  156.5575  130.4247  149.6078 LP  0  0  0  0  0  0  0  0  0  0  0  0  # atno 17370 bound_to 10713
  156.2849  130.7092  151.1926 LP  0  0  0  0  0  0  0  0  0  0  0  0  # atno 17371 bound_to 10713
  140.5302  134.6220  157.5347 LP  0  0  0  0  0  0  0  0  0  0  0  0  # atno 17394 bound_to 11000
  139.9709  134.7294  156.0043 LP  0  0  0  0  0  0  0  0  0  0  0  0  # atno 17395 bound_to 11000

$$$$
