AV-unprocessed.smi:1610|AV-procd|sdf|6470|dock6
  -GOLD-   22720 7123D 1   1.00000     0.00000
 Structure written by MMmdl.
 44 45  0  0  0  0  0  0  0  0  1 V2000
  148.0146  136.4284  158.2055 C   0  0  0  0  0  0  0  0  0  0  0  0
  149.4839  135.4402  157.7075 S   0  0  0  0  0  0  0  0  0  0  0  0
  150.6965  136.2344  157.9579 O   0  0  0  0  0  0  0  0  0  0  0  0
  149.3477  134.0911  158.2767 O   0  0  0  0  0  0  0  0  0  0  0  0
  149.2893  135.2986  155.9993 N   0  0  0  0  0  0  0  0  0  0  0  0
  149.7396  136.3588  155.0957 C   0  0  0  0  0  0  0  0  0  0  0  0
  151.2648  136.5530  155.2180 C   0  0  0  0  0  0  0  0  0  0  0  0
  151.7285  137.7752  154.4044 C   0  0  0  0  0  0  0  0  0  0  0  0
  150.9797  138.9619  154.8555 N   0  0  0  0  0  0  0  0  0  0  0  0
  151.4633  139.9750  155.6185 C   0  0  0  0  0  0  0  0  0  0  0  0
  152.5407  139.9165  156.2132 O   0  0  0  0  0  0  0  0  0  0  0  0
  150.6592  141.0484  155.7065 N   0  0  0  0  0  0  0  0  0  0  0  0
  150.9483  142.2538  156.4742 C   0  0  0  0  0  0  0  0  0  0  0  0
  151.4718  141.9157  157.8793 C   0  0  0  0  0  0  0  0  0  0  0  0
  151.6823  143.1567  158.7234 C   0  0  0  0  0  0  0  0  0  0  0  0
  152.2056  143.0615  160.0293 C   0  0  0  0  0  0  0  0  0  0  0  0
  152.3819  144.2417  160.7769 C   0  0  0  0  0  0  0  0  0  0  0  0
  152.0256  145.4698  160.1848 C   0  0  0  0  0  0  0  0  0  0  0  0
  151.5223  145.5729  158.9358 N   0  0  0  0  0  0  0  0  0  0  0  0
  151.3565  144.4362  158.2256 C   0  0  0  0  0  0  0  0  0  0  0  0
  149.5462  138.8294  154.5632 C   0  0  0  0  0  0  0  0  0  0  0  0
  148.9724  137.6633  155.3881 C   0  0  0  0  0  0  0  0  0  0  0  0
  148.0198  136.5621  159.2871 H   0  0  0  0  0  0  0  0  0  0  0  0
  147.1052  135.9053  157.9105 H   0  0  0  0  0  0  0  0  0  0  0  0
  148.0464  137.4049  157.7231 H   0  0  0  0  0  0  0  0  0  0  0  0
  148.4586  134.7861  155.7039 H   0  0  0  0  0  0  0  0  0  0  0  0
  149.5157  136.0636  154.0697 H   0  0  0  0  0  0  0  0  0  0  0  0
  151.5399  136.6935  156.2645 H   0  0  0  0  0  0  0  0  0  0  0  0
  151.7866  135.6582  154.8769 H   0  0  0  0  0  0  0  0  0  0  0  0
  152.8108  137.8773  154.4810 H   0  0  0  0  0  0  0  0  0  0  0  0
  151.5298  137.6108  153.3444 H   0  0  0  0  0  0  0  0  0  0  0  0
  149.7837  141.0259  155.2044 H   0  0  0  0  0  0  0  0  0  0  0  0
  151.6941  142.8319  155.9279 H   0  0  0  0  0  0  0  0  0  0  0  0
  150.0559  142.8790  156.5373 H   0  0  0  0  0  0  0  0  0  0  0  0
  150.7737  141.2557  158.3961 H   0  0  0  0  0  0  0  0  0  0  0  0
  152.4137  141.3704  157.8068 H   0  0  0  0  0  0  0  0  0  0  0  0
  152.4662  142.1022  160.4521 H   0  0  0  0  0  0  0  0  0  0  0  0
  152.7799  144.2068  161.7802 H   0  0  0  0  0  0  0  0  0  0  0  0
  152.1474  146.3940  160.7299 H   0  0  0  0  0  0  0  0  0  0  0  0
  150.9500  144.5517  157.2316 H   0  0  0  0  0  0  0  0  0  0  0  0
  148.9867  139.7428  154.7695 H   0  0  0  0  0  0  0  0  0  0  0  0
  149.4102  138.6365  153.4982 H   0  0  0  0  0  0  0  0  0  0  0  0
  147.9127  137.5335  155.1649 H   0  0  0  0  0  0  0  0  0  0  0  0
  149.0390  137.9061  156.4499 H   0  0  0  0  0  0  0  0  0  0  0  0
  1  2  1  0  0  0  0
  1 23  1  0  0  0  0
  1 24  1  0  0  0  0
  1 25  1  0  0  0  0
  2  3  2  0  0  0  0
  2  4  2  0  0  0  0
  2  5  1  0  0  0  0
  5  6  1  0  0  0  0
  5 26  1  0  0  0  0
  6 22  1  0  0  0  0
  6  7  1  0  0  0  0
  6 27  1  0  0  0  0
  7  8  1  0  0  0  0
  7 28  1  0  0  0  0
  7 29  1  0  0  0  0
  8  9  1  0  0  0  0
  8 30  1  0  0  0  0
  8 31  1  0  0  0  0
  9 10  1  0  0  0  0
  9 21  1  0  0  0  0
 10 11  2  0  0  0  0
 10 12  1  0  0  0  0
 12 13  1  0  0  0  0
 12 32  1  0  0  0  0
 13 14  1  0  0  0  0
 13 33  1  0  0  0  0
 13 34  1  0  0  0  0
 14 15  1  0  0  0  0
 14 35  1  0  0  0  0
 14 36  1  0  0  0  0
 15 20  1  0  0  0  0
 15 16  2  0  0  0  0
 16 17  1  0  0  0  0
 16 37  1  0  0  0  0
 17 18  2  0  0  0  0
 17 38  1  0  0  0  0
 18 19  1  0  0  0  0
 18 39  1  0  0  0  0
 19 20  2  0  0  0  0
 20 40  1  0  0  0  0
 21 22  1  0  0  0  0
 21 41  1  0  0  0  0
 21 42  1  0  0  0  0
 22 43  1  0  0  0  0
 22 44  1  0  0  0  0
M  END
> <s_m_source_file>
AV-unprocessed.smi

> <i_m_source_file_index>
1610

> <i_lp_mmshare_version>
43012

> <i_f3d_flags>
0

> <s_epik_input>
W0NIM11TKD1PKSg9TylbTkhdW0NIXTFbQ0gyXVtDSDJdTihbQ0gyXVtDSDJdMSlDKD1PKVtOSF1bQ0gyXVtDSDJdYzJbY0hdW2NIXVtjSF1uW2NIXTI=

> <s_epik_cmdline>
J2VwaWtfcHl0aG9uJywgJy1waCcsICc3LjAnLCAnLXRuJywgJzgnLCAnLW1hJywgJzIwMCcsICctbWV0YWxfYmluZGluZycsICctaW1hZScsICc8aW5maWxlLm1hZT4nLCAnLW9tYWUnLCAnPG91dGZpbGUubWFlPic=

> <r_epik_Ionization_Penalty>
0.0145188

> <r_epik_Ionization_Penalty_Charging>
0

> <r_epik_Ionization_Penalty_Neutral>
0.0145188

> <r_epik_State_Penalty>
0.0113046

> <r_epik_Charging_Adjusted_Penalty>
0.0113046

> <i_epik_Tot_Q>
0

> <i_epik_Tot_abs_Q>
0

> <r_epik_Metal_State_Penalty>
0.0179141

> <b_epik_Metal_Only>
0

> <s_lp_Force_Field>
OPLS_2005

> <r_lp_Energy>
22.3117

> <b_lp_Chiralities_Consistent>
1

> <s_lp_Variant>
AV-unprocessed.smi:1610-1

> <Gold.Version>
5.8.1

> <Gold.Id.Protein>
6NUR|6NUR_protein|mol2

> <Gold.PLP.Fitness>
49.7109

> <Gold.PLP.PLP>
-41.7102

> <Gold.PLP.part.hbond>
-3.8809

> <Gold.PLP.part.metal>
0.0000

> <Gold.PLP.part.buried>
-3.7713

> <Gold.PLP.part.nonpolar>
-33.8979

> <Gold.PLP.part.repulsive>
0.2952

> <Gold.PLP.ligand.clash>
0.6116

> <Gold.PLP.ligand.torsion>
0.7402

> <Gold.PLP.Chemscore.Hbond>
2.0000

> <Gold.PLP.Chemscore.CHOScore>
1.0000

> <Gold.PLP.Chemscore.Metal>
0.0000

> <Gold.Chemscore.Hbonds>
donor molecule, donor type, donor heavy atom, donor atom, acceptor molecule, acceptor atom, score
      P1  H  6896  6907       L1     4  1.00
      P1  H  7997  8008       L1    11  1.00
      L1  C    20    40       P1  8028  0.92

> <Gold.PLP.Chemscore.Internal.Correction>
1.0928

> <Gold.Rescore>
     Score         DG    S(hbond)    S(metal)    S(lipo)     H(rot)  DE(clash)    DE(int)     intcor
     15.91     -19.65       1.98        0.00     102.38       1.73       0.49       3.25       ----

> <Gold.Chemscore.Fitness>
15.9111

> <Gold.Chemscore.DG>
-19.6476

> <Gold.Chemscore.ZeroCoef>
-5.4800

> <Gold.Chemscore.Hbond>
1.9795

> <Gold.Chemscore.Metal>
0.0000

> <Gold.Chemscore.Lipo>
102.3815

> <Gold.Chemscore.Internal_Hbond>
0.0000

> <Gold.Chemscore.DEClash>
0.4868

> <Gold.Chemscore.DEInternal>
3.2497

> <Gold.Chemscore.Rot>
1.7276

> <Gold.Chemscore.Internal.Correction>
   9.000000E+99

> <Gold.Chemscore.Hbonds>
donor molecule, donor type, donor heavy atom, donor atom, acceptor molecule, acceptor atom, score
      P1  H  6896  6907       L1     4  0.55
      P1  H  7997  8008       L1    11  0.99

> <Gold.Chemscore.Hbond.Weighted>
-6.6116

> <Gold.Chemscore.Metal.Weighted>
-0.0000

> <Gold.Chemscore.Lipo.Weighted>
-11.9786

> <Gold.Chemscore.Internal_Hbond.Weighted>
0.0000

> <Gold.Chemscore.DEClash.Weighted>
0.4868

> <Gold.Chemscore.DEInternal.Weighted>
3.2497

> <Gold.Chemscore.Rot.Weighted>
4.4226

> <Gold.Chemscore.Internal.Correction.Weighted>
   9.000000E+99

> <Gold.Protein.RotatedTorsions>
[ 6907 6896 6895 6894 ] final -117.02 input  -60.11 | X-H torsion
[ 7974 7965 7964 7962 ] final  -93.36 input  175.53 | X-H torsion
[ 8008 7997 7996 7995 ] final  -31.32 input   59.86 | X-H torsion
[ 10167 10162 10161 10158 ] final  107.38 input  -65.29 | X-H torsion
[ 10718 10713 10712 10709 ] final -163.67 input   66.30 | X-H torsion
[ 10763 10752 10751 10750 ] final -148.89 input  -60.55 | X-H torsion
[ 11005 11000 10999 10996 ] final   70.17 input  -57.11 | X-H torsion

> <Gold.Protein.ActiveResidues>
 VAL166  LYS551  ARG553  GLY616  TRP617  ASP618  TYR619  PRO620  LYS621  CYS622 
 ASP623  PHE694  ASN695  SER759  ASP760  ASP761  ALA762  ILE779  LEU786  VAL792 
 PHE793  MET794  SER795  GLU796  ALA797  LYS798  CYS799  TRP800  GLU811  SER814 

> <Gold.Protein.RotatedAtoms>
  150.8102  133.8435  159.3185 H   0  0  0  0  0  0  0  0  0  0  0  0  # atno 6907 bound_to 6896
  151.6223  135.1029  160.0114 H   0  0  0  0  0  0  0  0  0  0  0  0  # atno 6908 bound_to 6896
  152.4194  133.7051  159.6503 H   0  0  0  0  0  0  0  0  0  0  0  0  # atno 6909 bound_to 6896
  145.3876  140.9525  143.2358 H   0  0  0  0  0  0  0  0  0  0  0  0  # atno 7974 bound_to 7965
  154.4218  140.1767  156.1548 H   0  0  0  0  0  0  0  0  0  0  0  0  # atno 8008 bound_to 7997
  155.9886  140.3371  155.6706 H   0  0  0  0  0  0  0  0  0  0  0  0  # atno 8009 bound_to 7997
  155.6404  140.0679  157.2611 H   0  0  0  0  0  0  0  0  0  0  0  0  # atno 8010 bound_to 7997
  139.6932  144.7105  151.1312 H   0  0  0  0  0  0  0  0  0  0  0  0  # atno 10167 bound_to 10162
  156.6281  130.8918  151.2972 H   0  0  0  0  0  0  0  0  0  0  0  0  # atno 10718 bound_to 10713
  154.8208  135.3323  154.7045 H   0  0  0  0  0  0  0  0  0  0  0  0  # atno 10763 bound_to 10752
  153.7678  135.6928  153.4917 H   0  0  0  0  0  0  0  0  0  0  0  0  # atno 10764 bound_to 10752
  153.2066  135.4497  155.0278 H   0  0  0  0  0  0  0  0  0  0  0  0  # atno 10765 bound_to 10752
  139.9612  134.7057  156.0642 H   0  0  0  0  0  0  0  0  0  0  0  0  # atno 11005 bound_to 11000
  144.8463  139.5392  143.6877 LP  0  0  0  0  0  0  0  0  0  0  0  0  # atno 17320 bound_to 7965
  146.2813  139.6884  142.9227 LP  0  0  0  0  0  0  0  0  0  0  0  0  # atno 17321 bound_to 7965
  140.7689  143.5529  150.9184 LP  0  0  0  0  0  0  0  0  0  0  0  0  # atno 17342 bound_to 10162
  139.9208  143.6608  152.3097 LP  0  0  0  0  0  0  0  0  0  0  0  0  # atno 17343 bound_to 10162
  157.7208  130.9556  150.1431 LP  0  0  0  0  0  0  0  0  0  0  0  0  # atno 17370 bound_to 10713
  156.2257  130.3677  149.8503 LP  0  0  0  0  0  0  0  0  0  0  0  0  # atno 17371 bound_to 10713
  141.1289  133.6591  156.3412 LP  0  0  0  0  0  0  0  0  0  0  0  0  # atno 17394 bound_to 11000
  140.5496  134.6041  157.5404 LP  0  0  0  0  0  0  0  0  0  0  0  0  # atno 17395 bound_to 11000

$$$$
