#       Name:                AV-unprocessed.smi:1396
#       Creating user name   scv26
#       Creation time:       Fri Mar 27 05:30:01 2020


#       File generated by GOLD software.
#

@<TRIPOS>MOLECULE
AV-unprocessed.smi:1396
    54    55     1
SMALL
NO_CHARGES


@<TRIPOS>ATOM
      1 ****        -6.8076  -3.2575   3.3505 C.3            1 S1                 0.0000
      2 ****        -6.2502  -2.3932   2.3212 N.am           1 S1                 0.0000
      3 ****        -4.9977  -2.4896   1.8535 C.2            1 S1                 0.0000
      4 ****        -4.1941  -3.3366   2.2454 O.2            1 S1                 0.0000
      5 ****        -4.5988  -1.4837   0.7684 C.3            1 S1                 0.0000
      6 ****        -3.1293  -1.2871   0.6694 N.4            1 S1                 1.0000
      7 ****        -2.5769  -0.4505   1.7688 C.3            1 S1                 0.0000
      8 ****        -1.0420  -0.3903   1.7020 C.3            1 S1                 0.0000
      9 ****        -0.5680   0.1382   0.3391 C.3            1 S1                 0.0000
     10 ****         0.8907   0.1144   0.2758 N.am           1 S1                 0.0000
     11 ****         1.6414   0.9002  -0.5099 C.2            1 S1                 0.0000
     12 ****         1.1672   1.7353  -1.2791 O.2            1 S1                 0.0000
     13 ****         2.9515   0.6592  -0.3279 N.am           1 S1                 0.0000
     14 ****         4.0683   1.2713  -0.9610 C.ar           1 S1                 0.0000
     15 ****         5.3354   1.0986  -0.3679 C.ar           1 S1                 0.0000
     16 ****         6.4651   1.6788  -0.9749 C.ar           1 S1                 0.0000
     17 ****         6.2939   2.4128  -2.1650 C.ar           1 S1                 0.0000
     18 ****         7.4031   2.9852  -2.7532 O.3            1 S1                 0.0000
     19 ****         7.2229   3.7336  -3.9505 C.3            1 S1                 0.0000
     20 ****         5.0825   2.5742  -2.7522 N.ar           1 S1                 0.0000
     21 ****         4.0027   2.0152  -2.1651 C.ar           1 S1                 0.0000
     22 ****        -1.1821  -0.7161  -0.7849 C.3            1 S1                 0.0000
     23 ****        -2.7144  -0.7789  -0.6634 C.3            1 S1                 0.0000
     24 ****        -7.8350  -2.9641   3.5664 H              1 S1                 0.0000
     25 ****        -6.2320  -3.1838   4.2742 H              1 S1                 0.0000
     26 ****        -6.8115  -4.2984   3.0243 H              1 S1                 0.0000
     27 ****        -6.8550  -1.6778   1.9437 H              1 S1                 0.0000
     28 ****        -4.9811  -1.8758  -0.1750 H              1 S1                 0.0000
     29 ****        -5.0935  -0.5248   0.9328 H              1 S1                 0.0000
     30 ****        -2.9939   0.5559   1.7061 H              1 S1                 0.0000
     31 ****        -2.8748  -0.8538   2.7370 H              1 S1                 0.0000
     32 ****        -0.6642   0.2471   2.5023 H              1 S1                 0.0000
     33 ****        -0.6330  -1.3863   1.8794 H              1 S1                 0.0000
     34 ****        -0.9150   1.1682   0.2337 H              1 S1                 0.0000
     35 ****         1.3632  -0.5419   0.8805 H              1 S1                 0.0000
     36 ****         3.1811  -0.0138   0.3886 H              1 S1                 0.0000
     37 ****         5.4438   0.5314   0.5451 H              1 S1                 0.0000
     38 ****         7.4451   1.5636  -0.5358 H              1 S1                 0.0000
     39 ****         8.1856   4.1241  -4.2799 H              1 S1                 0.0000
     40 ****         6.5577   4.5841  -3.7940 H              1 S1                 0.0000
     41 ****         6.8260   3.1113  -4.7537 H              1 S1                 0.0000
     42 ****         3.0784   2.1654  -2.6996 H              1 S1                 0.0000
     43 ****        -0.9095  -0.3094  -1.7595 H              1 S1                 0.0000
     44 ****        -0.7740  -1.7275  -0.7475 H              1 S1                 0.0000
     45 ****        -3.1077  -1.4304  -1.4446 H              1 S1                 0.0000
     46 ****        -3.1457   0.2100  -0.8274 H              1 S1                 0.0000
     47 ****        -2.7193  -2.2058   0.7639 H              1 S1                 0.0000
     48 ****        -4.4650  -3.9963   2.9464 LP             1 S1                 0.0000
     49 ****        -3.2707  -3.3646   1.8626 LP             1 S1                 0.0000
     50 ****         0.1760   1.8532  -1.3399 LP             1 S1                 0.0000
     51 ****         1.7730   2.2961  -1.8435 LP             1 S1                 0.0000
     52 ****         8.0431   2.2453  -2.9603 LP             1 S1                 0.0000
     53 ****         7.8115   3.6001  -2.0786 LP             1 S1                 0.0000
     54 ****         4.9909   3.0953  -3.6007 LP             1 S1                 0.0000
@<TRIPOS>BOND
    1    1    2 1     
    2    1   24 1     
    3    1   25 1     
    4    1   26 1     
    5    2    3 am    
    6    2   27 1     
    7    3    4 2     
    8    3    5 1     
    9    5    6 1     
   10    5   28 1     
   11    5   29 1     
   12    6   23 1     
   13    6    7 1     
   14    6   47 1     
   15    7    8 1     
   16    7   30 1     
   17    7   31 1     
   18    8    9 1     
   19    8   32 1     
   20    8   33 1     
   21    9   10 1     
   22    9   22 1     
   23    9   34 1     
   24   10   11 am    
   25   10   35 1     
   26   11   12 2     
   27   11   13 am    
   28   13   14 1     
   29   13   36 1     
   30   14   21 ar    
   31   14   15 ar    
   32   15   16 ar    
   33   15   37 1     
   34   16   17 ar    
   35   16   38 1     
   36   17   18 1     
   37   17   20 ar    
   38   18   19 1     
   39   19   39 1     
   40   19   40 1     
   41   19   41 1     
   42   20   21 ar    
   43   21   42 1     
   44   22   23 1     
   45   22   43 1     
   46   22   44 1     
   47   23   45 1     
   48   23   46 1     
   49    4   48 1     
   50    4   49 1     
   51   12   50 1     
   52   12   51 1     
   53   18   52 1     
   54   18   53 1     
   55   20   54 1     
@<TRIPOS>SUBSTRUCTURE
      1 S1             1
@<TRIPOS>SET
LONE_PAIRS      STATIC     ATOMS    <user>   **** ""
7 48 49 50 51 52 53 54
DONOR_HYDROGENS      STATIC     ATOMS    <user>   **** ""
4 27 47 35 36
ATOM$BLUE        STATIC     ATOMS    COLORGROUP SYSTEM
7 48 49 50 51 52 53 54
ATOM$RED        STATIC     ATOMS    COLORGROUP SYSTEM
4 27 47 35 36
