AV-unprocessed.smi:102|AV-procd|sdf|952|dock4
  -GOLD-   2262017483D 1   1.00000     0.00000
 Structure written by MMmdl.
 44 45  0  0  0  0  0  0  0  0  1 V2000
  152.3292  144.0737  161.2097 C   0  0  0  0  0  0  0  0  0  0  0  0
  152.0899  143.8503  159.7220 C   0  0  0  0  0  0  0  0  0  0  0  0
  153.0289  143.7077  158.9394 O   0  0  0  0  0  0  0  0  0  0  0  0
  150.7820  143.8329  159.4073 O   0  0  0  0  0  0  0  0  0  0  0  0
  150.3450  143.3708  158.1359 C   0  0  0  0  0  0  0  0  0  0  0  0
  150.8743  141.9530  157.8598 C   0  0  1  0  0  0  0  0  0  0  0  0
  150.5120  141.0545  158.9000 O   0  0  0  0  0  0  0  0  0  0  0  0
  150.5915  139.7391  158.4328 C   0  0  2  0  0  0  0  0  0  0  0  0
  151.7953  139.0437  159.0410 N   0  0  0  0  0  0  0  0  0  0  0  0
  153.0465  139.6439  159.1217 C   0  0  0  0  0  0  0  0  0  0  0  0
  154.1270  139.0231  159.6517 C   0  0  0  0  0  0  0  0  0  0  0  0
  155.3061  139.6663  159.6954 F   0  0  0  0  0  0  0  0  0  0  0  0
  154.0249  137.6641  160.1754 C   0  0  0  0  0  0  0  0  0  0  0  0
  154.9469  137.0203  160.6724 O   0  0  0  0  0  0  0  0  0  0  0  0
  152.7496  137.1015  160.0745 N   0  0  0  0  0  0  0  0  0  0  0  0
  151.6283  137.7291  159.5304 C   0  0  0  0  0  0  0  0  0  0  0  0
  150.5517  137.1357  159.4813 O   0  0  0  0  0  0  0  0  0  0  0  0
  150.6454  139.7959  156.8862 C   0  0  2  0  0  0  0  0  0  0  0  0
  151.9261  139.4340  156.3750 O   0  0  0  0  0  0  0  0  0  0  0  0
  152.0608  139.0096  155.1085 C   0  0  0  0  0  0  0  0  0  0  0  0
  153.4788  138.5460  154.8044 C   0  0  0  0  0  0  0  0  0  0  0  0
  151.1750  138.9753  154.2548 O   0  0  0  0  0  0  0  0  0  0  0  0
  150.3736  141.2653  156.5889 C   0  0  1  0  0  0  0  0  0  0  0  0
  148.9797  141.4761  156.3933 O   0  0  0  0  0  0  0  0  0  0  0  0
  148.4314  141.3093  155.1765 C   0  0  0  0  0  0  0  0  0  0  0  0
  146.9412  141.0061  155.2497 C   0  0  0  0  0  0  0  0  0  0  0  0
  149.0207  141.3852  154.0987 O   0  0  0  0  0  0  0  0  0  0  0  0
  152.6306  136.1610  160.4223 H   0  0  0  0  0  0  0  0  0  0  0  0
  152.6242  143.1395  161.6874 H   0  0  0  0  0  0  0  0  0  0  0  0
  151.4272  144.4429  161.6987 H   0  0  0  0  0  0  0  0  0  0  0  0
  153.1242  144.8046  161.3587 H   0  0  0  0  0  0  0  0  0  0  0  0
  149.2563  143.3342  158.1757 H   0  0  0  0  0  0  0  0  0  0  0  0
  150.5938  144.0623  157.3297 H   0  0  0  0  0  0  0  0  0  0  0  0
  151.9643  141.9855  157.8298 H   0  0  0  0  0  0  0  0  0  0  0  0
  149.7191  139.2041  158.8123 H   0  0  0  0  0  0  0  0  0  0  0  0
  153.1911  140.6479  158.7540 H   0  0  0  0  0  0  0  0  0  0  0  0
  149.8678  139.1429  156.4866 H   0  0  0  0  0  0  0  0  0  0  0  0
  153.7389  137.6927  155.4313 H   0  0  0  0  0  0  0  0  0  0  0  0
  154.1902  139.3490  154.9981 H   0  0  0  0  0  0  0  0  0  0  0  0
  153.5691  138.2479  153.7597 H   0  0  0  0  0  0  0  0  0  0  0  0
  150.9288  141.6221  155.7196 H   0  0  0  0  0  0  0  0  0  0  0  0
  146.4152  141.8179  155.7524 H   0  0  0  0  0  0  0  0  0  0  0  0
  146.7686  140.0835  155.8040 H   0  0  0  0  0  0  0  0  0  0  0  0
  146.5238  140.8918  154.2490 H   0  0  0  0  0  0  0  0  0  0  0  0
  1  2  1  0  0  0  0
  1 29  1  0  0  0  0
  1 30  1  0  0  0  0
  1 31  1  0  0  0  0
  2  3  2  0  0  0  0
  2  4  1  0  0  0  0
  4  5  1  0  0  0  0
  5  6  1  0  0  0  0
  5 32  1  0  0  0  0
  5 33  1  0  0  0  0
  6 23  1  0  0  0  0
  6  7  1  0  0  0  0
  6 34  1  0  0  0  0
  7  8  1  0  0  0  0
  8  9  1  0  0  0  0
  8 18  1  0  0  0  0
  8 35  1  0  0  0  0
  9 16  1  0  0  0  0
  9 10  1  0  0  0  0
 10 11  2  0  0  0  0
 10 36  1  0  0  0  0
 11 12  1  0  0  0  0
 11 13  1  0  0  0  0
 13 14  2  0  0  0  0
 13 15  1  0  0  0  0
 15 28  1  0  0  0  0
 15 16  1  0  0  0  0
 16 17  2  0  0  0  0
 18 19  1  0  0  0  0
 18 23  1  0  0  0  0
 18 37  1  0  0  0  0
 19 20  1  0  0  0  0
 20 21  1  0  0  0  0
 20 22  2  0  0  0  0
 21 38  1  0  0  0  0
 21 39  1  0  0  0  0
 21 40  1  0  0  0  0
 23 24  1  0  0  0  0
 23 41  1  0  0  0  0
 24 25  1  0  0  0  0
 25 26  1  0  0  0  0
 25 27  2  0  0  0  0
 26 42  1  0  0  0  0
 26 43  1  0  0  0  0
 26 44  1  0  0  0  0
M  END
> <s_m_source_file>
AV-unprocessed.smi

> <i_m_source_file_index>
102

> <i_lp_mmshare_version>
43012

> <i_f3d_flags>
0

> <s_epik_input>
W0NIM11DKD1PKU9bQ0gyXVtDQEBIXTFPW0NASF0oW0NAQEhdKE9DKD1PKVtDSDNdKVtDQEhdMU9DKD1PKVtDSDNdKW4yW2NIXWMoRiljKD1PKVtuSF1jMj1P

> <s_epik_cmdline>
J2VwaWtfcHl0aG9uJywgJy1waCcsICc3LjAnLCAnLXRuJywgJzgnLCAnLW1hJywgJzIwMCcsICctbWV0YWxfYmluZGluZycsICctaW1hZScsICc8aW5maWxlLm1hZT4nLCAnLW9tYWUnLCAnPG91dGZpbGUubWFlPic=

> <r_lp_tautomer_probability>
0.999537

> <r_epik_Ionization_Penalty>
0.058267

> <r_epik_Ionization_Penalty_Charging>
0.058267

> <r_epik_Ionization_Penalty_Neutral>
6.57791e-16

> <r_epik_State_Penalty>
0.0503774

> <r_epik_Charging_Adjusted_Penalty>
0.108644

> <i_epik_Tot_Q>
0

> <i_epik_Tot_abs_Q>
0

> <r_epik_Metal_State_Penalty>
2.6644

> <b_epik_Metal_Only>
0

> <s_epik_Chemistry_Notes>
This compound has an ester and may undergo hydrolysis at high or low pH. This compound contains an acetal/aminal-like group ( X-CH(R)-Y where X, Y are N, S, or O) that may be acid/base labile, releasing an aldehyde.

> <s_lp_Force_Field>
OPLS_2005

> <r_lp_Energy>
12.8015

> <b_lp_Chiralities_Consistent>
1

> <s_lp_Variant>
AV-unprocessed.smi:102-8

> <Gold.Version>
5.8.1

> <Gold.Id.Protein>
6NUR|6NUR_protein|mol2

> <Gold.PLP.Fitness>
40.9640

> <Gold.PLP.PLP>
-35.9908

> <Gold.PLP.part.hbond>
-4.3839

> <Gold.PLP.part.metal>
0.0000

> <Gold.PLP.part.buried>
-2.5393

> <Gold.PLP.part.nonpolar>
-30.9327

> <Gold.PLP.part.repulsive>
0.6499

> <Gold.PLP.ligand.clash>
0.0000

> <Gold.PLP.ligand.torsion>
1.4470

> <Gold.PLP.Chemscore.Hbond>
2.5810

> <Gold.PLP.Chemscore.CHOScore>
0.0000

> <Gold.PLP.Chemscore.Metal>
0.0000

> <Gold.Chemscore.Hbonds>
donor molecule, donor type, donor heavy atom, donor atom, acceptor molecule, acceptor atom, score
      P1  H  6896  6908       L1    17  0.68
      P1  H  7989  7998       L1    22  0.61
      P1  H  8011  8017       L1    27  0.44

> <Gold.PLP.Chemscore.Internal.Correction>
0.1243

> <Gold.Rescore>
     Score         DG    S(hbond)    S(metal)    S(lipo)     H(rot)  DE(clash)    DE(int)     intcor
      5.60     -10.00       2.23        0.00      63.70       4.05       2.64       1.75       ----

> <Gold.Chemscore.Fitness>
5.5992

> <Gold.Chemscore.DG>
-9.9959

> <Gold.Chemscore.ZeroCoef>
-5.4800

> <Gold.Chemscore.Hbond>
2.2265

> <Gold.Chemscore.Metal>
0.0000

> <Gold.Chemscore.Lipo>
63.6969

> <Gold.Chemscore.Internal_Hbond>
0.0000

> <Gold.Chemscore.DEClash>
2.6449

> <Gold.Chemscore.DEInternal>
1.7518

> <Gold.Chemscore.Rot>
4.0520

> <Gold.Chemscore.Internal.Correction>
   9.000000E+99

> <Gold.Chemscore.Hbonds>
donor molecule, donor type, donor heavy atom, donor atom, acceptor molecule, acceptor atom, score
      P1  H  6896  6908       L1    17  0.17
      P1  H  7989  7998       L1    22  0.06
      P1  H  8011  8017       L1    27  0.45

> <Gold.Chemscore.Hbond.Weighted>
-7.4366

> <Gold.Chemscore.Metal.Weighted>
-0.0000

> <Gold.Chemscore.Lipo.Weighted>
-7.4525

> <Gold.Chemscore.Internal_Hbond.Weighted>
0.0000

> <Gold.Chemscore.DEClash.Weighted>
2.6449

> <Gold.Chemscore.DEInternal.Weighted>
1.7518

> <Gold.Chemscore.Rot.Weighted>
10.3732

> <Gold.Chemscore.Internal.Correction.Weighted>
   9.000000E+99

> <Gold.Protein.RotatedTorsions>
[ 6907 6896 6895 6894 ] final -140.48 input  -60.11 | X-H torsion
[ 7974 7965 7964 7962 ] final  -63.64 input  175.53 | X-H torsion
[ 8008 7997 7996 7995 ] final  154.29 input   59.86 | X-H torsion
[ 10167 10162 10161 10158 ] final  -89.74 input  -65.29 | X-H torsion
[ 10718 10713 10712 10709 ] final    7.53 input   66.30 | X-H torsion
[ 10763 10752 10751 10750 ] final  -34.18 input  -60.55 | X-H torsion
[ 11005 11000 10999 10996 ] final   21.08 input  -57.11 | X-H torsion

> <Gold.Protein.ActiveResidues>
 VAL166  LYS551  ARG553  GLY616  TRP617  ASP618  TYR619  PRO620  LYS621  CYS622 
 ASP623  PHE694  ASN695  SER759  ASP760  ASP761  ALA762  ILE779  LEU786  VAL792 
 PHE793  MET794  SER795  GLU796  ALA797  LYS798  CYS799  TRP800  GLU811  SER814 

> <Gold.Protein.RotatedAtoms>
  151.0612  133.5542  159.2633 H   0  0  0  0  0  0  0  0  0  0  0  0  # atno 6907 bound_to 6896
  151.2517  135.0623  159.9074 H   0  0  0  0  0  0  0  0  0  0  0  0  # atno 6908 bound_to 6896
  152.5398  134.0372  159.8105 H   0  0  0  0  0  0  0  0  0  0  0  0  # atno 6909 bound_to 6896
  145.7766  140.8784  143.0352 H   0  0  0  0  0  0  0  0  0  0  0  0  # atno 7974 bound_to 7965
  156.2538  140.1970  156.6624 H   0  0  0  0  0  0  0  0  0  0  0  0  # atno 8008 bound_to 7997
  154.6454  140.0578  156.9920 H   0  0  0  0  0  0  0  0  0  0  0  0  # atno 8009 bound_to 7997
  155.1498  140.3250  155.4436 H   0  0  0  0  0  0  0  0  0  0  0  0  # atno 8010 bound_to 7997
  140.3618  143.2838  151.9606 H   0  0  0  0  0  0  0  0  0  0  0  0  # atno 10167 bound_to 10162
  156.9383  130.5851  149.5651 H   0  0  0  0  0  0  0  0  0  0  0  0  # atno 10718 bound_to 10713
  153.8424  135.6856  153.4801 H   0  0  0  0  0  0  0  0  0  0  0  0  # atno 10763 bound_to 10752
  153.1445  135.4643  154.9544 H   0  0  0  0  0  0  0  0  0  0  0  0  # atno 10764 bound_to 10752
  154.7839  135.3278  154.7877 H   0  0  0  0  0  0  0  0  0  0  0  0  # atno 10765 bound_to 10752
  140.3955  134.1773  155.7663 H   0  0  0  0  0  0  0  0  0  0  0  0  # atno 11005 bound_to 11000
  144.6803  139.9930  143.7484 LP  0  0  0  0  0  0  0  0  0  0  0  0  # atno 17320 bound_to 7965
  146.0116  139.3175  143.0867 LP  0  0  0  0  0  0  0  0  0  0  0  0  # atno 17321 bound_to 7965
  139.4813  144.5986  151.7646 LP  0  0  0  0  0  0  0  0  0  0  0  0  # atno 17342 bound_to 10162
  140.5120  144.1011  150.5998 LP  0  0  0  0  0  0  0  0  0  0  0  0  # atno 17343 bound_to 10162
  156.0416  130.5498  150.8784 LP  0  0  0  0  0  0  0  0  0  0  0  0  # atno 17370 bound_to 10713
  157.5802  131.0946  150.9283 LP  0  0  0  0  0  0  0  0  0  0  0  0  # atno 17371 bound_to 10713
  141.1875  133.8279  157.1028 LP  0  0  0  0  0  0  0  0  0  0  0  0  # atno 17394 bound_to 11000
  140.0375  134.9871  157.0898 LP  0  0  0  0  0  0  0  0  0  0  0  0  # atno 17395 bound_to 11000

$$$$
