AV-unprocessed.smi:1963|AV-procd|sdf|7926|dock2
  -GOLD-   2272010 93D 1   1.00000     0.00000
 Structure written by MMmdl.
 47 48  0  0  0  0  0  0  0  0  1 V2000
  152.8163  133.8652  164.8619 C   0  0  0  0  0  0  0  0  0  0  0  0
  153.9073  134.7590  164.2832 C   0  0  0  0  0  0  0  0  0  0  0  0
  154.5955  135.4561  165.0286 O   0  0  0  0  0  0  0  0  0  0  0  0
  154.0565  134.7272  162.9495 N   0  0  0  0  0  0  0  0  0  0  0  0
  155.0292  135.5123  162.1858 C   0  0  2  0  0  0  0  0  0  0  0  0
  154.2692  136.5190  161.2997 C   0  0  0  0  0  0  0  0  0  0  0  0
  153.5242  136.1124  160.4069 O   0  0  0  0  0  0  0  0  0  0  0  0
  154.4826  137.8170  161.5833 N   0  0  0  0  0  0  0  0  0  0  0  0
  153.9614  138.9662  160.9306 C   0  0  0  0  0  0  0  0  0  0  0  0
  154.2715  140.2301  161.4706 C   0  0  0  0  0  0  0  0  0  0  0  0
  153.7965  141.3882  160.8267 C   0  0  0  0  0  0  0  0  0  0  0  0
  153.0297  141.2425  159.6483 C   0  0  0  0  0  0  0  0  0  0  0  0
  152.5295  142.3525  158.9544 N   0  0  0  0  0  0  0  0  0  0  0  0
  152.8850  143.6370  159.5446 C   0  0  0  0  0  0  0  0  0  0  0  0
  152.4041  144.7809  158.6356 C   0  0  0  0  0  0  0  0  0  0  0  0
  151.0012  144.6565  158.4179 O   0  0  0  0  0  0  0  0  0  0  0  0
  150.6666  143.4298  157.7740 C   0  0  0  0  0  0  0  0  0  0  0  0
  151.1086  142.2453  158.6516 C   0  0  0  0  0  0  0  0  0  0  0  0
  152.7324  140.0355  159.1207 N   0  0  0  0  0  0  0  0  0  0  0  0
  153.1900  138.9283  159.7436 C   0  0  0  0  0  0  0  0  0  0  0  0
  155.8720  134.5478  161.2995 C   0  0  0  0  0  0  0  0  0  0  0  0
  156.9734  135.2970  160.5236 C   0  0  0  0  0  0  0  0  0  0  0  0
  155.0166  133.7393  160.3013 C   0  0  0  0  0  0  0  0  0  0  0  0
  151.8849  133.9869  164.3078 H   0  0  0  0  0  0  0  0  0  0  0  0
  152.6257  134.1143  165.9062 H   0  0  0  0  0  0  0  0  0  0  0  0
  153.1175  132.8189  164.8084 H   0  0  0  0  0  0  0  0  0  0  0  0
  153.4407  134.1287  162.4183 H   0  0  0  0  0  0  0  0  0  0  0  0
  155.6918  136.0433  162.8728 H   0  0  0  0  0  0  0  0  0  0  0  0
  155.0472  138.0018  162.3999 H   0  0  0  0  0  0  0  0  0  0  0  0
  154.8649  140.3149  162.3694 H   0  0  0  0  0  0  0  0  0  0  0  0
  154.0190  142.3636  161.2334 H   0  0  0  0  0  0  0  0  0  0  0  0
  152.4279  143.7359  160.5299 H   0  0  0  0  0  0  0  0  0  0  0  0
  153.9656  143.6940  159.6815 H   0  0  0  0  0  0  0  0  0  0  0  0
  152.6079  145.7446  159.1025 H   0  0  0  0  0  0  0  0  0  0  0  0
  152.9339  144.7693  157.6816 H   0  0  0  0  0  0  0  0  0  0  0  0
  149.5892  143.3962  157.6116 H   0  0  0  0  0  0  0  0  0  0  0  0
  151.1386  143.3834  156.7911 H   0  0  0  0  0  0  0  0  0  0  0  0
  150.9092  141.3037  158.1384 H   0  0  0  0  0  0  0  0  0  0  0  0
  150.5349  142.2357  159.5795 H   0  0  0  0  0  0  0  0  0  0  0  0
  152.9434  138.0008  159.2510 H   0  0  0  0  0  0  0  0  0  0  0  0
  156.3731  133.8288  161.9503 H   0  0  0  0  0  0  0  0  0  0  0  0
  156.5463  136.0554  159.8668 H   0  0  0  0  0  0  0  0  0  0  0  0
  157.5525  134.6118  159.9040 H   0  0  0  0  0  0  0  0  0  0  0  0
  157.6789  135.7934  161.1898 H   0  0  0  0  0  0  0  0  0  0  0  0
  154.4450  134.3988  159.6476 H   0  0  0  0  0  0  0  0  0  0  0  0
  154.3129  133.0756  160.8036 H   0  0  0  0  0  0  0  0  0  0  0  0
  155.6429  133.1099  159.6687 H   0  0  0  0  0  0  0  0  0  0  0  0
  1  2  1  0  0  0  0
  1 24  1  0  0  0  0
  1 25  1  0  0  0  0
  1 26  1  0  0  0  0
  2  3  2  0  0  0  0
  2  4  1  0  0  0  0
  4  5  1  0  0  0  0
  4 27  1  0  0  0  0
  5  6  1  0  0  0  0
  5 21  1  0  0  0  0
  5 28  1  0  0  0  0
  6  7  2  0  0  0  0
  6  8  1  0  0  0  0
  8  9  1  0  0  0  0
  8 29  1  0  0  0  0
  9 20  1  0  0  0  0
  9 10  2  0  0  0  0
 10 11  1  0  0  0  0
 10 30  1  0  0  0  0
 11 12  2  0  0  0  0
 11 31  1  0  0  0  0
 12 13  1  0  0  0  0
 12 19  1  0  0  0  0
 13 18  1  0  0  0  0
 13 14  1  0  0  0  0
 14 15  1  0  0  0  0
 14 32  1  0  0  0  0
 14 33  1  0  0  0  0
 15 16  1  0  0  0  0
 15 34  1  0  0  0  0
 15 35  1  0  0  0  0
 16 17  1  0  0  0  0
 17 18  1  0  0  0  0
 17 36  1  0  0  0  0
 17 37  1  0  0  0  0
 18 38  1  0  0  0  0
 18 39  1  0  0  0  0
 19 20  2  0  0  0  0
 20 40  1  0  0  0  0
 21 22  1  0  0  0  0
 21 23  1  0  0  0  0
 21 41  1  0  0  0  0
 22 42  1  0  0  0  0
 22 43  1  0  0  0  0
 22 44  1  0  0  0  0
 23 45  1  0  0  0  0
 23 46  1  0  0  0  0
 23 47  1  0  0  0  0
M  END
> <s_m_source_file>
AV-unprocessed.smi

> <i_m_source_file_index>
1963

> <i_lp_mmshare_version>
43012

> <i_f3d_flags>
0

> <s_epik_input>
W0NIM11DKD1PKVtOSF1bQ0BASF0oW0NIXShbQ0gzXSlbQ0gzXSlDKD1PKVtOSF1jMVtjSF1bY0hdYyhuW2NIXTEpTjJbQ0gyXVtDSDJdT1tDSDJdW0NIMl0y

> <s_epik_cmdline>
J2VwaWtfcHl0aG9uJywgJy1waCcsICc3LjAnLCAnLXRuJywgJzgnLCAnLW1hJywgJzIwMCcsICctbWV0YWxfYmluZGluZycsICctaW1hZScsICc8aW5maWxlLm1hZT4nLCAnLW9tYWUnLCAnPG91dGZpbGUubWFlPic=

> <r_lp_tautomer_probability>
1

> <r_epik_Ionization_Penalty>
0.00051446

> <r_epik_Ionization_Penalty_Charging>
0

> <r_epik_Ionization_Penalty_Neutral>
0.00051446

> <r_epik_State_Penalty>
0.00031949

> <r_epik_Charging_Adjusted_Penalty>
0.00031949

> <i_epik_Tot_Q>
0

> <i_epik_Tot_abs_Q>
0

> <r_epik_Metal_State_Penalty>
-0

> <b_epik_Metal_Only>
0

> <s_lp_Force_Field>
OPLS_2005

> <r_lp_Energy>
27.6856

> <b_lp_Chiralities_Consistent>
1

> <s_lp_Variant>
AV-unprocessed.smi:1963-1

> <Gold.Version>
5.8.1

> <Gold.Id.Protein>
6NUR|6NUR_protein|mol2

> <Gold.PLP.Fitness>
37.4394

> <Gold.PLP.PLP>
-34.8634

> <Gold.PLP.part.hbond>
-1.0000

> <Gold.PLP.part.metal>
0.0000

> <Gold.PLP.part.buried>
-5.1856

> <Gold.PLP.part.nonpolar>
-28.6944

> <Gold.PLP.part.repulsive>
0.2638

> <Gold.PLP.ligand.clash>
0.2033

> <Gold.PLP.ligand.torsion>
0.1813

> <Gold.PLP.Chemscore.Hbond>
1.0000

> <Gold.PLP.Chemscore.CHOScore>
0.0000

> <Gold.PLP.Chemscore.Metal>
0.0000

> <Gold.Chemscore.Hbonds>
donor molecule, donor type, donor heavy atom, donor atom, acceptor molecule, acceptor atom, score
      P1  H  6896  6908       L1     7  1.00

> <Gold.PLP.Chemscore.Internal.Correction>
0.1419

> <Gold.Rescore>
     Score         DG    S(hbond)    S(metal)    S(lipo)     H(rot)  DE(clash)    DE(int)     intcor
     12.26     -15.11       1.00        0.00      91.94       1.74       0.10       2.76       ----

> <Gold.Chemscore.Fitness>
12.2567

> <Gold.Chemscore.DG>
-15.1128

> <Gold.Chemscore.ZeroCoef>
-5.4800

> <Gold.Chemscore.Hbond>
0.9965

> <Gold.Chemscore.Metal>
0.0000

> <Gold.Chemscore.Lipo>
91.9421

> <Gold.Chemscore.Internal_Hbond>
0.0000

> <Gold.Chemscore.DEClash>
0.0987

> <Gold.Chemscore.DEInternal>
2.7574

> <Gold.Chemscore.Rot>
1.7394

> <Gold.Chemscore.Internal.Correction>
   9.000000E+99

> <Gold.Chemscore.Hbonds>
donor molecule, donor type, donor heavy atom, donor atom, acceptor molecule, acceptor atom, score
      P1  H  6896  6908       L1     7  1.00

> <Gold.Chemscore.Hbond.Weighted>
-3.3283

> <Gold.Chemscore.Metal.Weighted>
-0.0000

> <Gold.Chemscore.Lipo.Weighted>
-10.7572

> <Gold.Chemscore.Internal_Hbond.Weighted>
0.0000

> <Gold.Chemscore.DEClash.Weighted>
0.0987

> <Gold.Chemscore.DEInternal.Weighted>
2.7574

> <Gold.Chemscore.Rot.Weighted>
4.4528

> <Gold.Chemscore.Internal.Correction.Weighted>
   9.000000E+99

> <Gold.Protein.RotatedTorsions>
[ 6907 6896 6895 6894 ] final  -79.46 input  -60.11 | X-H torsion
[ 7974 7965 7964 7962 ] final   -5.06 input  175.53 | X-H torsion
[ 8008 7997 7996 7995 ] final   55.36 input   59.86 | X-H torsion
[ 10167 10162 10161 10158 ] final  118.47 input  -65.29 | X-H torsion
[ 10718 10713 10712 10709 ] final -103.66 input   66.30 | X-H torsion
[ 10763 10752 10751 10750 ] final   67.60 input  -60.55 | X-H torsion
[ 11005 11000 10999 10996 ] final   90.98 input  -57.11 | X-H torsion

> <Gold.Protein.ActiveResidues>
 VAL166  LYS551  ARG553  GLY616  TRP617  ASP618  TYR619  PRO620  LYS621  CYS622 
 ASP623  PHE694  ASN695  SER759  ASP760  ASP761  ALA762  ILE779  LEU786  VAL792 
 PHE793  MET794  SER795  GLU796  ALA797  LYS798  CYS799  TRP800  GLU811  SER814 

> <Gold.Protein.RotatedAtoms>
  150.6949  134.4117  159.5164 H   0  0  0  0  0  0  0  0  0  0  0  0  # atno 6907 bound_to 6896
  152.1875  134.8698  160.0530 H   0  0  0  0  0  0  0  0  0  0  0  0  # atno 6908 bound_to 6896
  151.9666  133.3677  159.4092 H   0  0  0  0  0  0  0  0  0  0  0  0  # atno 6909 bound_to 6896
  146.2360  140.1964  142.8333 H   0  0  0  0  0  0  0  0  0  0  0  0  # atno 7974 bound_to 7965
  155.4999  140.3474  155.4369 H   0  0  0  0  0  0  0  0  0  0  0  0  # atno 8008 bound_to 7997
  156.0920  140.1413  156.9607 H   0  0  0  0  0  0  0  0  0  0  0  0  # atno 8009 bound_to 7997
  154.4641  140.0924  156.6949 H   0  0  0  0  0  0  0  0  0  0  0  0  # atno 8010 bound_to 7997
  139.6109  144.7081  151.2846 H   0  0  0  0  0  0  0  0  0  0  0  0  # atno 10167 bound_to 10162
  156.0274  130.5478  150.7285 H   0  0  0  0  0  0  0  0  0  0  0  0  # atno 10718 bound_to 10713
  153.0194  135.5278  154.7004 H   0  0  0  0  0  0  0  0  0  0  0  0  # atno 10763 bound_to 10752
  154.6114  135.2879  155.0430 H   0  0  0  0  0  0  0  0  0  0  0  0  # atno 10764 bound_to 10752
  154.1450  135.6572  153.5003 H   0  0  0  0  0  0  0  0  0  0  0  0  # atno 10765 bound_to 10752
  139.8846  134.8647  156.3363 H   0  0  0  0  0  0  0  0  0  0  0  0  # atno 11005 bound_to 11000
  144.9817  140.8465  143.5393 LP  0  0  0  0  0  0  0  0  0  0  0  0  # atno 17320 bound_to 7965
  145.1958  139.2277  143.5218 LP  0  0  0  0  0  0  0  0  0  0  0  0  # atno 17321 bound_to 7965
  140.7318  143.6840  150.7977 LP  0  0  0  0  0  0  0  0  0  0  0  0  # atno 17342 bound_to 10162
  140.0435  143.5322  152.2707 LP  0  0  0  0  0  0  0  0  0  0  0  0  # atno 17343 bound_to 10162
  157.4883  131.0908  151.0456 LP  0  0  0  0  0  0  0  0  0  0  0  0  # atno 17370 bound_to 10713
  157.0870  130.5926  149.5432 LP  0  0  0  0  0  0  0  0  0  0  0  0  # atno 17371 bound_to 10713
  140.9689  133.7340  156.0506 LP  0  0  0  0  0  0  0  0  0  0  0  0  # atno 17394 bound_to 11000
  140.7896  134.3633  157.5468 LP  0  0  0  0  0  0  0  0  0  0  0  0  # atno 17395 bound_to 11000

$$$$
