AV-unprocessed.smi:250|AV-procd|sdf|1931|dock2
  -GOLD-   2262021 53D 1   1.00000     0.00000
 Structure written by MMmdl.
 56 60  0  0  0  0  0  0  0  0  1 V2000
  146.1408  131.5466  149.9853 C   0  0  0  0  0  0  0  0  0  0  0  0
  145.1097  132.4531  150.4729 N   0  0  0  0  0  0  0  0  0  0  0  0
  143.9107  132.7030  149.9058 C   0  0  0  0  0  0  0  0  0  0  0  0
  143.4876  132.2251  148.8551 O   0  0  0  0  0  0  0  0  0  0  0  0
  143.2453  133.5705  150.6879 N   0  0  0  0  0  0  0  0  0  0  0  0
  144.1358  134.1166  151.6849 C   0  0  1  0  0  0  0  0  0  0  0  0
  143.6348  134.5080  153.0724 C   0  0  0  0  0  0  0  0  0  0  0  0
  144.8067  134.9423  153.8501 N   0  0  0  0  0  0  0  0  0  0  0  0
  144.5193  135.6459  154.9735 C   0  0  0  0  0  0  0  0  0  0  0  0
  143.5302  136.5789  154.9508 N   0  0  0  0  0  0  0  0  0  0  0  0
  143.2463  137.2876  156.0473 C   0  0  0  0  0  0  0  0  0  0  0  0
  143.8168  137.2253  157.2517 N   0  0  0  0  0  0  0  0  0  0  0  0
  144.8055  136.2866  157.2842 C   0  0  0  0  0  0  0  0  0  0  0  0
  145.2120  135.4549  156.2025 C   0  0  0  0  0  0  0  0  0  0  0  0
  146.2241  134.5986  156.6196 N   0  0  0  0  0  0  0  0  0  0  0  0
  146.4121  134.9137  157.8714 C   0  0  0  0  0  0  0  0  0  0  0  0
  145.6193  135.9336  158.3477 N   0  0  0  0  0  0  0  0  0  0  0  0
  145.6226  136.4777  159.6979 C   0  0  0  0  0  0  0  0  0  0  0  0
  146.8182  136.0439  160.5999 C   0  0  0  0  0  0  0  0  0  0  0  0
  148.1780  136.2890  159.8785 C   0  0  0  0  0  0  0  0  0  0  0  0
  148.5036  137.6552  159.7199 O   0  0  0  0  0  0  0  0  0  0  0  0
  146.7618  136.7504  161.9789 C   0  0  0  0  0  0  0  0  0  0  0  0
  147.7198  136.1225  163.0053 C   0  0  0  0  0  0  0  0  0  0  0  0
  147.4092  134.7452  163.1710 O   0  0  0  0  0  0  0  0  0  0  0  0
  147.5821  133.9931  161.9774 C   0  0  0  0  0  0  0  0  0  0  0  0
  146.6506  134.5266  160.8709 C   0  0  0  0  0  0  0  0  0  0  0  0
  145.9853  134.0511  153.8808 C   0  0  0  0  0  0  0  0  0  0  0  0
  146.3913  133.5340  152.4733 C   0  0  0  0  0  0  0  0  0  0  0  0
  145.1216  132.9811  151.8235 C   0  0  2  0  0  0  0  0  0  0  0  0
  144.6092  134.9893  151.2272 H   0  0  0  0  0  0  0  0  0  0  0  0
  144.7156  132.1939  152.4646 H   0  0  0  0  0  0  0  0  0  0  0  0
  146.0180  131.3289  148.9235 H   0  0  0  0  0  0  0  0  0  0  0  0
  146.1049  130.6053  150.5339 H   0  0  0  0  0  0  0  0  0  0  0  0
  147.1290  131.9859  150.1218 H   0  0  0  0  0  0  0  0  0  0  0  0
  142.3302  133.9471  150.4881 H   0  0  0  0  0  0  0  0  0  0  0  0
  142.8874  135.2952  152.9856 H   0  0  0  0  0  0  0  0  0  0  0  0
  143.1573  133.6629  153.5701 H   0  0  0  0  0  0  0  0  0  0  0  0
  142.4496  138.0096  155.9444 H   0  0  0  0  0  0  0  0  0  0  0  0
  147.1495  134.4160  158.4843 H   0  0  0  0  0  0  0  0  0  0  0  0
  145.5963  137.5645  159.6079 H   0  0  0  0  0  0  0  0  0  0  0  0
  144.6803  136.2005  160.1726 H   0  0  0  0  0  0  0  0  0  0  0  0
  149.0061  135.8414  160.4246 H   0  0  0  0  0  0  0  0  0  0  0  0
  148.1756  135.8164  158.8959 H   0  0  0  0  0  0  0  0  0  0  0  0
  149.2535  137.7210  159.1484 H   0  0  0  0  0  0  0  0  0  0  0  0
  146.9701  137.8163  161.8869 H   0  0  0  0  0  0  0  0  0  0  0  0
  145.7494  136.6786  162.3782 H   0  0  0  0  0  0  0  0  0  0  0  0
  148.7617  136.2449  162.7072 H   0  0  0  0  0  0  0  0  0  0  0  0
  147.6088  136.6214  163.9680 H   0  0  0  0  0  0  0  0  0  0  0  0
  148.6281  134.0084  161.6722 H   0  0  0  0  0  0  0  0  0  0  0  0
  147.3415  132.9511  162.1890 H   0  0  0  0  0  0  0  0  0  0  0  0
  145.6243  134.3234  161.1804 H   0  0  0  0  0  0  0  0  0  0  0  0
  146.8040  133.9574  159.9532 H   0  0  0  0  0  0  0  0  0  0  0  0
  146.8306  134.5739  154.3304 H   0  0  0  0  0  0  0  0  0  0  0  0
  145.7607  133.2000  154.5252 H   0  0  0  0  0  0  0  0  0  0  0  0
  146.8145  134.3410  151.8737 H   0  0  0  0  0  0  0  0  0  0  0  0
  147.1556  132.7617  152.5599 H   0  0  0  0  0  0  0  0  0  0  0  0
  1  2  1  0  0  0  0
  1 32  1  0  0  0  0
  1 33  1  0  0  0  0
  1 34  1  0  0  0  0
  2 29  1  0  0  0  0
  2  3  1  0  0  0  0
  3  4  2  0  0  0  0
  3  5  1  0  0  0  0
  5  6  1  0  0  0  0
  5 35  1  0  0  0  0
  6 30  1  0  0  0  0
  6 29  1  0  0  0  0
  6  7  1  0  0  0  0
  7  8  1  0  0  0  0
  7 36  1  0  0  0  0
  7 37  1  0  0  0  0
  8  9  1  0  0  0  0
  8 27  1  0  0  0  0
  9 14  1  0  0  0  0
  9 10  2  0  0  0  0
 10 11  1  0  0  0  0
 11 12  2  0  0  0  0
 11 38  1  0  0  0  0
 12 13  1  0  0  0  0
 13 17  1  0  0  0  0
 13 14  2  0  0  0  0
 14 15  1  0  0  0  0
 15 16  2  0  0  0  0
 16 17  1  0  0  0  0
 16 39  1  0  0  0  0
 17 18  1  0  0  0  0
 18 19  1  0  0  0  0
 18 40  1  0  0  0  0
 18 41  1  0  0  0  0
 19 26  1  0  0  0  0
 19 20  1  0  0  0  0
 19 22  1  0  0  0  0
 20 21  1  0  0  0  0
 20 42  1  0  0  0  0
 20 43  1  0  0  0  0
 21 44  1  0  0  0  0
 22 23  1  0  0  0  0
 22 45  1  0  0  0  0
 22 46  1  0  0  0  0
 23 24  1  0  0  0  0
 23 47  1  0  0  0  0
 23 48  1  0  0  0  0
 24 25  1  0  0  0  0
 25 26  1  0  0  0  0
 25 49  1  0  0  0  0
 25 50  1  0  0  0  0
 26 51  1  0  0  0  0
 26 52  1  0  0  0  0
 27 28  1  0  0  0  0
 27 53  1  0  0  0  0
 27 54  1  0  0  0  0
 28 29  1  0  0  0  0
 28 55  1  0  0  0  0
 28 56  1  0  0  0  0
 29 31  1  0  0  0  0
M  END
> <s_m_source_file>
AV-unprocessed.smi

> <i_m_source_file_index>
250

> <i_lp_mmshare_version>
43012

> <i_f3d_flags>
0

> <s_epik_input>
Tz1DKFtOSF0xKU4oW0NIM10pW0NASF0oW0NASF0xMilbQ0gyXVtDSDJdTihbQ0gyXTIpYyhuW2NIXW4zKWMoYzM0KW5bY0hdbjRbQ0gyXUM1KFtDSDJdW09IXSlbQ0gyXVtDSDJdT1tDSDJdW0NIMl01

> <s_epik_cmdline>
J2VwaWtfcHl0aG9uJywgJy1waCcsICc3LjAnLCAnLXRuJywgJzgnLCAnLW1hJywgJzIwMCcsICctbWV0YWxfYmluZGluZycsICctaW1hZScsICc8aW5maWxlLm1hZT4nLCAnLW9tYWUnLCAnPG91dGZpbGUubWFlPic=

> <r_lp_tautomer_probability>
1

> <r_epik_Ionization_Penalty>
0.00229024

> <r_epik_Ionization_Penalty_Charging>
0

> <r_epik_Ionization_Penalty_Neutral>
0.00229024

> <r_epik_State_Penalty>
0.0013961

> <r_epik_Charging_Adjusted_Penalty>
0.0013961

> <i_epik_Tot_Q>
0

> <i_epik_Tot_abs_Q>
0

> <r_epik_Metal_State_Penalty>
-0

> <b_epik_Metal_Only>
0

> <s_lp_Force_Field>
OPLS_2005

> <r_lp_Energy>
73.7244

> <b_lp_Chiralities_Consistent>
1

> <s_lp_Variant>
AV-unprocessed.smi:250-2

> <Gold.Version>
5.8.1

> <Gold.Id.Protein>
6NUR|6NUR_protein|mol2

> <Gold.PLP.Fitness>
43.7126

> <Gold.PLP.PLP>
-37.2788

> <Gold.PLP.part.hbond>
-4.9625

> <Gold.PLP.part.metal>
0.0000

> <Gold.PLP.part.buried>
-4.9348

> <Gold.PLP.part.nonpolar>
-28.4170

> <Gold.PLP.part.repulsive>
0.3402

> <Gold.PLP.ligand.clash>
0.0000

> <Gold.PLP.ligand.torsion>
0.5194

> <Gold.PLP.Chemscore.Hbond>
2.3866

> <Gold.PLP.Chemscore.CHOScore>
0.0000

> <Gold.PLP.Chemscore.Metal>
0.0000

> <Gold.Chemscore.Hbonds>
donor molecule, donor type, donor heavy atom, donor atom, acceptor molecule, acceptor atom, score
      L1  H     5    35       P1 10186  1.00
      P1  H  6931  6943       L1    21  0.10
      P1  H  6934  6947       L1    21  0.19
      P1  H 10785 10796       L1     4  0.72

> <Gold.PLP.Chemscore.Internal.Correction>
0.3129

> <Gold.Rescore>
     Score         DG    S(hbond)    S(metal)    S(lipo)     H(rot)  DE(clash)    DE(int)     intcor
     12.59     -16.42       2.37        0.00      74.28       2.22       0.73       3.10       ----

> <Gold.Chemscore.Fitness>
12.5946

> <Gold.Chemscore.DG>
-16.4235

> <Gold.Chemscore.ZeroCoef>
-5.4800

> <Gold.Chemscore.Hbond>
2.3738

> <Gold.Chemscore.Metal>
0.0000

> <Gold.Chemscore.Lipo>
74.2770

> <Gold.Chemscore.Internal_Hbond>
0.0000

> <Gold.Chemscore.DEClash>
0.7294

> <Gold.Chemscore.DEInternal>
3.0994

> <Gold.Chemscore.Rot>
2.2170

> <Gold.Chemscore.Internal.Correction>
   9.000000E+99

> <Gold.Chemscore.Hbonds>
donor molecule, donor type, donor heavy atom, donor atom, acceptor molecule, acceptor atom, score
      L1  H     5    35       P1 10186  0.85
      P1  H  6931  6943       L1    21  0.03
      P1  H  6934  6947       L1    21  0.16
      P1  H 10785 10796       L1     4  0.66

> <Gold.Chemscore.Hbond.Weighted>
-7.9287

> <Gold.Chemscore.Metal.Weighted>
-0.0000

> <Gold.Chemscore.Lipo.Weighted>
-8.6904

> <Gold.Chemscore.Internal_Hbond.Weighted>
0.0000

> <Gold.Chemscore.DEClash.Weighted>
0.7294

> <Gold.Chemscore.DEInternal.Weighted>
3.0994

> <Gold.Chemscore.Rot.Weighted>
5.6756

> <Gold.Chemscore.Internal.Correction.Weighted>
   9.000000E+99

> <Gold.Protein.RotatedTorsions>
[ 6907 6896 6895 6894 ] final   26.84 input  -60.11 | X-H torsion
[ 7974 7965 7964 7962 ] final  114.69 input  175.53 | X-H torsion
[ 8008 7997 7996 7995 ] final  -77.80 input   59.86 | X-H torsion
[ 10167 10162 10161 10158 ] final  -91.31 input  -65.29 | X-H torsion
[ 10718 10713 10712 10709 ] final  -83.74 input   66.30 | X-H torsion
[ 10763 10752 10751 10750 ] final   95.72 input  -60.55 | X-H torsion
[ 11005 11000 10999 10996 ] final  133.62 input  -57.11 | X-H torsion

> <Gold.Protein.ActiveResidues>
 VAL166  LYS551  ARG553  GLY616  TRP617  ASP618  TYR619  PRO620  LYS621  CYS622 
 ASP623  PHE694  ASN695  SER759  ASP760  ASP761  ALA762  ILE779  LEU786  VAL792 
 PHE793  MET794  SER795  GLU796  ALA797  LYS798  CYS799  TRP800  GLU811  SER814 

> <Gold.Protein.RotatedAtoms>
  151.9934  134.9967  160.0562 H   0  0  0  0  0  0  0  0  0  0  0  0  # atno 6907 bound_to 6896
  152.1587  133.4563  159.4858 H   0  0  0  0  0  0  0  0  0  0  0  0  # atno 6908 bound_to 6896
  150.6885  134.2017  159.4367 H   0  0  0  0  0  0  0  0  0  0  0  0  # atno 6909 bound_to 6896
  145.2013  139.2951  143.4317 H   0  0  0  0  0  0  0  0  0  0  0  0  # atno 7974 bound_to 7965
  154.5629  140.0704  156.8847 H   0  0  0  0  0  0  0  0  0  0  0  0  # atno 8008 bound_to 7997
  155.2777  140.3369  155.4242 H   0  0  0  0  0  0  0  0  0  0  0  0  # atno 8009 bound_to 7997
  156.2057  140.1739  156.7790 H   0  0  0  0  0  0  0  0  0  0  0  0  # atno 8010 bound_to 7997
  140.3461  143.2916  151.9779 H   0  0  0  0  0  0  0  0  0  0  0  0  # atno 10167 bound_to 10162
  156.0014  130.4675  150.4303 H   0  0  0  0  0  0  0  0  0  0  0  0  # atno 10718 bound_to 10713
  153.2565  135.4244  155.0850 H   0  0  0  0  0  0  0  0  0  0  0  0  # atno 10763 bound_to 10752
  154.8403  135.3438  154.6439 H   0  0  0  0  0  0  0  0  0  0  0  0  # atno 10764 bound_to 10752
  153.6859  135.7036  153.5161 H   0  0  0  0  0  0  0  0  0  0  0  0  # atno 10765 bound_to 10752
  139.9863  134.9531  156.9751 H   0  0  0  0  0  0  0  0  0  0  0  0  # atno 11005 bound_to 11000
  146.3417  140.2258  142.8592 LP  0  0  0  0  0  0  0  0  0  0  0  0  # atno 17320 bound_to 7965
  144.9945  140.8577  143.5319 LP  0  0  0  0  0  0  0  0  0  0  0  0  # atno 17321 bound_to 7965
  139.4833  144.6116  151.7424 LP  0  0  0  0  0  0  0  0  0  0  0  0  # atno 17342 bound_to 10162
  140.5263  144.0800  150.6038 LP  0  0  0  0  0  0  0  0  0  0  0  0  # atno 17343 bound_to 10162
  157.2352  131.0513  151.2469 LP  0  0  0  0  0  0  0  0  0  0  0  0  # atno 17370 bound_to 10713
  157.3673  130.7162  149.6541 LP  0  0  0  0  0  0  0  0  0  0  0  0  # atno 17371 bound_to 10713
  140.4995  134.1111  155.7248 LP  0  0  0  0  0  0  0  0  0  0  0  0  # atno 17394 bound_to 11000
  141.1528  133.8938  157.2055 LP  0  0  0  0  0  0  0  0  0  0  0  0  # atno 17395 bound_to 11000

$$$$
