AV-unprocessed.smi:2124|AV-procd|sdf|8672|dock8
  -GOLD-   2272011423D 1   1.00000     0.00000
 Structure written by MMmdl.
 46 48  0  0  0  0  0  0  0  0  2 V2000
  147.6482  139.8558  155.6989 C   0  0  0  0  0  0  0  0  0  0  0  0
  148.8491  139.4112  156.5059 C   0  0  0  0  0  0  0  0  0  0  0  0
  148.6672  138.9347  157.6778 N   0  0  0  0  0  0  0  0  0  0  0  0
  149.7738  138.5056  158.4297 C   0  0  0  0  0  0  0  0  0  0  0  0
  149.4601  137.9307  159.7999 C   0  0  0  0  0  0  0  0  0  0  0  0
  151.0413  138.5927  157.9332 C   0  0  0  0  0  0  0  0  0  0  0  0
  152.2733  138.0958  158.6925 C   0  0  0  0  0  0  0  0  0  0  0  0
  153.2502  139.1982  159.1034 C   0  0  0  0  0  0  0  0  0  0  0  0
  154.4329  139.1381  158.7673 O   0  0  0  0  0  0  0  0  0  0  0  0
  152.7228  140.2194  159.7944 N   0  0  0  0  0  0  0  0  0  0  0  0
  153.3676  141.5017  160.0515 C   0  0  2  0  0  0  0  0  0  0  0  0
  154.6303  141.2876  160.9006 C   0  0  0  0  0  0  0  0  0  0  0  0
  152.3523  142.4491  160.7341 C   0  0  1  0  0  0  0  0  0  0  0  0
  152.8835  143.8713  161.0196 C   0  0  0  0  0  0  0  0  0  0  0  0
  151.7814  144.7758  160.4350 C   0  0  1  0  0  0  0  0  0  0  0  0
  151.8602  144.7392  158.8975 C   0  0  0  0  0  0  0  0  0  0  0  0
  151.3228  143.3355  158.5642 C   0  0  0  0  0  0  0  0  0  0  0  0
  151.0406  142.7399  159.9584 C   0  0  2  0  0  0  0  0  0  0  0  0
  150.5198  143.9634  160.7041 C   0  0  0  0  0  0  0  0  0  0  0  0
  151.2080  139.1503  156.5788 C   0  0  0  0  0  0  0  0  0  0  0  0
  152.3279  139.2379  156.0772 O   0  0  0  0  0  0  0  0  0  0  0  0
  150.0849  139.5430  155.9134 N   0  5  0  0  0  0  0  0  0  0  0  0
  146.8415  140.1853  156.3548 H   0  0  0  0  0  0  0  0  0  0  0  0
  147.2815  139.0304  155.0887 H   0  0  0  0  0  0  0  0  0  0  0  0
  147.9075  140.6849  155.0394 H   0  0  0  0  0  0  0  0  0  0  0  0
  149.8059  136.8997  159.8729 H   0  0  0  0  0  0  0  0  0  0  0  0
  148.3868  137.9360  159.9940 H   0  0  0  0  0  0  0  0  0  0  0  0
  149.9441  138.5168  160.5810 H   0  0  0  0  0  0  0  0  0  0  0  0
  151.9877  137.5331  159.5818 H   0  0  0  0  0  0  0  0  0  0  0  0
  152.8032  137.3776  158.0665 H   0  0  0  0  0  0  0  0  0  0  0  0
  151.7445  140.1544  160.0388 H   0  0  0  0  0  0  0  0  0  0  0  0
  153.6729  141.9471  159.1033 H   0  0  0  0  0  0  0  0  0  0  0  0
  155.1420  142.2309  161.0922 H   0  0  0  0  0  0  0  0  0  0  0  0
  155.3366  140.6295  160.3935 H   0  0  0  0  0  0  0  0  0  0  0  0
  154.3897  140.8376  161.8644 H   0  0  0  0  0  0  0  0  0  0  0  0
  152.0651  141.9961  161.6852 H   0  0  0  0  0  0  0  0  0  0  0  0
  152.9910  144.0289  162.0933 H   0  0  0  0  0  0  0  0  0  0  0  0
  153.8525  144.0670  160.5588 H   0  0  0  0  0  0  0  0  0  0  0  0
  151.7788  145.7850  160.8480 H   0  0  0  0  0  0  0  0  0  0  0  0
  151.2244  145.5069  158.4552 H   0  0  0  0  0  0  0  0  0  0  0  0
  152.8758  144.8932  158.5311 H   0  0  0  0  0  0  0  0  0  0  0  0
  150.3987  143.4082  157.9893 H   0  0  0  0  0  0  0  0  0  0  0  0
  152.0221  142.7441  157.9746 H   0  0  0  0  0  0  0  0  0  0  0  0
  150.3466  141.8986  159.9387 H   0  0  0  0  0  0  0  0  0  0  0  0
  150.3383  143.7817  161.7649 H   0  0  0  0  0  0  0  0  0  0  0  0
  149.6220  144.3938  160.2566 H   0  0  0  0  0  0  0  0  0  0  0  0
  1  2  1  0  0  0  0
  1 23  1  0  0  0  0
  1 24  1  0  0  0  0
  1 25  1  0  0  0  0
  2 22  1  0  0  0  0
  2  3  2  0  0  0  0
  3  4  1  0  0  0  0
  4  5  1  0  0  0  0
  4  6  2  0  0  0  0
  5 26  1  0  0  0  0
  5 27  1  0  0  0  0
  5 28  1  0  0  0  0
  6  7  1  0  0  0  0
  6 20  1  0  0  0  0
  7  8  1  0  0  0  0
  7 29  1  0  0  0  0
  7 30  1  0  0  0  0
  8  9  2  0  0  0  0
  8 10  1  0  0  0  0
 10 11  1  0  0  0  0
 10 31  1  0  0  0  0
 11 12  1  0  0  0  0
 11 13  1  0  0  0  0
 11 32  1  0  0  0  0
 12 33  1  0  0  0  0
 12 34  1  0  0  0  0
 12 35  1  0  0  0  0
 13 18  1  0  0  0  0
 13 14  1  0  0  0  0
 13 36  1  0  0  0  0
 14 15  1  0  0  0  0
 14 37  1  0  0  0  0
 14 38  1  0  0  0  0
 15 19  1  0  0  0  0
 15 16  1  0  0  0  0
 15 39  1  0  0  0  0
 16 17  1  0  0  0  0
 16 40  1  0  0  0  0
 16 41  1  0  0  0  0
 17 18  1  0  0  0  0
 17 42  1  0  0  0  0
 17 43  1  0  0  0  0
 18 19  1  0  0  0  0
 18 44  1  0  0  0  0
 19 45  1  0  0  0  0
 19 46  1  0  0  0  0
 20 21  2  0  0  0  0
 20 22  1  0  0  0  0
M  CHG  1  22  -1
M  END
> <s_m_source_file>
AV-unprocessed.smi

> <i_m_source_file_index>
2124

> <i_lp_mmshare_version>
43012

> <i_f3d_flags>
0

> <s_epik_input>
W0NIM11jMW5jKFtDSDNdKWMoYyg9TylbbkhdMSlbQ0gyXUMoPU8pW05IXVtDQEhdKFtDSDNdKVtDQEhdKFtDSDJdW0NASF0yMylbQ0BIXShbQ0gyXTMpW0NIMl1bQ0gyXTI=

> <s_epik_cmdline>
J2VwaWtfcHl0aG9uJywgJy1waCcsICc3LjAnLCAnLXRuJywgJzgnLCAnLW1hJywgJzIwMCcsICctbWV0YWxfYmluZGluZycsICctaW1hZScsICc8aW5maWxlLm1hZT4nLCAnLW9tYWUnLCAnPG91dGZpbGUubWFlPic=

> <r_lp_tautomer_probability>
0.839158

> <r_epik_Ionization_Penalty>
6.63797

> <r_epik_Ionization_Penalty_Charging>
7.48558e-08

> <r_epik_Ionization_Penalty_Neutral>
6.63797

> <r_epik_State_Penalty>
4.49496

> <r_epik_Charging_Adjusted_Penalty>
4.49496

> <i_epik_Tot_Q>
-1

> <i_epik_Tot_abs_Q>
1

> <r_epik_Metal_State_Penalty>
0.841241

> <b_epik_Metal_Only>
1

> <s_lp_Force_Field>
OPLS_2005

> <r_lp_Energy>
53.1649

> <b_lp_Chiralities_Consistent>
1

> <s_lp_Variant>
AV-unprocessed.smi:2124-23

> <Gold.Version>
5.8.1

> <Gold.Id.Protein>
6NUR|6NUR_protein|mol2

> <Gold.PLP.Fitness>
53.1287

> <Gold.PLP.PLP>
-44.3145

> <Gold.PLP.part.hbond>
-3.3060

> <Gold.PLP.part.metal>
0.0000

> <Gold.PLP.part.buried>
-5.6526

> <Gold.PLP.part.nonpolar>
-36.1411

> <Gold.PLP.part.repulsive>
0.2201

> <Gold.PLP.ligand.clash>
0.0000

> <Gold.PLP.ligand.torsion>
0.1068

> <Gold.PLP.Chemscore.Hbond>
3.0000

> <Gold.PLP.Chemscore.CHOScore>
0.0000

> <Gold.PLP.Chemscore.Metal>
0.0000

> <Gold.Chemscore.Hbonds>
donor molecule, donor type, donor heavy atom, donor atom, acceptor molecule, acceptor atom, score
      P1  H  7997  8010       L1     9  1.00

> <Gold.PLP.Chemscore.Internal.Correction>
0.0278

> <Gold.Rescore>
     Score         DG    S(hbond)    S(metal)    S(lipo)     H(rot)  DE(clash)    DE(int)     intcor
     21.40     -23.40       2.53        0.00     116.10       1.61       0.10       1.90       ----

> <Gold.Chemscore.Fitness>
21.4026

> <Gold.Chemscore.DG>
-23.3993

> <Gold.Chemscore.ZeroCoef>
-5.4800

> <Gold.Chemscore.Hbond>
2.5285

> <Gold.Chemscore.Metal>
0.0000

> <Gold.Chemscore.Lipo>
116.0956

> <Gold.Chemscore.Internal_Hbond>
0.0000

> <Gold.Chemscore.DEClash>
0.0959

> <Gold.Chemscore.DEInternal>
1.9007

> <Gold.Chemscore.Rot>
1.6051

> <Gold.Chemscore.Internal.Correction>
   9.000000E+99

> <Gold.Chemscore.Hbonds>
donor molecule, donor type, donor heavy atom, donor atom, acceptor molecule, acceptor atom, score
      P1  H  7997  8008       L1    21  0.03
      P1  H  7997  8010       L1     9  1.00

> <Gold.Chemscore.Hbond.Weighted>
-8.4451

> <Gold.Chemscore.Metal.Weighted>
-0.0000

> <Gold.Chemscore.Lipo.Weighted>
-13.5832

> <Gold.Chemscore.Internal_Hbond.Weighted>
0.0000

> <Gold.Chemscore.DEClash.Weighted>
0.0959

> <Gold.Chemscore.DEInternal.Weighted>
1.9007

> <Gold.Chemscore.Rot.Weighted>
4.1090

> <Gold.Chemscore.Internal.Correction.Weighted>
   9.000000E+99

> <Gold.Protein.RotatedTorsions>
[ 6907 6896 6895 6894 ] final  112.93 input  -60.11 | X-H torsion
[ 7974 7965 7964 7962 ] final -107.06 input  175.53 | X-H torsion
[ 8008 7997 7996 7995 ] final   -4.27 input   59.86 | X-H torsion
[ 10167 10162 10161 10158 ] final  107.46 input  -65.29 | X-H torsion
[ 10718 10713 10712 10709 ] final  -55.49 input   66.30 | X-H torsion
[ 10763 10752 10751 10750 ] final -139.23 input  -60.55 | X-H torsion
[ 11005 11000 10999 10996 ] final   73.28 input  -57.11 | X-H torsion

> <Gold.Protein.ActiveResidues>
 VAL166  LYS551  ARG553  GLY616  TRP617  ASP618  TYR619  PRO620  LYS621  CYS622 
 ASP623  PHE694  ASN695  SER759  ASP760  ASP761  ALA762  ILE779  LEU786  VAL792 
 PHE793  MET794  SER795  GLU796  ALA797  LYS798  CYS799  TRP800  GLU811  SER814 

> <Gold.Protein.RotatedAtoms>
  152.4889  133.8447  159.7170 H   0  0  0  0  0  0  0  0  0  0  0  0  # atno 6907 bound_to 6896
  150.9000  133.7121  159.2888 H   0  0  0  0  0  0  0  0  0  0  0  0  # atno 6908 bound_to 6896
  151.4565  135.1038  159.9765 H   0  0  0  0  0  0  0  0  0  0  0  0  # atno 6909 bound_to 6896
  145.2100  140.9092  143.3320 H   0  0  0  0  0  0  0  0  0  0  0  0  # atno 7974 bound_to 7965
  154.6161  140.2488  155.7607 H   0  0  0  0  0  0  0  0  0  0  0  0  # atno 8008 bound_to 7997
  156.2400  140.2936  156.0366 H   0  0  0  0  0  0  0  0  0  0  0  0  # atno 8009 bound_to 7997
  155.1972  140.0393  157.2901 H   0  0  0  0  0  0  0  0  0  0  0  0  # atno 8010 bound_to 7997
  139.6925  144.7106  151.1324 H   0  0  0  0  0  0  0  0  0  0  0  0  # atno 10167 bound_to 10162
  156.1364  130.4156  150.0178 H   0  0  0  0  0  0  0  0  0  0  0  0  # atno 10718 bound_to 10713
  154.8615  135.3589  154.5512 H   0  0  0  0  0  0  0  0  0  0  0  0  # atno 10763 bound_to 10752
  153.6130  135.7008  153.5344 H   0  0  0  0  0  0  0  0  0  0  0  0  # atno 10764 bound_to 10752
  153.3193  135.4156  155.1363 H   0  0  0  0  0  0  0  0  0  0  0  0  # atno 10765 bound_to 10752
  139.9448  134.7333  156.1007 H   0  0  0  0  0  0  0  0  0  0  0  0  # atno 11005 bound_to 11000
  144.9865  139.3732  143.6236 LP  0  0  0  0  0  0  0  0  0  0  0  0  # atno 17320 bound_to 7965
  146.3399  139.9028  142.8792 LP  0  0  0  0  0  0  0  0  0  0  0  0  # atno 17321 bound_to 7965
  140.7687  143.5539  150.9174 LP  0  0  0  0  0  0  0  0  0  0  0  0  # atno 17342 bound_to 10162
  139.9217  143.6598  152.3095 LP  0  0  0  0  0  0  0  0  0  0  0  0  # atno 17343 bound_to 10162
  156.8076  130.9313  151.3645 LP  0  0  0  0  0  0  0  0  0  0  0  0  # atno 17370 bound_to 10713
  157.6536  130.8905  149.9683 LP  0  0  0  0  0  0  0  0  0  0  0  0  # atno 17371 bound_to 10713
  141.1095  133.6648  156.2943 LP  0  0  0  0  0  0  0  0  0  0  0  0  # atno 17394 bound_to 11000
  140.5862  134.5696  157.5490 LP  0  0  0  0  0  0  0  0  0  0  0  0  # atno 17395 bound_to 11000

$$$$
