AV-unprocessed.smi:1072|AV-procd|sdf|4684|dock3
  -GOLD-   22720 3203D 1   1.00000     0.00000
 Structure written by MMmdl.
 46 47  0  0  0  0  0  0  0  0  1 V2000
  151.2530  129.5062  155.1681 C   0  0  0  0  0  0  0  0  0  0  0  0
  150.6408  130.8878  155.0727 C   0  0  0  0  0  0  0  0  0  0  0  0
  149.9085  131.2854  154.0847 N   0  0  0  0  0  0  0  0  0  0  0  0
  149.3966  132.5902  154.1079 C   0  0  0  0  0  0  0  0  0  0  0  0
  148.5407  132.9804  152.9148 C   0  0  0  0  0  0  0  0  0  0  0  0
  149.6561  133.4428  155.1427 C   0  0  0  0  0  0  0  0  0  0  0  0
  149.1086  134.8684  155.1967 C   0  0  0  0  0  0  0  0  0  0  0  0
  150.1560  135.9768  155.3278 C   0  0  0  0  0  0  0  0  0  0  0  0
  151.3421  135.6876  155.4836 O   0  0  0  0  0  0  0  0  0  0  0  0
  149.6849  137.2358  155.2770 N   0  0  0  0  0  0  0  0  0  0  0  0
  150.4034  138.5086  155.4305 C   0  0  1  0  0  0  0  0  0  0  0  0
  151.6051  138.4142  154.4660 C   0  0  0  0  0  0  0  0  0  0  0  0
  149.4842  139.6952  155.0300 C   0  0  0  0  0  0  0  0  0  0  0  0
  150.1163  141.0709  155.3071 C   0  0  0  0  0  0  0  0  0  0  0  0
  150.5602  141.2085  156.7746 C   0  0  2  0  0  0  0  0  0  0  0  0
  151.1845  142.5852  157.0438 C   0  0  0  0  0  0  0  0  0  0  0  0
  151.5231  140.0688  157.1548 C   0  0  0  0  0  0  0  0  0  0  0  0
  150.9016  138.6849  156.8916 C   0  0  0  0  0  0  0  0  0  0  0  0
  150.4945  132.9782  156.2649 C   0  0  0  0  0  0  0  0  0  0  0  0
  150.7876  133.6592  157.2465 O   0  0  0  0  0  0  0  0  0  0  0  0
  150.9423  131.7071  156.1590 N   0  0  0  0  0  0  0  0  0  0  0  0
  151.5183  131.3414  156.9032 H   0  0  0  0  0  0  0  0  0  0  0  0
  150.4694  128.7482  155.1787 H   0  0  0  0  0  0  0  0  0  0  0  0
  151.8508  129.3920  156.0734 H   0  0  0  0  0  0  0  0  0  0  0  0
  151.8973  129.3214  154.3082 H   0  0  0  0  0  0  0  0  0  0  0  0
  148.9927  133.8124  152.3744 H   0  0  0  0  0  0  0  0  0  0  0  0
  147.5415  133.2753  153.2359 H   0  0  0  0  0  0  0  0  0  0  0  0
  148.4322  132.1491  152.2172 H   0  0  0  0  0  0  0  0  0  0  0  0
  148.4985  135.0826  154.3188 H   0  0  0  0  0  0  0  0  0  0  0  0
  148.4168  134.9353  156.0371 H   0  0  0  0  0  0  0  0  0  0  0  0
  148.6888  137.3263  155.1386 H   0  0  0  0  0  0  0  0  0  0  0  0
  152.2248  139.3095  154.4787 H   0  0  0  0  0  0  0  0  0  0  0  0
  151.2749  138.2688  153.4366 H   0  0  0  0  0  0  0  0  0  0  0  0
  152.2516  137.5740  154.7223 H   0  0  0  0  0  0  0  0  0  0  0  0
  149.2114  139.6211  153.9765 H   0  0  0  0  0  0  0  0  0  0  0  0
  148.5454  139.6534  155.5816 H   0  0  0  0  0  0  0  0  0  0  0  0
  150.9654  141.2342  154.6430 H   0  0  0  0  0  0  0  0  0  0  0  0
  149.3940  141.8517  155.0664 H   0  0  0  0  0  0  0  0  0  0  0  0
  149.6729  141.1217  157.4034 H   0  0  0  0  0  0  0  0  0  0  0  0
  152.0804  142.7392  156.4415 H   0  0  0  0  0  0  0  0  0  0  0  0
  151.4660  142.6908  158.0918 H   0  0  0  0  0  0  0  0  0  0  0  0
  150.4835  143.3866  156.8092 H   0  0  0  0  0  0  0  0  0  0  0  0
  152.4581  140.1711  156.6036 H   0  0  0  0  0  0  0  0  0  0  0  0
  151.7878  140.1477  158.2100 H   0  0  0  0  0  0  0  0  0  0  0  0
  150.0779  138.5624  157.5938 H   0  0  0  0  0  0  0  0  0  0  0  0
  151.6218  137.9046  157.1410 H   0  0  0  0  0  0  0  0  0  0  0  0
  1  2  1  0  0  0  0
  1 23  1  0  0  0  0
  1 24  1  0  0  0  0
  1 25  1  0  0  0  0
  2 21  1  0  0  0  0
  2  3  2  0  0  0  0
  3  4  1  0  0  0  0
  4  5  1  0  0  0  0
  4  6  2  0  0  0  0
  5 26  1  0  0  0  0
  5 27  1  0  0  0  0
  5 28  1  0  0  0  0
  6  7  1  0  0  0  0
  6 19  1  0  0  0  0
  7  8  1  0  0  0  0
  7 29  1  0  0  0  0
  7 30  1  0  0  0  0
  8  9  2  0  0  0  0
  8 10  1  0  0  0  0
 10 11  1  0  0  0  0
 10 31  1  0  0  0  0
 11 18  1  0  0  0  0
 11 12  1  0  0  0  0
 11 13  1  0  0  0  0
 12 32  1  0  0  0  0
 12 33  1  0  0  0  0
 12 34  1  0  0  0  0
 13 14  1  0  0  0  0
 13 35  1  0  0  0  0
 13 36  1  0  0  0  0
 14 15  1  0  0  0  0
 14 37  1  0  0  0  0
 14 38  1  0  0  0  0
 15 16  1  0  0  0  0
 15 17  1  0  0  0  0
 15 39  1  0  0  0  0
 16 40  1  0  0  0  0
 16 41  1  0  0  0  0
 16 42  1  0  0  0  0
 17 18  1  0  0  0  0
 17 43  1  0  0  0  0
 17 44  1  0  0  0  0
 18 45  1  0  0  0  0
 18 46  1  0  0  0  0
 19 20  2  0  0  0  0
 19 21  1  0  0  0  0
 21 22  1  0  0  0  0
M  END
> <s_m_source_file>
AV-unprocessed.smi

> <i_m_source_file_index>
1072

> <i_lp_mmshare_version>
43012

> <i_f3d_flags>
0

> <s_epik_input>
W0NIM11jMW5jKFtDSDNdKWMoYyg9TylbbkhdMSlbQ0gyXUMoPU8pW05IXVtDQEBdMihbQ0gzXSlbQ0gyXVtDSDJdW0NAQEhdKFtDSDNdKVtDSDJdW0NIMl0y

> <s_epik_cmdline>
J2VwaWtfcHl0aG9uJywgJy1waCcsICc3LjAnLCAnLXRuJywgJzgnLCAnLW1hJywgJzIwMCcsICctbWV0YWxfYmluZGluZycsICctaW1hZScsICc8aW5maWxlLm1hZT4nLCAnLW9tYWUnLCAnPG91dGZpbGUubWFlPic=

> <r_lp_tautomer_probability>
0.839158

> <r_epik_Ionization_Penalty>
0.000352328

> <r_epik_Ionization_Penalty_Charging>
0.000314696

> <r_epik_Ionization_Penalty_Neutral>
3.76315e-05

> <r_epik_State_Penalty>
0.09125

> <r_epik_Charging_Adjusted_Penalty>
0.0915647

> <i_epik_Tot_Q>
0

> <i_epik_Tot_abs_Q>
0

> <r_epik_Metal_State_Penalty>
0.245598

> <b_epik_Metal_Only>
0

> <s_lp_Force_Field>
OPLS_2005

> <r_lp_Energy>
14.8959

> <b_lp_Chiralities_Consistent>
1

> <s_lp_Variant>
AV-unprocessed.smi:1072-2

> <Gold.Version>
5.8.1

> <Gold.Id.Protein>
6NUR|6NUR_protein|mol2

> <Gold.PLP.Fitness>
38.8228

> <Gold.PLP.PLP>
-34.7737

> <Gold.PLP.part.hbond>
-2.0000

> <Gold.PLP.part.metal>
0.0000

> <Gold.PLP.part.buried>
-3.7155

> <Gold.PLP.part.nonpolar>
-28.5080

> <Gold.PLP.part.repulsive>
0.1910

> <Gold.PLP.ligand.clash>
0.0000

> <Gold.PLP.ligand.torsion>
0.1624

> <Gold.PLP.Chemscore.Hbond>
1.4560

> <Gold.PLP.Chemscore.CHOScore>
0.0000

> <Gold.PLP.Chemscore.Metal>
0.0000

> <Gold.Chemscore.Hbonds>
donor molecule, donor type, donor heavy atom, donor atom, acceptor molecule, acceptor atom, score
      P1  H  6896  6909       L1    20  0.72
      P1  H 10752 10764       L1     9  0.67

> <Gold.PLP.Chemscore.Internal.Correction>
0.0059

> <Gold.Rescore>
     Score         DG    S(hbond)    S(metal)    S(lipo)     H(rot)  DE(clash)    DE(int)     intcor
     11.64     -15.14       1.41        0.00      74.48       1.47       0.02       3.49       ----

> <Gold.Chemscore.Fitness>
11.6374

> <Gold.Chemscore.DG>
-15.1405

> <Gold.Chemscore.ZeroCoef>
-5.4800

> <Gold.Chemscore.Hbond>
1.4092

> <Gold.Chemscore.Metal>
0.0000

> <Gold.Chemscore.Lipo>
74.4840

> <Gold.Chemscore.Internal_Hbond>
0.0000

> <Gold.Chemscore.DEClash>
0.0174

> <Gold.Chemscore.DEInternal>
3.4857

> <Gold.Chemscore.Rot>
1.4690

> <Gold.Chemscore.Internal.Correction>
   9.000000E+99

> <Gold.Chemscore.Hbonds>
donor molecule, donor type, donor heavy atom, donor atom, acceptor molecule, acceptor atom, score
      P1  H  6896  6909       L1    20  0.71
      P1  H 10752 10764       L1     9  0.67

> <Gold.Chemscore.Hbond.Weighted>
-4.7066

> <Gold.Chemscore.Metal.Weighted>
-0.0000

> <Gold.Chemscore.Lipo.Weighted>
-8.7146

> <Gold.Chemscore.Internal_Hbond.Weighted>
0.0000

> <Gold.Chemscore.DEClash.Weighted>
0.0174

> <Gold.Chemscore.DEInternal.Weighted>
3.4857

> <Gold.Chemscore.Rot.Weighted>
3.7607

> <Gold.Chemscore.Internal.Correction.Weighted>
   9.000000E+99

> <Gold.Protein.RotatedTorsions>
[ 6907 6896 6895 6894 ] final  -13.24 input  -60.11 | X-H torsion
[ 7974 7965 7964 7962 ] final   38.05 input  175.53 | X-H torsion
[ 8008 7997 7996 7995 ] final -122.02 input   59.86 | X-H torsion
[ 10167 10162 10161 10158 ] final -149.89 input  -65.29 | X-H torsion
[ 10718 10713 10712 10709 ] final  -72.38 input   66.30 | X-H torsion
[ 10763 10752 10751 10750 ] final  -78.27 input  -60.55 | X-H torsion
[ 11005 11000 10999 10996 ] final  113.07 input  -57.11 | X-H torsion

> <Gold.Protein.ActiveResidues>
 VAL166  LYS551  ARG553  GLY616  TRP617  ASP618  TYR619  PRO620  LYS621  CYS622 
 ASP623  PHE694  ASN695  SER759  ASP760  ASP761  ALA762  ILE779  LEU786  VAL792 
 PHE793  MET794  SER795  GLU796  ALA797  LYS798  CYS799  TRP800  GLU811  SER814 

> <Gold.Protein.RotatedAtoms>
  151.3580  135.0898  159.9424 H   0  0  0  0  0  0  0  0  0  0  0  0  # atno 6907 bound_to 6896
  152.5169  133.9287  159.7580 H   0  0  0  0  0  0  0  0  0  0  0  0  # atno 6908 bound_to 6896
  150.9675  133.6325  159.2773 H   0  0  0  0  0  0  0  0  0  0  0  0  # atno 6909 bound_to 6896
  146.1091  139.5819  142.9364 H   0  0  0  0  0  0  0  0  0  0  0  0  # atno 7974 bound_to 7965
  155.1575  140.0405  157.2835 H   0  0  0  0  0  0  0  0  0  0  0  0  # atno 8008 bound_to 7997
  154.6360  140.2535  155.7351 H   0  0  0  0  0  0  0  0  0  0  0  0  # atno 8009 bound_to 7997
  156.2509  140.2865  156.0732 H   0  0  0  0  0  0  0  0  0  0  0  0  # atno 8010 bound_to 7997
  139.7402  143.8673  152.2560 H   0  0  0  0  0  0  0  0  0  0  0  0  # atno 10167 bound_to 10162
  156.0323  130.4371  150.2584 H   0  0  0  0  0  0  0  0  0  0  0  0  # atno 10718 bound_to 10713
  154.5237  135.5735  153.6702 H   0  0  0  0  0  0  0  0  0  0  0  0  # atno 10763 bound_to 10752
  152.9923  135.6188  154.2720 H   0  0  0  0  0  0  0  0  0  0  0  0  # atno 10764 bound_to 10752
  154.2642  135.2855  155.2745 H   0  0  0  0  0  0  0  0  0  0  0  0  # atno 10765 bound_to 10752
  139.8943  134.9542  156.6682 H   0  0  0  0  0  0  0  0  0  0  0  0  # atno 11005 bound_to 11000
  145.5700  141.0395  143.2179 LP  0  0  0  0  0  0  0  0  0  0  0  0  # atno 17320 bound_to 7965
  144.7496  139.7228  143.7278 LP  0  0  0  0  0  0  0  0  0  0  0  0  # atno 17321 bound_to 7965
  139.8622  144.7111  150.9087 LP  0  0  0  0  0  0  0  0  0  0  0  0  # atno 17342 bound_to 10162
  140.7785  143.3808  151.1480 LP  0  0  0  0  0  0  0  0  0  0  0  0  # atno 17343 bound_to 10162
  157.0685  131.0110  151.3198 LP  0  0  0  0  0  0  0  0  0  0  0  0  # atno 17370 bound_to 10713
  157.5017  130.7884  149.7611 LP  0  0  0  0  0  0  0  0  0  0  0  0  # atno 17371 bound_to 10713
  140.7393  133.8991  155.8267 LP  0  0  0  0  0  0  0  0  0  0  0  0  # atno 17394 bound_to 11000
  141.0090  134.1046  157.4241 LP  0  0  0  0  0  0  0  0  0  0  0  0  # atno 17395 bound_to 11000

$$$$
