AV-unprocessed.smi:903|AV-procd|sdf|4095|dock1
  -GOLD-   22720 1583D 1   1.00000     0.00000
 Structure written by MMmdl.
 28 29  0  0  0  0  0  0  0  0  2 V2000
  152.2812  137.5159  154.1876 O   0  0  0  0  0  0  0  0  0  0  0  0
  152.3169  138.4912  154.9689 C   0  0  0  0  0  0  0  0  0  0  0  0
  153.0770  139.4630  154.7517 O   0  5  0  0  0  0  0  0  0  0  0  0
  151.4397  138.5238  156.2028 C   0  0  0  0  0  0  0  0  0  0  0  0
  151.3782  139.7247  156.8313 N   0  0  0  0  0  0  0  0  0  0  0  0
  150.6244  139.8692  157.9459 C   0  0  0  0  0  0  0  0  0  0  0  0
  150.5803  141.1001  158.5675 O   0  0  0  0  0  0  0  0  0  0  0  0
  151.2833  142.1859  157.9705 C   0  0  0  0  0  0  0  0  0  0  0  0
  151.0222  143.4547  158.7909 C   0  0  2  0  0  0  0  0  0  0  0  0
  151.9464  144.6157  158.4309 C   0  0  0  0  0  0  0  0  0  0  0  0
  151.8923  145.4482  159.6913 C   0  0  0  0  0  0  0  0  0  0  0  0
  151.8512  144.3761  160.7774 C   0  0  0  0  0  0  0  0  0  0  0  0
  151.2772  143.2190  160.1731 O   0  0  0  0  0  0  0  0  0  0  0  0
  149.8831  138.8089  158.4945 C   0  0  0  0  0  0  0  0  0  0  0  0
  149.9349  137.5575  157.8574 C   0  0  0  0  0  0  0  0  0  0  0  0
  150.7176  137.3955  156.6968 C   0  0  0  0  0  0  0  0  0  0  0  0
  150.7303  135.8237  155.9686 Cl  0  0  0  0  0  0  0  0  0  0  0  0
  152.3548  141.9844  157.9203 H   0  0  0  0  0  0  0  0  0  0  0  0
  150.9204  142.3330  156.9517 H   0  0  0  0  0  0  0  0  0  0  0  0
  149.9855  143.7760  158.6771 H   0  0  0  0  0  0  0  0  0  0  0  0
  152.9638  144.2600  158.2614 H   0  0  0  0  0  0  0  0  0  0  0  0
  151.6211  145.1596  157.5438 H   0  0  0  0  0  0  0  0  0  0  0  0
  152.7376  146.1290  159.7947 H   0  0  0  0  0  0  0  0  0  0  0  0
  150.9741  146.0369  159.7100 H   0  0  0  0  0  0  0  0  0  0  0  0
  152.8596  144.1275  161.1098 H   0  0  0  0  0  0  0  0  0  0  0  0
  151.2770  144.6944  161.6477 H   0  0  0  0  0  0  0  0  0  0  0  0
  149.2892  138.9512  159.3850 H   0  0  0  0  0  0  0  0  0  0  0  0
  149.3759  136.7249  158.2587 H   0  0  0  0  0  0  0  0  0  0  0  0
  1  2  2  0  0  0  0
  2  3  1  0  0  0  0
  2  4  1  0  0  0  0
  4 16  1  0  0  0  0
  4  5  2  0  0  0  0
  5  6  1  0  0  0  0
  6  7  1  0  0  0  0
  6 14  2  0  0  0  0
  7  8  1  0  0  0  0
  8  9  1  0  0  0  0
  8 18  1  0  0  0  0
  8 19  1  0  0  0  0
  9 13  1  0  0  0  0
  9 10  1  0  0  0  0
  9 20  1  0  0  0  0
 10 11  1  0  0  0  0
 10 21  1  0  0  0  0
 10 22  1  0  0  0  0
 11 12  1  0  0  0  0
 11 23  1  0  0  0  0
 11 24  1  0  0  0  0
 12 13  1  0  0  0  0
 12 25  1  0  0  0  0
 12 26  1  0  0  0  0
 14 15  1  0  0  0  0
 14 27  1  0  0  0  0
 15 16  2  0  0  0  0
 15 28  1  0  0  0  0
 16 17  1  0  0  0  0
M  CHG  1   3  -1
M  END
> <s_m_source_file>
AV-unprocessed.smi

> <i_m_source_file_index>
903

> <i_lp_mmshare_version>
43012

> <i_f3d_flags>
0

> <s_epik_input>
Tz1DKFtPSF0pYzFuYyhbY0hdW2NIXWMxQ2wpT1tDSDJdW0NAQEhdMltDSDJdW0NIMl1bQ0gyXU8y

> <s_epik_cmdline>
J2VwaWtfcHl0aG9uJywgJy1waCcsICc3LjAnLCAnLXRuJywgJzgnLCAnLW1hJywgJzIwMCcsICctbWV0YWxfYmluZGluZycsICctaW1hZScsICc8aW5maWxlLm1hZT4nLCAnLW9tYWUnLCAnPG91dGZpbGUubWFlPic=

> <r_lp_tautomer_probability>
1

> <r_epik_Ionization_Penalty>
1.22588e-05

> <r_epik_Ionization_Penalty_Charging>
1.01343e-05

> <r_epik_Ionization_Penalty_Neutral>
2.12445e-06

> <r_epik_State_Penalty>
-0

> <r_epik_Charging_Adjusted_Penalty>
1.01343e-05

> <i_epik_Tot_Q>
-1

> <i_epik_Tot_abs_Q>
1

> <r_epik_Metal_State_Penalty>
-0

> <b_epik_Metal_Only>
0

> <s_lp_Force_Field>
OPLS_2005

> <r_lp_Energy>
26.032

> <b_lp_Chiralities_Consistent>
1

> <s_lp_Variant>
AV-unprocessed.smi:903-1

> <Gold.Version>
5.8.1

> <Gold.Id.Protein>
6NUR|6NUR_protein|mol2

> <Gold.PLP.Fitness>
43.3731

> <Gold.PLP.PLP>
-32.5159

> <Gold.PLP.part.hbond>
-3.5877

> <Gold.PLP.part.metal>
0.0000

> <Gold.PLP.part.buried>
-6.4833

> <Gold.PLP.part.nonpolar>
-23.5483

> <Gold.PLP.part.repulsive>
0.2212

> <Gold.PLP.ligand.clash>
0.0000

> <Gold.PLP.ligand.torsion>
0.1330

> <Gold.PLP.Chemscore.Hbond>
3.6915

> <Gold.PLP.Chemscore.CHOScore>
0.0000

> <Gold.PLP.Chemscore.Metal>
0.0000

> <Gold.Chemscore.Hbonds>
donor molecule, donor type, donor heavy atom, donor atom, acceptor molecule, acceptor atom, score
      P1  H  7989  7998       L1     3  0.10
      P1  H  7997  8010       L1     3  2.00
      P1  H 10752 10764       L1     1  1.54

> <Gold.PLP.Chemscore.Internal.Correction>
0.0489

> <Gold.Rescore>
     Score         DG    S(hbond)    S(metal)    S(lipo)     H(rot)  DE(clash)    DE(int)     intcor
     15.38     -16.73       1.91        0.00      74.63       1.51       0.00       1.35       ----

> <Gold.Chemscore.Fitness>
15.3808

> <Gold.Chemscore.DG>
-16.7342

> <Gold.Chemscore.ZeroCoef>
-5.4800

> <Gold.Chemscore.Hbond>
1.9121

> <Gold.Chemscore.Metal>
0.0000

> <Gold.Chemscore.Lipo>
74.6303

> <Gold.Chemscore.Internal_Hbond>
0.0000

> <Gold.Chemscore.DEClash>
0.0004

> <Gold.Chemscore.DEInternal>
1.3530

> <Gold.Chemscore.Rot>
1.5094

> <Gold.Chemscore.Internal.Correction>
   9.000000E+99

> <Gold.Chemscore.Hbonds>
donor molecule, donor type, donor heavy atom, donor atom, acceptor molecule, acceptor atom, score
      P1  H  7989  7998       L1     3  0.03
      P1  H  7997  8010       L1     3  1.00
      P1  H 10752 10764       L1     1  0.75

> <Gold.Chemscore.Hbond.Weighted>
-6.3865

> <Gold.Chemscore.Metal.Weighted>
-0.0000

> <Gold.Chemscore.Lipo.Weighted>
-8.7317

> <Gold.Chemscore.Internal_Hbond.Weighted>
0.0000

> <Gold.Chemscore.DEClash.Weighted>
0.0004

> <Gold.Chemscore.DEInternal.Weighted>
1.3530

> <Gold.Chemscore.Rot.Weighted>
3.8641

> <Gold.Chemscore.Internal.Correction.Weighted>
   9.000000E+99

> <Gold.Protein.RotatedTorsions>
[ 6907 6896 6895 6894 ] final  103.77 input  -60.11 | X-H torsion
[ 7974 7965 7964 7962 ] final  -91.86 input  175.53 | X-H torsion
[ 8008 7997 7996 7995 ] final  103.87 input   59.86 | X-H torsion
[ 10167 10162 10161 10158 ] final  -35.98 input  -65.29 | X-H torsion
[ 10718 10713 10712 10709 ] final  136.87 input   66.30 | X-H torsion
[ 10763 10752 10751 10750 ] final  -91.37 input  -60.55 | X-H torsion
[ 11005 11000 10999 10996 ] final   16.99 input  -57.11 | X-H torsion

> <Gold.Protein.ActiveResidues>
 VAL166  LYS551  ARG553  GLY616  TRP617  ASP618  TYR619  PRO620  LYS621  CYS622 
 ASP623  PHE694  ASN695  SER759  ASP760  ASP761  ALA762  ILE779  LEU786  VAL792 
 PHE793  MET794  SER795  GLU796  ALA797  LYS798  CYS799  TRP800  GLU811  SER814 

> <Gold.Protein.RotatedAtoms>
  152.5285  133.9775  159.7790 H   0  0  0  0  0  0  0  0  0  0  0  0  # atno 6907 bound_to 6896
  151.0035  133.6025  159.2699 H   0  0  0  0  0  0  0  0  0  0  0  0  # atno 6908 bound_to 6896
  151.3125  135.0804  159.9331 H   0  0  0  0  0  0  0  0  0  0  0  0  # atno 6909 bound_to 6896
  145.4075  140.9542  143.2253 H   0  0  0  0  0  0  0  0  0  0  0  0  # atno 7974 bound_to 7965
  156.1523  140.3157  155.8668 H   0  0  0  0  0  0  0  0  0  0  0  0  # atno 8008 bound_to 7997
  155.3947  140.0496  157.3056 H   0  0  0  0  0  0  0  0  0  0  0  0  # atno 8009 bound_to 7997
  154.5069  140.2150  155.9244 H   0  0  0  0  0  0  0  0  0  0  0  0  # atno 8010 bound_to 7997
  140.7153  143.3440  151.2296 H   0  0  0  0  0  0  0  0  0  0  0  0  # atno 10167 bound_to 10162
  157.4420  131.1058  151.0132 H   0  0  0  0  0  0  0  0  0  0  0  0  # atno 10718 bound_to 10713
  154.6754  135.5270  153.8193 H   0  0  0  0  0  0  0  0  0  0  0  0  # atno 10763 bound_to 10752
  153.0529  135.6539  154.0659 H   0  0  0  0  0  0  0  0  0  0  0  0  # atno 10764 bound_to 10752
  154.0553  135.2966  155.3313 H   0  0  0  0  0  0  0  0  0  0  0  0  # atno 10765 bound_to 10752
  140.4409  134.1323  155.7690 H   0  0  0  0  0  0  0  0  0  0  0  0  # atno 11005 bound_to 11000
  144.8332  139.5594  143.6934 LP  0  0  0  0  0  0  0  0  0  0  0  0  # atno 17320 bound_to 7965
  146.2721  139.6662  142.9288 LP  0  0  0  0  0  0  0  0  0  0  0  0  # atno 17321 bound_to 7965
  139.6954  143.9621  152.2880 LP  0  0  0  0  0  0  0  0  0  0  0  0  # atno 17342 bound_to 10162
  139.9297  144.6749  150.8376 LP  0  0  0  0  0  0  0  0  0  0  0  0  # atno 17343 bound_to 10162
  157.0991  130.5974  149.5456 LP  0  0  0  0  0  0  0  0  0  0  0  0  # atno 17370 bound_to 10713
  155.9952  130.5019  150.7452 LP  0  0  0  0  0  0  0  0  0  0  0  0  # atno 17371 bound_to 10713
  141.1706  133.8616  157.1582 LP  0  0  0  0  0  0  0  0  0  0  0  0  # atno 17394 bound_to 11000
  140.0070  135.0004  157.0315 LP  0  0  0  0  0  0  0  0  0  0  0  0  # atno 17395 bound_to 11000

$$$$
