AV-unprocessed.smi:1746|AV-procd|sdf|7034|dock4
  -GOLD-   22720 8253D 1   1.00000     0.00000
 Structure written by MMmdl.
 35 36  0  0  0  0  0  0  0  0  1 V2000
  149.8217  142.1944  157.4163 C   0  0  0  0  0  0  0  0  0  0  0  0
  150.6770  142.1446  156.1445 C   0  0  0  0  0  0  0  0  0  0  0  0
  150.3974  140.9612  155.3551 N   0  0  0  0  0  0  0  0  0  0  0  0
  149.1988  140.5797  154.7857 C   0  0  0  0  0  0  0  0  0  0  0  0
  149.4529  139.3997  154.1457 C   0  0  0  0  0  0  0  0  0  0  0  0
  148.5746  138.5747  153.3985 N   0  0  0  0  0  0  0  0  0  0  0  0
  147.2331  138.6314  153.3680 C   0  0  0  0  0  0  0  0  0  0  0  0
  146.5439  139.4341  153.9979 O   0  0  0  0  0  0  0  0  0  0  0  0
  146.7229  137.6941  152.5574 N   0  0  0  0  0  0  0  0  0  0  0  0
  145.2999  137.4844  152.3156 C   0  0  0  0  0  0  0  0  0  0  0  0
  144.9000  136.0140  152.5234 C   0  0  1  0  0  0  0  0  0  0  0  0
  143.3936  135.7734  152.4708 C   0  0  0  0  0  0  0  0  0  0  0  0
  143.3369  134.3035  152.1233 C   0  0  0  0  0  0  0  0  0  0  0  0
  144.5041  134.1624  151.1491 C   0  0  0  0  0  0  0  0  0  0  0  0
  145.4285  135.1960  151.4829 O   0  0  0  0  0  0  0  0  0  0  0  0
  150.8270  139.1253  154.3706 C   0  0  0  0  0  0  0  0  0  0  0  0
  151.3914  140.0739  155.1025 N   0  0  0  0  0  0  0  0  0  0  0  0
  150.0547  143.0809  158.0059 H   0  0  0  0  0  0  0  0  0  0  0  0
  149.9994  141.3207  158.0441 H   0  0  0  0  0  0  0  0  0  0  0  0
  148.7583  142.2247  157.1767 H   0  0  0  0  0  0  0  0  0  0  0  0
  150.4988  143.0281  155.5300 H   0  0  0  0  0  0  0  0  0  0  0  0
  151.7361  142.1479  156.4045 H   0  0  0  0  0  0  0  0  0  0  0  0
  148.3016  141.1722  154.8876 H   0  0  0  0  0  0  0  0  0  0  0  0
  149.0137  137.8659  152.8293 H   0  0  0  0  0  0  0  0  0  0  0  0
  147.3614  137.0735  152.0820 H   0  0  0  0  0  0  0  0  0  0  0  0
  144.7160  138.1312  152.9724 H   0  0  0  0  0  0  0  0  0  0  0  0
  145.0734  137.7944  151.2952 H   0  0  0  0  0  0  0  0  0  0  0  0
  145.2823  135.6407  153.4751 H   0  0  0  0  0  0  0  0  0  0  0  0
  142.8923  136.0109  153.4097 H   0  0  0  0  0  0  0  0  0  0  0  0
  142.9346  136.3635  151.6764 H   0  0  0  0  0  0  0  0  0  0  0  0
  143.5175  133.7028  153.0159 H   0  0  0  0  0  0  0  0  0  0  0  0
  142.3823  133.9986  151.6936 H   0  0  0  0  0  0  0  0  0  0  0  0
  144.9711  133.1788  151.2062 H   0  0  0  0  0  0  0  0  0  0  0  0
  144.1680  134.3183  150.1235 H   0  0  0  0  0  0  0  0  0  0  0  0
  151.4216  138.2886  154.0346 H   0  0  0  0  0  0  0  0  0  0  0  0
  1  2  1  0  0  0  0
  1 18  1  0  0  0  0
  1 19  1  0  0  0  0
  1 20  1  0  0  0  0
  2  3  1  0  0  0  0
  2 21  1  0  0  0  0
  2 22  1  0  0  0  0
  3 17  1  0  0  0  0
  3  4  1  0  0  0  0
  4  5  2  0  0  0  0
  4 23  1  0  0  0  0
  5  6  1  0  0  0  0
  5 16  1  0  0  0  0
  6  7  1  0  0  0  0
  6 24  1  0  0  0  0
  7  8  2  0  0  0  0
  7  9  1  0  0  0  0
  9 10  1  0  0  0  0
  9 25  1  0  0  0  0
 10 11  1  0  0  0  0
 10 26  1  0  0  0  0
 10 27  1  0  0  0  0
 11 15  1  0  0  0  0
 11 12  1  0  0  0  0
 11 28  1  0  0  0  0
 12 13  1  0  0  0  0
 12 29  1  0  0  0  0
 12 30  1  0  0  0  0
 13 14  1  0  0  0  0
 13 31  1  0  0  0  0
 13 32  1  0  0  0  0
 14 15  1  0  0  0  0
 14 33  1  0  0  0  0
 14 34  1  0  0  0  0
 16 17  2  0  0  0  0
 16 35  1  0  0  0  0
M  END
> <s_m_source_file>
AV-unprocessed.smi

> <i_m_source_file_index>
1746

> <i_lp_mmshare_version>
43012

> <i_f3d_flags>
0

> <s_epik_input>
W0NIM11bQ0gyXW4xW2NIXWMoW2NIXW4xKVtOSF1DKD1PKVtOSF1bQ0gyXVtDQEBIXTJbQ0gyXVtDSDJdW0NIMl1PMg==

> <s_epik_cmdline>
J2VwaWtfcHl0aG9uJywgJy1waCcsICc3LjAnLCAnLXRuJywgJzgnLCAnLW1hJywgJzIwMCcsICctbWV0YWxfYmluZGluZycsICctaW1hZScsICc8aW5maWxlLm1hZT4nLCAnLW9tYWUnLCAnPG91dGZpbGUubWFlPic=

> <r_lp_tautomer_probability>
1

> <r_epik_Ionization_Penalty>
0.000176839

> <r_epik_Ionization_Penalty_Charging>
0

> <r_epik_Ionization_Penalty_Neutral>
0.000176839

> <r_epik_State_Penalty>
-0

> <r_epik_Charging_Adjusted_Penalty>
0

> <i_epik_Tot_Q>
0

> <i_epik_Tot_abs_Q>
0

> <r_epik_Metal_State_Penalty>
-0

> <b_epik_Metal_Only>
0

> <s_lp_Force_Field>
OPLS_2005

> <r_lp_Energy>
20.4125

> <b_lp_Chiralities_Consistent>
1

> <s_lp_Variant>
AV-unprocessed.smi:1746-2

> <Gold.Version>
5.8.1

> <Gold.Id.Protein>
6NUR|6NUR_protein|mol2

> <Gold.PLP.Fitness>
35.4529

> <Gold.PLP.PLP>
-29.5491

> <Gold.PLP.part.hbond>
-4.0000

> <Gold.PLP.part.metal>
0.0000

> <Gold.PLP.part.buried>
-2.2407

> <Gold.PLP.part.nonpolar>
-23.4458

> <Gold.PLP.part.repulsive>
0.4653

> <Gold.PLP.ligand.clash>
0.0000

> <Gold.PLP.ligand.torsion>
0.1254

> <Gold.PLP.Chemscore.Hbond>
2.0450

> <Gold.PLP.Chemscore.CHOScore>
0.0000

> <Gold.PLP.Chemscore.Metal>
0.0000

> <Gold.Chemscore.Hbonds>
donor molecule, donor type, donor heavy atom, donor atom, acceptor molecule, acceptor atom, score
      L1  H     6    24       P1  7948  1.00
      L1  H     9    25       P1  7948  1.00
      P1  H  7989  7998       L1    17  0.09

> <Gold.PLP.Chemscore.Internal.Correction>
0.0196

> <Gold.Rescore>
     Score         DG    S(hbond)    S(metal)    S(lipo)     H(rot)  DE(clash)    DE(int)     intcor
     14.02     -15.31       1.93        0.00      59.58       1.41       0.08       1.21       ----

> <Gold.Chemscore.Fitness>
14.0190

> <Gold.Chemscore.DG>
-15.3073

> <Gold.Chemscore.ZeroCoef>
-5.4800

> <Gold.Chemscore.Hbond>
1.9331

> <Gold.Chemscore.Metal>
0.0000

> <Gold.Chemscore.Lipo>
59.5818

> <Gold.Chemscore.Internal_Hbond>
0.0000

> <Gold.Chemscore.DEClash>
0.0775

> <Gold.Chemscore.DEInternal>
1.2109

> <Gold.Chemscore.Rot>
1.4064

> <Gold.Chemscore.Internal.Correction>
   9.000000E+99

> <Gold.Chemscore.Hbonds>
donor molecule, donor type, donor heavy atom, donor atom, acceptor molecule, acceptor atom, score
      L1  H     6    24       P1  7948  0.97
      L1  H     9    25       P1  7948  0.98

> <Gold.Chemscore.Hbond.Weighted>
-6.4567

> <Gold.Chemscore.Metal.Weighted>
-0.0000

> <Gold.Chemscore.Lipo.Weighted>
-6.9711

> <Gold.Chemscore.Internal_Hbond.Weighted>
0.0000

> <Gold.Chemscore.DEClash.Weighted>
0.0775

> <Gold.Chemscore.DEInternal.Weighted>
1.2109

> <Gold.Chemscore.Rot.Weighted>
3.6004

> <Gold.Chemscore.Internal.Correction.Weighted>
   9.000000E+99

> <Gold.Protein.RotatedTorsions>
[ 6907 6896 6895 6894 ] final -140.15 input  -60.11 | X-H torsion
[ 7974 7965 7964 7962 ] final  125.22 input  175.53 | X-H torsion
[ 8008 7997 7996 7995 ] final  177.68 input   59.86 | X-H torsion
[ 10167 10162 10161 10158 ] final   38.51 input  -65.29 | X-H torsion
[ 10718 10713 10712 10709 ] final -137.03 input   66.30 | X-H torsion
[ 10763 10752 10751 10750 ] final  120.51 input  -60.55 | X-H torsion
[ 11005 11000 10999 10996 ] final  -41.86 input  -57.11 | X-H torsion

> <Gold.Protein.ActiveResidues>
 VAL166  LYS551  ARG553  GLY616  TRP617  ASP618  TYR619  PRO620  LYS621  CYS622 
 ASP623  PHE694  ASN695  SER759  ASP760  ASP761  ALA762  ILE779  LEU786  VAL792 
 PHE793  MET794  SER795  GLU796  ALA797  LYS798  CYS799  TRP800  GLU811  SER814 

> <Gold.Protein.RotatedAtoms>
  151.0570  133.5576  159.2637 H   0  0  0  0  0  0  0  0  0  0  0  0  # atno 6907 bound_to 6896
  151.2566  135.0639  159.9092 H   0  0  0  0  0  0  0  0  0  0  0  0  # atno 6908 bound_to 6896
  152.5391  134.0322  159.8083 H   0  0  0  0  0  0  0  0  0  0  0  0  # atno 6909 bound_to 6896
  145.0754  139.3697  143.4936 H   0  0  0  0  0  0  0  0  0  0  0  0  # atno 7974 bound_to 7965
  156.0630  140.1352  156.9919 H   0  0  0  0  0  0  0  0  0  0  0  0  # atno 8008 bound_to 7997
  154.4491  140.0987  156.6616 H   0  0  0  0  0  0  0  0  0  0  0  0  # atno 8009 bound_to 7997
  155.5347  140.3459  155.4436 H   0  0  0  0  0  0  0  0  0  0  0  0  # atno 8010 bound_to 7997
  140.3929  144.1828  150.6131 H   0  0  0  0  0  0  0  0  0  0  0  0  # atno 10167 bound_to 10162
  156.2836  130.7335  151.1340 H   0  0  0  0  0  0  0  0  0  0  0  0  # atno 10718 bound_to 10713
  153.5996  135.3450  155.2940 H   0  0  0  0  0  0  0  0  0  0  0  0  # atno 10763 bound_to 10752
  154.8638  135.4224  154.2427 H   0  0  0  0  0  0  0  0  0  0  0  0  # atno 10764 bound_to 10752
  153.3253  135.7041  153.7066 H   0  0  0  0  0  0  0  0  0  0  0  0  # atno 10765 bound_to 10752
  141.0276  133.6834  156.2516 H   0  0  0  0  0  0  0  0  0  0  0  0  # atno 11005 bound_to 11000
  146.3530  140.0519  142.8635 LP  0  0  0  0  0  0  0  0  0  0  0  0  # atno 17320 bound_to 7965
  145.1242  140.9480  143.4582 LP  0  0  0  0  0  0  0  0  0  0  0  0  # atno 17321 bound_to 7965
  140.4820  143.2376  151.8941 LP  0  0  0  0  0  0  0  0  0  0  0  0  # atno 17342 bound_to 10162
  139.4788  144.5259  151.8736 LP  0  0  0  0  0  0  0  0  0  0  0  0  # atno 17343 bound_to 10162
  157.7322  131.0602  150.5641 LP  0  0  0  0  0  0  0  0  0  0  0  0  # atno 17370 bound_to 10713
  156.5749  130.4289  149.6003 LP  0  0  0  0  0  0  0  0  0  0  0  0  # atno 17371 bound_to 10713
  140.6464  134.5112  157.5574 LP  0  0  0  0  0  0  0  0  0  0  0  0  # atno 17394 bound_to 11000
  139.9186  134.8195  156.1285 LP  0  0  0  0  0  0  0  0  0  0  0  0  # atno 17395 bound_to 11000

$$$$
