AV-unprocessed.smi:848|AV-procd|sdf|3940|dock2
  -GOLD-   22720 1403D 1   1.00000     0.00000
 Structure written by MMmdl.
 46 48  0  0  0  0  0  0  0  0  1 V2000
  151.9005  145.1499  159.9542 C   0  0  0  0  0  0  0  0  0  0  0  0
  152.0952  143.6827  159.6310 C   0  0  0  0  0  0  0  0  0  0  0  0
  152.9018  142.8733  160.4557 C   0  0  0  0  0  0  0  0  0  0  0  0
  153.0835  141.5110  160.1471 C   0  0  0  0  0  0  0  0  0  0  0  0
  153.9446  140.6374  161.0361 C   0  0  0  0  0  0  0  0  0  0  0  0
  152.4557  140.9616  159.0110 C   0  0  0  0  0  0  0  0  0  0  0  0
  151.6451  141.7571  158.1757 C   0  0  0  0  0  0  0  0  0  0  0  0
  151.0744  141.1360  157.0857 O   0  0  0  0  0  0  0  0  0  0  0  0
  150.6235  141.9443  156.0056 C   0  0  0  0  0  0  0  0  0  0  0  0
  149.5937  141.1738  155.1624 C   0  0  1  0  0  0  0  0  0  0  0  0
  148.9833  142.0625  154.2478 O   0  0  0  0  0  0  0  0  0  0  0  0
  150.1731  139.9338  154.4508 C   0  0  0  0  0  0  0  0  0  0  0  0
  149.3233  138.7598  154.6000 N   0  0  0  0  0  0  0  0  0  0  0  0
  148.0304  138.5997  154.2187 C   0  0  0  0  0  0  0  0  0  0  0  0
  147.2686  139.7026  153.5393 C   0  0  0  0  0  0  0  0  0  0  0  0
  146.9687  139.4427  152.1827 O   0  0  0  0  0  0  0  0  0  0  0  0
  147.4980  137.4028  154.4792 N   0  0  0  0  0  0  0  0  0  0  0  0
  148.5382  136.7293  155.0876 C   0  0  0  0  0  0  0  0  0  0  0  0
  148.6064  135.4144  155.6010 C   0  0  0  0  0  0  0  0  0  0  0  0
  149.7981  134.9370  156.1850 C   0  0  0  0  0  0  0  0  0  0  0  0
  150.9361  135.7657  156.2637 C   0  0  0  0  0  0  0  0  0  0  0  0
  150.8892  137.0793  155.7584 C   0  0  0  0  0  0  0  0  0  0  0  0
  149.6969  137.5506  155.1770 C   0  0  0  0  0  0  0  0  0  0  0  0
  151.4684  143.1267  158.4971 C   0  0  0  0  0  0  0  0  0  0  0  0
  152.3607  145.4127  160.9071 H   0  0  0  0  0  0  0  0  0  0  0  0
  150.8383  145.3878  160.0130 H   0  0  0  0  0  0  0  0  0  0  0  0
  152.3488  145.7692  159.1769 H   0  0  0  0  0  0  0  0  0  0  0  0
  153.3821  143.2966  161.3262 H   0  0  0  0  0  0  0  0  0  0  0  0
  154.4386  139.8582  160.4549 H   0  0  0  0  0  0  0  0  0  0  0  0
  153.3304  140.1598  161.7998 H   0  0  0  0  0  0  0  0  0  0  0  0
  154.7155  141.2265  161.5338 H   0  0  0  0  0  0  0  0  0  0  0  0
  152.5946  139.9164  158.7753 H   0  0  0  0  0  0  0  0  0  0  0  0
  150.1482  142.8390  156.4109 H   0  0  0  0  0  0  0  0  0  0  0  0
  151.4563  142.2667  155.3781 H   0  0  0  0  0  0  0  0  0  0  0  0
  148.7994  140.8464  155.8342 H   0  0  0  0  0  0  0  0  0  0  0  0
  148.7787  142.8665  154.7005 H   0  0  0  0  0  0  0  0  0  0  0  0
  150.3356  140.1313  153.3913 H   0  0  0  0  0  0  0  0  0  0  0  0
  151.1533  139.6954  154.8651 H   0  0  0  0  0  0  0  0  0  0  0  0
  146.3300  139.8757  154.0645 H   0  0  0  0  0  0  0  0  0  0  0  0
  147.8507  140.6224  153.5986 H   0  0  0  0  0  0  0  0  0  0  0  0
  147.7800  139.3776  151.7031 H   0  0  0  0  0  0  0  0  0  0  0  0
  147.7399  134.7723  155.5446 H   0  0  0  0  0  0  0  0  0  0  0  0
  149.8388  133.9301  156.5739 H   0  0  0  0  0  0  0  0  0  0  0  0
  151.8451  135.3918  156.7117 H   0  0  0  0  0  0  0  0  0  0  0  0
  151.7588  137.7168  155.8166 H   0  0  0  0  0  0  0  0  0  0  0  0
  150.8569  143.7729  157.8860 H   0  0  0  0  0  0  0  0  0  0  0  0
  1  2  1  0  0  0  0
  1 25  1  0  0  0  0
  1 26  1  0  0  0  0
  1 27  1  0  0  0  0
  2 24  1  0  0  0  0
  2  3  2  0  0  0  0
  3  4  1  0  0  0  0
  3 28  1  0  0  0  0
  4  5  1  0  0  0  0
  4  6  2  0  0  0  0
  5 29  1  0  0  0  0
  5 30  1  0  0  0  0
  5 31  1  0  0  0  0
  6  7  1  0  0  0  0
  6 32  1  0  0  0  0
  7  8  1  0  0  0  0
  7 24  2  0  0  0  0
  8  9  1  0  0  0  0
  9 10  1  0  0  0  0
  9 33  1  0  0  0  0
  9 34  1  0  0  0  0
 10 11  1  0  0  0  0
 10 12  1  0  0  0  0
 10 35  1  0  0  0  0
 11 36  1  0  0  0  0
 12 13  1  0  0  0  0
 12 37  1  0  0  0  0
 12 38  1  0  0  0  0
 13 23  1  0  0  0  0
 13 14  1  0  0  0  0
 14 15  1  0  0  0  0
 14 17  2  0  0  0  0
 15 16  1  0  0  0  0
 15 39  1  0  0  0  0
 15 40  1  0  0  0  0
 16 41  1  0  0  0  0
 17 18  1  0  0  0  0
 18 23  2  0  0  0  0
 18 19  1  0  0  0  0
 19 20  2  0  0  0  0
 19 42  1  0  0  0  0
 20 21  1  0  0  0  0
 20 43  1  0  0  0  0
 21 22  2  0  0  0  0
 21 44  1  0  0  0  0
 22 23  1  0  0  0  0
 22 45  1  0  0  0  0
 24 46  1  0  0  0  0
M  END
> <s_m_source_file>
AV-unprocessed.smi

> <i_m_source_file_index>
848

> <i_lp_mmshare_version>
43012

> <i_f3d_flags>
0

> <s_epik_input>
W0NIM11jMVtjSF1jKFtDSDNdKVtjSF1jKFtjSF0xKU9bQ0gyXVtDQEhdKFtPSF0pW0NIMl1uKGMobjIpW0NIMl1bT0hdKWMoYzIzKVtjSF1bY0hdW2NIXVtjSF0z

> <s_epik_cmdline>
J2VwaWtfcHl0aG9uJywgJy1waCcsICc3LjAnLCAnLXRuJywgJzgnLCAnLW1hJywgJzIwMCcsICctbWV0YWxfYmluZGluZycsICctaW1hZScsICc8aW5maWxlLm1hZT4nLCAnLW9tYWUnLCAnPG91dGZpbGUubWFlPic=

> <r_lp_tautomer_probability>
1

> <r_epik_Ionization_Penalty>
0.0554234

> <r_epik_Ionization_Penalty_Charging>
0

> <r_epik_Ionization_Penalty_Neutral>
0.0554234

> <r_epik_State_Penalty>
0.0476717

> <r_epik_Charging_Adjusted_Penalty>
0.0476717

> <i_epik_Tot_Q>
0

> <i_epik_Tot_abs_Q>
0

> <r_epik_Metal_State_Penalty>
4.96399e-05

> <b_epik_Metal_Only>
0

> <s_lp_Force_Field>
OPLS_2005

> <r_lp_Energy>
17.6838

> <b_lp_Chiralities_Consistent>
1

> <s_lp_Variant>
AV-unprocessed.smi:848-2

> <Gold.Version>
5.8.1

> <Gold.Id.Protein>
6NUR|6NUR_protein|mol2

> <Gold.PLP.Fitness>
52.0447

> <Gold.PLP.PLP>
-47.0349

> <Gold.PLP.part.hbond>
-3.0000

> <Gold.PLP.part.metal>
0.0000

> <Gold.PLP.part.buried>
-3.8044

> <Gold.PLP.part.nonpolar>
-40.1485

> <Gold.PLP.part.repulsive>
0.2354

> <Gold.PLP.ligand.clash>
0.0000

> <Gold.PLP.ligand.torsion>
1.1133

> <Gold.PLP.Chemscore.Hbond>
2.3058

> <Gold.PLP.Chemscore.CHOScore>
0.0000

> <Gold.PLP.Chemscore.Metal>
0.0000

> <Gold.Chemscore.Hbonds>
donor molecule, donor type, donor heavy atom, donor atom, acceptor molecule, acceptor atom, score
      L1  H    11    36       P1  8028  0.91
      L1  H    16    41       P1  7957  1.00
      P1  H  8011  8017       L1    11  0.29

> <Gold.PLP.Chemscore.Internal.Correction>
0.3191

> <Gold.Rescore>
     Score         DG    S(hbond)    S(metal)    S(lipo)     H(rot)  DE(clash)    DE(int)     intcor
     18.80     -21.24       2.24        0.00     135.53       2.96       1.29       1.14       ----

> <Gold.Chemscore.Fitness>
18.8044

> <Gold.Chemscore.DG>
-21.2364

> <Gold.Chemscore.ZeroCoef>
-5.4800

> <Gold.Chemscore.Hbond>
2.2357

> <Gold.Chemscore.Metal>
0.0000

> <Gold.Chemscore.Lipo>
135.5298

> <Gold.Chemscore.Internal_Hbond>
0.0000

> <Gold.Chemscore.DEClash>
1.2901

> <Gold.Chemscore.DEInternal>
1.1419

> <Gold.Chemscore.Rot>
2.9561

> <Gold.Chemscore.Internal.Correction>
   9.000000E+99

> <Gold.Chemscore.Hbonds>
donor molecule, donor type, donor heavy atom, donor atom, acceptor molecule, acceptor atom, score
      L1  H    11    36       P1  8028  0.87
      L1  H    16    41       P1  7957  0.94
      P1  H  8011  8017       L1    11  0.22

> <Gold.Chemscore.Hbond.Weighted>
-7.4671

> <Gold.Chemscore.Metal.Weighted>
-0.0000

> <Gold.Chemscore.Lipo.Weighted>
-15.8570

> <Gold.Chemscore.Internal_Hbond.Weighted>
0.0000

> <Gold.Chemscore.DEClash.Weighted>
1.2901

> <Gold.Chemscore.DEInternal.Weighted>
1.1419

> <Gold.Chemscore.Rot.Weighted>
7.5677

> <Gold.Chemscore.Internal.Correction.Weighted>
   9.000000E+99

> <Gold.Protein.RotatedTorsions>
[ 6907 6896 6895 6894 ] final   31.74 input  -60.11 | X-H torsion
[ 7974 7965 7964 7962 ] final   51.57 input  175.53 | X-H torsion
[ 8008 7997 7996 7995 ] final  -63.85 input   59.86 | X-H torsion
[ 10167 10162 10161 10158 ] final  -41.08 input  -65.29 | X-H torsion
[ 10718 10713 10712 10709 ] final   11.93 input   66.30 | X-H torsion
[ 10763 10752 10751 10750 ] final  -84.55 input  -60.55 | X-H torsion
[ 11005 11000 10999 10996 ] final  114.57 input  -57.11 | X-H torsion

> <Gold.Protein.ActiveResidues>
 VAL166  LYS551  ARG553  GLY616  TRP617  ASP618  TYR619  PRO620  LYS621  CYS622 
 ASP623  PHE694  ASN695  SER759  ASP760  ASP761  ALA762  ILE779  LEU786  VAL792 
 PHE793  MET794  SER795  GLU796  ALA797  LYS798  CYS799  TRP800  GLU811  SER814 

> <Gold.Protein.RotatedAtoms>
  152.0645  134.9573  160.0574 H   0  0  0  0  0  0  0  0  0  0  0  0  # atno 6907 bound_to 6896
  152.0923  133.4202  159.4557 H   0  0  0  0  0  0  0  0  0  0  0  0  # atno 6908 bound_to 6896
  150.6837  134.2777  159.4657 H   0  0  0  0  0  0  0  0  0  0  0  0  # atno 6909 bound_to 6896
  145.9900  139.4329  143.0079 H   0  0  0  0  0  0  0  0  0  0  0  0  # atno 7974 bound_to 7965
  154.4578  140.0966  156.6806 H   0  0  0  0  0  0  0  0  0  0  0  0  # atno 8008 bound_to 7997
  155.5086  140.3475  155.4366 H   0  0  0  0  0  0  0  0  0  0  0  0  # atno 8009 bound_to 7997
  156.0811  140.1373  156.9700 H   0  0  0  0  0  0  0  0  0  0  0  0  # atno 8010 bound_to 7997
  140.7014  143.3115  151.3015 H   0  0  0  0  0  0  0  0  0  0  0  0  # atno 10167 bound_to 10162
  157.0027  130.6086  149.5698 H   0  0  0  0  0  0  0  0  0  0  0  0  # atno 10718 bound_to 10713
  154.6008  135.5516  153.7372 H   0  0  0  0  0  0  0  0  0  0  0  0  # atno 10763 bound_to 10752
  153.0154  135.6366  154.1717 H   0  0  0  0  0  0  0  0  0  0  0  0  # atno 10764 bound_to 10752
  154.1657  135.2895  155.3076 H   0  0  0  0  0  0  0  0  0  0  0  0  # atno 10765 bound_to 10752
  139.8984  134.9570  156.6912 H   0  0  0  0  0  0  0  0  0  0  0  0  # atno 11005 bound_to 11000
  145.7644  140.9922  143.1182 LP  0  0  0  0  0  0  0  0  0  0  0  0  # atno 17320 bound_to 7965
  144.6886  139.9370  143.7474 LP  0  0  0  0  0  0  0  0  0  0  0  0  # atno 17321 bound_to 7965
  139.6540  144.0310  152.2646 LP  0  0  0  0  0  0  0  0  0  0  0  0  # atno 17342 bound_to 10162
  139.9856  144.6398  150.7861 LP  0  0  0  0  0  0  0  0  0  0  0  0  # atno 17343 bound_to 10162
  156.0165  130.5259  150.8150 LP  0  0  0  0  0  0  0  0  0  0  0  0  # atno 17370 bound_to 10713
  157.5378  131.0939  150.9868 LP  0  0  0  0  0  0  0  0  0  0  0  0  # atno 17371 bound_to 10713
  140.7223  133.9130  155.8155 LP  0  0  0  0  0  0  0  0  0  0  0  0  # atno 17394 bound_to 11000
  141.0217  134.0879  157.4113 LP  0  0  0  0  0  0  0  0  0  0  0  0  # atno 17395 bound_to 11000

$$$$
