AV-unprocessed.smi:1222|AV-procd|sdf|5121|dock3
  -GOLD-   22720 4183D 1   1.00000     0.00000
 Structure written by MMmdl.
 37 39  0  0  0  0  0  0  0  0  2 V2000
  145.9397  138.9904  153.5606 O   0  0  0  0  0  0  0  0  0  0  0  0
  146.8552  138.2840  153.1376 C   0  0  0  0  0  0  0  0  0  0  0  0
  148.1630  138.4719  153.3876 N   0  0  0  0  0  0  0  0  0  0  0  0
  148.7687  139.4902  154.1698 C   0  0  0  0  0  0  0  0  0  0  0  0
  148.1390  140.5929  154.5918 N   0  0  0  0  0  0  0  0  0  0  0  0
  148.9775  141.4211  155.3422 C   0  0  0  0  0  0  0  0  0  0  0  0
  150.2516  140.9299  155.4828 C   0  0  0  0  0  0  0  0  0  0  0  0
  150.4501  139.3985  154.6733 S   0  0  0  0  0  0  0  0  0  0  0  0
  146.6575  137.2114  152.3569 N   0  0  0  0  0  0  0  0  0  0  0  0
  145.3550  136.7404  151.8947 C   0  0  2  0  0  0  0  0  0  0  0  0
  144.6563  135.8979  152.9790 C   0  0  0  0  0  0  0  0  0  0  0  0
  143.3271  135.3159  152.4615 C   0  0  0  0  0  0  0  0  0  0  0  0
  143.5065  134.5339  151.2112 N   0  3  2  0  0  0  0  0  0  0  0  0
  144.1274  133.2070  151.4338 C   0  0  0  0  0  0  0  0  0  0  0  0
  144.8421  132.6595  150.2204 C   0  0  0  0  0  0  0  0  0  0  0  0
  143.4956  132.1004  150.6220 C   0  0  0  0  0  0  0  0  0  0  0  0
  144.1752  135.3262  150.1469 C   0  0  0  0  0  0  0  0  0  0  0  0
  145.5240  135.9050  150.6151 C   0  0  0  0  0  0  0  0  0  0  0  0
  148.8008  137.8103  152.9707 H   0  0  0  0  0  0  0  0  0  0  0  0
  148.5840  142.3453  155.7394 H   0  0  0  0  0  0  0  0  0  0  0  0
  151.0817  141.3747  156.0109 H   0  0  0  0  0  0  0  0  0  0  0  0
  147.4665  136.6883  152.0550 H   0  0  0  0  0  0  0  0  0  0  0  0
  144.7294  137.6033  151.6573 H   0  0  0  0  0  0  0  0  0  0  0  0
  145.3129  135.0904  153.3052 H   0  0  0  0  0  0  0  0  0  0  0  0
  144.4633  136.5077  153.8623 H   0  0  0  0  0  0  0  0  0  0  0  0
  142.8607  134.6941  153.2264 H   0  0  0  0  0  0  0  0  0  0  0  0
  142.6293  136.1296  152.2603 H   0  0  0  0  0  0  0  0  0  0  0  0
  144.5106  133.0043  152.4320 H   0  0  0  0  0  0  0  0  0  0  0  0
  144.8830  133.2745  149.3233 H   0  0  0  0  0  0  0  0  0  0  0  0
  145.7137  132.0313  150.3927 H   0  0  0  0  0  0  0  0  0  0  0  0
  143.4798  131.1038  151.0584 H   0  0  0  0  0  0  0  0  0  0  0  0
  142.6428  132.3447  149.9909 H   0  0  0  0  0  0  0  0  0  0  0  0
  144.3127  134.7131  149.2557 H   0  0  0  0  0  0  0  0  0  0  0  0
  143.5111  136.1417  149.8578 H   0  0  0  0  0  0  0  0  0  0  0  0
  145.9511  136.5210  149.8227 H   0  0  0  0  0  0  0  0  0  0  0  0
  146.2342  135.0951  150.7875 H   0  0  0  0  0  0  0  0  0  0  0  0
  142.5766  134.3362  150.8697 H   0  0  0  0  0  0  0  0  0  0  0  0
  1  2  2  0  0  0  0
  2  3  1  0  0  0  0
  2  9  1  0  0  0  0
  3  4  1  0  0  0  0
  3 19  1  0  0  0  0
  4  8  1  0  0  0  0
  4  5  2  0  0  0  0
  5  6  1  0  0  0  0
  6  7  2  0  0  0  0
  6 20  1  0  0  0  0
  7  8  1  0  0  0  0
  7 21  1  0  0  0  0
  9 10  1  0  0  0  0
  9 22  1  0  0  0  0
 10 18  1  0  0  0  0
 10 11  1  0  0  0  0
 10 23  1  0  0  0  0
 11 12  1  0  0  0  0
 11 24  1  0  0  0  0
 11 25  1  0  0  0  0
 12 13  1  0  0  0  0
 12 26  1  0  0  0  0
 12 27  1  0  0  0  0
 13 14  1  0  0  0  0
 13 17  1  0  0  0  0
 13 37  1  0  0  0  0
 14 16  1  0  0  0  0
 14 15  1  0  0  0  0
 14 28  1  0  0  0  0
 15 16  1  0  0  0  0
 15 29  1  0  0  0  0
 15 30  1  0  0  0  0
 16 31  1  0  0  0  0
 16 32  1  0  0  0  0
 17 18  1  0  0  0  0
 17 33  1  0  0  0  0
 17 34  1  0  0  0  0
 18 35  1  0  0  0  0
 18 36  1  0  0  0  0
M  CHG  1  13   1
M  END
> <s_m_source_file>
AV-unprocessed.smi

> <i_m_source_file_index>
1222

> <i_lp_mmshare_version>
43012

> <i_f3d_flags>
0

> <s_epik_input>
czFbY0hdW2NIXW5jMVtOSF1DKD1PKVtOSF1bQ0hdMltDSDJdW0NIMl1OKFtDSDJdW0NIMl0yKVtDSF0zW0NIMl1bQ0gyXTM=

> <s_epik_cmdline>
J2VwaWtfcHl0aG9uJywgJy1waCcsICc3LjAnLCAnLXRuJywgJzgnLCAnLW1hJywgJzIwMCcsICctbWV0YWxfYmluZGluZycsICctaW1hZScsICc8aW5maWxlLm1hZT4nLCAnLW9tYWUnLCAnPG91dGZpbGUubWFlPic=

> <r_lp_tautomer_probability>
0.999

> <r_epik_Ionization_Penalty>
0.124652

> <r_epik_Ionization_Penalty_Charging>
0.124514

> <r_epik_Ionization_Penalty_Neutral>
0.000138693

> <r_epik_State_Penalty>
0.113992

> <r_epik_Charging_Adjusted_Penalty>
0.238505

> <i_epik_Tot_Q>
1

> <i_epik_Tot_abs_Q>
1

> <r_epik_Metal_State_Penalty>
0.160715

> <b_epik_Metal_Only>
0

> <s_lp_Force_Field>
OPLS_2005

> <r_lp_Energy>
26.0033

> <b_lp_Chiralities_Consistent>
1

> <s_lp_Variant>
AV-unprocessed.smi:1222-2

> <Gold.Version>
5.8.1

> <Gold.Id.Protein>
6NUR|6NUR_protein|mol2

> <Gold.PLP.Fitness>
43.9068

> <Gold.PLP.PLP>
-30.3610

> <Gold.PLP.part.hbond>
-3.7387

> <Gold.PLP.part.metal>
0.0000

> <Gold.PLP.part.buried>
-2.5569

> <Gold.PLP.part.nonpolar>
-27.3519

> <Gold.PLP.part.repulsive>
1.6411

> <Gold.PLP.ligand.clash>
0.0036

> <Gold.PLP.ligand.torsion>
1.2244

> <Gold.PLP.Chemscore.Hbond>
3.9105

> <Gold.PLP.Chemscore.CHOScore>
1.0000

> <Gold.PLP.Chemscore.Metal>
0.0000

> <Gold.Chemscore.Hbonds>
donor molecule, donor type, donor heavy atom, donor atom, acceptor molecule, acceptor atom, score
      L1  H     3    19       P1  7948  0.93
      L1  H     9    22       P1  7948  1.00
      L1  H    13    37       P1 10186  1.95
      L1  C     6    20       P1  8028  1.00

> <Gold.PLP.Chemscore.Internal.Correction>
1.2666

> <Gold.Rescore>
     Score         DG    S(hbond)    S(metal)    S(lipo)     H(rot)  DE(clash)    DE(int)     intcor
     15.52     -18.00       2.15        0.00      73.19       1.26       0.08       2.40       ----

> <Gold.Chemscore.Fitness>
15.5202

> <Gold.Chemscore.DG>
-18.0022

> <Gold.Chemscore.ZeroCoef>
-5.4800

> <Gold.Chemscore.Hbond>
2.1518

> <Gold.Chemscore.Metal>
0.0000

> <Gold.Chemscore.Lipo>
73.1895

> <Gold.Chemscore.Internal_Hbond>
0.0000

> <Gold.Chemscore.DEClash>
0.0798

> <Gold.Chemscore.DEInternal>
2.4022

> <Gold.Chemscore.Rot>
1.2609

> <Gold.Chemscore.Internal.Correction>
   9.000000E+99

> <Gold.Chemscore.Hbonds>
donor molecule, donor type, donor heavy atom, donor atom, acceptor molecule, acceptor atom, score
      L1  H     3    19       P1  7948  0.89
      L1  H     9    22       P1  7948  0.95
      L1  H    13    37       P1 10186  0.23

> <Gold.Chemscore.Hbond.Weighted>
-7.1869

> <Gold.Chemscore.Metal.Weighted>
-0.0000

> <Gold.Chemscore.Lipo.Weighted>
-8.5632

> <Gold.Chemscore.Internal_Hbond.Weighted>
0.0000

> <Gold.Chemscore.DEClash.Weighted>
0.0798

> <Gold.Chemscore.DEInternal.Weighted>
2.4022

> <Gold.Chemscore.Rot.Weighted>
3.2279

> <Gold.Chemscore.Internal.Correction.Weighted>
   9.000000E+99

> <Gold.Protein.RotatedTorsions>
[ 6907 6896 6895 6894 ] final  115.73 input  -60.11 | X-H torsion
[ 7974 7965 7964 7962 ] final   31.80 input  175.53 | X-H torsion
[ 8008 7997 7996 7995 ] final  -88.71 input   59.86 | X-H torsion
[ 10167 10162 10161 10158 ] final -165.39 input  -65.29 | X-H torsion
[ 10718 10713 10712 10709 ] final  160.47 input   66.30 | X-H torsion
[ 10763 10752 10751 10750 ] final -180.00 input  -60.55 | X-H torsion
[ 11005 11000 10999 10996 ] final  165.95 input  -57.11 | X-H torsion

> <Gold.Protein.ActiveResidues>
 VAL166  LYS551  ARG553  GLY616  TRP617  ASP618  TYR619  PRO620  LYS621  CYS622 
 ASP623  PHE694  ASN695  SER759  ASP760  ASP761  ALA762  ILE779  LEU786  VAL792 
 PHE793  MET794  SER795  GLU796  ALA797  LYS798  CYS799  TRP800  GLU811  SER814 

> <Gold.Protein.RotatedAtoms>
  152.4723  133.8058  159.6977 H   0  0  0  0  0  0  0  0  0  0  0  0  # atno 6907 bound_to 6896
  150.8720  133.7483  159.2965 H   0  0  0  0  0  0  0  0  0  0  0  0  # atno 6908 bound_to 6896
  151.5015  135.1065  159.9882 H   0  0  0  0  0  0  0  0  0  0  0  0  # atno 6909 bound_to 6896
  146.1527  139.6609  142.9087 H   0  0  0  0  0  0  0  0  0  0  0  0  # atno 7974 bound_to 7965
  154.6780  140.0550  157.0236 H   0  0  0  0  0  0  0  0  0  0  0  0  # atno 8008 bound_to 7997
  155.0992  140.3227  155.4533 H   0  0  0  0  0  0  0  0  0  0  0  0  # atno 8009 bound_to 7997
  156.2683  140.2034  156.6119 H   0  0  0  0  0  0  0  0  0  0  0  0  # atno 8010 bound_to 7997
  139.6185  144.0671  152.1911 H   0  0  0  0  0  0  0  0  0  0  0  0  # atno 10167 bound_to 10162
  157.1499  131.0561  151.2285 H   0  0  0  0  0  0  0  0  0  0  0  0  # atno 10718 bound_to 10713
  154.5279  135.2798  155.1206 H   0  0  0  0  0  0  0  0  0  0  0  0  # atno 10763 bound_to 10752
  154.2737  135.6298  153.5324 H   0  0  0  0  0  0  0  0  0  0  0  0  # atno 10764 bound_to 10752
  152.9950  135.5634  154.5785 H   0  0  0  0  0  0  0  0  0  0  0  0  # atno 10765 bound_to 10752
  140.2614  134.7899  157.3593 H   0  0  0  0  0  0  0  0  0  0  0  0  # atno 11005 bound_to 11000
  145.4784  141.0437  143.2660 LP  0  0  0  0  0  0  0  0  0  0  0  0  # atno 17320 bound_to 7965
  144.7924  139.6301  143.7107 LP  0  0  0  0  0  0  0  0  0  0  0  0  # atno 17321 bound_to 7965
  140.0307  144.6083  150.7490 LP  0  0  0  0  0  0  0  0  0  0  0  0  # atno 17342 bound_to 10162
  140.7367  143.2756  151.3752 LP  0  0  0  0  0  0  0  0  0  0  0  0  # atno 17343 bound_to 10162
  157.4230  130.7448  149.6928 LP  0  0  0  0  0  0  0  0  0  0  0  0  # atno 17370 bound_to 10713
  155.9772  130.4065  150.3725 LP  0  0  0  0  0  0  0  0  0  0  0  0  # atno 17371 bound_to 10713
  140.1461  134.4910  155.7995 LP  0  0  0  0  0  0  0  0  0  0  0  0  # atno 17394 bound_to 11000
  141.2190  133.6844  156.7295 LP  0  0  0  0  0  0  0  0  0  0  0  0  # atno 17395 bound_to 11000

$$$$
