AV-unprocessed.smi:1228|AV-procd|sdf|5149|dock2
  -GOLD-   22720 4223D 1   1.00000     0.00000
 Structure written by MMmdl.
 43 45  0  0  0  0  0  0  0  0  1 V2000
  150.5061  140.9945  155.4505 C   0  0  0  0  0  0  0  0  0  0  0  0
  149.1447  140.9013  154.8272 C   0  0  0  0  0  0  0  0  0  0  0  0
  148.4872  139.7411  154.3241 C   0  0  0  0  0  0  0  0  0  0  0  0
  147.2917  140.2396  153.8833 C   0  0  0  0  0  0  0  0  0  0  0  0
  146.2516  139.5821  153.3048 N   0  0  0  0  0  0  0  0  0  0  0  0
  146.1039  138.2624  153.0940 C   0  0  0  0  0  0  0  0  0  0  0  0
  146.9209  137.3936  153.4002 O   0  0  0  0  0  0  0  0  0  0  0  0
  144.9340  137.9974  152.4948 N   0  0  0  0  0  0  0  0  0  0  0  0
  144.4597  136.6670  152.1251 C   0  0  0  0  0  0  0  0  0  0  0  0
  144.4962  135.7142  153.3333 C   0  0  0  0  0  0  0  0  0  0  0  0
  144.1492  134.2750  152.9139 C   0  0  0  0  0  0  0  0  0  0  0  0
  145.0781  133.8091  151.8836 N   0  0  0  0  0  0  0  0  0  0  0  0
  144.7489  132.4347  151.5425 C   0  0  0  0  0  0  0  0  0  0  0  0
  145.1301  131.9466  150.1636 C   0  0  0  0  0  0  0  0  0  0  0  0
  143.6813  132.2093  150.4963 C   0  0  0  0  0  0  0  0  0  0  0  0
  144.9474  134.6382  150.6853 C   0  0  0  0  0  0  0  0  0  0  0  0
  145.3379  136.0925  151.0027 C   0  0  0  0  0  0  0  0  0  0  0  0
  147.2630  141.5968  154.1155 N   0  0  0  0  0  0  0  0  0  0  0  0
  146.2169  142.5589  153.8280 C   0  0  0  0  0  0  0  0  0  0  0  0
  148.4111  142.0015  154.7003 N   0  0  0  0  0  0  0  0  0  0  0  0
  150.9763  140.0133  155.5183 H   0  0  0  0  0  0  0  0  0  0  0  0
  150.4497  141.4049  156.4590 H   0  0  0  0  0  0  0  0  0  0  0  0
  151.1632  141.6371  154.8643 H   0  0  0  0  0  0  0  0  0  0  0  0
  148.8498  138.7244  154.3020 H   0  0  0  0  0  0  0  0  0  0  0  0
  145.4922  140.1695  152.9936 H   0  0  0  0  0  0  0  0  0  0  0  0
  144.3241  138.7720  152.2777 H   0  0  0  0  0  0  0  0  0  0  0  0
  143.4344  136.7370  151.7560 H   0  0  0  0  0  0  0  0  0  0  0  0
  145.4863  135.7286  153.7915 H   0  0  0  0  0  0  0  0  0  0  0  0
  143.7962  136.0500  154.0992 H   0  0  0  0  0  0  0  0  0  0  0  0
  144.2117  133.6196  153.7835 H   0  0  0  0  0  0  0  0  0  0  0  0
  143.1227  134.2238  152.5471 H   0  0  0  0  0  0  0  0  0  0  0  0
  144.7927  131.6816  152.3278 H   0  0  0  0  0  0  0  0  0  0  0  0
  145.6251  132.6466  149.4929 H   0  0  0  0  0  0  0  0  0  0  0  0
  145.4450  130.9094  150.0690 H   0  0  0  0  0  0  0  0  0  0  0  0
  143.0301  131.3468  150.6225 H   0  0  0  0  0  0  0  0  0  0  0  0
  143.2145  133.0836  150.0461 H   0  0  0  0  0  0  0  0  0  0  0  0
  145.5985  134.2503  149.9010 H   0  0  0  0  0  0  0  0  0  0  0  0
  143.9259  134.5939  150.3043 H   0  0  0  0  0  0  0  0  0  0  0  0
  145.2435  136.7036  150.1044 H   0  0  0  0  0  0  0  0  0  0  0  0
  146.3892  136.1286  151.2931 H   0  0  0  0  0  0  0  0  0  0  0  0
  145.9197  142.4771  152.7820 H   0  0  0  0  0  0  0  0  0  0  0  0
  146.5672  143.5748  154.0159 H   0  0  0  0  0  0  0  0  0  0  0  0
  145.3526  142.3588  154.4618 H   0  0  0  0  0  0  0  0  0  0  0  0
  1  2  1  0  0  0  0
  1 21  1  0  0  0  0
  1 22  1  0  0  0  0
  1 23  1  0  0  0  0
  2 20  2  0  0  0  0
  2  3  1  0  0  0  0
  3  4  2  0  0  0  0
  3 24  1  0  0  0  0
  4  5  1  0  0  0  0
  4 18  1  0  0  0  0
  5  6  1  0  0  0  0
  5 25  1  0  0  0  0
  6  7  2  0  0  0  0
  6  8  1  0  0  0  0
  8  9  1  0  0  0  0
  8 26  1  0  0  0  0
  9 17  1  0  0  0  0
  9 10  1  0  0  0  0
  9 27  1  0  0  0  0
 10 11  1  0  0  0  0
 10 28  1  0  0  0  0
 10 29  1  0  0  0  0
 11 12  1  0  0  0  0
 11 30  1  0  0  0  0
 11 31  1  0  0  0  0
 12 13  1  0  0  0  0
 12 16  1  0  0  0  0
 13 15  1  0  0  0  0
 13 14  1  0  0  0  0
 13 32  1  0  0  0  0
 14 15  1  0  0  0  0
 14 33  1  0  0  0  0
 14 34  1  0  0  0  0
 15 35  1  0  0  0  0
 15 36  1  0  0  0  0
 16 17  1  0  0  0  0
 16 37  1  0  0  0  0
 16 38  1  0  0  0  0
 17 39  1  0  0  0  0
 17 40  1  0  0  0  0
 18 19  1  0  0  0  0
 18 20  1  0  0  0  0
 19 41  1  0  0  0  0
 19 42  1  0  0  0  0
 19 43  1  0  0  0  0
M  END
> <s_m_source_file>
AV-unprocessed.smi

> <i_m_source_file_index>
1228

> <i_lp_mmshare_version>
43012

> <i_f3d_flags>
0

> <s_epik_input>
W0NIM11jMVtjSF1jKG4objEpW0NIM10pW05IXUMoPU8pW05IXVtDSF0yW0NIMl1bQ0gyXU4oW0NIMl1bQ0gyXTIpW0NIXTNbQ0gyXVtDSDJdMw==

> <s_epik_cmdline>
J2VwaWtfcHl0aG9uJywgJy1waCcsICc3LjAnLCAnLXRuJywgJzgnLCAnLW1hJywgJzIwMCcsICctbWV0YWxfYmluZGluZycsICctaW1hZScsICc8aW5maWxlLm1hZT4nLCAnLW9tYWUnLCAnPG91dGZpbGUubWFlPic=

> <r_lp_tautomer_probability>
1

> <r_epik_Ionization_Penalty>
1.01084

> <r_epik_Ionization_Penalty_Charging>
0

> <r_epik_Ionization_Penalty_Neutral>
1.01084

> <r_epik_State_Penalty>
1.06014

> <r_epik_Charging_Adjusted_Penalty>
1.06014

> <i_epik_Tot_Q>
0

> <i_epik_Tot_abs_Q>
0

> <r_epik_Metal_State_Penalty>
1.06013

> <b_epik_Metal_Only>
0

> <s_lp_Force_Field>
OPLS_2005

> <r_lp_Energy>
22.8061

> <b_lp_Chiralities_Consistent>
1

> <s_lp_Variant>
AV-unprocessed.smi:1228-3

> <Gold.Version>
5.8.1

> <Gold.Id.Protein>
6NUR|6NUR_protein|mol2

> <Gold.PLP.Fitness>
40.7487

> <Gold.PLP.PLP>
-35.0977

> <Gold.PLP.part.hbond>
-3.0000

> <Gold.PLP.part.metal>
0.0000

> <Gold.PLP.part.buried>
-5.0556

> <Gold.PLP.part.nonpolar>
-31.0048

> <Gold.PLP.part.repulsive>
3.5530

> <Gold.PLP.ligand.clash>
0.2441

> <Gold.PLP.ligand.torsion>
0.6364

> <Gold.PLP.Chemscore.Hbond>
2.0000

> <Gold.PLP.Chemscore.CHOScore>
0.0000

> <Gold.PLP.Chemscore.Metal>
0.0000

> <Gold.Chemscore.Hbonds>
donor molecule, donor type, donor heavy atom, donor atom, acceptor molecule, acceptor atom, score
      L1  H     5    25       P1 10175  1.00
      L1  H     8    26       P1 10175  1.00

> <Gold.PLP.Chemscore.Internal.Correction>
1.1678

> <Gold.Rescore>
     Score         DG    S(hbond)    S(metal)    S(lipo)     H(rot)  DE(clash)    DE(int)     intcor
     13.08     -17.50       1.94        0.00      73.67       1.19       1.57       2.86       ----

> <Gold.Chemscore.Fitness>
13.0792

> <Gold.Chemscore.DG>
-17.5037

> <Gold.Chemscore.ZeroCoef>
-5.4800

> <Gold.Chemscore.Hbond>
1.9352

> <Gold.Chemscore.Metal>
0.0000

> <Gold.Chemscore.Lipo>
73.6652

> <Gold.Chemscore.Internal_Hbond>
0.0000

> <Gold.Chemscore.DEClash>
1.5660

> <Gold.Chemscore.DEInternal>
2.8585

> <Gold.Chemscore.Rot>
1.1948

> <Gold.Chemscore.Internal.Correction>
   9.000000E+99

> <Gold.Chemscore.Hbonds>
donor molecule, donor type, donor heavy atom, donor atom, acceptor molecule, acceptor atom, score
      L1  H     5    25       P1 10175  0.96
      L1  H     8    26       P1 10175  0.99

> <Gold.Chemscore.Hbond.Weighted>
-6.4635

> <Gold.Chemscore.Metal.Weighted>
-0.0000

> <Gold.Chemscore.Lipo.Weighted>
-8.6188

> <Gold.Chemscore.Internal_Hbond.Weighted>
0.0000

> <Gold.Chemscore.DEClash.Weighted>
1.5660

> <Gold.Chemscore.DEInternal.Weighted>
2.8585

> <Gold.Chemscore.Rot.Weighted>
3.0587

> <Gold.Chemscore.Internal.Correction.Weighted>
   9.000000E+99

> <Gold.Protein.RotatedTorsions>
[ 6907 6896 6895 6894 ] final  -39.45 input  -60.11 | X-H torsion
[ 7974 7965 7964 7962 ] final   70.55 input  175.53 | X-H torsion
[ 8008 7997 7996 7995 ] final -144.41 input   59.86 | X-H torsion
[ 10167 10162 10161 10158 ] final  -93.18 input  -65.29 | X-H torsion
[ 10718 10713 10712 10709 ] final   42.94 input   66.30 | X-H torsion
[ 10763 10752 10751 10750 ] final  131.83 input  -60.55 | X-H torsion
[ 11005 11000 10999 10996 ] final   83.41 input  -57.11 | X-H torsion

> <Gold.Protein.ActiveResidues>
 VAL166  LYS551  ARG553  GLY616  TRP617  ASP618  TYR619  PRO620  LYS621  CYS622 
 ASP623  PHE694  ASN695  SER759  ASP760  ASP761  ALA762  ILE779  LEU786  VAL792 
 PHE793  MET794  SER795  GLU796  ALA797  LYS798  CYS799  TRP800  GLU811  SER814 

> <Gold.Protein.RotatedAtoms>
  150.9902  134.9238  159.7894 H   0  0  0  0  0  0  0  0  0  0  0  0  # atno 6907 bound_to 6896
  152.5248  134.3292  159.9186 H   0  0  0  0  0  0  0  0  0  0  0  0  # atno 6908 bound_to 6896
  151.3298  133.3964  159.2696 H   0  0  0  0  0  0  0  0  0  0  0  0  # atno 6909 bound_to 6896
  145.7767  139.2868  143.1289 H   0  0  0  0  0  0  0  0  0  0  0  0  # atno 7974 bound_to 7965
  155.5264  140.0596  157.2897 H   0  0  0  0  0  0  0  0  0  0  0  0  # atno 8008 bound_to 7997
  154.4499  140.1943  156.0495 H   0  0  0  0  0  0  0  0  0  0  0  0  # atno 8009 bound_to 7997
  156.0683  140.3263  155.7548 H   0  0  0  0  0  0  0  0  0  0  0  0  # atno 8010 bound_to 7997
  140.3272  143.3015  151.9981 H   0  0  0  0  0  0  0  0  0  0  0  0  # atno 10167 bound_to 10162
  157.4104  130.7911  149.7425 H   0  0  0  0  0  0  0  0  0  0  0  0  # atno 10718 bound_to 10713
  153.7807  135.3169  155.3365 H   0  0  0  0  0  0  0  0  0  0  0  0  # atno 10763 bound_to 10752
  154.8162  135.4634  154.0654 H   0  0  0  0  0  0  0  0  0  0  0  0  # atno 10764 bound_to 10752
  153.1942  135.6913  153.8399 H   0  0  0  0  0  0  0  0  0  0  0  0  # atno 10765 bound_to 10752
  139.9032  134.8142  156.2305 H   0  0  0  0  0  0  0  0  0  0  0  0  # atno 11005 bound_to 11000
  146.0115  140.8431  142.9968 LP  0  0  0  0  0  0  0  0  0  0  0  0  # atno 17320 bound_to 7965
  144.6803  140.2497  143.7333 LP  0  0  0  0  0  0  0  0  0  0  0  0  # atno 17321 bound_to 7965
  139.4863  144.6264  151.7156 LP  0  0  0  0  0  0  0  0  0  0  0  0  # atno 17342 bound_to 10162
  140.5430  144.0549  150.6096 LP  0  0  0  0  0  0  0  0  0  0  0  0  # atno 17343 bound_to 10162
  155.9849  130.3988  150.3289 LP  0  0  0  0  0  0  0  0  0  0  0  0  # atno 17370 bound_to 10713
  157.1426  131.0300  151.2921 LP  0  0  0  0  0  0  0  0  0  0  0  0  # atno 17371 bound_to 10713
  141.0348  133.6969  156.1493 LP  0  0  0  0  0  0  0  0  0  0  0  0  # atno 17394 bound_to 11000
  140.7043  134.4530  157.5585 LP  0  0  0  0  0  0  0  0  0  0  0  0  # atno 17395 bound_to 11000

$$$$
