AV-unprocessed.smi:21|AV-procd|sdf|155|dock2
  -GOLD-   2262015383D 1   1.00000     0.00000
 Structure written by MMmdl.
 61 64  0  0  0  0  0  0  0  0  1 V2000
  153.4377  142.7680  163.2951 C   0  0  0  0  0  0  0  0  0  0  0  0
  152.9147  141.9625  162.2513 O   0  0  0  0  0  0  0  0  0  0  0  0
  153.3032  142.3961  160.9555 C   0  0  1  0  0  0  0  0  0  0  0  0
  152.8850  141.3645  159.8960 C   0  0  0  0  0  0  0  0  0  0  0  0
  151.9019  142.1167  158.9843 C   0  0  2  0  0  0  0  0  0  0  0  0
  151.8754  141.5896  157.5330 C   0  0  0  0  0  0  0  0  0  0  0  0
  150.7546  140.6770  157.2871 N   0  0  0  0  0  0  0  0  0  0  0  0
  149.4236  141.2607  157.1718 C   0  0  0  0  0  0  0  0  0  0  0  0
  150.9018  139.3273  157.4378 C   0  0  0  0  0  0  0  0  0  0  0  0
  151.0220  138.8296  158.6980 N   0  0  0  0  0  0  0  0  0  0  0  0
  151.1590  137.5199  158.9130 C   0  0  0  0  0  0  0  0  0  0  0  0
  151.2056  136.5320  158.0213 N   0  0  0  0  0  0  0  0  0  0  0  0
  151.0984  137.0097  156.7501 C   0  0  0  0  0  0  0  0  0  0  0  0
  150.9447  138.3766  156.3688 C   0  0  0  0  0  0  0  0  0  0  0  0
  150.8596  138.4553  154.9815 N   0  0  0  0  0  0  0  0  0  0  0  0
  150.9616  137.2215  154.5727 C   0  0  0  0  0  0  0  0  0  0  0  0
  151.1133  136.2872  155.5693 N   0  0  0  0  0  0  0  0  0  0  0  0
  151.2465  134.8509  155.3907 C   0  0  0  0  0  0  0  0  0  0  0  0
  149.8747  134.1235  155.4193 C   0  0  2  0  0  0  0  0  0  0  0  0
  150.0557  132.6184  155.7191 C   0  0  0  0  0  0  0  0  0  0  0  0
  150.7477  132.4247  156.9355 O   0  0  0  0  0  0  0  0  0  0  0  0
  149.0818  134.3357  154.1040 C   0  0  2  0  0  0  0  0  0  0  0  0
  147.6653  133.7877  154.1138 C   0  0  0  0  0  0  0  0  0  0  0  0
  147.3388  133.6938  152.6284 C   0  0  0  0  0  0  0  0  0  0  0  0
  148.5721  133.4055  151.9815 O   0  0  0  0  0  0  0  0  0  0  0  0
  149.6533  133.5962  152.8879 C   0  0  0  0  0  0  0  0  0  0  0  0
  152.2806  143.5151  159.1140 N   0  0  0  0  0  0  0  0  0  0  0  0
  151.2614  144.4479  158.6518 C   0  0  0  0  0  0  0  0  0  0  0  0
  152.5601  143.6688  160.5280 C   0  0  0  0  0  0  0  0  0  0  0  0
  154.3840  142.5415  160.9038 H   0  0  0  0  0  0  0  0  0  0  0  0
  150.9052  141.9964  159.4130 H   0  0  0  0  0  0  0  0  0  0  0  0
  153.1122  142.3732  164.2573 H   0  0  0  0  0  0  0  0  0  0  0  0
  153.0887  143.7984  163.2212 H   0  0  0  0  0  0  0  0  0  0  0  0
  154.5283  142.7665  163.2845 H   0  0  0  0  0  0  0  0  0  0  0  0
  153.7669  141.0483  159.3381 H   0  0  0  0  0  0  0  0  0  0  0  0
  152.4305  140.4724  160.3285 H   0  0  0  0  0  0  0  0  0  0  0  0
  151.7583  142.4258  156.8442 H   0  0  0  0  0  0  0  0  0  0  0  0
  152.8379  141.1495  157.2734 H   0  0  0  0  0  0  0  0  0  0  0  0
  148.8632  140.7940  156.3614 H   0  0  0  0  0  0  0  0  0  0  0  0
  149.4838  142.3280  156.9564 H   0  0  0  0  0  0  0  0  0  0  0  0
  148.8688  141.1422  158.1030 H   0  0  0  0  0  0  0  0  0  0  0  0
  151.2433  137.2220  159.9476 H   0  0  0  0  0  0  0  0  0  0  0  0
  150.9295  136.9585  153.5257 H   0  0  0  0  0  0  0  0  0  0  0  0
  151.7843  134.6585  154.4622 H   0  0  0  0  0  0  0  0  0  0  0  0
  151.9053  134.4838  156.1786 H   0  0  0  0  0  0  0  0  0  0  0  0
  149.2702  134.5401  156.2275 H   0  0  0  0  0  0  0  0  0  0  0  0
  149.0931  132.1170  155.8144 H   0  0  0  0  0  0  0  0  0  0  0  0
  150.5958  132.1232  154.9116 H   0  0  0  0  0  0  0  0  0  0  0  0
  150.5462  131.5607  157.2616 H   0  0  0  0  0  0  0  0  0  0  0  0
  149.0366  135.4015  153.8731 H   0  0  0  0  0  0  0  0  0  0  0  0
  147.6403  132.7961  154.5684 H   0  0  0  0  0  0  0  0  0  0  0  0
  146.9594  134.4262  154.6438 H   0  0  0  0  0  0  0  0  0  0  0  0
  146.5866  132.9347  152.4137 H   0  0  0  0  0  0  0  0  0  0  0  0
  146.9694  134.6514  152.2596 H   0  0  0  0  0  0  0  0  0  0  0  0
  150.4658  134.1434  152.4096 H   0  0  0  0  0  0  0  0  0  0  0  0
  150.0320  132.6142  153.1746 H   0  0  0  0  0  0  0  0  0  0  0  0
  151.5766  145.4765  158.8288 H   0  0  0  0  0  0  0  0  0  0  0  0
  150.3147  144.2900  159.1699 H   0  0  0  0  0  0  0  0  0  0  0  0
  151.0866  144.3387  157.5818 H   0  0  0  0  0  0  0  0  0  0  0  0
  151.6229  143.7430  161.0828 H   0  0  0  0  0  0  0  0  0  0  0  0
  153.1355  144.5731  160.7283 H   0  0  0  0  0  0  0  0  0  0  0  0
  1  2  1  0  0  0  0
  1 32  1  0  0  0  0
  1 33  1  0  0  0  0
  1 34  1  0  0  0  0
  2  3  1  0  0  0  0
  3 30  1  0  0  0  0
  3 29  1  0  0  0  0
  3  4  1  0  0  0  0
  4  5  1  0  0  0  0
  4 35  1  0  0  0  0
  4 36  1  0  0  0  0
  5 31  1  0  0  0  0
  5  6  1  0  0  0  0
  5 27  1  0  0  0  0
  6  7  1  0  0  0  0
  6 37  1  0  0  0  0
  6 38  1  0  0  0  0
  7  8  1  0  0  0  0
  7  9  1  0  0  0  0
  8 39  1  0  0  0  0
  8 40  1  0  0  0  0
  8 41  1  0  0  0  0
  9 14  1  0  0  0  0
  9 10  2  0  0  0  0
 10 11  1  0  0  0  0
 11 12  2  0  0  0  0
 11 42  1  0  0  0  0
 12 13  1  0  0  0  0
 13 17  1  0  0  0  0
 13 14  2  0  0  0  0
 14 15  1  0  0  0  0
 15 16  2  0  0  0  0
 16 17  1  0  0  0  0
 16 43  1  0  0  0  0
 17 18  1  0  0  0  0
 18 19  1  0  0  0  0
 18 44  1  0  0  0  0
 18 45  1  0  0  0  0
 19 20  1  0  0  0  0
 19 22  1  0  0  0  0
 19 46  1  0  0  0  0
 20 21  1  0  0  0  0
 20 47  1  0  0  0  0
 20 48  1  0  0  0  0
 21 49  1  0  0  0  0
 22 26  1  0  0  0  0
 22 23  1  0  0  0  0
 22 50  1  0  0  0  0
 23 24  1  0  0  0  0
 23 51  1  0  0  0  0
 23 52  1  0  0  0  0
 24 25  1  0  0  0  0
 24 53  1  0  0  0  0
 24 54  1  0  0  0  0
 25 26  1  0  0  0  0
 26 55  1  0  0  0  0
 26 56  1  0  0  0  0
 27 28  1  0  0  0  0
 27 29  1  0  0  0  0
 28 57  1  0  0  0  0
 28 58  1  0  0  0  0
 28 59  1  0  0  0  0
 29 60  1  0  0  0  0
 29 61  1  0  0  0  0
M  END
> <s_m_source_file>
AV-unprocessed.smi

> <i_m_source_file_index>
21

> <i_lp_mmshare_version>
43012

> <i_f3d_flags>
0

> <s_epik_input>
W0NIM11PW0NASF0xW0NIMl1bQ0BIXShOKFtDSDNdKVtDSDJdMSlbQ0gyXU4oW0NIM10pYyhuW2NIXW4yKWMoYzIzKW5bY0hdbjNbQ0gyXVtDQEhdKFtDSDJdW09IXSlbQ0BASF00W0NIMl1bQ0gyXU9bQ0gyXTQ=

> <s_epik_cmdline>
J2VwaWtfcHl0aG9uJywgJy1waCcsICc3LjAnLCAnLXRuJywgJzgnLCAnLW1hJywgJzIwMCcsICctbWV0YWxfYmluZGluZycsICctaW1hZScsICc8aW5maWxlLm1hZT4nLCAnLW9tYWUnLCAnPG91dGZpbGUubWFlPic=

> <r_lp_tautomer_probability>
1

> <r_epik_Ionization_Penalty>
2.17574

> <r_epik_Ionization_Penalty_Charging>
0

> <r_epik_Ionization_Penalty_Neutral>
2.17574

> <r_epik_State_Penalty>
2.31336

> <r_epik_Charging_Adjusted_Penalty>
2.31336

> <i_epik_Tot_Q>
0

> <i_epik_Tot_abs_Q>
0

> <r_epik_Metal_State_Penalty>
2.31025

> <b_epik_Metal_Only>
0

> <s_lp_Force_Field>
OPLS_2005

> <r_lp_Energy>
70.8096

> <b_lp_Chiralities_Consistent>
1

> <s_lp_Variant>
AV-unprocessed.smi:21-35

> <Gold.Version>
5.8.1

> <Gold.Id.Protein>
6NUR|6NUR_protein|mol2

> <Gold.PLP.Fitness>
49.8203

> <Gold.PLP.PLP>
-46.4653

> <Gold.PLP.part.hbond>
-2.0000

> <Gold.PLP.part.metal>
0.0000

> <Gold.PLP.part.buried>
-9.7974

> <Gold.PLP.part.nonpolar>
-34.0359

> <Gold.PLP.part.repulsive>
0.4000

> <Gold.PLP.ligand.clash>
0.0000

> <Gold.PLP.ligand.torsion>
2.8818

> <Gold.PLP.Chemscore.Hbond>
1.7293

> <Gold.PLP.Chemscore.CHOScore>
0.9909

> <Gold.PLP.Chemscore.Metal>
0.0000

> <Gold.Chemscore.Hbonds>
donor molecule, donor type, donor heavy atom, donor atom, acceptor molecule, acceptor atom, score
      P1  H  6896  6907       L1    12  0.07
      L1  C    16    43       P1  7948  0.11
      L1  C    16    43       P1  7949  0.96

> <Gold.PLP.Chemscore.Internal.Correction>
0.9580

> <Gold.Rescore>
     Score         DG    S(hbond)    S(metal)    S(lipo)     H(rot)  DE(clash)    DE(int)     intcor
     13.55     -16.58       1.73        0.00     111.17       3.00       0.06       2.98       ----

> <Gold.Chemscore.Fitness>
13.5466

> <Gold.Chemscore.DG>
-16.5846

> <Gold.Chemscore.ZeroCoef>
-5.4800

> <Gold.Chemscore.Hbond>
1.7323

> <Gold.Chemscore.Metal>
0.0000

> <Gold.Chemscore.Lipo>
111.1688

> <Gold.Chemscore.Internal_Hbond>
0.0000

> <Gold.Chemscore.DEClash>
0.0605

> <Gold.Chemscore.DEInternal>
2.9775

> <Gold.Chemscore.Rot>
3.0031

> <Gold.Chemscore.Internal.Correction>
   9.000000E+99

> <Gold.Chemscore.Hbond.Weighted>
-5.7859

> <Gold.Chemscore.Metal.Weighted>
-0.0000

> <Gold.Chemscore.Lipo.Weighted>
-13.0067

> <Gold.Chemscore.Internal_Hbond.Weighted>
0.0000

> <Gold.Chemscore.DEClash.Weighted>
0.0605

> <Gold.Chemscore.DEInternal.Weighted>
2.9775

> <Gold.Chemscore.Rot.Weighted>
7.6880

> <Gold.Chemscore.Internal.Correction.Weighted>
   9.000000E+99

> <Gold.Protein.RotatedTorsions>
[ 6907 6896 6895 6894 ] final  -29.03 input  -60.11 | X-H torsion
[ 7974 7965 7964 7962 ] final  -42.01 input  175.53 | X-H torsion
[ 8008 7997 7996 7995 ] final -157.99 input   59.86 | X-H torsion
[ 10167 10162 10161 10158 ] final   74.33 input  -65.29 | X-H torsion
[ 10718 10713 10712 10709 ] final   85.32 input   66.30 | X-H torsion
[ 10763 10752 10751 10750 ] final  -72.29 input  -60.55 | X-H torsion
[ 11005 11000 10999 10996 ] final  -13.37 input  -57.11 | X-H torsion

> <Gold.Protein.ActiveResidues>
 VAL166  LYS551  ARG553  GLY616  TRP617  ASP618  TYR619  PRO620  LYS621  CYS622 
 ASP623  PHE694  ASN695  SER759  ASP760  ASP761  ALA762  ILE779  LEU786  VAL792 
 PHE793  MET794  SER795  GLU796  ALA797  LYS798  CYS799  TRP800  GLU811  SER814 

> <Gold.Protein.RotatedAtoms>
  151.1248  135.0099  159.8555 H   0  0  0  0  0  0  0  0  0  0  0  0  # atno 6907 bound_to 6896
  152.5449  134.1679  159.8595 H   0  0  0  0  0  0  0  0  0  0  0  0  # atno 6908 bound_to 6896
  151.1741  133.4721  159.2627 H   0  0  0  0  0  0  0  0  0  0  0  0  # atno 6909 bound_to 6896
  146.0157  140.6911  142.9203 H   0  0  0  0  0  0  0  0  0  0  0  0  # atno 7974 bound_to 7965
  155.7407  140.0814  157.2247 H   0  0  0  0  0  0  0  0  0  0  0  0  # atno 8008 bound_to 7997
  154.4022  140.1578  156.2668 H   0  0  0  0  0  0  0  0  0  0  0  0  # atno 8009 bound_to 7997
  155.9023  140.3409  155.6038 H   0  0  0  0  0  0  0  0  0  0  0  0  # atno 8010 bound_to 7997
  140.0149  144.5585  150.7628 H   0  0  0  0  0  0  0  0  0  0  0  0  # atno 10167 bound_to 10162
  157.6913  131.0170  150.2805 H   0  0  0  0  0  0  0  0  0  0  0  0  # atno 10718 bound_to 10713
  154.4436  135.5934  153.6145 H   0  0  0  0  0  0  0  0  0  0  0  0  # atno 10763 bound_to 10752
  152.9807  135.6004  154.3691 H   0  0  0  0  0  0  0  0  0  0  0  0  # atno 10764 bound_to 10752
  154.3544  135.2841  155.2333 H   0  0  0  0  0  0  0  0  0  0  0  0  # atno 10765 bound_to 10752
  140.7754  133.8405  155.9244 H   0  0  0  0  0  0  0  0  0  0  0  0  # atno 11005 bound_to 11000
  144.6970  140.3477  143.7187 LP  0  0  0  0  0  0  0  0  0  0  0  0  # atno 17320 bound_to 7965
  145.7272  139.1726  143.2451 LP  0  0  0  0  0  0  0  0  0  0  0  0  # atno 17321 bound_to 7965
  140.7366  143.2755  151.3754 LP  0  0  0  0  0  0  0  0  0  0  0  0  # atno 17342 bound_to 10162
  139.6179  144.0965  152.2363 LP  0  0  0  0  0  0  0  0  0  0  0  0  # atno 17343 bound_to 10162
  156.3352  130.3806  149.7456 LP  0  0  0  0  0  0  0  0  0  0  0  0  # atno 17370 bound_to 10713
  156.4983  130.8117  151.3122 LP  0  0  0  0  0  0  0  0  0  0  0  0  # atno 17371 bound_to 10713
  140.9534  134.1749  157.4710 LP  0  0  0  0  0  0  0  0  0  0  0  0  # atno 17394 bound_to 11000
  139.8750  134.9918  156.5565 LP  0  0  0  0  0  0  0  0  0  0  0  0  # atno 17395 bound_to 11000

$$$$
