AV-unprocessed.smi:3354|AV-procd|sdf|12958|dock3
  -GOLD-   2272019393D 1   1.00000     0.00000
 Structure written by MMmdl.
 38 40  0  0  0  0  0  0  0  0  1 V2000
  151.0408  142.6226  157.5102 C   0  0  0  0  0  0  0  0  0  0  0  0
  150.5087  141.3043  156.9914 C   0  0  1  0  0  0  0  0  0  0  0  0
  149.4069  141.2944  155.9588 C   0  0  0  0  0  0  0  0  0  0  0  0
  150.7994  140.8543  155.5697 C   0  0  2  0  0  0  0  0  0  0  0  0
  150.9924  139.4703  155.2507 N   0  0  0  0  0  0  0  0  0  0  0  0
  149.9424  138.4771  155.4290 C   0  0  0  0  0  0  0  0  0  0  0  0
  150.6518  137.1107  155.3675 C   0  0  1  0  0  0  0  0  0  0  0  0
  149.9315  136.1518  154.5340 N   0  0  0  0  0  0  0  0  0  0  0  0
  149.7231  134.8657  154.8492 C   0  0  0  0  0  0  0  0  0  0  0  0
  150.1043  134.3581  155.9035 O   0  0  0  0  0  0  0  0  0  0  0  0
  149.0407  134.2334  153.8787 N   0  0  0  0  0  0  0  0  0  0  0  0
  148.6432  132.8700  153.8064 C   0  0  0  0  0  0  0  0  0  0  0  0
  149.2971  131.8045  154.4727 C   0  0  0  0  0  0  0  0  0  0  0  0
  148.8092  130.4945  154.3026 C   0  0  0  0  0  0  0  0  0  0  0  0
  147.6914  130.2951  153.4696 C   0  0  0  0  0  0  0  0  0  0  0  0
  147.0650  131.2983  152.8199 N   0  0  0  0  0  0  0  0  0  0  0  0
  147.5386  132.5514  152.9875 C   0  0  0  0  0  0  0  0  0  0  0  0
  152.0520  137.4058  154.8143 C   0  0  0  0  0  0  0  0  0  0  0  0
  152.1685  138.9156  154.9363 C   0  0  0  0  0  0  0  0  0  0  0  0
  153.2308  139.5147  154.7730 O   0  0  0  0  0  0  0  0  0  0  0  0
  151.0802  143.3660  156.7131 H   0  0  0  0  0  0  0  0  0  0  0  0
  152.0463  142.4881  157.9094 H   0  0  0  0  0  0  0  0  0  0  0  0
  150.3977  142.9995  158.3057 H   0  0  0  0  0  0  0  0  0  0  0  0
  150.4325  140.5395  157.7614 H   0  0  0  0  0  0  0  0  0  0  0  0
  148.6395  140.5285  156.0554 H   0  0  0  0  0  0  0  0  0  0  0  0
  149.0606  142.2510  155.5724 H   0  0  0  0  0  0  0  0  0  0  0  0
  151.3705  141.5576  154.9649 H   0  0  0  0  0  0  0  0  0  0  0  0
  149.4255  138.6082  156.3805 H   0  0  0  0  0  0  0  0  0  0  0  0
  149.2116  138.5909  154.6264 H   0  0  0  0  0  0  0  0  0  0  0  0
  150.7569  136.7106  156.3780 H   0  0  0  0  0  0  0  0  0  0  0  0
  149.5789  136.4893  153.6504 H   0  0  0  0  0  0  0  0  0  0  0  0
  148.7378  134.8092  153.1067 H   0  0  0  0  0  0  0  0  0  0  0  0
  150.1640  131.9570  155.0957 H   0  0  0  0  0  0  0  0  0  0  0  0
  149.2847  129.6603  154.7967 H   0  0  0  0  0  0  0  0  0  0  0  0
  147.2933  129.3030  153.3166 H   0  0  0  0  0  0  0  0  0  0  0  0
  147.0144  133.3276  152.4493 H   0  0  0  0  0  0  0  0  0  0  0  0
  152.8327  136.8996  155.3831 H   0  0  0  0  0  0  0  0  0  0  0  0
  152.1506  137.1279  153.7641 H   0  0  0  0  0  0  0  0  0  0  0  0
  1  2  1  0  0  0  0
  1 21  1  0  0  0  0
  1 22  1  0  0  0  0
  1 23  1  0  0  0  0
  2  4  1  0  0  0  0
  2  3  1  0  0  0  0
  2 24  1  0  0  0  0
  3  4  1  0  0  0  0
  3 25  1  0  0  0  0
  3 26  1  0  0  0  0
  4  5  1  0  0  0  0
  4 27  1  0  0  0  0
  5 19  1  0  0  0  0
  5  6  1  0  0  0  0
  6  7  1  0  0  0  0
  6 28  1  0  0  0  0
  6 29  1  0  0  0  0
  7  8  1  0  0  0  0
  7 18  1  0  0  0  0
  7 30  1  0  0  0  0
  8  9  1  0  0  0  0
  8 31  1  0  0  0  0
  9 10  2  0  0  0  0
  9 11  1  0  0  0  0
 11 12  1  0  0  0  0
 11 32  1  0  0  0  0
 12 17  1  0  0  0  0
 12 13  2  0  0  0  0
 13 14  1  0  0  0  0
 13 33  1  0  0  0  0
 14 15  2  0  0  0  0
 14 34  1  0  0  0  0
 15 16  1  0  0  0  0
 15 35  1  0  0  0  0
 16 17  2  0  0  0  0
 17 36  1  0  0  0  0
 18 19  1  0  0  0  0
 18 37  1  0  0  0  0
 18 38  1  0  0  0  0
 19 20  2  0  0  0  0
M  END
> <s_m_source_file>
AV-unprocessed.smi

> <i_m_source_file_index>
3354

> <i_lp_mmshare_version>
43012

> <i_f3d_flags>
0

> <s_epik_input>
W0NIM11bQ0BASF0xW0NIMl1bQ0BIXTFOMltDSDJdW0NASF0oW0NIMl1DMj1PKVtOSF1DKD1PKVtOSF1jM1tjSF1bY0hdW2NIXW5bY0hdMw==

> <s_epik_cmdline>
J2VwaWtfcHl0aG9uJywgJy1waCcsICc3LjAnLCAnLXRuJywgJzgnLCAnLW1hJywgJzIwMCcsICctbWV0YWxfYmluZGluZycsICctaW1hZScsICc8aW5maWxlLm1hZT4nLCAnLW9tYWUnLCAnPG91dGZpbGUubWFlPic=

> <r_epik_Ionization_Penalty>
0.00456191

> <r_epik_Ionization_Penalty_Charging>
0

> <r_epik_Ionization_Penalty_Neutral>
0.00456191

> <r_epik_State_Penalty>
0.00327094

> <r_epik_Charging_Adjusted_Penalty>
0.00327094

> <i_epik_Tot_Q>
0

> <i_epik_Tot_abs_Q>
0

> <r_epik_Metal_State_Penalty>
-0

> <b_epik_Metal_Only>
0

> <s_lp_Force_Field>
OPLS_2005

> <r_lp_Energy>
42.9067

> <b_lp_Chiralities_Consistent>
1

> <s_lp_Variant>
AV-unprocessed.smi:3354-4

> <Gold.Version>
5.8.1

> <Gold.Id.Protein>
6NUR|6NUR_protein|mol2

> <Gold.PLP.Fitness>
44.1284

> <Gold.PLP.PLP>
-35.8205

> <Gold.PLP.part.hbond>
-4.3184

> <Gold.PLP.part.metal>
0.0000

> <Gold.PLP.part.buried>
-0.6511

> <Gold.PLP.part.nonpolar>
-31.4986

> <Gold.PLP.part.repulsive>
0.4653

> <Gold.PLP.ligand.clash>
0.0000

> <Gold.PLP.ligand.torsion>
0.4325

> <Gold.PLP.Chemscore.Hbond>
3.0000

> <Gold.PLP.Chemscore.CHOScore>
0.0000

> <Gold.PLP.Chemscore.Metal>
0.0000

> <Gold.Chemscore.Hbonds>
donor molecule, donor type, donor heavy atom, donor atom, acceptor molecule, acceptor atom, score
      L1  H     8    31       P1  7948  1.00
      L1  H    11    32       P1  7948  1.00
      P1  H  7997  8008       L1    20  1.00

> <Gold.PLP.Chemscore.Internal.Correction>
0.1730

> <Gold.Rescore>
     Score         DG    S(hbond)    S(metal)    S(lipo)     H(rot)  DE(clash)    DE(int)     intcor
     17.50     -18.72       2.61        0.00      65.68       1.24       0.03       1.19       ----

> <Gold.Chemscore.Fitness>
17.4978

> <Gold.Chemscore.DG>
-18.7206

> <Gold.Chemscore.ZeroCoef>
-5.4800

> <Gold.Chemscore.Hbond>
2.6108

> <Gold.Chemscore.Metal>
0.0000

> <Gold.Chemscore.Lipo>
65.6830

> <Gold.Chemscore.Internal_Hbond>
0.0000

> <Gold.Chemscore.DEClash>
0.0300

> <Gold.Chemscore.DEInternal>
1.1928

> <Gold.Chemscore.Rot>
1.2361

> <Gold.Chemscore.Internal.Correction>
   9.000000E+99

> <Gold.Chemscore.Hbonds>
donor molecule, donor type, donor heavy atom, donor atom, acceptor molecule, acceptor atom, score
      L1  H     8    31       P1  7948  0.63
      L1  H    11    32       P1  7948  0.29
      P1  H  7997  8008       L1    20  1.00

> <Gold.Chemscore.Hbond.Weighted>
-8.7200

> <Gold.Chemscore.Metal.Weighted>
-0.0000

> <Gold.Chemscore.Lipo.Weighted>
-7.6849

> <Gold.Chemscore.Internal_Hbond.Weighted>
0.0000

> <Gold.Chemscore.DEClash.Weighted>
0.0300

> <Gold.Chemscore.DEInternal.Weighted>
1.1928

> <Gold.Chemscore.Rot.Weighted>
3.1643

> <Gold.Chemscore.Internal.Correction.Weighted>
   9.000000E+99

> <Gold.Protein.RotatedTorsions>
[ 6907 6896 6895 6894 ] final   -9.73 input  -60.11 | X-H torsion
[ 7974 7965 7964 7962 ] final   24.44 input  175.53 | X-H torsion
[ 8008 7997 7996 7995 ] final   -7.31 input   59.86 | X-H torsion
[ 10167 10162 10161 10158 ] final  -21.24 input  -65.29 | X-H torsion
[ 10718 10713 10712 10709 ] final   38.40 input   66.30 | X-H torsion
[ 10763 10752 10751 10750 ] final  164.45 input  -60.55 | X-H torsion
[ 11005 11000 10999 10996 ] final  -34.56 input  -57.11 | X-H torsion

> <Gold.Protein.ActiveResidues>
 VAL166  LYS551  ARG553  GLY616  TRP617  ASP618  TYR619  PRO620  LYS621  CYS622 
 ASP623  PHE694  ASN695  SER759  ASP760  ASP761  ALA762  ILE779  LEU786  VAL792 
 PHE793  MET794  SER795  GLU796  ALA797  LYS798  CYS799  TRP800  GLU811  SER814 

> <Gold.Protein.RotatedAtoms>
  151.4131  135.0988  159.9590 H   0  0  0  0  0  0  0  0  0  0  0  0  # atno 6907 bound_to 6896
  152.5013  133.8778  159.7341 H   0  0  0  0  0  0  0  0  0  0  0  0  # atno 6908 bound_to 6896
  150.9277  133.6746  159.2846 H   0  0  0  0  0  0  0  0  0  0  0  0  # atno 6909 bound_to 6896
  146.1937  139.7604  142.8813 H   0  0  0  0  0  0  0  0  0  0  0  0  # atno 7974 bound_to 7965
  154.5851  140.2410  155.7998 H   0  0  0  0  0  0  0  0  0  0  0  0  # atno 8008 bound_to 7997
  156.2207  140.2998  155.9902 H   0  0  0  0  0  0  0  0  0  0  0  0  # atno 8009 bound_to 7997
  155.2472  140.0409  157.2973 H   0  0  0  0  0  0  0  0  0  0  0  0  # atno 8010 bound_to 7997
  140.7281  143.4646  151.0331 H   0  0  0  0  0  0  0  0  0  0  0  0  # atno 10167 bound_to 10162
  157.3583  130.7636  149.7029 H   0  0  0  0  0  0  0  0  0  0  0  0  # atno 10718 bound_to 10713
  154.3092  135.2757  155.2574 H   0  0  0  0  0  0  0  0  0  0  0  0  # atno 10763 bound_to 10752
  154.4977  135.5816  153.6510 H   0  0  0  0  0  0  0  0  0  0  0  0  # atno 10764 bound_to 10752
  152.9890  135.6150  154.3268 H   0  0  0  0  0  0  0  0  0  0  0  0  # atno 10765 bound_to 10752
  140.9726  133.7101  156.1549 H   0  0  0  0  0  0  0  0  0  0  0  0  # atno 11005 bound_to 11000
  145.3711  141.0343  143.3230 LP  0  0  0  0  0  0  0  0  0  0  0  0  # atno 17320 bound_to 7965
  144.8538  139.5282  143.6844 LP  0  0  0  0  0  0  0  0  0  0  0  0  # atno 17321 bound_to 7965
  139.8334  143.7661  152.3180 LP  0  0  0  0  0  0  0  0  0  0  0  0  # atno 17342 bound_to 10162
  139.7784  144.7453  151.0123 LP  0  0  0  0  0  0  0  0  0  0  0  0  # atno 17343 bound_to 10162
  155.9733  130.4121  150.4014 LP  0  0  0  0  0  0  0  0  0  0  0  0  # atno 17370 bound_to 10713
  157.2087  131.0455  151.2611 LP  0  0  0  0  0  0  0  0  0  0  0  0  # atno 17371 bound_to 10713
  140.7306  134.4259  157.5566 LP  0  0  0  0  0  0  0  0  0  0  0  0  # atno 17394 bound_to 11000
  139.8918  134.8770  156.2301 LP  0  0  0  0  0  0  0  0  0  0  0  0  # atno 17395 bound_to 11000

$$$$
