AV-unprocessed.smi:2223|AV-procd|sdf|8990|dock3
  -GOLD-   2272012203D 1   1.00000     0.00000
 Structure written by MMmdl.
 46 47  0  0  0  0  0  0  0  0  1 V2000
  143.8876  132.5019  149.6236 C   0  0  0  0  0  0  0  0  0  0  0  0
  144.8907  132.1804  150.7116 C   0  0  0  0  0  0  0  0  0  0  0  0
  145.0277  130.8658  151.1963 C   0  0  0  0  0  0  0  0  0  0  0  0
  145.9803  130.6253  152.2058 C   0  0  0  0  0  0  0  0  0  0  0  0
  146.1809  129.2353  152.7722 C   0  0  0  0  0  0  0  0  0  0  0  0
  146.7661  131.5938  152.7228 N   0  0  0  0  0  0  0  0  0  0  0  0
  146.6450  132.8635  152.2619 C   0  0  0  0  0  0  0  0  0  0  0  0
  147.4232  133.9521  152.7389 N   0  0  0  0  0  0  0  0  0  0  0  0
  147.8201  134.1992  153.9999 C   0  0  0  0  0  0  0  0  0  0  0  0
  147.5686  133.4945  154.9779 O   0  0  0  0  0  0  0  0  0  0  0  0
  148.5452  135.3250  154.0705 N   0  0  0  0  0  0  0  0  0  0  0  0
  149.1366  135.8582  155.2950 C   0  0  1  0  0  0  0  0  0  0  0  0
  150.3951  135.0960  155.7203 C   0  0  0  0  0  0  0  0  0  0  0  0
  151.3867  136.1972  156.0523 C   0  0  0  0  0  0  0  0  0  0  0  0
  152.4808  135.9469  156.5563 O   0  0  0  0  0  0  0  0  0  0  0  0
  150.9139  137.4155  155.7258 N   0  0  0  0  0  0  0  0  0  0  0  0
  151.6211  138.7153  155.8747 C   0  0  0  0  0  0  0  0  0  0  0  0
  151.8912  139.0027  157.3687 C   0  0  0  0  0  0  0  0  0  0  0  0
  150.7902  139.8936  155.3128 C   0  0  0  0  0  0  0  0  0  0  0  0
  152.9579  138.6741  155.1010 C   0  0  0  0  0  0  0  0  0  0  0  0
  149.5929  137.3128  155.1049 C   0  0  0  0  0  0  0  0  0  0  0  0
  145.7109  133.1908  151.2534 C   0  0  0  0  0  0  0  0  0  0  0  0
  143.0531  131.8001  149.6437 H   0  0  0  0  0  0  0  0  0  0  0  0
  144.3636  132.4431  148.6448 H   0  0  0  0  0  0  0  0  0  0  0  0
  143.4866  133.5077  149.7518 H   0  0  0  0  0  0  0  0  0  0  0  0
  144.4198  130.0635  150.8037 H   0  0  0  0  0  0  0  0  0  0  0  0
  145.3835  128.5622  152.4567 H   0  0  0  0  0  0  0  0  0  0  0  0
  146.1891  129.2636  153.8622 H   0  0  0  0  0  0  0  0  0  0  0  0
  147.1313  128.8240  152.4315 H   0  0  0  0  0  0  0  0  0  0  0  0
  147.7175  134.6149  152.0372 H   0  0  0  0  0  0  0  0  0  0  0  0
  148.7056  135.8456  153.2207 H   0  0  0  0  0  0  0  0  0  0  0  0
  148.4047  135.8219  156.1048 H   0  0  0  0  0  0  0  0  0  0  0  0
  150.2118  134.4540  156.5826 H   0  0  0  0  0  0  0  0  0  0  0  0
  150.8022  134.4844  154.9138 H   0  0  0  0  0  0  0  0  0  0  0  0
  152.3478  139.9837  157.5045 H   0  0  0  0  0  0  0  0  0  0  0  0
  152.5694  138.2774  157.8176 H   0  0  0  0  0  0  0  0  0  0  0  0
  150.9663  138.9911  157.9466 H   0  0  0  0  0  0  0  0  0  0  0  0
  149.8472  140.0179  155.8459 H   0  0  0  0  0  0  0  0  0  0  0  0
  150.5680  139.7690  154.2524 H   0  0  0  0  0  0  0  0  0  0  0  0
  151.3309  140.8357  155.4118 H   0  0  0  0  0  0  0  0  0  0  0  0
  153.4692  139.6362  155.1456 H   0  0  0  0  0  0  0  0  0  0  0  0
  152.7973  138.4386  154.0482 H   0  0  0  0  0  0  0  0  0  0  0  0
  153.6482  137.9327  155.5025 H   0  0  0  0  0  0  0  0  0  0  0  0
  149.6797  137.5702  154.0477 H   0  0  0  0  0  0  0  0  0  0  0  0
  148.8716  137.9906  155.5618 H   0  0  0  0  0  0  0  0  0  0  0  0
  145.6247  134.2064  150.8944 H   0  0  0  0  0  0  0  0  0  0  0  0
  1  2  1  0  0  0  0
  1 23  1  0  0  0  0
  1 24  1  0  0  0  0
  1 25  1  0  0  0  0
  2 22  1  0  0  0  0
  2  3  2  0  0  0  0
  3  4  1  0  0  0  0
  3 26  1  0  0  0  0
  4  5  1  0  0  0  0
  4  6  2  0  0  0  0
  5 27  1  0  0  0  0
  5 28  1  0  0  0  0
  5 29  1  0  0  0  0
  6  7  1  0  0  0  0
  7  8  1  0  0  0  0
  7 22  2  0  0  0  0
  8  9  1  0  0  0  0
  8 30  1  0  0  0  0
  9 10  2  0  0  0  0
  9 11  1  0  0  0  0
 11 12  1  0  0  0  0
 11 31  1  0  0  0  0
 12 21  1  0  0  0  0
 12 13  1  0  0  0  0
 12 32  1  0  0  0  0
 13 14  1  0  0  0  0
 13 33  1  0  0  0  0
 13 34  1  0  0  0  0
 14 15  2  0  0  0  0
 14 16  1  0  0  0  0
 16 17  1  0  0  0  0
 16 21  1  0  0  0  0
 17 18  1  0  0  0  0
 17 19  1  0  0  0  0
 17 20  1  0  0  0  0
 18 35  1  0  0  0  0
 18 36  1  0  0  0  0
 18 37  1  0  0  0  0
 19 38  1  0  0  0  0
 19 39  1  0  0  0  0
 19 40  1  0  0  0  0
 20 41  1  0  0  0  0
 20 42  1  0  0  0  0
 20 43  1  0  0  0  0
 21 44  1  0  0  0  0
 21 45  1  0  0  0  0
 22 46  1  0  0  0  0
M  END
> <s_m_source_file>
AV-unprocessed.smi

> <i_m_source_file_index>
2223

> <i_lp_mmshare_version>
43012

> <i_f3d_flags>
0

> <s_epik_input>
W0NIM11jMVtjSF1jKFtDSDNdKW5jKFtjSF0xKVtOSF1DKD1PKVtOSF1bQ0BASF0yW0NIMl1DKD1PKU4oW0NIMl0yKUMoW0NIM10pKFtDSDNdKVtDSDNd

> <s_epik_cmdline>
J2VwaWtfcHl0aG9uJywgJy1waCcsICc3LjAnLCAnLXRuJywgJzgnLCAnLW1hJywgJzIwMCcsICctbWV0YWxfYmluZGluZycsICctaW1hZScsICc8aW5maWxlLm1hZT4nLCAnLW9tYWUnLCAnPG91dGZpbGUubWFlPic=

> <r_lp_tautomer_probability>
1

> <r_epik_Ionization_Penalty>
0.000228403

> <r_epik_Ionization_Penalty_Charging>
0

> <r_epik_Ionization_Penalty_Neutral>
0.000228403

> <r_epik_State_Penalty>
-0

> <r_epik_Charging_Adjusted_Penalty>
0

> <i_epik_Tot_Q>
0

> <i_epik_Tot_abs_Q>
0

> <r_epik_Metal_State_Penalty>
-0

> <b_epik_Metal_Only>
0

> <s_lp_Force_Field>
OPLS_2005

> <r_lp_Energy>
29.0753

> <b_lp_Chiralities_Consistent>
1

> <s_lp_Variant>
AV-unprocessed.smi:2223-2

> <Gold.Version>
5.8.1

> <Gold.Id.Protein>
6NUR|6NUR_protein|mol2

> <Gold.PLP.Fitness>
43.1964

> <Gold.PLP.PLP>
-36.0361

> <Gold.PLP.part.hbond>
-2.7570

> <Gold.PLP.part.metal>
0.0000

> <Gold.PLP.part.buried>
-4.2986

> <Gold.PLP.part.nonpolar>
-29.0239

> <Gold.PLP.part.repulsive>
0.1557

> <Gold.PLP.ligand.clash>
0.0000

> <Gold.PLP.ligand.torsion>
0.4996

> <Gold.PLP.Chemscore.Hbond>
2.7098

> <Gold.PLP.Chemscore.CHOScore>
0.0000

> <Gold.PLP.Chemscore.Metal>
0.0000

> <Gold.Chemscore.Hbonds>
donor molecule, donor type, donor heavy atom, donor atom, acceptor molecule, acceptor atom, score
      L1  H     8    30       P1  7948  0.80
      L1  H    11    31       P1  7948  0.71
      P1  H 10752 10764       L1    15  1.00

> <Gold.PLP.Chemscore.Internal.Correction>
0.0303

> <Gold.Rescore>
     Score         DG    S(hbond)    S(metal)    S(lipo)     H(rot)  DE(clash)    DE(int)     intcor
     19.41     -20.94       2.45        0.00      88.55       1.21       0.16       1.36       ----

> <Gold.Chemscore.Fitness>
19.4146

> <Gold.Chemscore.DG>
-20.9433

> <Gold.Chemscore.ZeroCoef>
-5.4800

> <Gold.Chemscore.Hbond>
2.4517

> <Gold.Chemscore.Metal>
0.0000

> <Gold.Chemscore.Lipo>
88.5520

> <Gold.Chemscore.Internal_Hbond>
0.0000

> <Gold.Chemscore.DEClash>
0.1640

> <Gold.Chemscore.DEInternal>
1.3647

> <Gold.Chemscore.Rot>
1.2055

> <Gold.Chemscore.Internal.Correction>
   9.000000E+99

> <Gold.Chemscore.Hbonds>
donor molecule, donor type, donor heavy atom, donor atom, acceptor molecule, acceptor atom, score
      L1  H     8    30       P1  7948  0.38
      L1  H    11    31       P1  7948  0.70
      P1  H 10752 10764       L1    15  0.45

> <Gold.Chemscore.Hbond.Weighted>
-8.1888

> <Gold.Chemscore.Metal.Weighted>
-0.0000

> <Gold.Chemscore.Lipo.Weighted>
-10.3606

> <Gold.Chemscore.Internal_Hbond.Weighted>
0.0000

> <Gold.Chemscore.DEClash.Weighted>
0.1640

> <Gold.Chemscore.DEInternal.Weighted>
1.3647

> <Gold.Chemscore.Rot.Weighted>
3.0861

> <Gold.Chemscore.Internal.Correction.Weighted>
   9.000000E+99

> <Gold.Protein.RotatedTorsions>
[ 6907 6896 6895 6894 ] final  -10.83 input  -60.11 | X-H torsion
[ 7974 7965 7964 7962 ] final  -58.93 input  175.53 | X-H torsion
[ 8008 7997 7996 7995 ] final  170.00 input   59.86 | X-H torsion
[ 10167 10162 10161 10158 ] final   48.70 input  -65.29 | X-H torsion
[ 10718 10713 10712 10709 ] final  -26.17 input   66.30 | X-H torsion
[ 10763 10752 10751 10750 ] final   -8.86 input  -60.55 | X-H torsion
[ 11005 11000 10999 10996 ] final  -82.53 input  -57.11 | X-H torsion

> <Gold.Protein.ActiveResidues>
 VAL166  LYS551  ARG553  GLY616  TRP617  ASP618  TYR619  PRO620  LYS621  CYS622 
 ASP623  PHE694  ASN695  SER759  ASP760  ASP761  ALA762  ILE779  LEU786  VAL792 
 PHE793  MET794  SER795  GLU796  ALA797  LYS798  CYS799  TRP800  GLU811  SER814 

> <Gold.Protein.RotatedAtoms>
  151.3957  135.0963  159.9539 H   0  0  0  0  0  0  0  0  0  0  0  0  # atno 6907 bound_to 6896
  152.5066  133.8936  159.7417 H   0  0  0  0  0  0  0  0  0  0  0  0  # atno 6908 bound_to 6896
  150.9400  133.6612  159.2821 H   0  0  0  0  0  0  0  0  0  0  0  0  # atno 6909 bound_to 6896
  145.8335  140.8464  143.0071 H   0  0  0  0  0  0  0  0  0  0  0  0  # atno 7974 bound_to 7965
  156.1406  140.1549  156.8927 H   0  0  0  0  0  0  0  0  0  0  0  0  # atno 8008 bound_to 7997
  154.4984  140.0832  156.7784 H   0  0  0  0  0  0  0  0  0  0  0  0  # atno 8009 bound_to 7997
  155.4086  140.3418  155.4264 H   0  0  0  0  0  0  0  0  0  0  0  0  # atno 8010 bound_to 7997
  140.2906  144.3051  150.6241 H   0  0  0  0  0  0  0  0  0  0  0  0  # atno 10167 bound_to 10162
  156.4547  130.4491  149.6967 H   0  0  0  0  0  0  0  0  0  0  0  0  # atno 10718 bound_to 10713
  153.4465  135.7014  153.6135 H   0  0  0  0  0  0  0  0  0  0  0  0  # atno 10763 bound_to 10752
  153.4488  135.3763  155.2272 H   0  0  0  0  0  0  0  0  0  0  0  0  # atno 10764 bound_to 10752
  154.8728  135.3992  154.3872 H   0  0  0  0  0  0  0  0  0  0  0  0  # atno 10765 bound_to 10752
  141.1662  133.7249  156.8585 H   0  0  0  0  0  0  0  0  0  0  0  0  # atno 11005 bound_to 11000
  144.6738  140.0707  143.7473 LP  0  0  0  0  0  0  0  0  0  0  0  0  # atno 17320 bound_to 7965
  145.9544  139.2756  143.1193 LP  0  0  0  0  0  0  0  0  0  0  0  0  # atno 17321 bound_to 7965
  140.5736  143.2178  151.7556 LP  0  0  0  0  0  0  0  0  0  0  0  0  # atno 17342 bound_to 10162
  139.4939  144.4182  152.0007 LP  0  0  0  0  0  0  0  0  0  0  0  0  # atno 17343 bound_to 10162
  156.3779  130.7564  151.2554 LP  0  0  0  0  0  0  0  0  0  0  0  0  # atno 17370 bound_to 10713
  157.7501  131.0304  150.4135 LP  0  0  0  0  0  0  0  0  0  0  0  0  # atno 17371 bound_to 10713
  140.1865  134.8996  157.3011 LP  0  0  0  0  0  0  0  0  0  0  0  0  # atno 17394 bound_to 11000
  140.2337  134.3879  155.7510 LP  0  0  0  0  0  0  0  0  0  0  0  0  # atno 17395 bound_to 11000

$$$$
