AV-unprocessed.smi:1206|AV-procd|sdf|5047|dock8
  -GOLD-   22720 4 73D 1   1.00000     0.00000
 Structure written by MMmdl.
 41 42  0  0  0  0  0  0  0  0  2 V2000
  144.6700  134.8467  154.8608 C   0  0  0  0  0  0  0  0  0  0  0  0
  143.8475  134.3658  153.7212 N   0  3  0  0  0  0  0  0  0  0  0  0
  142.5624  135.1118  153.6703 C   0  0  0  0  0  0  0  0  0  0  0  0
  144.5549  134.2020  152.3948 C   0  0  0  0  0  0  0  0  0  0  0  0
  144.7122  135.6160  151.7459 C   0  0  0  0  0  0  0  0  0  0  0  0
  145.9197  136.3250  152.1711 N   0  0  0  0  0  0  0  0  0  0  0  0
  145.9677  137.5609  152.6882 C   0  0  0  0  0  0  0  0  0  0  0  0
  144.9729  138.2669  152.8472 O   0  0  0  0  0  0  0  0  0  0  0  0
  147.2277  137.9143  152.9871 N   0  0  0  0  0  0  0  0  0  0  0  0
  147.6819  139.1405  153.5343 C   0  0  0  0  0  0  0  0  0  0  0  0
  148.6807  139.0989  154.4237 N   0  0  0  0  0  0  0  0  0  0  0  0
  149.0259  140.3658  154.8780 N   0  0  0  0  0  0  0  0  0  0  0  0
  148.2723  141.3142  154.3135 C   0  0  0  0  0  0  0  0  0  0  0  0
  147.0665  140.7548  153.1676 S   0  0  0  0  0  0  0  0  0  0  0  0
  145.9576  133.5502  152.5935 C   0  0  0  0  0  0  0  0  0  0  0  0
  146.6850  133.2068  151.2781 C   0  0  0  0  0  0  0  0  0  0  0  0
  145.8242  132.3311  150.3582 C   0  0  0  0  0  0  0  0  0  0  0  0
  144.4554  132.9739  150.1000 C   0  0  0  0  0  0  0  0  0  0  0  0
  143.7389  133.2807  151.4269 C   0  0  0  0  0  0  0  0  0  0  0  0
  145.1464  135.8009  154.6340 H   0  0  0  0  0  0  0  0  0  0  0  0
  145.4366  134.1234  155.1377 H   0  0  0  0  0  0  0  0  0  0  0  0
  144.0539  134.9862  155.7498 H   0  0  0  0  0  0  0  0  0  0  0  0
  142.7278  136.1823  153.5441 H   0  0  0  0  0  0  0  0  0  0  0  0
  142.0136  134.9734  154.6023 H   0  0  0  0  0  0  0  0  0  0  0  0
  141.9081  134.7716  152.8699 H   0  0  0  0  0  0  0  0  0  0  0  0
  144.6728  135.5624  150.6581 H   0  0  0  0  0  0  0  0  0  0  0  0
  143.8766  136.2627  152.0051 H   0  0  0  0  0  0  0  0  0  0  0  0
  146.7898  135.8202  152.0812 H   0  0  0  0  0  0  0  0  0  0  0  0
  147.9478  137.2317  152.8004 H   0  0  0  0  0  0  0  0  0  0  0  0
  148.4280  142.3509  154.5735 H   0  0  0  0  0  0  0  0  0  0  0  0
  146.6093  134.2036  153.1739 H   0  0  0  0  0  0  0  0  0  0  0  0
  145.8548  132.6332  153.1747 H   0  0  0  0  0  0  0  0  0  0  0  0
  146.9716  134.1187  150.7548 H   0  0  0  0  0  0  0  0  0  0  0  0
  147.6181  132.6893  151.5031 H   0  0  0  0  0  0  0  0  0  0  0  0
  146.3413  132.1601  149.4136 H   0  0  0  0  0  0  0  0  0  0  0  0
  145.6860  131.3506  150.8159 H   0  0  0  0  0  0  0  0  0  0  0  0
  144.5672  133.8756  149.4985 H   0  0  0  0  0  0  0  0  0  0  0  0
  143.8435  132.2950  149.5052 H   0  0  0  0  0  0  0  0  0  0  0  0
  143.5573  132.3087  151.8847 H   0  0  0  0  0  0  0  0  0  0  0  0
  142.7545  133.7036  151.2234 H   0  0  0  0  0  0  0  0  0  0  0  0
  143.5874  133.4247  153.9805 H   0  0  0  0  0  0  0  0  0  0  0  0
  1  2  1  0  0  0  0
  1 20  1  0  0  0  0
  1 21  1  0  0  0  0
  1 22  1  0  0  0  0
  2  3  1  0  0  0  0
  2  4  1  0  0  0  0
  2 41  1  0  0  0  0
  3 23  1  0  0  0  0
  3 24  1  0  0  0  0
  3 25  1  0  0  0  0
  4 19  1  0  0  0  0
  4  5  1  0  0  0  0
  4 15  1  0  0  0  0
  5  6  1  0  0  0  0
  5 26  1  0  0  0  0
  5 27  1  0  0  0  0
  6  7  1  0  0  0  0
  6 28  1  0  0  0  0
  7  8  2  0  0  0  0
  7  9  1  0  0  0  0
  9 10  1  0  0  0  0
  9 29  1  0  0  0  0
 10 14  1  0  0  0  0
 10 11  2  0  0  0  0
 11 12  1  0  0  0  0
 12 13  2  0  0  0  0
 13 14  1  0  0  0  0
 13 30  1  0  0  0  0
 15 16  1  0  0  0  0
 15 31  1  0  0  0  0
 15 32  1  0  0  0  0
 16 17  1  0  0  0  0
 16 33  1  0  0  0  0
 16 34  1  0  0  0  0
 17 18  1  0  0  0  0
 17 35  1  0  0  0  0
 17 36  1  0  0  0  0
 18 19  1  0  0  0  0
 18 37  1  0  0  0  0
 18 38  1  0  0  0  0
 19 39  1  0  0  0  0
 19 40  1  0  0  0  0
M  CHG  1   2   1
M  END
> <s_m_source_file>
AV-unprocessed.smi

> <i_m_source_file_index>
1206

> <i_lp_mmshare_version>
43012

> <i_f3d_flags>
0

> <s_epik_input>
W0NIMl0xW0NIMl1bQ0gyXVtDSDJdW0NIMl1DMShOKFtDSDNdKVtDSDNdKVtDSDJdW05IXUMoPU8pW05IXWMybm5bY0hdczI=

> <s_epik_cmdline>
J2VwaWtfcHl0aG9uJywgJy1waCcsICc3LjAnLCAnLXRuJywgJzgnLCAnLW1hJywgJzIwMCcsICctbWV0YWxfYmluZGluZycsICctaW1hZScsICc8aW5maWxlLm1hZT4nLCAnLW9tYWUnLCAnPG91dGZpbGUubWFlPic=

> <r_lp_tautomer_probability>
1

> <r_epik_Ionization_Penalty>
0.00322257

> <r_epik_Ionization_Penalty_Charging>
0.00246239

> <r_epik_Ionization_Penalty_Neutral>
0.000760187

> <r_epik_State_Penalty>
-0

> <r_epik_Charging_Adjusted_Penalty>
0.00246239

> <i_epik_Tot_Q>
1

> <i_epik_Tot_abs_Q>
1

> <r_epik_Metal_State_Penalty>
0.262153

> <b_epik_Metal_Only>
0

> <s_lp_Force_Field>
OPLS_2005

> <r_lp_Energy>
30.8997

> <b_lp_Chiralities_Consistent>
1

> <s_lp_Variant>
AV-unprocessed.smi:1206-1

> <Gold.Version>
5.8.1

> <Gold.Id.Protein>
6NUR|6NUR_protein|mol2

> <Gold.PLP.Fitness>
39.0750

> <Gold.PLP.PLP>
-28.6550

> <Gold.PLP.part.hbond>
-2.9690

> <Gold.PLP.part.metal>
0.0000

> <Gold.PLP.part.buried>
-6.6216

> <Gold.PLP.part.nonpolar>
-23.5645

> <Gold.PLP.part.repulsive>
3.8246

> <Gold.PLP.ligand.clash>
0.0000

> <Gold.PLP.ligand.torsion>
1.0388

> <Gold.PLP.Chemscore.Hbond>
3.3920

> <Gold.PLP.Chemscore.CHOScore>
0.7382

> <Gold.PLP.Chemscore.Metal>
0.0000

> <Gold.Chemscore.Hbonds>
donor molecule, donor type, donor heavy atom, donor atom, acceptor molecule, acceptor atom, score
      L1  H     2    41       P1 10957  1.85
      L1  H     6    28       P1  7948  0.48
      L1  H     9    29       P1  7948  1.00
      L1  C    13    30       P1  8028  0.77

> <Gold.PLP.Chemscore.Internal.Correction>
0.1071

> <Gold.Rescore>
     Score         DG    S(hbond)    S(metal)    S(lipo)     H(rot)  DE(clash)    DE(int)     intcor
     16.01     -17.46       2.73        0.00      60.98       1.66       0.47       0.98       ----

> <Gold.Chemscore.Fitness>
16.0103

> <Gold.Chemscore.DG>
-17.4614

> <Gold.Chemscore.ZeroCoef>
-5.4800

> <Gold.Chemscore.Hbond>
2.7250

> <Gold.Chemscore.Metal>
0.0000

> <Gold.Chemscore.Lipo>
60.9813

> <Gold.Chemscore.Internal_Hbond>
0.0000

> <Gold.Chemscore.DEClash>
0.4726

> <Gold.Chemscore.DEInternal>
0.9784

> <Gold.Chemscore.Rot>
1.6621

> <Gold.Chemscore.Internal.Correction>
   9.000000E+99

> <Gold.Chemscore.Hbonds>
donor molecule, donor type, donor heavy atom, donor atom, acceptor molecule, acceptor atom, score
      L1  H     2    41       P1 10957  0.89
      L1  H     6    28       P1  7948  0.48
      L1  H     9    29       P1  7948  0.98

> <Gold.Chemscore.Hbond.Weighted>
-9.1015

> <Gold.Chemscore.Metal.Weighted>
-0.0000

> <Gold.Chemscore.Lipo.Weighted>
-7.1348

> <Gold.Chemscore.Internal_Hbond.Weighted>
0.0000

> <Gold.Chemscore.DEClash.Weighted>
0.4726

> <Gold.Chemscore.DEInternal.Weighted>
0.9784

> <Gold.Chemscore.Rot.Weighted>
4.2549

> <Gold.Chemscore.Internal.Correction.Weighted>
   9.000000E+99

> <Gold.Protein.RotatedTorsions>
[ 6907 6896 6895 6894 ] final  -54.98 input  -60.11 | X-H torsion
[ 7974 7965 7964 7962 ] final  130.37 input  175.53 | X-H torsion
[ 8008 7997 7996 7995 ] final  -25.03 input   59.86 | X-H torsion
[ 10167 10162 10161 10158 ] final   61.22 input  -65.29 | X-H torsion
[ 10718 10713 10712 10709 ] final   48.74 input   66.30 | X-H torsion
[ 10763 10752 10751 10750 ] final -106.21 input  -60.55 | X-H torsion
[ 11005 11000 10999 10996 ] final   36.25 input  -57.11 | X-H torsion

> <Gold.Protein.ActiveResidues>
 VAL166  LYS551  ARG553  GLY616  TRP617  ASP618  TYR619  PRO620  LYS621  CYS622 
 ASP623  PHE694  ASN695  SER759  ASP760  ASP761  ALA762  ILE779  LEU786  VAL792 
 PHE793  MET794  SER795  GLU796  ALA797  LYS798  CYS799  TRP800  GLU811  SER814 

> <Gold.Protein.RotatedAtoms>
  150.8290  134.7535  159.6837 H   0  0  0  0  0  0  0  0  0  0  0  0  # atno 6907 bound_to 6896
  152.4397  134.5611  159.9904 H   0  0  0  0  0  0  0  0  0  0  0  0  # atno 6908 bound_to 6896
  151.5777  133.3344  159.3038 H   0  0  0  0  0  0  0  0  0  0  0  0  # atno 6909 bound_to 6896
  145.0187  139.4152  143.5208 H   0  0  0  0  0  0  0  0  0  0  0  0  # atno 7974 bound_to 7965
  154.4497  140.1937  156.0556 H   0  0  0  0  0  0  0  0  0  0  0  0  # atno 8008 bound_to 7997
  156.0621  140.3295  155.7447 H   0  0  0  0  0  0  0  0  0  0  0  0  # atno 8009 bound_to 7997
  155.5395  140.0585  157.2863 H   0  0  0  0  0  0  0  0  0  0  0  0  # atno 8010 bound_to 7997
  140.1571  144.4407  150.6729 H   0  0  0  0  0  0  0  0  0  0  0  0  # atno 10167 bound_to 10162
  157.4717  130.8259  149.7995 H   0  0  0  0  0  0  0  0  0  0  0  0  # atno 10718 bound_to 10713
  154.7997  135.4720  154.0247 H   0  0  0  0  0  0  0  0  0  0  0  0  # atno 10763 bound_to 10752
  153.1762  135.6833  153.8547 H   0  0  0  0  0  0  0  0  0  0  0  0  # atno 10764 bound_to 10752
  153.8113  135.3216  155.3378 H   0  0  0  0  0  0  0  0  0  0  0  0  # atno 10765 bound_to 10752
  140.2344  134.3489  155.7950 H   0  0  0  0  0  0  0  0  0  0  0  0  # atno 11005 bound_to 11000
  146.3482  139.9672  142.8710 LP  0  0  0  0  0  0  0  0  0  0  0  0  # atno 17320 bound_to 7965
  145.1925  140.9818  143.4202 LP  0  0  0  0  0  0  0  0  0  0  0  0  # atno 17321 bound_to 7965
  140.6666  143.2270  151.5727 LP  0  0  0  0  0  0  0  0  0  0  0  0  # atno 17342 bound_to 10162
  139.5398  144.2678  152.1328 LP  0  0  0  0  0  0  0  0  0  0  0  0  # atno 17343 bound_to 10162
  156.0077  130.3848  150.2374 LP  0  0  0  0  0  0  0  0  0  0  0  0  # atno 17370 bound_to 10713
  157.0557  131.0075  151.3239 LP  0  0  0  0  0  0  0  0  0  0  0  0  # atno 17371 bound_to 10713
  141.2215  133.7263  156.8784 LP  0  0  0  0  0  0  0  0  0  0  0  0  # atno 17394 bound_to 11000
  140.1717  134.9095  157.2841 LP  0  0  0  0  0  0  0  0  0  0  0  0  # atno 17395 bound_to 11000

$$$$
