AV-unprocessed.smi:283|AV-procd|sdf|2126|dock6
  -GOLD-   2262021433D 1   1.00000     0.00000
 Structure written by MMmdl.
 48 51  0  0  0  0  0  0  0  0  1 V2000
  147.6846  136.3008  162.9913 C   0  0  0  0  0  0  0  0  0  0  0  0
  146.6426  136.8430  161.9963 C   0  0  1  0  0  0  0  0  0  0  0  0
  146.8549  136.2937  160.6576 N   0  0  0  0  0  0  0  0  0  0  0  0
  147.1718  137.0831  159.6073 C   0  0  0  0  0  0  0  0  0  0  0  0
  146.3356  138.0667  159.1829 N   0  0  0  0  0  0  0  0  0  0  0  0
  146.6742  138.8296  158.1388 C   0  0  0  0  0  0  0  0  0  0  0  0
  147.7781  138.7771  157.3893 N   0  0  0  0  0  0  0  0  0  0  0  0
  148.6166  137.7865  157.8099 C   0  0  0  0  0  0  0  0  0  0  0  0
  148.3895  136.9043  158.9018 C   0  0  0  0  0  0  0  0  0  0  0  0
  149.4633  136.0330  159.0325 N   0  0  0  0  0  0  0  0  0  0  0  0
  150.2753  136.3850  158.0715 C   0  0  0  0  0  0  0  0  0  0  0  0
  149.8409  137.4334  157.2878 N   0  0  0  0  0  0  0  0  0  0  0  0
  150.5104  138.0879  156.1229 C   0  0  2  0  0  0  0  0  0  0  0  0
  150.5860  139.4595  156.3872 O   0  0  0  0  0  0  0  0  0  0  0  0
  149.8146  140.2038  155.4462 C   0  0  2  0  0  0  0  0  0  0  0  0
  149.1710  141.4115  156.1451 C   0  0  0  0  0  0  0  0  0  0  0  0
  150.1256  142.0942  156.9295 O   0  0  0  0  0  0  0  0  0  0  0  0
  148.8236  139.1856  154.8776 C   0  0  1  0  0  0  0  0  0  0  0  0
  148.3333  139.5252  153.5950 O   0  0  0  0  0  0  0  0  0  0  0  0
  149.6432  137.9036  154.8716 C   0  0  1  0  0  0  0  0  0  0  0  0
  150.4492  137.7596  153.7163 O   0  0  0  0  0  0  0  0  0  0  0  0
  145.2327  136.5798  162.5234 C   0  0  0  0  0  0  0  0  0  0  0  0
  144.3859  137.6654  162.8510 C   0  0  0  0  0  0  0  0  0  0  0  0
  143.0818  137.4403  163.3305 C   0  0  0  0  0  0  0  0  0  0  0  0
  142.6056  136.1260  163.4823 C   0  0  0  0  0  0  0  0  0  0  0  0
  143.4334  135.0388  163.1480 C   0  0  0  0  0  0  0  0  0  0  0  0
  144.7399  135.2574  162.6666 C   0  0  0  0  0  0  0  0  0  0  0  0
  145.7029  133.8815  162.2541 Cl  0  0  0  0  0  0  0  0  0  0  0  0
  151.4957  137.6221  156.0720 H   0  0  0  0  0  0  0  0  0  0  0  0
  150.5017  140.5362  154.6657 H   0  0  0  0  0  0  0  0  0  0  0  0
  147.9809  139.0695  155.5607 H   0  0  0  0  0  0  0  0  0  0  0  0
  149.0139  137.0161  154.9557 H   0  0  0  0  0  0  0  0  0  0  0  0
  147.5532  136.7489  163.9765 H   0  0  0  0  0  0  0  0  0  0  0  0
  148.7040  136.5171  162.6723 H   0  0  0  0  0  0  0  0  0  0  0  0
  147.5964  135.2198  163.1050 H   0  0  0  0  0  0  0  0  0  0  0  0
  146.7647  137.9224  161.9169 H   0  0  0  0  0  0  0  0  0  0  0  0
  146.8335  135.2862  160.5932 H   0  0  0  0  0  0  0  0  0  0  0  0
  145.9579  139.5900  157.8651 H   0  0  0  0  0  0  0  0  0  0  0  0
  151.2186  135.8839  157.9113 H   0  0  0  0  0  0  0  0  0  0  0  0
  148.7295  142.0978  155.4222 H   0  0  0  0  0  0  0  0  0  0  0  0
  148.3689  141.0780  156.8039 H   0  0  0  0  0  0  0  0  0  0  0  0
  150.2679  142.9497  156.5530 H   0  0  0  0  0  0  0  0  0  0  0  0
  148.1874  138.7252  153.1125 H   0  0  0  0  0  0  0  0  0  0  0  0
  150.0094  137.1778  153.1152 H   0  0  0  0  0  0  0  0  0  0  0  0
  144.7279  138.6828  162.7325 H   0  0  0  0  0  0  0  0  0  0  0  0
  142.4459  138.2772  163.5795 H   0  0  0  0  0  0  0  0  0  0  0  0
  141.6049  135.9515  163.8494 H   0  0  0  0  0  0  0  0  0  0  0  0
  143.0617  134.0307  163.2588 H   0  0  0  0  0  0  0  0  0  0  0  0
  1  2  1  0  0  0  0
  1 33  1  0  0  0  0
  1 34  1  0  0  0  0
  1 35  1  0  0  0  0
  2  3  1  0  0  0  0
  2 22  1  0  0  0  0
  2 36  1  0  0  0  0
  3  4  1  0  0  0  0
  3 37  1  0  0  0  0
  4  9  1  0  0  0  0
  4  5  2  0  0  0  0
  5  6  1  0  0  0  0
  6  7  2  0  0  0  0
  6 38  1  0  0  0  0
  7  8  1  0  0  0  0
  8 12  1  0  0  0  0
  8  9  2  0  0  0  0
  9 10  1  0  0  0  0
 10 11  2  0  0  0  0
 11 12  1  0  0  0  0
 11 39  1  0  0  0  0
 12 13  1  0  0  0  0
 13 29  1  0  0  0  0
 13 20  1  0  0  0  0
 13 14  1  0  0  0  0
 14 15  1  0  0  0  0
 15 30  1  0  0  0  0
 15 16  1  0  0  0  0
 15 18  1  0  0  0  0
 16 17  1  0  0  0  0
 16 40  1  0  0  0  0
 16 41  1  0  0  0  0
 17 42  1  0  0  0  0
 18 31  1  0  0  0  0
 18 19  1  0  0  0  0
 18 20  1  0  0  0  0
 19 43  1  0  0  0  0
 20 32  1  0  0  0  0
 20 21  1  0  0  0  0
 21 44  1  0  0  0  0
 22 27  1  0  0  0  0
 22 23  2  0  0  0  0
 23 24  1  0  0  0  0
 23 45  1  0  0  0  0
 24 25  2  0  0  0  0
 24 46  1  0  0  0  0
 25 26  1  0  0  0  0
 25 47  1  0  0  0  0
 26 27  2  0  0  0  0
 26 48  1  0  0  0  0
 27 28  1  0  0  0  0
M  END
> <s_m_source_file>
AV-unprocessed.smi

> <i_m_source_file_index>
283

> <i_lp_mmshare_version>
43012

> <i_f3d_flags>
0

> <s_epik_input>
Q2xjMVtjSF1bY0hdW2NIXVtjSF1jMVtDQEhdKFtDSDNdKVtOSF1jKG5bY0hdbjIpYyhjMjMpbltjSF1uM1tDQEBIXTRPW0NASF0oW0NIMl1bT0hdKVtDQEBIXShbT0hdKVtDQEhdNFtPSF0=

> <s_epik_cmdline>
J2VwaWtfcHl0aG9uJywgJy1waCcsICc3LjAnLCAnLXRuJywgJzgnLCAnLW1hJywgJzIwMCcsICctbWV0YWxfYmluZGluZycsICctaW1hZScsICc8aW5maWxlLm1hZT4nLCAnLW9tYWUnLCAnPG91dGZpbGUubWFlPic=

> <r_lp_tautomer_probability>
1

> <r_epik_Ionization_Penalty>
0.000266407

> <r_epik_Ionization_Penalty_Charging>
0

> <r_epik_Ionization_Penalty_Neutral>
0.000266407

> <r_epik_State_Penalty>
-0

> <r_epik_Charging_Adjusted_Penalty>
0

> <i_epik_Tot_Q>
0

> <i_epik_Tot_abs_Q>
0

> <r_epik_Metal_State_Penalty>
-0

> <b_epik_Metal_Only>
0

> <s_epik_Chemistry_Notes>
This compound contains an acetal/aminal-like group ( X-CH(R)-Y where X, Y are N, S, or O) that may be acid/base labile, releasing an aldehyde.

> <s_lp_Force_Field>
OPLS_2005

> <r_lp_Energy>
43.9323

> <b_lp_Chiralities_Consistent>
1

> <s_lp_Variant>
AV-unprocessed.smi:283-2

> <Gold.Version>
5.8.1

> <Gold.Id.Protein>
6NUR|6NUR_protein|mol2

> <Gold.PLP.Fitness>
54.1404

> <Gold.PLP.PLP>
-43.5327

> <Gold.PLP.part.hbond>
-5.3200

> <Gold.PLP.part.metal>
0.0000

> <Gold.PLP.part.buried>
-6.4451

> <Gold.PLP.part.nonpolar>
-32.1710

> <Gold.PLP.part.repulsive>
0.1396

> <Gold.PLP.ligand.clash>
0.0000

> <Gold.PLP.ligand.torsion>
0.7393

> <Gold.PLP.Chemscore.Hbond>
4.0000

> <Gold.PLP.Chemscore.CHOScore>
0.0000

> <Gold.PLP.Chemscore.Metal>
0.0000

> <Gold.Chemscore.Hbonds>
donor molecule, donor type, donor heavy atom, donor atom, acceptor molecule, acceptor atom, score
      L1  H    17    42       P1  8028  0.04
      L1  H    21    44       P1  7948  0.85
      P1  H  6896  6909       L1    10  0.45
      P1  H  6934  6947       L1     5  0.02

> <Gold.PLP.Chemscore.Internal.Correction>
0.0864

> <Gold.Rescore>
     Score         DG    S(hbond)    S(metal)    S(lipo)     H(rot)  DE(clash)    DE(int)     intcor
     10.47     -15.56       3.09        0.00      87.71       4.10       0.22       4.88       ----

> <Gold.Chemscore.Fitness>
10.4656

> <Gold.Chemscore.DG>
-15.5592

> <Gold.Chemscore.ZeroCoef>
-5.4800

> <Gold.Chemscore.Hbond>
3.0853

> <Gold.Chemscore.Metal>
0.0000

> <Gold.Chemscore.Lipo>
87.7122

> <Gold.Chemscore.Internal_Hbond>
0.0000

> <Gold.Chemscore.DEClash>
0.2158

> <Gold.Chemscore.DEInternal>
4.8777

> <Gold.Chemscore.Rot>
4.0968

> <Gold.Chemscore.Internal.Correction>
   9.000000E+99

> <Gold.Chemscore.Hbonds>
donor molecule, donor type, donor heavy atom, donor atom, acceptor molecule, acceptor atom, score
      L1  H    17    42       P1  8028  0.07
      L1  H    21    44       P1  7948  0.15
      P1  H  6896  6909       L1    10  0.02

> <Gold.Chemscore.Hbond.Weighted>
-10.3048

> <Gold.Chemscore.Metal.Weighted>
-0.0000

> <Gold.Chemscore.Lipo.Weighted>
-10.2623

> <Gold.Chemscore.Internal_Hbond.Weighted>
0.0000

> <Gold.Chemscore.DEClash.Weighted>
0.2158

> <Gold.Chemscore.DEInternal.Weighted>
4.8777

> <Gold.Chemscore.Rot.Weighted>
10.4879

> <Gold.Chemscore.Internal.Correction.Weighted>
   9.000000E+99

> <Gold.Protein.RotatedTorsions>
[ 6907 6896 6895 6894 ] final   69.82 input  -60.11 | X-H torsion
[ 7974 7965 7964 7962 ] final  -20.42 input  175.53 | X-H torsion
[ 8008 7997 7996 7995 ] final -173.85 input   59.86 | X-H torsion
[ 10167 10162 10161 10158 ] final  -65.69 input  -65.29 | X-H torsion
[ 10718 10713 10712 10709 ] final -128.88 input   66.30 | X-H torsion
[ 10763 10752 10751 10750 ] final  -64.51 input  -60.55 | X-H torsion
[ 11005 11000 10999 10996 ] final  -82.76 input  -57.11 | X-H torsion

> <Gold.Protein.ActiveResidues>
 VAL166  LYS551  ARG553  GLY616  TRP617  ASP618  TYR619  PRO620  LYS621  CYS622 
 ASP623  PHE694  ASN695  SER759  ASP760  ASP761  ALA762  ILE779  LEU786  VAL792 
 PHE793  MET794  SER795  GLU796  ALA797  LYS798  CYS799  TRP800  GLU811  SER814 

> <Gold.Protein.RotatedAtoms>
  152.4710  134.4960  159.9709 H   0  0  0  0  0  0  0  0  0  0  0  0  # atno 6907 bound_to 6896
  151.4987  133.3503  159.2873 H   0  0  0  0  0  0  0  0  0  0  0  0  # atno 6908 bound_to 6896
  150.8720  134.8123  159.7223 H   0  0  0  0  0  0  0  0  0  0  0  0  # atno 6909 bound_to 6896
  146.1789  140.4199  142.8502 H   0  0  0  0  0  0  0  0  0  0  0  0  # atno 7974 bound_to 7965
  155.9626  140.1147  157.0882 H   0  0  0  0  0  0  0  0  0  0  0  0  # atno 8008 bound_to 7997
  154.4136  140.1179  156.5266 H   0  0  0  0  0  0  0  0  0  0  0  0  # atno 8009 bound_to 7997
  155.6700  140.3473  155.4817 H   0  0  0  0  0  0  0  0  0  0  0  0  # atno 8010 bound_to 7997
  140.5711  143.2318  151.6535 H   0  0  0  0  0  0  0  0  0  0  0  0  # atno 10167 bound_to 10162
  156.1993  130.6846  151.0519 H   0  0  0  0  0  0  0  0  0  0  0  0  # atno 10718 bound_to 10713
  154.3311  135.6176  153.5552 H   0  0  0  0  0  0  0  0  0  0  0  0  # atno 10763 bound_to 10752
  152.9811  135.5747  154.4960 H   0  0  0  0  0  0  0  0  0  0  0  0  # atno 10764 bound_to 10752
  154.4647  135.2857  155.1664 H   0  0  0  0  0  0  0  0  0  0  0  0  # atno 10765 bound_to 10752
  141.1661  133.7260  156.8620 H   0  0  0  0  0  0  0  0  0  0  0  0  # atno 11005 bound_to 11000
  144.8282  140.6663  143.6308 LP  0  0  0  0  0  0  0  0  0  0  0  0  # atno 17320 bound_to 7965
  145.4132  139.1576  143.4114 LP  0  0  0  0  0  0  0  0  0  0  0  0  # atno 17321 bound_to 7965
  139.5118  144.3497  152.0664 LP  0  0  0  0  0  0  0  0  0  0  0  0  # atno 17342 bound_to 10162
  140.2634  144.4042  150.6177 LP  0  0  0  0  0  0  0  0  0  0  0  0  # atno 17343 bound_to 10162
  157.6976  131.0788  150.6921 LP  0  0  0  0  0  0  0  0  0  0  0  0  # atno 17370 bound_to 10713
  156.6978  130.4614  149.5581 LP  0  0  0  0  0  0  0  0  0  0  0  0  # atno 17371 bound_to 10713
  140.1842  134.9012  157.2984 LP  0  0  0  0  0  0  0  0  0  0  0  0  # atno 17394 bound_to 11000
  140.2361  134.3851  155.7500 LP  0  0  0  0  0  0  0  0  0  0  0  0  # atno 17395 bound_to 11000

$$$$
