#       Name:                AV-unprocessed.smi:1196
#       Creating user name   scv26
#       Creation time:       Fri Mar 27 04:00:52 2020


#       File generated by GOLD software.
#

@<TRIPOS>MOLECULE
AV-unprocessed.smi:1196
    44    45     1
SMALL
NO_CHARGES


@<TRIPOS>ATOM
      1 ****        -3.1188  -0.5302   1.2583 C.3            1 S1                 0.0000
      2 ****        -2.5348   0.3034   0.1072 C.3            1 S1                 0.0000
      3 ****        -3.2465  -0.0008  -1.2256 C.3            1 S1                 0.0000
      4 ****        -2.8263   0.8882  -2.2942 N.pl3          1 S1                 0.0000
      5 ****        -1.9373   0.6378  -3.3184 C.2            1 S1                 0.0000
      6 ****        -1.8557   1.7733  -4.0721 C.2            1 S1                 0.0000
      7 ****        -2.7437   2.6747  -3.4215 C.2            1 S1                 0.0000
      8 ****        -3.3251   2.1415  -2.3592 N.2            1 S1                 0.0000
      9 ****        -1.1022   0.0420  -0.0190 N.am           1 S1                 0.0000
     10 ****        -0.1310   0.6702   0.6613 C.2            1 S1                 0.0000
     11 ****        -0.3481   1.5531   1.4916 O.2            1 S1                 0.0000
     12 ****         1.3037   0.2391   0.3489 C.3            1 S1                 0.0000
     13 ****         2.1148  -0.0741   1.6207 C.3            1 S1                 0.0000
     14 ****         3.5559  -0.5347   1.3165 C.3            1 S1                 0.0000
     15 ****         3.5809  -1.8777   0.7622 N.pl3          1 S1                -1.0000
     16 ****         4.3371  -2.6606   1.5677 C.2            1 S1                 0.0000
     17 ****         4.6012  -3.8523   1.4251 O.2            1 S1                 0.0000
     18 ****         4.7983  -1.9613   2.6098 N.am           1 S1                 0.0000
     19 ****         4.3880  -0.6977   2.5743 C.2            1 S1                 0.0000
     20 ****         4.6267   0.1891   3.3929 O.2            1 S1                 0.0000
     21 ****        -4.1854  -0.3384   1.3784 H              1 S1                 0.0000
     22 ****        -2.6350  -0.2899   2.2056 H              1 S1                 0.0000
     23 ****        -2.9903  -1.5982   1.0798 H              1 S1                 0.0000
     24 ****        -2.6902   1.3583   0.3414 H              1 S1                 0.0000
     25 ****        -3.0620  -1.0311  -1.5337 H              1 S1                 0.0000
     26 ****        -4.3265   0.0989  -1.1073 H              1 S1                 0.0000
     27 ****        -1.4402  -0.3153  -3.4221 H              1 S1                 0.0000
     28 ****        -1.2523   1.9357  -4.9528 H              1 S1                 0.0000
     29 ****        -2.9821   3.6936  -3.6882 H              1 S1                 0.0000
     30 ****        -0.8256  -0.6721  -0.6772 H              1 S1                 0.0000
     31 ****         1.2869  -0.6339  -0.3053 H              1 S1                 0.0000
     32 ****         1.7877   1.0382  -0.2131 H              1 S1                 0.0000
     33 ****         2.1525   0.8209   2.2442 H              1 S1                 0.0000
     34 ****         1.5973  -0.8314   2.2133 H              1 S1                 0.0000
     35 ****         4.0515   0.1923   0.6716 H              1 S1                 0.0000
     36 ****         5.3774  -2.3495   3.3391 H              1 S1                 0.0000
     37 ****        -3.9856   2.5703  -1.7429 LP             1 S1                 0.0000
     38 ****        -1.2873   1.8351   1.6876 LP             1 S1                 0.0000
     39 ****         0.4147   1.9881   1.9699 LP             1 S1                 0.0000
     40 ****         3.1178  -2.1738  -0.0732 LP             1 S1                 0.0000
     41 ****         4.2412  -4.3536   0.6382 LP             1 S1                 0.0000
     42 ****         5.1761  -4.3208   2.0959 LP             1 S1                 0.0000
     43 ****         4.2600   1.1091   3.2546 LP             1 S1                 0.0000
     44 ****         5.1874  -0.0101   4.1966 LP             1 S1                 0.0000
@<TRIPOS>BOND
    1    1    2 1     
    2    1   21 1     
    3    1   22 1     
    4    1   23 1     
    5    2    3 1     
    6    2    9 1     
    7    2   24 1     
    8    3    4 1     
    9    3   25 1     
   10    3   26 1     
   11    4    8 1     
   12    4    5 1     
   13    5    6 2     
   14    5   27 1     
   15    6    7 1     
   16    6   28 1     
   17    7    8 2     
   18    7   29 1     
   19    9   10 am    
   20    9   30 1     
   21   10   11 2     
   22   10   12 1     
   23   12   13 1     
   24   12   31 1     
   25   12   32 1     
   26   13   14 1     
   27   13   33 1     
   28   13   34 1     
   29   14   19 1     
   30   14   15 1     
   31   14   35 1     
   32   15   16 1     
   33   16   17 2     
   34   16   18 am    
   35   18   19 am    
   36   18   36 1     
   37   19   20 2     
   38    8   37 1     
   39   11   38 1     
   40   11   39 1     
   41   15   40 1     
   42   17   41 1     
   43   17   42 1     
   44   20   43 1     
   45   20   44 1     
@<TRIPOS>SUBSTRUCTURE
      1 S1             1
@<TRIPOS>SET
LONE_PAIRS      STATIC     ATOMS    <user>   **** ""
8 37 38 39 40 41 42 43 44
DONOR_HYDROGENS      STATIC     ATOMS    <user>   **** ""
2 30 36
ATOM$BLUE        STATIC     ATOMS    COLORGROUP SYSTEM
8 37 38 39 40 41 42 43 44
ATOM$RED        STATIC     ATOMS    COLORGROUP SYSTEM
2 30 36
