AV-unprocessed.smi:81|AV-procd|sdf|789|dock2
  -GOLD-   2262017163D 1   1.00000     0.00000
 Structure written by MMmdl.
 64 67  0  0  0  0  0  0  0  0  2 V2000
  144.1764  133.3765  150.1460 C   0  0  0  0  0  0  0  0  0  0  0  0
  144.4604  133.7213  151.6175 C   0  0  0  0  0  0  0  0  0  0  0  0
  143.7058  134.9941  152.0274 C   0  0  0  0  0  0  0  0  0  0  0  0
  145.9732  133.8820  151.8888 C   0  0  0  0  0  0  0  0  0  0  0  0
  146.4120  133.3309  153.1745 N   0  0  0  0  0  0  0  0  0  0  0  0
  147.3043  134.0997  153.8483 C   0  0  0  0  0  0  0  0  0  0  0  0
  148.4337  133.5417  154.3586 N   0  0  0  0  0  0  0  0  0  0  0  0
  149.3168  134.3002  155.0150 C   0  0  0  0  0  0  0  0  0  0  0  0
  149.2669  135.6097  155.2680 N   0  0  0  0  0  0  0  0  0  0  0  0
  148.1375  136.1731  154.7509 C   0  0  0  0  0  0  0  0  0  0  0  0
  147.1159  135.4961  154.0286 C   0  0  0  0  0  0  0  0  0  0  0  0
  146.1283  136.3938  153.6440 N   0  0  0  0  0  0  0  0  0  0  0  0
  146.5432  137.5390  154.1126 C   0  0  0  0  0  0  0  0  0  0  0  0
  147.7336  137.4957  154.8038 N   0  0  0  0  0  0  0  0  0  0  0  0
  148.4209  138.6159  155.4277 C   0  0  0  0  0  0  0  0  0  0  0  0
  149.4912  139.2880  154.5233 C   0  0  2  0  0  0  0  0  0  0  0  0
  149.4425  138.7215  153.2275 O   0  0  0  0  0  0  0  0  0  0  0  0
  150.9136  139.1738  155.0581 C   0  0  0  0  0  0  0  0  0  0  0  0
  150.9828  140.3228  156.0591 C   0  0  0  0  0  0  0  0  0  0  0  0
  150.1120  141.3281  155.5488 O   0  0  0  0  0  0  0  0  0  0  0  0
  149.3700  140.8226  154.4414 C   0  0  2  0  0  0  0  0  0  0  0  0
  147.9492  141.4061  154.4275 C   0  0  0  0  0  0  0  0  0  0  0  0
  146.6460  131.8800  153.2158 C   0  0  2  0  0  0  0  0  0  0  0  0
  145.6937  131.0673  152.3127 C   0  0  0  0  0  0  0  0  0  0  0  0
  146.0509  129.5725  152.3420 C   0  0  0  0  0  0  0  0  0  0  0  0
  146.0280  129.0474  153.7298 N   0  3  1  0  0  0  0  0  0  0  0  0
  146.2420  127.5854  153.7827 C   0  0  0  0  0  0  0  0  0  0  0  0
  146.9563  129.7875  154.6203 C   0  0  0  0  0  0  0  0  0  0  0  0
  146.6233  131.2885  154.6421 C   0  0  0  0  0  0  0  0  0  0  0  0
  144.5449  134.1558  149.4781 H   0  0  0  0  0  0  0  0  0  0  0  0
  143.1065  133.2647  149.9688 H   0  0  0  0  0  0  0  0  0  0  0  0
  144.6511  132.4391  149.8564 H   0  0  0  0  0  0  0  0  0  0  0  0
  144.0698  132.9114  152.2342 H   0  0  0  0  0  0  0  0  0  0  0  0
  144.0374  135.8564  151.4484 H   0  0  0  0  0  0  0  0  0  0  0  0
  143.8632  135.2205  153.0824 H   0  0  0  0  0  0  0  0  0  0  0  0
  142.6322  134.8824  151.8732 H   0  0  0  0  0  0  0  0  0  0  0  0
  146.5315  133.3963  151.0879 H   0  0  0  0  0  0  0  0  0  0  0  0
  146.2420  134.9382  151.8416 H   0  0  0  0  0  0  0  0  0  0  0  0
  150.1881  133.7846  155.3911 H   0  0  0  0  0  0  0  0  0  0  0  0
  145.9840  138.4531  153.9736 H   0  0  0  0  0  0  0  0  0  0  0  0
  147.6651  139.3437  155.7251 H   0  0  0  0  0  0  0  0  0  0  0  0
  148.8747  138.2576  156.3524 H   0  0  0  0  0  0  0  0  0  0  0  0
  149.2855  139.4135  152.6035 H   0  0  0  0  0  0  0  0  0  0  0  0
  151.1641  138.2080  155.4939 H   0  0  0  0  0  0  0  0  0  0  0  0
  151.6335  139.3614  154.2595 H   0  0  0  0  0  0  0  0  0  0  0  0
  150.6149  140.0041  157.0350 H   0  0  0  0  0  0  0  0  0  0  0  0
  151.9968  140.7015  156.1880 H   0  0  0  0  0  0  0  0  0  0  0  0
  149.8924  141.1683  153.5474 H   0  0  0  0  0  0  0  0  0  0  0  0
  147.3672  140.9987  153.6006 H   0  0  0  0  0  0  0  0  0  0  0  0
  147.9790  142.4892  154.3095 H   0  0  0  0  0  0  0  0  0  0  0  0
  147.4159  141.1952  155.3544 H   0  0  0  0  0  0  0  0  0  0  0  0
  147.6517  131.7336  152.8197 H   0  0  0  0  0  0  0  0  0  0  0  0
  144.6586  131.1869  152.6354 H   0  0  0  0  0  0  0  0  0  0  0  0
  145.7474  131.4338  151.2871 H   0  0  0  0  0  0  0  0  0  0  0  0
  145.3386  129.0174  151.7302 H   0  0  0  0  0  0  0  0  0  0  0  0
  147.0378  129.4125  151.9045 H   0  0  0  0  0  0  0  0  0  0  0  0
  147.2340  127.3206  153.4146 H   0  0  0  0  0  0  0  0  0  0  0  0
  145.5010  127.0655  153.1747 H   0  0  0  0  0  0  0  0  0  0  0  0
  146.1469  127.2194  154.8054 H   0  0  0  0  0  0  0  0  0  0  0  0
  146.8887  129.3867  155.6325 H   0  0  0  0  0  0  0  0  0  0  0  0
  147.9841  129.6353  154.2867 H   0  0  0  0  0  0  0  0  0  0  0  0
  147.3382  131.8056  155.2824 H   0  0  0  0  0  0  0  0  0  0  0  0
  145.6420  131.4260  155.0970 H   0  0  0  0  0  0  0  0  0  0  0  0
  145.0968  129.2125  154.0847 H   0  0  0  0  0  0  0  0  0  0  0  0
  1  2  1  0  0  0  0
  1 30  1  0  0  0  0
  1 31  1  0  0  0  0
  1 32  1  0  0  0  0
  2  3  1  0  0  0  0
  2  4  1  0  0  0  0
  2 33  1  0  0  0  0
  3 34  1  0  0  0  0
  3 35  1  0  0  0  0
  3 36  1  0  0  0  0
  4  5  1  0  0  0  0
  4 37  1  0  0  0  0
  4 38  1  0  0  0  0
  5  6  1  0  0  0  0
  5 23  1  0  0  0  0
  6 11  1  0  0  0  0
  6  7  2  0  0  0  0
  7  8  1  0  0  0  0
  8  9  2  0  0  0  0
  8 39  1  0  0  0  0
  9 10  1  0  0  0  0
 10 14  1  0  0  0  0
 10 11  2  0  0  0  0
 11 12  1  0  0  0  0
 12 13  2  0  0  0  0
 13 14  1  0  0  0  0
 13 40  1  0  0  0  0
 14 15  1  0  0  0  0
 15 16  1  0  0  0  0
 15 41  1  0  0  0  0
 15 42  1  0  0  0  0
 16 21  1  0  0  0  0
 16 17  1  0  0  0  0
 16 18  1  0  0  0  0
 17 43  1  0  0  0  0
 18 19  1  0  0  0  0
 18 44  1  0  0  0  0
 18 45  1  0  0  0  0
 19 20  1  0  0  0  0
 19 46  1  0  0  0  0
 19 47  1  0  0  0  0
 20 21  1  0  0  0  0
 21 22  1  0  0  0  0
 21 48  1  0  0  0  0
 22 49  1  0  0  0  0
 22 50  1  0  0  0  0
 22 51  1  0  0  0  0
 23 29  1  0  0  0  0
 23 24  1  0  0  0  0
 23 52  1  0  0  0  0
 24 25  1  0  0  0  0
 24 53  1  0  0  0  0
 24 54  1  0  0  0  0
 25 26  1  0  0  0  0
 25 55  1  0  0  0  0
 25 56  1  0  0  0  0
 26 27  1  0  0  0  0
 26 28  1  0  0  0  0
 26 64  1  0  0  0  0
 27 57  1  0  0  0  0
 27 58  1  0  0  0  0
 27 59  1  0  0  0  0
 28 29  1  0  0  0  0
 28 60  1  0  0  0  0
 28 61  1  0  0  0  0
 29 62  1  0  0  0  0
 29 63  1  0  0  0  0
M  CHG  1  26   1
M  END
> <s_m_source_file>
AV-unprocessed.smi

> <i_m_source_file_index>
81

> <i_lp_mmshare_version>
43012

> <i_f3d_flags>
0

> <s_epik_input>
W0NIMl0xW0NIMl1OKFtDSDNdKVtDSDJdW0NIMl1bQ0hdMU4oW0NIMl1bQ0hdKFtDSDNdKVtDSDNdKWMobltjSF1uMiljKGMyMyluW2NIXW4zW0NIMl1bQ0BAXTQoW09IXSlbQ0gyXVtDSDJdT1tDQEhdNFtDSDNd

> <s_epik_cmdline>
J2VwaWtfcHl0aG9uJywgJy1waCcsICc3LjAnLCAnLXRuJywgJzgnLCAnLW1hJywgJzIwMCcsICctbWV0YWxfYmluZGluZycsICctaW1hZScsICc8aW5maWxlLm1hZT4nLCAnLW9tYWUnLCAnPG91dGZpbGUubWFlPic=

> <r_lp_tautomer_probability>
1

> <r_epik_Ionization_Penalty>
0.00272708

> <r_epik_Ionization_Penalty_Charging>
0.00158983

> <r_epik_Ionization_Penalty_Neutral>
0.00113725

> <r_epik_State_Penalty>
-0

> <r_epik_Charging_Adjusted_Penalty>
0.00158983

> <i_epik_Tot_Q>
1

> <i_epik_Tot_abs_Q>
1

> <r_epik_Metal_State_Penalty>
-0

> <b_epik_Metal_Only>
0

> <s_lp_Force_Field>
OPLS_2005

> <r_lp_Energy>
46.4423

> <b_lp_Chiralities_Consistent>
1

> <s_lp_Variant>
AV-unprocessed.smi:81-4

> <Gold.Version>
5.8.1

> <Gold.Id.Protein>
6NUR|6NUR_protein|mol2

> <Gold.PLP.Fitness>
42.3607

> <Gold.PLP.PLP>
-37.9035

> <Gold.PLP.part.hbond>
-2.9465

> <Gold.PLP.part.metal>
0.0000

> <Gold.PLP.part.buried>
-2.7923

> <Gold.PLP.part.nonpolar>
-32.4141

> <Gold.PLP.part.repulsive>
0.5137

> <Gold.PLP.ligand.clash>
0.0000

> <Gold.PLP.ligand.torsion>
2.8073

> <Gold.PLP.Chemscore.Hbond>
3.0000

> <Gold.PLP.Chemscore.CHOScore>
0.0000

> <Gold.PLP.Chemscore.Metal>
0.0000

> <Gold.Chemscore.Hbonds>
donor molecule, donor type, donor heavy atom, donor atom, acceptor molecule, acceptor atom, score
      L1  H    17    43       P1  7957  0.94
      L1  H    26    64       P1 10956  2.00

> <Gold.PLP.Chemscore.Internal.Correction>
1.0717

> <Gold.Rescore>
     Score         DG    S(hbond)    S(metal)    S(lipo)     H(rot)  DE(clash)    DE(int)     intcor
     12.67     -16.01       1.97        0.00      90.26       2.58       0.17       3.17       ----

> <Gold.Chemscore.Fitness>
12.6717

> <Gold.Chemscore.DG>
-16.0141

> <Gold.Chemscore.ZeroCoef>
-5.4800

> <Gold.Chemscore.Hbond>
1.9677

> <Gold.Chemscore.Metal>
0.0000

> <Gold.Chemscore.Lipo>
90.2586

> <Gold.Chemscore.Internal_Hbond>
0.0000

> <Gold.Chemscore.DEClash>
0.1721

> <Gold.Chemscore.DEInternal>
3.1703

> <Gold.Chemscore.Rot>
2.5774

> <Gold.Chemscore.Internal.Correction>
   9.000000E+99

> <Gold.Chemscore.Hbonds>
donor molecule, donor type, donor heavy atom, donor atom, acceptor molecule, acceptor atom, score
      L1  H    17    43       P1  7957  0.90
      L1  H    26    64       P1 10956  0.96

> <Gold.Chemscore.Hbond.Weighted>
-6.5721

> <Gold.Chemscore.Metal.Weighted>
-0.0000

> <Gold.Chemscore.Lipo.Weighted>
-10.5603

> <Gold.Chemscore.Internal_Hbond.Weighted>
0.0000

> <Gold.Chemscore.DEClash.Weighted>
0.1721

> <Gold.Chemscore.DEInternal.Weighted>
3.1703

> <Gold.Chemscore.Rot.Weighted>
6.5982

> <Gold.Chemscore.Internal.Correction.Weighted>
   9.000000E+99

> <Gold.Protein.RotatedTorsions>
[ 6907 6896 6895 6894 ] final   52.66 input  -60.11 | X-H torsion
[ 7974 7965 7964 7962 ] final -172.25 input  175.53 | X-H torsion
[ 8008 7997 7996 7995 ] final  -39.97 input   59.86 | X-H torsion
[ 10167 10162 10161 10158 ] final   51.37 input  -65.29 | X-H torsion
[ 10718 10713 10712 10709 ] final  137.74 input   66.30 | X-H torsion
[ 10763 10752 10751 10750 ] final   69.15 input  -60.55 | X-H torsion
[ 11005 11000 10999 10996 ] final  126.65 input  -57.11 | X-H torsion

> <Gold.Protein.ActiveResidues>
 VAL166  LYS551  ARG553  GLY616  TRP617  ASP618  TYR619  PRO620  LYS621  CYS622 
 ASP623  PHE694  ASN695  SER759  ASP760  ASP761  ALA762  ILE779  LEU786  VAL792 
 PHE793  MET794  SER795  GLU796  ALA797  LYS798  CYS799  TRP800  GLU811  SER814 

> <Gold.Protein.RotatedAtoms>
  152.3256  134.7325  160.0302 H   0  0  0  0  0  0  0  0  0  0  0  0  # atno 6907 bound_to 6896
  151.7759  133.3340  159.3466 H   0  0  0  0  0  0  0  0  0  0  0  0  # atno 6908 bound_to 6896
  150.7394  134.5907  159.6030 H   0  0  0  0  0  0  0  0  0  0  0  0  # atno 6909 bound_to 6896
  144.7148  140.1800  143.6359 H   0  0  0  0  0  0  0  0  0  0  0  0  # atno 7974 bound_to 7965
  154.4017  140.1537  156.2951 H   0  0  0  0  0  0  0  0  0  0  0  0  # atno 8008 bound_to 7997
  155.8751  140.3447  155.5826 H   0  0  0  0  0  0  0  0  0  0  0  0  # atno 8009 bound_to 7997
  155.7731  140.0833  157.2088 H   0  0  0  0  0  0  0  0  0  0  0  0  # atno 8010 bound_to 7997
  140.2627  144.3355  150.6313 H   0  0  0  0  0  0  0  0  0  0  0  0  # atno 10167 bound_to 10162
  157.4328  131.1050  151.0231 H   0  0  0  0  0  0  0  0  0  0  0  0  # atno 10718 bound_to 10713
  153.0272  135.5221  154.7245 H   0  0  0  0  0  0  0  0  0  0  0  0  # atno 10763 bound_to 10752
  154.6290  135.2898  155.0240 H   0  0  0  0  0  0  0  0  0  0  0  0  # atno 10764 bound_to 10752
  154.1199  135.6609  153.4953 H   0  0  0  0  0  0  0  0  0  0  0  0  # atno 10765 bound_to 10752
  139.9467  134.9628  156.8738 H   0  0  0  0  0  0  0  0  0  0  0  0  # atno 11005 bound_to 11000
  145.8865  139.2352  143.1574 LP  0  0  0  0  0  0  0  0  0  0  0  0  # atno 17320 bound_to 7965
  145.9945  140.8574  143.0050 LP  0  0  0  0  0  0  0  0  0  0  0  0  # atno 17321 bound_to 7965
  140.5953  143.2167  151.7175 LP  0  0  0  0  0  0  0  0  0  0  0  0  # atno 17342 bound_to 10162
  139.5012  144.3876  152.0312 LP  0  0  0  0  0  0  0  0  0  0  0  0  # atno 17343 bound_to 10162
  157.1121  130.6026  149.5484 LP  0  0  0  0  0  0  0  0  0  0  0  0  # atno 17370 bound_to 10713
  155.9919  130.4976  150.7320 LP  0  0  0  0  0  0  0  0  0  0  0  0  # atno 17371 bound_to 10713
  140.5818  134.0345  155.7467 LP  0  0  0  0  0  0  0  0  0  0  0  0  # atno 17394 bound_to 11000
  141.1119  133.9602  157.2894 LP  0  0  0  0  0  0  0  0  0  0  0  0  # atno 17395 bound_to 11000

$$$$
