AV-unprocessed.smi:77|AV-procd|sdf|773|dock4
  -GOLD-   2262017123D 1   1.00000     0.00000
 Structure written by MMmdl.
 57 61  0  0  0  0  0  0  0  0  1 V2000
  146.2618  138.9654  154.7603 O   0  0  0  0  0  0  0  0  0  0  0  0
  147.0138  138.3739  153.9838 C   0  0  0  0  0  0  0  0  0  0  0  0
  148.4379  138.8813  153.7204 C   0  0  0  0  0  0  0  0  0  0  0  0
  148.7600  140.1088  154.4596 N   0  0  0  0  0  0  0  0  0  0  0  0
  149.9227  140.1347  155.1722 C   0  0  0  0  0  0  0  0  0  0  0  0
  150.8948  139.2269  154.8826 N   0  0  0  0  0  0  0  0  0  0  0  0
  152.0463  139.2165  155.5585 C   0  0  0  0  0  0  0  0  0  0  0  0
  152.4355  140.0146  156.5524 N   0  0  0  0  0  0  0  0  0  0  0  0
  151.4736  140.9331  156.8509 C   0  0  0  0  0  0  0  0  0  0  0  0
  150.2026  141.0646  156.2192 C   0  0  0  0  0  0  0  0  0  0  0  0
  149.5097  142.1254  156.7938 N   0  0  0  0  0  0  0  0  0  0  0  0
  150.3171  142.5882  157.7076 C   0  0  0  0  0  0  0  0  0  0  0  0
  151.5214  141.9325  157.8070 N   0  0  0  0  0  0  0  0  0  0  0  0
  152.5993  142.2367  158.7325 C   0  0  0  0  0  0  0  0  0  0  0  0
  152.1068  142.7777  160.0989 C   0  0  2  0  0  0  0  0  0  0  0  0
  152.4193  144.2893  160.2504 C   0  0  0  0  0  0  0  0  0  0  0  0
  151.7210  145.0688  159.3022 O   0  0  0  0  0  0  0  0  0  0  0  0
  152.7090  141.9303  161.2541 C   0  0  1  0  0  0  0  0  0  0  0  0
  153.8812  141.0376  160.8835 C   0  0  0  0  0  0  0  0  0  0  0  0
  154.4991  140.7339  162.2426 C   0  0  0  0  0  0  0  0  0  0  0  0
  154.3048  141.9110  163.0159 O   0  0  0  0  0  0  0  0  0  0  0  0
  153.3405  142.7501  162.3876 C   0  0  0  0  0  0  0  0  0  0  0  0
  148.2623  141.3661  153.9012 C   0  0  0  0  0  0  0  0  0  0  0  0
  147.2345  142.1625  154.6753 C   0  0  0  0  0  0  0  0  0  0  0  0
  146.8336  141.4398  153.4119 C   0  0  0  0  0  0  0  0  0  0  0  0
  146.6628  137.2612  153.3234 N   0  0  0  0  0  0  0  0  0  0  0  0
  145.3986  136.6057  153.4170 C   0  0  0  0  0  0  0  0  0  0  0  0
  145.2280  135.3017  152.6685 C   0  0  0  0  0  0  0  0  0  0  0  0
  144.5433  136.5443  152.1703 C   0  0  0  0  0  0  0  0  0  0  0  0
  149.1513  138.0849  153.9381 H   0  0  0  0  0  0  0  0  0  0  0  0
  148.5363  139.0759  152.6512 H   0  0  0  0  0  0  0  0  0  0  0  0
  152.7573  138.4611  155.2583 H   0  0  0  0  0  0  0  0  0  0  0  0
  150.0566  143.4281  158.3352 H   0  0  0  0  0  0  0  0  0  0  0  0
  153.1742  141.3200  158.8633 H   0  0  0  0  0  0  0  0  0  0  0  0
  153.2722  142.9560  158.2641 H   0  0  0  0  0  0  0  0  0  0  0  0
  151.0221  142.6585  160.1172 H   0  0  0  0  0  0  0  0  0  0  0  0
  152.1837  144.6356  161.2570 H   0  0  0  0  0  0  0  0  0  0  0  0
  153.4748  144.5002  160.0867 H   0  0  0  0  0  0  0  0  0  0  0  0
  151.6702  145.9564  159.6227 H   0  0  0  0  0  0  0  0  0  0  0  0
  151.9261  141.3014  161.6818 H   0  0  0  0  0  0  0  0  0  0  0  0
  153.5845  140.1304  160.3566 H   0  0  0  0  0  0  0  0  0  0  0  0
  154.5941  141.5804  160.2609 H   0  0  0  0  0  0  0  0  0  0  0  0
  153.9707  139.9100  162.7241 H   0  0  0  0  0  0  0  0  0  0  0  0
  155.5540  140.4674  162.1742 H   0  0  0  0  0  0  0  0  0  0  0  0
  153.8592  143.6240  161.9913 H   0  0  0  0  0  0  0  0  0  0  0  0
  152.6020  143.0970  163.1108 H   0  0  0  0  0  0  0  0  0  0  0  0
  148.9876  141.9467  153.3339 H   0  0  0  0  0  0  0  0  0  0  0  0
  146.8801  141.7536  155.6196 H   0  0  0  0  0  0  0  0  0  0  0  0
  147.3077  143.2472  154.6350 H   0  0  0  0  0  0  0  0  0  0  0  0
  146.6386  142.0426  152.5275 H   0  0  0  0  0  0  0  0  0  0  0  0
  146.2040  140.5596  153.5222 H   0  0  0  0  0  0  0  0  0  0  0  0
  147.3458  136.8436  152.7080 H   0  0  0  0  0  0  0  0  0  0  0  0
  144.8633  136.6838  154.3624 H   0  0  0  0  0  0  0  0  0  0  0  0
  146.0738  134.9297  152.0934 H   0  0  0  0  0  0  0  0  0  0  0  0
  144.6066  134.5367  153.1298 H   0  0  0  0  0  0  0  0  0  0  0  0
  143.4648  136.6103  152.2993 H   0  0  0  0  0  0  0  0  0  0  0  0
  144.9319  137.0029  151.2628 H   0  0  0  0  0  0  0  0  0  0  0  0
  1  2  2  0  0  0  0
  2  3  1  0  0  0  0
  2 26  1  0  0  0  0
  3  4  1  0  0  0  0
  3 30  1  0  0  0  0
  3 31  1  0  0  0  0
  4  5  1  0  0  0  0
  4 23  1  0  0  0  0
  5 10  1  0  0  0  0
  5  6  2  0  0  0  0
  6  7  1  0  0  0  0
  7  8  2  0  0  0  0
  7 32  1  0  0  0  0
  8  9  1  0  0  0  0
  9 13  1  0  0  0  0
  9 10  2  0  0  0  0
 10 11  1  0  0  0  0
 11 12  2  0  0  0  0
 12 13  1  0  0  0  0
 12 33  1  0  0  0  0
 13 14  1  0  0  0  0
 14 15  1  0  0  0  0
 14 34  1  0  0  0  0
 14 35  1  0  0  0  0
 15 16  1  0  0  0  0
 15 18  1  0  0  0  0
 15 36  1  0  0  0  0
 16 17  1  0  0  0  0
 16 37  1  0  0  0  0
 16 38  1  0  0  0  0
 17 39  1  0  0  0  0
 18 22  1  0  0  0  0
 18 19  1  0  0  0  0
 18 40  1  0  0  0  0
 19 20  1  0  0  0  0
 19 41  1  0  0  0  0
 19 42  1  0  0  0  0
 20 21  1  0  0  0  0
 20 43  1  0  0  0  0
 20 44  1  0  0  0  0
 21 22  1  0  0  0  0
 22 45  1  0  0  0  0
 22 46  1  0  0  0  0
 23 25  1  0  0  0  0
 23 24  1  0  0  0  0
 23 47  1  0  0  0  0
 24 25  1  0  0  0  0
 24 48  1  0  0  0  0
 24 49  1  0  0  0  0
 25 50  1  0  0  0  0
 25 51  1  0  0  0  0
 26 27  1  0  0  0  0
 26 52  1  0  0  0  0
 27 29  1  0  0  0  0
 27 28  1  0  0  0  0
 27 53  1  0  0  0  0
 28 29  1  0  0  0  0
 28 54  1  0  0  0  0
 28 55  1  0  0  0  0
 29 56  1  0  0  0  0
 29 57  1  0  0  0  0
M  END
> <s_m_source_file>
AV-unprocessed.smi

> <i_m_source_file_index>
77

> <i_lp_mmshare_version>
43012

> <i_f3d_flags>
0

> <s_epik_input>
W0NIMl0xW0NIMl1bQ0hdMVtOSF1DKD1PKVtDSDJdTihbQ0hdMltDSDJdW0NIMl0yKWMobltjSF1uMyljKGMzNCluW2NIXW40W0NIMl1bQ0BIXShbQ0gyXVtPSF0pW0NAQEhdNVtDSDJdW0NIMl1PW0NIMl01

> <s_epik_cmdline>
J2VwaWtfcHl0aG9uJywgJy1waCcsICc3LjAnLCAnLXRuJywgJzgnLCAnLW1hJywgJzIwMCcsICctbWV0YWxfYmluZGluZycsICctaW1hZScsICc8aW5maWxlLm1hZT4nLCAnLW9tYWUnLCAnPG91dGZpbGUubWFlPic=

> <r_lp_tautomer_probability>
1

> <r_epik_Ionization_Penalty>
0.000703847

> <r_epik_Ionization_Penalty_Charging>
0

> <r_epik_Ionization_Penalty_Neutral>
0.000703847

> <r_epik_State_Penalty>
0.00034025

> <r_epik_Charging_Adjusted_Penalty>
0.00034025

> <i_epik_Tot_Q>
0

> <i_epik_Tot_abs_Q>
0

> <r_epik_Metal_State_Penalty>
-0

> <b_epik_Metal_Only>
0

> <s_lp_Force_Field>
OPLS_2005

> <r_lp_Energy>
53.8068

> <b_lp_Chiralities_Consistent>
1

> <s_lp_Variant>
AV-unprocessed.smi:77-3

> <Gold.Version>
5.8.1

> <Gold.Id.Protein>
6NUR|6NUR_protein|mol2

> <Gold.PLP.Fitness>
54.5575

> <Gold.PLP.PLP>
-52.8576

> <Gold.PLP.part.hbond>
-3.9612

> <Gold.PLP.part.metal>
0.0000

> <Gold.PLP.part.buried>
-1.9409

> <Gold.PLP.part.nonpolar>
-48.3329

> <Gold.PLP.part.repulsive>
1.5832

> <Gold.PLP.ligand.clash>
0.0000

> <Gold.PLP.ligand.torsion>
3.5450

> <Gold.PLP.Chemscore.Hbond>
2.3222

> <Gold.PLP.Chemscore.CHOScore>
0.0000

> <Gold.PLP.Chemscore.Metal>
0.0000

> <Gold.Chemscore.Hbonds>
donor molecule, donor type, donor heavy atom, donor atom, acceptor molecule, acceptor atom, score
      L1  H    26    52       P1  7948  1.00
      P1  H  7989  7998       L1     6  0.05
      P1  H  7997  8008       L1     8  1.00

> <Gold.PLP.Chemscore.Internal.Correction>
1.8235

> <Gold.Rescore>
     Score         DG    S(hbond)    S(metal)    S(lipo)     H(rot)  DE(clash)    DE(int)     intcor
     10.20     -15.12       1.58        0.00     113.19       3.47       1.18       3.73       ----

> <Gold.Chemscore.Fitness>
10.2004

> <Gold.Chemscore.DG>
-15.1163

> <Gold.Chemscore.ZeroCoef>
-5.4800

> <Gold.Chemscore.Hbond>
1.5795

> <Gold.Chemscore.Metal>
0.0000

> <Gold.Chemscore.Lipo>
113.1851

> <Gold.Chemscore.Internal_Hbond>
0.0000

> <Gold.Chemscore.DEClash>
1.1833

> <Gold.Chemscore.DEInternal>
3.7326

> <Gold.Chemscore.Rot>
3.4695

> <Gold.Chemscore.Internal.Correction>
   9.000000E+99

> <Gold.Chemscore.Hbonds>
donor molecule, donor type, donor heavy atom, donor atom, acceptor molecule, acceptor atom, score
      L1  H    26    52       P1  7948  1.00
      P1  H  7997  8008       L1     8  0.65

> <Gold.Chemscore.Hbond.Weighted>
-5.2757

> <Gold.Chemscore.Metal.Weighted>
-0.0000

> <Gold.Chemscore.Lipo.Weighted>
-13.2427

> <Gold.Chemscore.Internal_Hbond.Weighted>
0.0000

> <Gold.Chemscore.DEClash.Weighted>
1.1833

> <Gold.Chemscore.DEInternal.Weighted>
3.7326

> <Gold.Chemscore.Rot.Weighted>
8.8820

> <Gold.Chemscore.Internal.Correction.Weighted>
   9.000000E+99

> <Gold.Protein.RotatedTorsions>
[ 6907 6896 6895 6894 ] final  -49.61 input  -60.11 | X-H torsion
[ 7974 7965 7964 7962 ] final -142.49 input  175.53 | X-H torsion
[ 8008 7997 7996 7995 ] final  -53.35 input   59.86 | X-H torsion
[ 10167 10162 10161 10158 ] final   78.99 input  -65.29 | X-H torsion
[ 10718 10713 10712 10709 ] final -146.24 input   66.30 | X-H torsion
[ 10763 10752 10751 10750 ] final  166.57 input  -60.55 | X-H torsion
[ 11005 11000 10999 10996 ] final  -50.09 input  -57.11 | X-H torsion

> <Gold.Protein.ActiveResidues>
 VAL166  LYS551  ARG553  GLY616  TRP617  ASP618  TYR619  PRO620  LYS621  CYS622 
 ASP623  PHE694  ASN695  SER759  ASP760  ASP761  ALA762  ILE779  LEU786  VAL792 
 PHE793  MET794  SER795  GLU796  ALA797  LYS798  CYS799  TRP800  GLU811  SER814 

> <Gold.Protein.RotatedAtoms>
  150.8788  134.8175  159.7209 H   0  0  0  0  0  0  0  0  0  0  0  0  # atno 6907 bound_to 6896
  152.4764  134.4829  159.9681 H   0  0  0  0  0  0  0  0  0  0  0  0  # atno 6908 bound_to 6896
  151.4907  133.3487  159.2888 H   0  0  0  0  0  0  0  0  0  0  0  0  # atno 6909 bound_to 6896
  144.8440  140.5952  143.5434 H   0  0  0  0  0  0  0  0  0  0  0  0  # atno 7974 bound_to 7965
  154.4131  140.1202  156.5139 H   0  0  0  0  0  0  0  0  0  0  0  0  # atno 8008 bound_to 7997
  155.6771  140.3496  155.4821 H   0  0  0  0  0  0  0  0  0  0  0  0  # atno 8009 bound_to 7997
  155.9583  140.1118  157.0907 H   0  0  0  0  0  0  0  0  0  0  0  0  # atno 8010 bound_to 7997
  139.9650  144.5934  150.8037 H   0  0  0  0  0  0  0  0  0  0  0  0  # atno 10167 bound_to 10162
  156.3924  130.7892  151.2096 H   0  0  0  0  0  0  0  0  0  0  0  0  # atno 10718 bound_to 10713
  154.3409  135.2754  155.2423 H   0  0  0  0  0  0  0  0  0  0  0  0  # atno 10763 bound_to 10752
  154.4693  135.5887  153.6314 H   0  0  0  0  0  0  0  0  0  0  0  0  # atno 10764 bound_to 10752
  152.9857  135.6084  154.3611 H   0  0  0  0  0  0  0  0  0  0  0  0  # atno 10765 bound_to 10752
  141.0796  133.6657  156.3680 H   0  0  0  0  0  0  0  0  0  0  0  0  # atno 11005 bound_to 11000
  145.4636  139.1510  143.3853 LP  0  0  0  0  0  0  0  0  0  0  0  0  # atno 17320 bound_to 7965
  146.2727  140.4767  142.8808 LP  0  0  0  0  0  0  0  0  0  0  0  0  # atno 17321 bound_to 7965
  140.7541  143.3020  151.3056 LP  0  0  0  0  0  0  0  0  0  0  0  0  # atno 17342 bound_to 10162
  139.6525  144.0337  152.2636 LP  0  0  0  0  0  0  0  0  0  0  0  0  # atno 17343 bound_to 10162
  157.7500  131.0311  150.4169 LP  0  0  0  0  0  0  0  0  0  0  0  0  # atno 17370 bound_to 10713
  156.4433  130.3996  149.6683 LP  0  0  0  0  0  0  0  0  0  0  0  0  # atno 17371 bound_to 10713
  140.5497  134.6039  157.5404 LP  0  0  0  0  0  0  0  0  0  0  0  0  # atno 17394 bound_to 11000
  139.9609  134.7454  156.0239 LP  0  0  0  0  0  0  0  0  0  0  0  0  # atno 17395 bound_to 11000

$$$$
