AV-unprocessed.smi:2274|AV-procd|sdf|9169|dock4
  -GOLD-   2272012383D 1   1.00000     0.00000
 Structure written by MMmdl.
 47 48  0  0  0  0  0  0  0  0  1 V2000
  153.5303  142.0945  162.3208 C   0  0  0  0  0  0  0  0  0  0  0  0
  153.8653  141.9551  160.8268 C   0  0  0  0  0  0  0  0  0  0  0  0
  152.8634  142.5431  159.9455 N   0  0  0  0  0  0  0  0  0  0  0  0
  152.4566  143.8198  160.1608 N   0  0  0  0  0  0  0  0  0  0  0  0
  151.5252  144.0554  159.2530 C   0  0  0  0  0  0  0  0  0  0  0  0
  150.8544  145.3979  159.2039 C   0  0  0  0  0  0  0  0  0  0  0  0
  151.3272  142.9169  158.4288 C   0  0  0  0  0  0  0  0  0  0  0  0
  150.3717  142.8405  157.3846 N   0  0  0  0  0  0  0  0  0  0  0  0
  149.6772  141.7556  157.0089 C   0  0  0  0  0  0  0  0  0  0  0  0
  149.7933  140.6372  157.5101 O   0  0  0  0  0  0  0  0  0  0  0  0
  148.8429  142.0354  155.9982 N   0  0  0  0  0  0  0  0  0  0  0  0
  147.9406  141.0793  155.3671 C   0  0  0  0  0  0  0  0  0  0  0  0
  148.6599  140.2474  154.2910 C   0  0  0  0  0  0  0  0  0  0  0  0
  149.9360  139.5682  154.8121 C   0  0  1  0  0  0  0  0  0  0  0  0
  150.3830  138.4081  153.9007 C   0  0  0  0  0  0  0  0  0  0  0  0
  151.7013  137.8063  154.4003 C   0  0  0  0  0  0  0  0  0  0  0  0
  152.7458  138.9156  154.5602 C   0  0  0  0  0  0  0  0  0  0  0  0
  152.1873  140.0504  155.4328 C   0  0  0  0  0  0  0  0  0  0  0  0
  150.9756  140.5435  154.8692 O   0  0  0  0  0  0  0  0  0  0  0  0
  152.1522  141.9383  158.9183 C   0  0  0  0  0  0  0  0  0  0  0  0
  152.3353  140.4978  158.5512 C   0  0  0  0  0  0  0  0  0  0  0  0
  154.3396  141.6989  162.9345 H   0  0  0  0  0  0  0  0  0  0  0  0
  152.6248  141.5469  162.5841 H   0  0  0  0  0  0  0  0  0  0  0  0
  153.3857  143.1396  162.5959 H   0  0  0  0  0  0  0  0  0  0  0  0
  154.8251  142.4357  160.6387 H   0  0  0  0  0  0  0  0  0  0  0  0
  153.9782  140.9034  160.5618 H   0  0  0  0  0  0  0  0  0  0  0  0
  149.9395  145.3645  158.6123 H   0  0  0  0  0  0  0  0  0  0  0  0
  151.5110  146.1444  158.7569 H   0  0  0  0  0  0  0  0  0  0  0  0
  150.5877  145.7434  160.2030 H   0  0  0  0  0  0  0  0  0  0  0  0
  150.2783  143.6638  156.8080 H   0  0  0  0  0  0  0  0  0  0  0  0
  148.8211  142.9813  155.6462 H   0  0  0  0  0  0  0  0  0  0  0  0
  147.5496  140.4256  156.1470 H   0  0  0  0  0  0  0  0  0  0  0  0
  147.0823  141.6000  154.9395 H   0  0  0  0  0  0  0  0  0  0  0  0
  147.9785  139.4818  153.9176 H   0  0  0  0  0  0  0  0  0  0  0  0
  148.9059  140.8801  153.4372 H   0  0  0  0  0  0  0  0  0  0  0  0
  149.7463  139.1851  155.8167 H   0  0  0  0  0  0  0  0  0  0  0  0
  149.6129  137.6368  153.8636 H   0  0  0  0  0  0  0  0  0  0  0  0
  150.5123  138.7701  152.8799 H   0  0  0  0  0  0  0  0  0  0  0  0
  151.5404  137.3118  155.3592 H   0  0  0  0  0  0  0  0  0  0  0  0
  152.0586  137.0428  153.7088 H   0  0  0  0  0  0  0  0  0  0  0  0
  153.6599  138.5142  154.9986 H   0  0  0  0  0  0  0  0  0  0  0  0
  153.0148  139.3100  153.5797 H   0  0  0  0  0  0  0  0  0  0  0  0
  152.0126  139.7080  156.4540 H   0  0  0  0  0  0  0  0  0  0  0  0
  152.9068  140.8674  155.4907 H   0  0  0  0  0  0  0  0  0  0  0  0
  151.4485  140.1019  158.0570 H   0  0  0  0  0  0  0  0  0  0  0  0
  152.5074  139.8820  159.4337 H   0  0  0  0  0  0  0  0  0  0  0  0
  153.1836  140.3748  157.8777 H   0  0  0  0  0  0  0  0  0  0  0  0
  1  2  1  0  0  0  0
  1 22  1  0  0  0  0
  1 23  1  0  0  0  0
  1 24  1  0  0  0  0
  2  3  1  0  0  0  0
  2 25  1  0  0  0  0
  2 26  1  0  0  0  0
  3 20  1  0  0  0  0
  3  4  1  0  0  0  0
  4  5  2  0  0  0  0
  5  6  1  0  0  0  0
  5  7  1  0  0  0  0
  6 27  1  0  0  0  0
  6 28  1  0  0  0  0
  6 29  1  0  0  0  0
  7  8  1  0  0  0  0
  7 20  2  0  0  0  0
  8  9  1  0  0  0  0
  8 30  1  0  0  0  0
  9 10  2  0  0  0  0
  9 11  1  0  0  0  0
 11 12  1  0  0  0  0
 11 31  1  0  0  0  0
 12 13  1  0  0  0  0
 12 32  1  0  0  0  0
 12 33  1  0  0  0  0
 13 14  1  0  0  0  0
 13 34  1  0  0  0  0
 13 35  1  0  0  0  0
 14 19  1  0  0  0  0
 14 15  1  0  0  0  0
 14 36  1  0  0  0  0
 15 16  1  0  0  0  0
 15 37  1  0  0  0  0
 15 38  1  0  0  0  0
 16 17  1  0  0  0  0
 16 39  1  0  0  0  0
 16 40  1  0  0  0  0
 17 18  1  0  0  0  0
 17 41  1  0  0  0  0
 17 42  1  0  0  0  0
 18 19  1  0  0  0  0
 18 43  1  0  0  0  0
 18 44  1  0  0  0  0
 20 21  1  0  0  0  0
 21 45  1  0  0  0  0
 21 46  1  0  0  0  0
 21 47  1  0  0  0  0
M  END
> <s_m_source_file>
AV-unprocessed.smi

> <i_m_source_file_index>
2274

> <i_lp_mmshare_version>
43012

> <i_f3d_flags>
0

> <s_epik_input>
W0NIM11bQ0gyXW4xbmMoW0NIM10pYyhjMVtDSDNdKVtOSF1DKD1PKVtOSF1bQ0gyXVtDSDJdW0NAQEhdMltDSDJdW0NIMl1bQ0gyXVtDSDJdTzI=

> <s_epik_cmdline>
J2VwaWtfcHl0aG9uJywgJy1waCcsICc3LjAnLCAnLXRuJywgJzgnLCAnLW1hJywgJzIwMCcsICctbWV0YWxfYmluZGluZycsICctaW1hZScsICc8aW5maWxlLm1hZT4nLCAnLW9tYWUnLCAnPG91dGZpbGUubWFlPic=

> <r_lp_tautomer_probability>
1

> <r_epik_Ionization_Penalty>
0.00368263

> <r_epik_Ionization_Penalty_Charging>
0

> <r_epik_Ionization_Penalty_Neutral>
0.00368263

> <r_epik_State_Penalty>
0.00259417

> <r_epik_Charging_Adjusted_Penalty>
0.00259417

> <i_epik_Tot_Q>
0

> <i_epik_Tot_abs_Q>
0

> <r_epik_Metal_State_Penalty>
-0

> <b_epik_Metal_Only>
0

> <s_lp_Force_Field>
OPLS_2005

> <r_lp_Energy>
13.1283

> <b_lp_Chiralities_Consistent>
1

> <s_lp_Variant>
AV-unprocessed.smi:2274-2

> <Gold.Version>
5.8.1

> <Gold.Id.Protein>
6NUR|6NUR_protein|mol2

> <Gold.PLP.Fitness>
54.4872

> <Gold.PLP.PLP>
-47.7465

> <Gold.PLP.part.hbond>
-3.0000

> <Gold.PLP.part.metal>
0.0000

> <Gold.PLP.part.buried>
-3.7361

> <Gold.PLP.part.nonpolar>
-41.1439

> <Gold.PLP.part.repulsive>
0.2184

> <Gold.PLP.ligand.clash>
0.0000

> <Gold.PLP.ligand.torsion>
0.5914

> <Gold.PLP.Chemscore.Hbond>
2.5242

> <Gold.PLP.Chemscore.CHOScore>
0.0000

> <Gold.PLP.Chemscore.Metal>
0.0000

> <Gold.Chemscore.Hbonds>
donor molecule, donor type, donor heavy atom, donor atom, acceptor molecule, acceptor atom, score
      L1  H     8    30       P1  8028  0.74
      L1  H    11    31       P1  8028  1.00
      P1  H  7989  7998       L1    19  0.70

> <Gold.PLP.Chemscore.Internal.Correction>
0.3511

> <Gold.Rescore>
     Score         DG    S(hbond)    S(metal)    S(lipo)     H(rot)  DE(clash)    DE(int)     intcor
     16.35     -20.65       1.79        0.00     110.57       1.46       0.08       4.21       ----

> <Gold.Chemscore.Fitness>
16.3541

> <Gold.Chemscore.DG>
-20.6506

> <Gold.Chemscore.ZeroCoef>
-5.4800

> <Gold.Chemscore.Hbond>
1.7884

> <Gold.Chemscore.Metal>
0.0000

> <Gold.Chemscore.Lipo>
110.5679

> <Gold.Chemscore.Internal_Hbond>
0.0000

> <Gold.Chemscore.DEClash>
0.0820

> <Gold.Chemscore.DEInternal>
4.2145

> <Gold.Chemscore.Rot>
1.4606

> <Gold.Chemscore.Internal.Correction>
   9.000000E+99

> <Gold.Chemscore.Hbonds>
donor molecule, donor type, donor heavy atom, donor atom, acceptor molecule, acceptor atom, score
      L1  H     8    30       P1  8028  0.73
      L1  H    11    31       P1  8028  1.00
      P1  H  7989  7998       L1    19  0.06

> <Gold.Chemscore.Hbond.Weighted>
-5.9734

> <Gold.Chemscore.Metal.Weighted>
-0.0000

> <Gold.Chemscore.Lipo.Weighted>
-12.9364

> <Gold.Chemscore.Internal_Hbond.Weighted>
0.0000

> <Gold.Chemscore.DEClash.Weighted>
0.0820

> <Gold.Chemscore.DEInternal.Weighted>
4.2145

> <Gold.Chemscore.Rot.Weighted>
3.7393

> <Gold.Chemscore.Internal.Correction.Weighted>
   9.000000E+99

> <Gold.Protein.RotatedTorsions>
[ 6907 6896 6895 6894 ] final  -66.24 input  -60.11 | X-H torsion
[ 7974 7965 7964 7962 ] final -126.50 input  175.53 | X-H torsion
[ 8008 7997 7996 7995 ] final  -18.30 input   59.86 | X-H torsion
[ 10167 10162 10161 10158 ] final  -76.66 input  -65.29 | X-H torsion
[ 10718 10713 10712 10709 ] final  -99.37 input   66.30 | X-H torsion
[ 10763 10752 10751 10750 ] final   14.48 input  -60.55 | X-H torsion
[ 11005 11000 10999 10996 ] final  -34.07 input  -57.11 | X-H torsion

> <Gold.Protein.ActiveResidues>
 VAL166  LYS551  ARG553  GLY616  TRP617  ASP618  TYR619  PRO620  LYS621  CYS622 
 ASP623  PHE694  ASN695  SER759  ASP760  ASP761  ALA762  ILE779  LEU786  VAL792 
 PHE793  MET794  SER795  GLU796  ALA797  LYS798  CYS799  TRP800  GLU811  SER814 

> <Gold.Protein.RotatedAtoms>
  150.7477  134.6048  159.6055 H   0  0  0  0  0  0  0  0  0  0  0  0  # atno 6907 bound_to 6896
  152.3399  134.7145  160.0275 H   0  0  0  0  0  0  0  0  0  0  0  0  # atno 6908 bound_to 6896
  151.7601  133.3297  159.3452 H   0  0  0  0  0  0  0  0  0  0  0  0  # atno 6909 bound_to 6896
  144.9867  140.7692  143.4579 H   0  0  0  0  0  0  0  0  0  0  0  0  # atno 7974 bound_to 7965
  154.4916  140.2119  155.9537 H   0  0  0  0  0  0  0  0  0  0  0  0  # atno 8008 bound_to 7997
  156.1313  140.3196  155.8321 H   0  0  0  0  0  0  0  0  0  0  0  0  # atno 8009 bound_to 7997
  155.4291  140.0502  157.3010 H   0  0  0  0  0  0  0  0  0  0  0  0  # atno 8010 bound_to 7997
  140.4837  143.2396  151.8017 H   0  0  0  0  0  0  0  0  0  0  0  0  # atno 10167 bound_to 10162
  156.0132  130.5279  150.6660 H   0  0  0  0  0  0  0  0  0  0  0  0  # atno 10718 bound_to 10713
  153.1618  135.6797  153.8732 H   0  0  0  0  0  0  0  0  0  0  0  0  # atno 10763 bound_to 10752
  153.8125  135.3141  155.3403 H   0  0  0  0  0  0  0  0  0  0  0  0  # atno 10764 bound_to 10752
  154.7938  135.4819  154.0202 H   0  0  0  0  0  0  0  0  0  0  0  0  # atno 10765 bound_to 10752
  140.9686  133.7122  156.1486 H   0  0  0  0  0  0  0  0  0  0  0  0  # atno 11005 bound_to 11000
  145.2344  139.2100  143.5026 LP  0  0  0  0  0  0  0  0  0  0  0  0  # atno 17320 bound_to 7965
  146.3421  140.2227  142.8592 LP  0  0  0  0  0  0  0  0  0  0  0  0  # atno 17321 bound_to 7965
  139.4838  144.4739  151.9391 LP  0  0  0  0  0  0  0  0  0  0  0  0  # atno 17342 bound_to 10162
  140.3824  144.2719  150.5907 LP  0  0  0  0  0  0  0  0  0  0  0  0  # atno 17343 bound_to 10162
  157.4392  131.0859  151.0960 LP  0  0  0  0  0  0  0  0  0  0  0  0  # atno 17370 bound_to 10713
  157.1509  130.6184  149.5582 LP  0  0  0  0  0  0  0  0  0  0  0  0  # atno 17371 bound_to 10713
  140.7362  134.4200  157.5560 LP  0  0  0  0  0  0  0  0  0  0  0  0  # atno 17394 bound_to 11000
  139.8904  134.8806  156.2373 LP  0  0  0  0  0  0  0  0  0  0  0  0  # atno 17395 bound_to 11000

$$$$
