AV-unprocessed.smi:3290|AV-procd|sdf|12613|dock6
  -GOLD-   2272018543D 1   1.00000     0.00000
 Structure written by MMmdl.
 43 44  0  0  0  0  0  0  0  0  2 V2000
  143.6133  134.1534  152.5415 C   0  0  0  0  0  0  0  0  0  0  0  0
  143.9687  134.2811  151.0461 C   0  0  2  0  0  0  0  0  0  0  0  0
  144.0090  132.9028  150.3526 C   0  0  0  0  0  0  0  0  0  0  0  0
  145.2461  132.0822  150.7544 C   0  0  0  0  0  0  0  0  0  0  0  0
  146.5411  132.8640  150.4911 C   0  0  0  0  0  0  0  0  0  0  0  0
  146.5209  134.2377  151.1809 C   0  0  0  0  0  0  0  0  0  0  0  0
  145.2809  135.0629  150.7677 C   0  0  2  0  0  0  0  0  0  0  0  0
  145.2783  136.4719  151.3944 C   0  0  0  0  0  0  0  0  0  0  0  0
  146.4050  137.2886  150.9011 N   0  3  0  0  0  0  0  0  0  0  0  0
  146.4573  138.6507  151.4699 C   0  0  0  0  0  0  0  0  0  0  0  0
  146.6809  138.6183  152.9920 C   0  0  2  0  0  0  0  0  0  0  0  0
  145.4245  138.6886  153.6376 O   0  0  0  0  0  0  0  0  0  0  0  0
  147.6034  139.7414  153.4385 C   0  0  0  0  0  0  0  0  0  0  0  0
  147.1548  141.0790  153.4395 C   0  0  0  0  0  0  0  0  0  0  0  0
  148.0433  142.0875  153.8637 C   0  0  0  0  0  0  0  0  0  0  0  0
  149.3054  141.8391  154.2738 N   0  0  0  0  0  0  0  0  0  0  0  0
  149.7294  140.5575  154.2729 C   0  0  0  0  0  0  0  0  0  0  0  0
  148.9221  139.4760  153.8674 C   0  0  0  0  0  0  0  0  0  0  0  0
  144.3972  133.6557  153.1116 H   0  0  0  0  0  0  0  0  0  0  0  0
  142.6979  133.5757  152.6737 H   0  0  0  0  0  0  0  0  0  0  0  0
  143.4401  135.1282  152.9971 H   0  0  0  0  0  0  0  0  0  0  0  0
  143.1526  134.8402  150.5859 H   0  0  0  0  0  0  0  0  0  0  0  0
  143.1016  132.3401  150.5750 H   0  0  0  0  0  0  0  0  0  0  0  0
  144.0150  133.0453  149.2711 H   0  0  0  0  0  0  0  0  0  0  0  0
  145.1873  131.8108  151.8089 H   0  0  0  0  0  0  0  0  0  0  0  0
  145.2620  131.1437  150.1996 H   0  0  0  0  0  0  0  0  0  0  0  0
  147.3997  132.2869  150.8360 H   0  0  0  0  0  0  0  0  0  0  0  0
  146.6720  132.9983  149.4168 H   0  0  0  0  0  0  0  0  0  0  0  0
  146.5439  134.1061  152.2630 H   0  0  0  0  0  0  0  0  0  0  0  0
  147.4345  134.7741  150.9235 H   0  0  0  0  0  0  0  0  0  0  0  0
  145.3313  135.1992  149.6859 H   0  0  0  0  0  0  0  0  0  0  0  0
  144.3483  136.9854  151.1462 H   0  0  0  0  0  0  0  0  0  0  0  0
  145.3304  136.4083  152.4820 H   0  0  0  0  0  0  0  0  0  0  0  0
  147.2684  136.8172  151.1320 H   0  0  0  0  0  0  0  0  0  0  0  0
  147.2724  139.1944  150.9903 H   0  0  0  0  0  0  0  0  0  0  0  0
  145.5343  139.1819  151.2310 H   0  0  0  0  0  0  0  0  0  0  0  0
  147.1364  137.6662  153.2688 H   0  0  0  0  0  0  0  0  0  0  0  0
  144.8845  139.3122  153.1752 H   0  0  0  0  0  0  0  0  0  0  0  0
  146.1541  141.3333  153.1222 H   0  0  0  0  0  0  0  0  0  0  0  0
  147.7309  143.1212  153.8740 H   0  0  0  0  0  0  0  0  0  0  0  0
  150.7428  140.3883  154.6060 H   0  0  0  0  0  0  0  0  0  0  0  0
  149.3108  138.4683  153.8871 H   0  0  0  0  0  0  0  0  0  0  0  0
  146.3363  137.3613  149.8963 H   0  0  0  0  0  0  0  0  0  0  0  0
  1  2  1  0  0  0  0
  1 19  1  0  0  0  0
  1 20  1  0  0  0  0
  1 21  1  0  0  0  0
  2  7  1  0  0  0  0
  2  3  1  0  0  0  0
  2 22  1  0  0  0  0
  3  4  1  0  0  0  0
  3 23  1  0  0  0  0
  3 24  1  0  0  0  0
  4  5  1  0  0  0  0
  4 25  1  0  0  0  0
  4 26  1  0  0  0  0
  5  6  1  0  0  0  0
  5 27  1  0  0  0  0
  5 28  1  0  0  0  0
  6  7  1  0  0  0  0
  6 29  1  0  0  0  0
  6 30  1  0  0  0  0
  7  8  1  0  0  0  0
  7 31  1  0  0  0  0
  8  9  1  0  0  0  0
  8 32  1  0  0  0  0
  8 33  1  0  0  0  0
  9 10  1  0  0  0  0
  9 34  1  0  0  0  0
  9 43  1  0  0  0  0
 10 11  1  0  0  0  0
 10 35  1  0  0  0  0
 10 36  1  0  0  0  0
 11 12  1  0  0  0  0
 11 13  1  0  0  0  0
 11 37  1  0  0  0  0
 12 38  1  0  0  0  0
 13 18  1  0  0  0  0
 13 14  2  0  0  0  0
 14 15  1  0  0  0  0
 14 39  1  0  0  0  0
 15 16  2  0  0  0  0
 15 40  1  0  0  0  0
 16 17  1  0  0  0  0
 17 18  2  0  0  0  0
 17 41  1  0  0  0  0
 18 42  1  0  0  0  0
M  CHG  1   9   1
M  END
> <s_m_source_file>
AV-unprocessed.smi

> <i_m_source_file_index>
3290

> <i_lp_mmshare_version>
43012

> <i_f3d_flags>
0

> <s_epik_input>
W0NIM11bQ0BASF0xW0NIMl1bQ0gyXVtDSDJdW0NIMl1bQ0BIXTFbQ0gyXVtOSF1bQ0gyXVtDQEhdKFtPSF0pYzJbY0hdW2NIXW5bY0hdW2NIXTI=

> <s_epik_cmdline>
J2VwaWtfcHl0aG9uJywgJy1waCcsICc3LjAnLCAnLXRuJywgJzgnLCAnLW1hJywgJzIwMCcsICctbWV0YWxfYmluZGluZycsICctaW1hZScsICc8aW5maWxlLm1hZT4nLCAnLW9tYWUnLCAnPG91dGZpbGUubWFlPic=

> <r_lp_tautomer_probability>
1

> <r_epik_Ionization_Penalty>
0.00420552

> <r_epik_Ionization_Penalty_Charging>
0.00207255

> <r_epik_Ionization_Penalty_Neutral>
0.00213297

> <r_epik_State_Penalty>
-0

> <r_epik_Charging_Adjusted_Penalty>
0.00207255

> <i_epik_Tot_Q>
1

> <i_epik_Tot_abs_Q>
1

> <r_epik_Metal_State_Penalty>
-0

> <b_epik_Metal_Only>
0

> <s_lp_Force_Field>
OPLS_2005

> <r_lp_Energy>
18.6683

> <b_lp_Chiralities_Consistent>
1

> <s_lp_Variant>
AV-unprocessed.smi:3290-3

> <Gold.Version>
5.8.1

> <Gold.Id.Protein>
6NUR|6NUR_protein|mol2

> <Gold.PLP.Fitness>
49.5437

> <Gold.PLP.PLP>
-39.5062

> <Gold.PLP.part.hbond>
-3.5292

> <Gold.PLP.part.metal>
0.0000

> <Gold.PLP.part.buried>
1.0848

> <Gold.PLP.part.nonpolar>
-36.8431

> <Gold.PLP.part.repulsive>
0.6614

> <Gold.PLP.ligand.clash>
0.0000

> <Gold.PLP.ligand.torsion>
0.7558

> <Gold.PLP.Chemscore.Hbond>
3.0000

> <Gold.PLP.Chemscore.CHOScore>
0.8334

> <Gold.PLP.Chemscore.Metal>
0.0000

> <Gold.Chemscore.Hbonds>
donor molecule, donor type, donor heavy atom, donor atom, acceptor molecule, acceptor atom, score
      L1  H     9    34       P1  7948  2.00
      L1  H    12    38       P1 10175  1.00
      P1  H  8011  8017       L1    16  0.08
      L1  C    15    40       P1  8028  0.62

> <Gold.PLP.Chemscore.Internal.Correction>
0.0488

> <Gold.Rescore>
     Score         DG    S(hbond)    S(metal)    S(lipo)     H(rot)  DE(clash)    DE(int)     intcor
     18.10     -19.11       2.00        0.00     104.31       2.05       0.38       0.63       ----

> <Gold.Chemscore.Fitness>
18.1004

> <Gold.Chemscore.DG>
-19.1107

> <Gold.Chemscore.ZeroCoef>
-5.4800

> <Gold.Chemscore.Hbond>
1.9982

> <Gold.Chemscore.Metal>
0.0000

> <Gold.Chemscore.Lipo>
104.3100

> <Gold.Chemscore.Internal_Hbond>
0.0000

> <Gold.Chemscore.DEClash>
0.3820

> <Gold.Chemscore.DEInternal>
0.6283

> <Gold.Chemscore.Rot>
2.0498

> <Gold.Chemscore.Internal.Correction>
   9.000000E+99

> <Gold.Chemscore.Hbonds>
donor molecule, donor type, donor heavy atom, donor atom, acceptor molecule, acceptor atom, score
      L1  H     9    34       P1  7948  1.00
      L1  H    12    38       P1 10175  1.00

> <Gold.Chemscore.Hbond.Weighted>
-6.6740

> <Gold.Chemscore.Metal.Weighted>
-0.0000

> <Gold.Chemscore.Lipo.Weighted>
-12.2043

> <Gold.Chemscore.Internal_Hbond.Weighted>
0.0000

> <Gold.Chemscore.DEClash.Weighted>
0.3820

> <Gold.Chemscore.DEInternal.Weighted>
0.6283

> <Gold.Chemscore.Rot.Weighted>
5.2475

> <Gold.Chemscore.Internal.Correction.Weighted>
   9.000000E+99

> <Gold.Protein.RotatedTorsions>
[ 6907 6896 6895 6894 ] final  -78.56 input  -60.11 | X-H torsion
[ 7974 7965 7964 7962 ] final -178.04 input  175.53 | X-H torsion
[ 8008 7997 7996 7995 ] final  -23.33 input   59.86 | X-H torsion
[ 10167 10162 10161 10158 ] final  -95.51 input  -65.29 | X-H torsion
[ 10718 10713 10712 10709 ] final   63.89 input   66.30 | X-H torsion
[ 10763 10752 10751 10750 ] final -177.49 input  -60.55 | X-H torsion
[ 11005 11000 10999 10996 ] final  -82.79 input  -57.11 | X-H torsion

> <Gold.Protein.ActiveResidues>
 VAL166  LYS551  ARG553  GLY616  TRP617  ASP618  TYR619  PRO620  LYS621  CYS622 
 ASP623  PHE694  ASN695  SER759  ASP760  ASP761  ALA762  ILE779  LEU786  VAL792 
 PHE793  MET794  SER795  GLU796  ALA797  LYS798  CYS799  TRP800  GLU811  SER814 

> <Gold.Protein.RotatedAtoms>
  150.6970  134.4254  159.5223 H   0  0  0  0  0  0  0  0  0  0  0  0  # atno 6907 bound_to 6896
  152.1990  134.8602  160.0519 H   0  0  0  0  0  0  0  0  0  0  0  0  # atno 6908 bound_to 6896
  151.9529  133.3636  159.4043 H   0  0  0  0  0  0  0  0  0  0  0  0  # atno 6909 bound_to 6896
  144.7129  140.0928  143.6420 H   0  0  0  0  0  0  0  0  0  0  0  0  # atno 7974 bound_to 7965
  154.4591  140.1983  156.0294 H   0  0  0  0  0  0  0  0  0  0  0  0  # atno 8008 bound_to 7997
  156.0806  140.3272  155.7660 H   0  0  0  0  0  0  0  0  0  0  0  0  # atno 8009 bound_to 7997
  155.5118  140.0562  157.2913 H   0  0  0  0  0  0  0  0  0  0  0  0  # atno 8010 bound_to 7997
  140.3034  143.3149  152.0225 H   0  0  0  0  0  0  0  0  0  0  0  0  # atno 10167 bound_to 10162
  157.6002  130.9130  149.9775 H   0  0  0  0  0  0  0  0  0  0  0  0  # atno 10718 bound_to 10713
  154.5594  135.2819  155.0933 H   0  0  0  0  0  0  0  0  0  0  0  0  # atno 10763 bound_to 10752
  154.2348  135.6367  153.5191 H   0  0  0  0  0  0  0  0  0  0  0  0  # atno 10764 bound_to 10752
  153.0025  135.5546  154.6184 H   0  0  0  0  0  0  0  0  0  0  0  0  # atno 10765 bound_to 10752
  141.1661  133.7262  156.8624 H   0  0  0  0  0  0  0  0  0  0  0  0  # atno 11005 bound_to 11000
  145.9605  139.2797  143.1158 LP  0  0  0  0  0  0  0  0  0  0  0  0  # atno 17320 bound_to 7965
  145.9225  140.9105  143.0397 LP  0  0  0  0  0  0  0  0  0  0  0  0  # atno 17321 bound_to 7965
  139.4910  144.6439  151.6819 LP  0  0  0  0  0  0  0  0  0  0  0  0  # atno 17342 bound_to 10162
  140.5632  144.0234  150.6179 LP  0  0  0  0  0  0  0  0  0  0  0  0  # atno 17343 bound_to 10162
  156.1074  130.3652  150.0109 LP  0  0  0  0  0  0  0  0  0  0  0  0  # atno 17370 bound_to 10713
  156.8214  130.9360  151.3641 LP  0  0  0  0  0  0  0  0  0  0  0  0  # atno 17371 bound_to 10713
  140.1839  134.9014  157.2981 LP  0  0  0  0  0  0  0  0  0  0  0  0  # atno 17394 bound_to 11000
  140.2364  134.3847  155.7499 LP  0  0  0  0  0  0  0  0  0  0  0  0  # atno 17395 bound_to 11000

$$$$
