AV-unprocessed.smi:2151|AV-procd|sdf|8761|dock7
  -GOLD-   2272011543D 1   1.00000     0.00000
 Structure written by MMmdl.
 39 40  0  0  0  0  0  0  0  0  1 V2000
  150.8757  138.4847  154.5632 C   0  0  0  0  0  0  0  0  0  0  0  0
  149.9156  138.9955  155.6488 C   0  0  1  0  0  0  0  0  0  0  0  0
  150.6068  138.9577  156.9360 N   0  0  0  0  0  0  0  0  0  0  0  0
  151.8051  139.5034  157.1957 C   0  0  0  0  0  0  0  0  0  0  0  0
  152.4622  140.1213  156.3565 O   0  0  0  0  0  0  0  0  0  0  0  0
  152.3376  139.2953  158.6208 C   0  0  0  0  0  0  0  0  0  0  0  0
  152.6478  140.5539  159.3195 N   0  0  0  0  0  0  0  0  0  0  0  0
  152.0438  141.7254  158.8222 C   0  0  0  0  0  0  0  0  0  0  0  0
  152.2423  142.9409  159.3673 C   0  0  0  0  0  0  0  0  0  0  0  0
  151.5223  144.1763  158.8489 C   0  0  0  0  0  0  0  0  0  0  0  0
  151.8574  145.2585  159.5520 F   0  0  0  0  0  0  0  0  0  0  0  0
  151.8505  144.3901  157.5755 F   0  0  0  0  0  0  0  0  0  0  0  0
  150.1988  144.0262  158.9164 F   0  0  0  0  0  0  0  0  0  0  0  0
  153.1024  142.9919  160.5333 C   0  0  0  0  0  0  0  0  0  0  0  0
  153.6758  141.8786  161.0308 C   0  0  0  0  0  0  0  0  0  0  0  0
  153.4599  140.5655  160.4186 C   0  0  0  0  0  0  0  0  0  0  0  0
  153.9756  139.5410  160.8665 O   0  0  0  0  0  0  0  0  0  0  0  0
  149.4141  140.4270  155.3628 C   0  0  1  0  0  0  0  0  0  0  0  0
  148.6754  140.5902  154.0340 C   0  0  0  0  0  0  0  0  0  0  0  0
  147.8606  141.8377  154.2877 C   0  0  0  0  0  0  0  0  0  0  0  0
  147.4586  141.6627  155.7495 C   0  0  0  0  0  0  0  0  0  0  0  0
  148.4589  140.8367  156.3399 O   0  0  0  0  0  0  0  0  0  0  0  0
  150.3849  138.4308  153.5913 H   0  0  0  0  0  0  0  0  0  0  0  0
  151.2358  137.4826  154.7993 H   0  0  0  0  0  0  0  0  0  0  0  0
  151.7446  139.1359  154.4623 H   0  0  0  0  0  0  0  0  0  0  0  0
  149.0579  138.3207  155.6734 H   0  0  0  0  0  0  0  0  0  0  0  0
  150.1423  138.4640  157.6842 H   0  0  0  0  0  0  0  0  0  0  0  0
  151.6131  138.7090  159.1892 H   0  0  0  0  0  0  0  0  0  0  0  0
  153.2290  138.6683  158.5651 H   0  0  0  0  0  0  0  0  0  0  0  0
  151.3938  141.5684  157.9735 H   0  0  0  0  0  0  0  0  0  0  0  0
  153.2928  143.9392  161.0158 H   0  0  0  0  0  0  0  0  0  0  0  0
  154.3116  141.9543  161.9008 H   0  0  0  0  0  0  0  0  0  0  0  0
  150.2464  141.1323  155.3973 H   0  0  0  0  0  0  0  0  0  0  0  0
  149.3470  140.6884  153.1807 H   0  0  0  0  0  0  0  0  0  0  0  0
  148.0133  139.7418  153.8547 H   0  0  0  0  0  0  0  0  0  0  0  0
  148.4891  142.7223  154.1748 H   0  0  0  0  0  0  0  0  0  0  0  0
  147.0056  141.9379  153.6186 H   0  0  0  0  0  0  0  0  0  0  0  0
  147.3756  142.6169  156.2699 H   0  0  0  0  0  0  0  0  0  0  0  0
  146.4990  141.1507  155.8266 H   0  0  0  0  0  0  0  0  0  0  0  0
  1  2  1  0  0  0  0
  1 23  1  0  0  0  0
  1 24  1  0  0  0  0
  1 25  1  0  0  0  0
  2  3  1  0  0  0  0
  2 18  1  0  0  0  0
  2 26  1  0  0  0  0
  3  4  1  0  0  0  0
  3 27  1  0  0  0  0
  4  5  2  0  0  0  0
  4  6  1  0  0  0  0
  6  7  1  0  0  0  0
  6 28  1  0  0  0  0
  6 29  1  0  0  0  0
  7 16  1  0  0  0  0
  7  8  1  0  0  0  0
  8  9  2  0  0  0  0
  8 30  1  0  0  0  0
  9 10  1  0  0  0  0
  9 14  1  0  0  0  0
 10 11  1  0  0  0  0
 10 12  1  0  0  0  0
 10 13  1  0  0  0  0
 14 15  2  0  0  0  0
 14 31  1  0  0  0  0
 15 16  1  0  0  0  0
 15 32  1  0  0  0  0
 16 17  2  0  0  0  0
 18 22  1  0  0  0  0
 18 19  1  0  0  0  0
 18 33  1  0  0  0  0
 19 20  1  0  0  0  0
 19 34  1  0  0  0  0
 19 35  1  0  0  0  0
 20 21  1  0  0  0  0
 20 36  1  0  0  0  0
 20 37  1  0  0  0  0
 21 22  1  0  0  0  0
 21 38  1  0  0  0  0
 21 39  1  0  0  0  0
M  END
> <s_m_source_file>
AV-unprocessed.smi

> <i_m_source_file_index>
2151

> <i_lp_mmshare_version>
43012

> <i_f3d_flags>
0

> <s_epik_input>
TzFbQ0gyXVtDSDJdW0NIMl1bQ0BIXTFbQ0BIXShbQ0gzXSlbTkhdQyg9TylbQ0gyXW4yW2NIXWMoQyhGKShGKUYpW2NIXVtjSF1jMj1P

> <s_epik_cmdline>
J2VwaWtfcHl0aG9uJywgJy1waCcsICc3LjAnLCAnLXRuJywgJzgnLCAnLW1hJywgJzIwMCcsICctbWV0YWxfYmluZGluZycsICctaW1hZScsICc8aW5maWxlLm1hZT4nLCAnLW9tYWUnLCAnPG91dGZpbGUubWFlPic=

> <r_lp_tautomer_probability>
1

> <r_epik_Ionization_Penalty>
4.20109e-08

> <r_epik_Ionization_Penalty_Charging>
1.89977e-08

> <r_epik_Ionization_Penalty_Neutral>
2.30132e-08

> <r_epik_State_Penalty>
-0

> <r_epik_Charging_Adjusted_Penalty>
1.89977e-08

> <i_epik_Tot_Q>
0

> <i_epik_Tot_abs_Q>
0

> <r_epik_Metal_State_Penalty>
-0

> <b_epik_Metal_Only>
0

> <s_lp_Force_Field>
OPLS_2005

> <r_lp_Energy>
30.384

> <b_lp_Chiralities_Consistent>
1

> <s_lp_Variant>
AV-unprocessed.smi:2151-4

> <Gold.Version>
5.8.1

> <Gold.Id.Protein>
6NUR|6NUR_protein|mol2

> <Gold.PLP.Fitness>
50.4083

> <Gold.PLP.PLP>
-48.1124

> <Gold.PLP.part.hbond>
-1.0000

> <Gold.PLP.part.metal>
0.0000

> <Gold.PLP.part.buried>
-3.0054

> <Gold.PLP.part.nonpolar>
-43.9238

> <Gold.PLP.part.repulsive>
0.0581

> <Gold.PLP.ligand.clash>
0.0000

> <Gold.PLP.ligand.torsion>
0.3825

> <Gold.PLP.Chemscore.Hbond>
1.0000

> <Gold.PLP.Chemscore.CHOScore>
0.0000

> <Gold.PLP.Chemscore.Metal>
0.0000

> <Gold.Chemscore.Hbonds>
donor molecule, donor type, donor heavy atom, donor atom, acceptor molecule, acceptor atom, score
      P1  H  7997  8008       L1     5  1.00

> <Gold.PLP.Chemscore.Internal.Correction>
0.0610

> <Gold.Rescore>
     Score         DG    S(hbond)    S(metal)    S(lipo)     H(rot)  DE(clash)    DE(int)     intcor
     13.13     -15.03       1.00        0.00      93.04       1.82       0.00       1.90       ----

> <Gold.Chemscore.Fitness>
13.1334

> <Gold.Chemscore.DG>
-15.0348

> <Gold.Chemscore.ZeroCoef>
-5.4800

> <Gold.Chemscore.Hbond>
0.9988

> <Gold.Chemscore.Metal>
0.0000

> <Gold.Chemscore.Lipo>
93.0376

> <Gold.Chemscore.Internal_Hbond>
0.0000

> <Gold.Chemscore.DEClash>
0.0015

> <Gold.Chemscore.DEInternal>
1.9000

> <Gold.Chemscore.Rot>
1.8228

> <Gold.Chemscore.Internal.Correction>
   9.000000E+99

> <Gold.Chemscore.Hbonds>
donor molecule, donor type, donor heavy atom, donor atom, acceptor molecule, acceptor atom, score
      P1  H  7997  8008       L1     5  0.98

> <Gold.Chemscore.Hbond.Weighted>
-3.3359

> <Gold.Chemscore.Metal.Weighted>
-0.0000

> <Gold.Chemscore.Lipo.Weighted>
-10.8854

> <Gold.Chemscore.Internal_Hbond.Weighted>
0.0000

> <Gold.Chemscore.DEClash.Weighted>
0.0015

> <Gold.Chemscore.DEInternal.Weighted>
1.9000

> <Gold.Chemscore.Rot.Weighted>
4.6665

> <Gold.Chemscore.Internal.Correction.Weighted>
   9.000000E+99

> <Gold.Protein.RotatedTorsions>
[ 6907 6896 6895 6894 ] final  164.04 input  -60.11 | X-H torsion
[ 7974 7965 7964 7962 ] final   42.99 input  175.53 | X-H torsion
[ 8008 7997 7996 7995 ] final  -36.47 input   59.86 | X-H torsion
[ 10167 10162 10161 10158 ] final   -5.01 input  -65.29 | X-H torsion
[ 10718 10713 10712 10709 ] final  -86.09 input   66.30 | X-H torsion
[ 10763 10752 10751 10750 ] final   -9.74 input  -60.55 | X-H torsion
[ 11005 11000 10999 10996 ] final  -13.17 input  -57.11 | X-H torsion

> <Gold.Protein.ActiveResidues>
 VAL166  LYS551  ARG553  GLY616  TRP617  ASP618  TYR619  PRO620  LYS621  CYS622 
 ASP623  PHE694  ASN695  SER759  ASP760  ASP761  ALA762  ILE779  LEU786  VAL792 
 PHE793  MET794  SER795  GLU796  ALA797  LYS798  CYS799  TRP800  GLU811  SER814 

> <Gold.Protein.RotatedAtoms>
  151.9160  133.3573  159.3879 H   0  0  0  0  0  0  0  0  0  0  0  0  # atno 6907 bound_to 6896
  150.7047  134.4684  159.5423 H   0  0  0  0  0  0  0  0  0  0  0  0  # atno 6908 bound_to 6896
  152.2299  134.8332  160.0526 H   0  0  0  0  0  0  0  0  0  0  0  0  # atno 6909 bound_to 6896
  146.0693  139.5237  142.9608 H   0  0  0  0  0  0  0  0  0  0  0  0  # atno 7974 bound_to 7965
  154.4072  140.1630  156.2380 H   0  0  0  0  0  0  0  0  0  0  0  0  # atno 8008 bound_to 7997
  155.9226  140.3420  155.6162 H   0  0  0  0  0  0  0  0  0  0  0  0  # atno 8009 bound_to 7997
  155.7204  140.0767  157.2324 H   0  0  0  0  0  0  0  0  0  0  0  0  # atno 8010 bound_to 7997
  140.6948  143.6357  150.8481 H   0  0  0  0  0  0  0  0  0  0  0  0  # atno 10167 bound_to 10162
  155.9992  130.4753  150.4661 H   0  0  0  0  0  0  0  0  0  0  0  0  # atno 10718 bound_to 10713
  153.4591  135.7016  153.6061 H   0  0  0  0  0  0  0  0  0  0  0  0  # atno 10763 bound_to 10752
  153.4363  135.3790  155.2201 H   0  0  0  0  0  0  0  0  0  0  0  0  # atno 10764 bound_to 10752
  154.8727  135.3963  154.4014 H   0  0  0  0  0  0  0  0  0  0  0  0  # atno 10765 bound_to 10752
  140.7733  133.8421  155.9226 H   0  0  0  0  0  0  0  0  0  0  0  0  # atno 11005 bound_to 11000
  145.6420  141.0282  143.1806 LP  0  0  0  0  0  0  0  0  0  0  0  0  # atno 17320 bound_to 7965
  144.7222  139.7993  143.7378 LP  0  0  0  0  0  0  0  0  0  0  0  0  # atno 17321 bound_to 7965
  140.0074  143.5679  152.2852 LP  0  0  0  0  0  0  0  0  0  0  0  0  # atno 17342 bound_to 10162
  139.6390  144.7653  151.2378 LP  0  0  0  0  0  0  0  0  0  0  0  0  # atno 17343 bound_to 10162
  157.2681  131.0581  151.2277 LP  0  0  0  0  0  0  0  0  0  0  0  0  # atno 17370 bound_to 10713
  157.3368  130.7013  149.6357 LP  0  0  0  0  0  0  0  0  0  0  0  0  # atno 17371 bound_to 10713
  140.9553  134.1726  157.4696 LP  0  0  0  0  0  0  0  0  0  0  0  0  # atno 17394 bound_to 11000
  139.8752  134.9924  156.5597 LP  0  0  0  0  0  0  0  0  0  0  0  0  # atno 17395 bound_to 11000

$$$$
