AV-unprocessed.smi:1207|AV-procd|sdf|5056|dock4
  -GOLD-   22720 4 93D 1   1.00000     0.00000
 Structure written by MMmdl.
 52 54  0  0  0  0  0  0  0  0  2 V2000
  152.2846  144.3975  160.0740 C   0  0  0  0  0  0  0  0  0  0  0  0
  152.0542  143.3063  159.0421 C   0  0  0  0  0  0  0  0  0  0  0  0
  151.1570  143.5610  157.9800 C   0  0  0  0  0  0  0  0  0  0  0  0
  150.9625  142.5412  157.0559 C   0  0  0  0  0  0  0  0  0  0  0  0
  150.1546  142.4773  155.9183 N   0  3  0  0  0  0  0  0  0  0  0  0
  150.2968  141.2581  155.3279 C   0  0  0  0  0  0  0  0  0  0  0  0
  151.1850  140.5445  156.0715 N   0  0  0  0  0  0  0  0  0  0  0  0
  151.6894  139.1778  155.8864 C   0  0  0  0  0  0  0  0  0  0  0  0
  150.9674  138.4238  154.7532 C   0  0  1  0  0  0  0  0  0  0  0  0
  151.5880  137.1663  154.5693 O   0  0  0  0  0  0  0  0  0  0  0  0
  149.4798  138.1935  155.0859 C   0  0  0  0  0  0  0  0  0  0  0  0
  149.2126  137.5152  156.3570 N   0  0  0  0  0  0  0  0  0  0  0  0
  149.3345  136.0621  156.2326 C   0  0  0  0  0  0  0  0  0  0  0  0
  147.8919  137.8872  156.8668 C   0  0  0  0  0  0  0  0  0  0  0  0
  147.7323  137.6173  158.3414 C   0  0  0  0  0  0  0  0  0  0  0  0
  148.7465  137.3157  159.2946 C   0  0  0  0  0  0  0  0  0  0  0  0
  150.2267  137.1933  159.0740 C   0  0  0  0  0  0  0  0  0  0  0  0
  148.2482  137.1372  160.5067 N   0  0  0  0  0  0  0  0  0  0  0  0
  146.8675  137.3221  160.3843 O   0  0  0  0  0  0  0  0  0  0  0  0
  146.5858  137.6060  159.0873 C   0  0  0  0  0  0  0  0  0  0  0  0
  145.1528  137.8435  158.7501 C   0  0  0  0  0  0  0  0  0  0  0  0
  151.6268  141.3039  157.1592 C   0  0  0  0  0  0  0  0  0  0  0  0
  152.5161  141.0369  158.1968 C   0  0  0  0  0  0  0  0  0  0  0  0
  152.7250  142.0603  159.1488 C   0  0  0  0  0  0  0  0  0  0  0  0
  153.6862  141.7968  160.2952 C   0  0  0  0  0  0  0  0  0  0  0  0
  151.7218  145.2998  159.8333 H   0  0  0  0  0  0  0  0  0  0  0  0
  153.3400  144.6670  160.1207 H   0  0  0  0  0  0  0  0  0  0  0  0
  151.9683  144.0612  161.0617 H   0  0  0  0  0  0  0  0  0  0  0  0
  150.6426  144.5067  157.8925 H   0  0  0  0  0  0  0  0  0  0  0  0
  149.7932  140.9168  154.4348 H   0  0  0  0  0  0  0  0  0  0  0  0
  152.7577  139.2484  155.6764 H   0  0  0  0  0  0  0  0  0  0  0  0
  151.5946  138.6453  156.8335 H   0  0  0  0  0  0  0  0  0  0  0  0
  151.0749  138.9971  153.8341 H   0  0  0  0  0  0  0  0  0  0  0  0
  150.9113  136.5098  154.4999 H   0  0  0  0  0  0  0  0  0  0  0  0
  148.9872  139.1672  155.0833 H   0  0  0  0  0  0  0  0  0  0  0  0
  149.0144  137.6273  154.2776 H   0  0  0  0  0  0  0  0  0  0  0  0
  149.1279  135.5650  157.1806 H   0  0  0  0  0  0  0  0  0  0  0  0
  150.3419  135.7668  155.9446 H   0  0  0  0  0  0  0  0  0  0  0  0
  148.6380  135.6705  155.4903 H   0  0  0  0  0  0  0  0  0  0  0  0
  147.7262  138.9502  156.6872 H   0  0  0  0  0  0  0  0  0  0  0  0
  147.1209  137.3754  156.2894 H   0  0  0  0  0  0  0  0  0  0  0  0
  150.6022  138.0266  158.4798 H   0  0  0  0  0  0  0  0  0  0  0  0
  150.4656  136.2719  158.5427 H   0  0  0  0  0  0  0  0  0  0  0  0
  150.7771  137.1866  160.0159 H   0  0  0  0  0  0  0  0  0  0  0  0
  144.9673  137.6657  157.6906 H   0  0  0  0  0  0  0  0  0  0  0  0
  144.8717  138.8724  158.9739 H   0  0  0  0  0  0  0  0  0  0  0  0
  144.5025  137.1811  159.3215 H   0  0  0  0  0  0  0  0  0  0  0  0
  153.0254  140.0878  158.2770 H   0  0  0  0  0  0  0  0  0  0  0  0
  154.1057  140.7916  160.2417 H   0  0  0  0  0  0  0  0  0  0  0  0
  153.1754  141.8937  161.2536 H   0  0  0  0  0  0  0  0  0  0  0  0
  154.5145  142.5051  160.2698 H   0  0  0  0  0  0  0  0  0  0  0  0
  149.5485  143.2085  155.5691 H   0  0  0  0  0  0  0  0  0  0  0  0
  1  2  1  0  0  0  0
  1 26  1  0  0  0  0
  1 27  1  0  0  0  0
  1 28  1  0  0  0  0
  2 24  1  0  0  0  0
  2  3  2  0  0  0  0
  3  4  1  0  0  0  0
  3 29  1  0  0  0  0
  4 22  2  0  0  0  0
  4  5  1  0  0  0  0
  5  6  2  0  0  0  0
  5 52  1  0  0  0  0
  6  7  1  0  0  0  0
  6 30  1  0  0  0  0
  7  8  1  0  0  0  0
  7 22  1  0  0  0  0
  8  9  1  0  0  0  0
  8 31  1  0  0  0  0
  8 32  1  0  0  0  0
  9 10  1  0  0  0  0
  9 11  1  0  0  0  0
  9 33  1  0  0  0  0
 10 34  1  0  0  0  0
 11 12  1  0  0  0  0
 11 35  1  0  0  0  0
 11 36  1  0  0  0  0
 12 13  1  0  0  0  0
 12 14  1  0  0  0  0
 13 37  1  0  0  0  0
 13 38  1  0  0  0  0
 13 39  1  0  0  0  0
 14 15  1  0  0  0  0
 14 40  1  0  0  0  0
 14 41  1  0  0  0  0
 15 20  2  0  0  0  0
 15 16  1  0  0  0  0
 16 17  1  0  0  0  0
 16 18  2  0  0  0  0
 17 42  1  0  0  0  0
 17 43  1  0  0  0  0
 17 44  1  0  0  0  0
 18 19  1  0  0  0  0
 19 20  1  0  0  0  0
 20 21  1  0  0  0  0
 21 45  1  0  0  0  0
 21 46  1  0  0  0  0
 21 47  1  0  0  0  0
 22 23  1  0  0  0  0
 23 24  2  0  0  0  0
 23 48  1  0  0  0  0
 24 25  1  0  0  0  0
 25 49  1  0  0  0  0
 25 50  1  0  0  0  0
 25 51  1  0  0  0  0
M  CHG  1   5   1
M  END
> <s_m_source_file>
AV-unprocessed.smi

> <i_m_source_file_index>
1207

> <i_lp_mmshare_version>
43012

> <i_f3d_flags>
0

> <s_epik_input>
W0NIM11jKFtjSF0xKWMoW0NIM10pW2NIXWMoYzEyKW4oW2NIXW4yKVtDSDJdW0NASF0oW09IXSlbQ0gyXU4oW0NIM10pW0NIMl1jM2MoW0NIM10pbm9jM1tDSDNd

> <s_epik_cmdline>
J2VwaWtfcHl0aG9uJywgJy1waCcsICc3LjAnLCAnLXRuJywgJzgnLCAnLW1hJywgJzIwMCcsICctbWV0YWxfYmluZGluZycsICctaW1hZScsICc8aW5maWxlLm1hZT4nLCAnLW9tYWUnLCAnPG91dGZpbGUubWFlPic=

> <r_epik_Ionization_Penalty>
1.48114

> <r_epik_Ionization_Penalty_Charging>
1.21121

> <r_epik_Ionization_Penalty_Neutral>
0.269933

> <r_epik_State_Penalty>
1.53013

> <r_epik_Charging_Adjusted_Penalty>
2.74134

> <i_epik_Tot_Q>
1

> <i_epik_Tot_abs_Q>
1

> <r_epik_Metal_State_Penalty>
1.60462

> <b_epik_Metal_Only>
0

> <s_lp_Force_Field>
OPLS_2005

> <r_lp_Energy>
20.0432

> <b_lp_Chiralities_Consistent>
1

> <s_lp_Variant>
AV-unprocessed.smi:1207-8

> <Gold.Version>
5.8.1

> <Gold.Id.Protein>
6NUR|6NUR_protein|mol2

> <Gold.PLP.Fitness>
52.8369

> <Gold.PLP.PLP>
-43.5567

> <Gold.PLP.part.hbond>
-4.8850

> <Gold.PLP.part.metal>
0.0000

> <Gold.PLP.part.buried>
-5.5774

> <Gold.PLP.part.nonpolar>
-33.5579

> <Gold.PLP.part.repulsive>
0.1547

> <Gold.PLP.ligand.clash>
0.0000

> <Gold.PLP.ligand.torsion>
0.6393

> <Gold.PLP.Chemscore.Hbond>
3.4373

> <Gold.PLP.Chemscore.CHOScore>
0.0000

> <Gold.PLP.Chemscore.Metal>
0.0000

> <Gold.Chemscore.Hbonds>
donor molecule, donor type, donor heavy atom, donor atom, acceptor molecule, acceptor atom, score
      L1  H     5    52       P1  8028  2.00
      P1  H  6931  6943       L1    18  0.78
      P1  H  6934  6947       L1    19  0.26
      P1  H 10752 10765       L1    10  0.38

> <Gold.PLP.Chemscore.Internal.Correction>
0.2471

> <Gold.Rescore>
     Score         DG    S(hbond)    S(metal)    S(lipo)     H(rot)  DE(clash)    DE(int)     intcor
     14.66     -17.67       1.62        0.00     111.65       2.46       0.19       2.82       ----

> <Gold.Chemscore.Fitness>
14.6629

> <Gold.Chemscore.DG>
-17.6718

> <Gold.Chemscore.ZeroCoef>
-5.4800

> <Gold.Chemscore.Hbond>
1.6212

> <Gold.Chemscore.Metal>
0.0000

> <Gold.Chemscore.Lipo>
111.6517

> <Gold.Chemscore.Internal_Hbond>
0.0000

> <Gold.Chemscore.DEClash>
0.1867

> <Gold.Chemscore.DEInternal>
2.8222

> <Gold.Chemscore.Rot>
2.4555

> <Gold.Chemscore.Internal.Correction>
   9.000000E+99

> <Gold.Chemscore.Hbonds>
donor molecule, donor type, donor heavy atom, donor atom, acceptor molecule, acceptor atom, score
      L1  H     5    52       P1  8028  0.96
      P1  H  6931  6943       L1    18  0.58
      P1  H 10752 10765       L1    10  0.01

> <Gold.Chemscore.Hbond.Weighted>
-5.4147

> <Gold.Chemscore.Metal.Weighted>
-0.0000

> <Gold.Chemscore.Lipo.Weighted>
-13.0632

> <Gold.Chemscore.Internal_Hbond.Weighted>
0.0000

> <Gold.Chemscore.DEClash.Weighted>
0.1867

> <Gold.Chemscore.DEInternal.Weighted>
2.8222

> <Gold.Chemscore.Rot.Weighted>
6.2861

> <Gold.Chemscore.Internal.Correction.Weighted>
   9.000000E+99

> <Gold.Protein.RotatedTorsions>
[ 6907 6896 6895 6894 ] final  144.96 input  -60.11 | X-H torsion
[ 7974 7965 7964 7962 ] final    0.64 input  175.53 | X-H torsion
[ 8008 7997 7996 7995 ] final -158.70 input   59.86 | X-H torsion
[ 10167 10162 10161 10158 ] final  165.73 input  -65.29 | X-H torsion
[ 10718 10713 10712 10709 ] final  152.60 input   66.30 | X-H torsion
[ 10763 10752 10751 10750 ] final  156.85 input  -60.55 | X-H torsion
[ 11005 11000 10999 10996 ] final  -64.43 input  -57.11 | X-H torsion

> <Gold.Protein.ActiveResidues>
 VAL166  LYS551  ARG553  GLY616  TRP617  ASP618  TYR619  PRO620  LYS621  CYS622 
 ASP623  PHE694  ASN695  SER759  ASP760  ASP761  ALA762  ILE779  LEU786  VAL792 
 PHE793  MET794  SER795  GLU796  ALA797  LYS798  CYS799  TRP800  GLU811  SER814 

> <Gold.Protein.RotatedAtoms>
  152.1870  133.4746  159.4987 H   0  0  0  0  0  0  0  0  0  0  0  0  # atno 6907 bound_to 6896
  150.6944  134.1761  159.4240 H   0  0  0  0  0  0  0  0  0  0  0  0  # atno 6908 bound_to 6896
  151.9675  135.0093  160.0601 H   0  0  0  0  0  0  0  0  0  0  0  0  # atno 6909 bound_to 6896
  146.2435  140.1107  142.8344 H   0  0  0  0  0  0  0  0  0  0  0  0  # atno 7974 bound_to 7965
  155.7515  140.0827  157.2199 H   0  0  0  0  0  0  0  0  0  0  0  0  # atno 8008 bound_to 7997
  154.4011  140.1559  156.2786 H   0  0  0  0  0  0  0  0  0  0  0  0  # atno 8009 bound_to 7997
  155.8925  140.3414  155.5969 H   0  0  0  0  0  0  0  0  0  0  0  0  # atno 8010 bound_to 7997
  139.4911  144.4102  151.9309 H   0  0  0  0  0  0  0  0  0  0  0  0  # atno 10167 bound_to 10162
  157.2556  131.0788  151.1700 H   0  0  0  0  0  0  0  0  0  0  0  0  # atno 10718 bound_to 10713
  154.1910  135.2795  155.3022 H   0  0  0  0  0  0  0  0  0  0  0  0  # atno 10763 bound_to 10752
  154.5929  135.5554  153.7300 H   0  0  0  0  0  0  0  0  0  0  0  0  # atno 10764 bound_to 10752
  153.0112  135.6373  154.2048 H   0  0  0  0  0  0  0  0  0  0  0  0  # atno 10765 bound_to 10752
  141.1424  133.6666  156.5832 H   0  0  0  0  0  0  0  0  0  0  0  0  # atno 11005 bound_to 11000
  145.0489  140.9003  143.5007 LP  0  0  0  0  0  0  0  0  0  0  0  0  # atno 17320 bound_to 7965
  145.1201  139.2699  143.5593 LP  0  0  0  0  0  0  0  0  0  0  0  0  # atno 17321 bound_to 7965
  140.3543  144.3051  150.5944 LP  0  0  0  0  0  0  0  0  0  0  0  0  # atno 17342 bound_to 10162
  140.5458  143.2215  151.8009 LP  0  0  0  0  0  0  0  0  0  0  0  0  # atno 17343 bound_to 10162
  157.3230  130.6947  149.6280 LP  0  0  0  0  0  0  0  0  0  0  0  0  # atno 17370 bound_to 10713
  155.9665  130.4330  150.4986 LP  0  0  0  0  0  0  0  0  0  0  0  0  # atno 17371 bound_to 10713
  140.3821  134.7514  157.4668 LP  0  0  0  0  0  0  0  0  0  0  0  0  # atno 17394 bound_to 11000
  140.0630  134.5969  155.8727 LP  0  0  0  0  0  0  0  0  0  0  0  0  # atno 17395 bound_to 11000

$$$$
