AV-unprocessed.smi:326|AV-procd|sdf|2345|dock5
  -GOLD-   2262022253D 1   1.00000     0.00000
 Structure written by MMmdl.
 44 45  0  0  0  0  0  0  0  0  1 V2000
  153.6270  140.5611  159.9566 C   0  0  0  0  0  0  0  0  0  0  0  0
  154.0989  139.8454  158.8290 O   0  0  0  0  0  0  0  0  0  0  0  0
  153.2165  138.8064  158.4358 C   0  0  0  0  0  0  0  0  0  0  0  0
  153.7214  138.1749  157.1286 C   0  0  0  0  0  0  0  0  0  0  0  0
  152.6148  137.8011  156.2409 N   0  0  0  0  0  0  0  0  0  0  0  0
  152.0115  136.5996  156.5709 N   0  0  0  0  0  0  0  0  0  0  0  0
  151.0242  136.1514  155.8650 C   0  0  0  0  0  0  0  0  0  0  0  0
  150.3500  134.8645  156.1894 C   0  0  0  0  0  0  0  0  0  0  0  0
  150.5658  134.2627  157.2427 O   0  0  0  0  0  0  0  0  0  0  0  0
  149.5038  134.4110  155.2478 N   0  0  0  0  0  0  0  0  0  0  0  0
  148.7596  133.1547  155.2963 C   0  0  2  0  0  0  0  0  0  0  0  0
  149.2049  132.2080  154.1628 C   0  0  0  0  0  0  0  0  0  0  0  0
  148.7757  132.7211  152.7762 C   0  0  0  0  0  0  0  0  0  0  0  0
  147.2573  132.9751  152.7083 C   0  0  2  0  0  0  0  0  0  0  0  0
  146.8346  133.4923  151.3262 C   0  0  0  0  0  0  0  0  0  0  0  0
  146.8209  133.9407  153.8266 C   0  0  0  0  0  0  0  0  0  0  0  0
  147.2463  133.4308  155.2153 C   0  0  0  0  0  0  0  0  0  0  0  0
  150.5290  136.8972  154.7204 C   0  0  0  0  0  0  0  0  0  0  0  0
  151.1322  138.0646  154.4063 C   0  0  0  0  0  0  0  0  0  0  0  0
  152.2561  138.5898  155.1835 C   0  0  0  0  0  0  0  0  0  0  0  0
  152.8293  139.6441  154.9104 O   0  0  0  0  0  0  0  0  0  0  0  0
  154.3388  141.3447  160.2166 H   0  0  0  0  0  0  0  0  0  0  0  0
  153.5162  139.9057  160.8214 H   0  0  0  0  0  0  0  0  0  0  0  0
  152.6661  141.0344  159.7500 H   0  0  0  0  0  0  0  0  0  0  0  0
  153.1809  138.0456  159.2167 H   0  0  0  0  0  0  0  0  0  0  0  0
  152.2026  139.1906  158.3120 H   0  0  0  0  0  0  0  0  0  0  0  0
  154.3956  138.8689  156.6232 H   0  0  0  0  0  0  0  0  0  0  0  0
  154.3298  137.2978  157.3554 H   0  0  0  0  0  0  0  0  0  0  0  0
  149.3849  134.9735  154.4174 H   0  0  0  0  0  0  0  0  0  0  0  0
  148.9583  132.6705  156.2541 H   0  0  0  0  0  0  0  0  0  0  0  0
  150.2858  132.0647  154.1899 H   0  0  0  0  0  0  0  0  0  0  0  0
  148.7667  131.2230  154.3283 H   0  0  0  0  0  0  0  0  0  0  0  0
  149.3152  133.6402  152.5427 H   0  0  0  0  0  0  0  0  0  0  0  0
  149.0659  131.9955  152.0156 H   0  0  0  0  0  0  0  0  0  0  0  0
  146.7507  132.0225  152.8709 H   0  0  0  0  0  0  0  0  0  0  0  0
  147.3068  134.4485  151.0990 H   0  0  0  0  0  0  0  0  0  0  0  0
  145.7547  133.6336  151.2739 H   0  0  0  0  0  0  0  0  0  0  0  0
  147.1125  132.7884  150.5413 H   0  0  0  0  0  0  0  0  0  0  0  0
  147.2497  134.9282  153.6504 H   0  0  0  0  0  0  0  0  0  0  0  0
  145.7384  134.0701  153.8042 H   0  0  0  0  0  0  0  0  0  0  0  0
  146.7037  132.5110  155.4368 H   0  0  0  0  0  0  0  0  0  0  0  0
  146.9519  134.1477  155.9830 H   0  0  0  0  0  0  0  0  0  0  0  0
  149.7016  136.5325  154.1288 H   0  0  0  0  0  0  0  0  0  0  0  0
  150.7761  138.6284  153.5566 H   0  0  0  0  0  0  0  0  0  0  0  0
  1  2  1  0  0  0  0
  1 22  1  0  0  0  0
  1 23  1  0  0  0  0
  1 24  1  0  0  0  0
  2  3  1  0  0  0  0
  3  4  1  0  0  0  0
  3 25  1  0  0  0  0
  3 26  1  0  0  0  0
  4  5  1  0  0  0  0
  4 27  1  0  0  0  0
  4 28  1  0  0  0  0
  5 20  1  0  0  0  0
  5  6  1  0  0  0  0
  6  7  2  0  0  0  0
  7  8  1  0  0  0  0
  7 18  1  0  0  0  0
  8  9  2  0  0  0  0
  8 10  1  0  0  0  0
 10 11  1  0  0  0  0
 10 29  1  0  0  0  0
 11 17  1  0  0  0  0
 11 12  1  0  0  0  0
 11 30  1  0  0  0  0
 12 13  1  0  0  0  0
 12 31  1  0  0  0  0
 12 32  1  0  0  0  0
 13 14  1  0  0  0  0
 13 33  1  0  0  0  0
 13 34  1  0  0  0  0
 14 15  1  0  0  0  0
 14 16  1  0  0  0  0
 14 35  1  0  0  0  0
 15 36  1  0  0  0  0
 15 37  1  0  0  0  0
 15 38  1  0  0  0  0
 16 17  1  0  0  0  0
 16 39  1  0  0  0  0
 16 40  1  0  0  0  0
 17 41  1  0  0  0  0
 17 42  1  0  0  0  0
 18 19  2  0  0  0  0
 18 43  1  0  0  0  0
 19 20  1  0  0  0  0
 19 44  1  0  0  0  0
 20 21  2  0  0  0  0
M  END
> <s_m_source_file>
AV-unprocessed.smi

> <i_m_source_file_index>
326

> <i_lp_mmshare_version>
43012

> <i_f3d_flags>
0

> <s_epik_input>
W0NIM11PW0NIMl1bQ0gyXW4xbmMoW2NIXVtjSF1jMT1PKUMoPU8pW05IXVtDQEBIXTJbQ0gyXVtDSDJdW0NAQEhdKFtDSDNdKVtDSDJdW0NIMl0y

> <s_epik_cmdline>
J2VwaWtfcHl0aG9uJywgJy1waCcsICc3LjAnLCAnLXRuJywgJzgnLCAnLW1hJywgJzIwMCcsICctbWV0YWxfYmluZGluZycsICctaW1hZScsICc8aW5maWxlLm1hZT4nLCAnLW9tYWUnLCAnPG91dGZpbGUubWFlPic=

> <r_lp_tautomer_probability>
1

> <r_epik_Ionization_Penalty>
6.47102e-07

> <r_epik_Ionization_Penalty_Charging>
6.8576e-09

> <r_epik_Ionization_Penalty_Neutral>
6.40245e-07

> <r_epik_State_Penalty>
-0

> <r_epik_Charging_Adjusted_Penalty>
6.8576e-09

> <i_epik_Tot_Q>
0

> <i_epik_Tot_abs_Q>
0

> <r_epik_Metal_State_Penalty>
-0

> <b_epik_Metal_Only>
0

> <s_lp_Force_Field>
OPLS_2005

> <r_lp_Energy>
28.5252

> <b_lp_Chiralities_Consistent>
1

> <s_lp_Variant>
AV-unprocessed.smi:326-2

> <Gold.Version>
5.8.1

> <Gold.Id.Protein>
6NUR|6NUR_protein|mol2

> <Gold.PLP.Fitness>
38.4648

> <Gold.PLP.PLP>
-30.9836

> <Gold.PLP.part.hbond>
-4.2635

> <Gold.PLP.part.metal>
0.0000

> <Gold.PLP.part.buried>
-2.5570

> <Gold.PLP.part.nonpolar>
-25.0311

> <Gold.PLP.part.repulsive>
0.0325

> <Gold.PLP.ligand.clash>
0.3445

> <Gold.PLP.ligand.torsion>
0.6085

> <Gold.PLP.Chemscore.Hbond>
2.9912

> <Gold.PLP.Chemscore.CHOScore>
0.0000

> <Gold.PLP.Chemscore.Metal>
0.0000

> <Gold.Chemscore.Hbonds>
donor molecule, donor type, donor heavy atom, donor atom, acceptor molecule, acceptor atom, score
      P1  H  6896  6907       L1     9  0.58
      P1  H  7989  7998       L1    21  0.31
      P1  H  7997  8009       L1     2  0.96
      P1  H  7997  8010       L1    21  1.00
      P1  H 10752 10764       L1     6  0.10

> <Gold.PLP.Chemscore.Internal.Correction>
0.0690

> <Gold.Rescore>
     Score         DG    S(hbond)    S(metal)    S(lipo)     H(rot)  DE(clash)    DE(int)     intcor
     17.50     -18.27       2.66        0.00      67.30       1.55       0.00       0.77       ----

> <Gold.Chemscore.Fitness>
17.5009

> <Gold.Chemscore.DG>
-18.2746

> <Gold.Chemscore.ZeroCoef>
-5.4800

> <Gold.Chemscore.Hbond>
2.6595

> <Gold.Chemscore.Metal>
0.0000

> <Gold.Chemscore.Lipo>
67.3006

> <Gold.Chemscore.Internal_Hbond>
0.0000

> <Gold.Chemscore.DEClash>
0.0000

> <Gold.Chemscore.DEInternal>
0.7737

> <Gold.Chemscore.Rot>
1.5478

> <Gold.Chemscore.Internal.Correction>
   9.000000E+99

> <Gold.Chemscore.Hbonds>
donor molecule, donor type, donor heavy atom, donor atom, acceptor molecule, acceptor atom, score
      P1  H  6896  6907       L1     9  0.55
      P1  H  7989  7998       L1    21  0.25
      P1  H  7997  8009       L1     2  0.32
      P1  H  7997  8010       L1    21  0.95

> <Gold.Chemscore.Hbond.Weighted>
-8.8827

> <Gold.Chemscore.Metal.Weighted>
-0.0000

> <Gold.Chemscore.Lipo.Weighted>
-7.8742

> <Gold.Chemscore.Internal_Hbond.Weighted>
0.0000

> <Gold.Chemscore.DEClash.Weighted>
0.0000

> <Gold.Chemscore.DEInternal.Weighted>
0.7737

> <Gold.Chemscore.Rot.Weighted>
3.9623

> <Gold.Chemscore.Internal.Correction.Weighted>
   9.000000E+99

> <Gold.Protein.RotatedTorsions>
[ 6907 6896 6895 6894 ] final -116.10 input  -60.11 | X-H torsion
[ 7974 7965 7964 7962 ] final  113.38 input  175.53 | X-H torsion
[ 8008 7997 7996 7995 ] final  117.92 input   59.86 | X-H torsion
[ 10167 10162 10161 10158 ] final  -77.66 input  -65.29 | X-H torsion
[ 10718 10713 10712 10709 ] final   49.13 input   66.30 | X-H torsion
[ 10763 10752 10751 10750 ] final  -15.66 input  -60.55 | X-H torsion
[ 11005 11000 10999 10996 ] final -113.91 input  -57.11 | X-H torsion

> <Gold.Protein.ActiveResidues>
 VAL166  LYS551  ARG553  GLY616  TRP617  ASP618  TYR619  PRO620  LYS621  CYS622 
 ASP623  PHE694  ASN695  SER759  ASP760  ASP761  ALA762  ILE779  LEU786  VAL792 
 PHE793  MET794  SER795  GLU796  ALA797  LYS798  CYS799  TRP800  GLU811  SER814 

> <Gold.Protein.RotatedAtoms>
  150.8029  133.8564  159.3219 H   0  0  0  0  0  0  0  0  0  0  0  0  # atno 6907 bound_to 6896
  151.6371  135.1015  160.0143 H   0  0  0  0  0  0  0  0  0  0  0  0  # atno 6908 bound_to 6896
  152.4118  133.6935  159.6439 H   0  0  0  0  0  0  0  0  0  0  0  0  # atno 6909 bound_to 6896
  145.2176  139.2877  143.4235 H   0  0  0  0  0  0  0  0  0  0  0  0  # atno 7974 bound_to 7965
  156.2520  140.2886  156.0754 H   0  0  0  0  0  0  0  0  0  0  0  0  # atno 8008 bound_to 7997
  155.1625  140.0400  157.2863 H   0  0  0  0  0  0  0  0  0  0  0  0  # atno 8009 bound_to 7997
  154.6383  140.2516  155.7359 H   0  0  0  0  0  0  0  0  0  0  0  0  # atno 8010 bound_to 7997
  140.4750  143.2416  151.8146 H   0  0  0  0  0  0  0  0  0  0  0  0  # atno 10167 bound_to 10162
  157.4756  130.8283  149.8036 H   0  0  0  0  0  0  0  0  0  0  0  0  # atno 10718 bound_to 10713
  153.5468  135.7012  153.5610 H   0  0  0  0  0  0  0  0  0  0  0  0  # atno 10763 bound_to 10752
  153.3552  135.3984  155.1676 H   0  0  0  0  0  0  0  0  0  0  0  0  # atno 10764 bound_to 10752
  154.8666  135.3775  154.4976 H   0  0  0  0  0  0  0  0  0  0  0  0  # atno 10765 bound_to 10752
  141.0584  133.9574  157.2711 H   0  0  0  0  0  0  0  0  0  0  0  0  # atno 11005 bound_to 11000
  146.3383  140.2472  142.8597 LP  0  0  0  0  0  0  0  0  0  0  0  0  # atno 17320 bound_to 7965
  144.9796  140.8446  143.5405 LP  0  0  0  0  0  0  0  0  0  0  0  0  # atno 17321 bound_to 7965
  139.4824  144.4844  151.9265 LP  0  0  0  0  0  0  0  0  0  0  0  0  # atno 17342 bound_to 10162
  140.3929  144.2592  150.5898 LP  0  0  0  0  0  0  0  0  0  0  0  0  # atno 17343 bound_to 10162
  156.0095  130.3840  150.2313 LP  0  0  0  0  0  0  0  0  0  0  0  0  # atno 17370 bound_to 10713
  157.0498  131.0059  151.3257 LP  0  0  0  0  0  0  0  0  0  0  0  0  # atno 17371 bound_to 10713
  139.9411  135.0191  156.8710 LP  0  0  0  0  0  0  0  0  0  0  0  0  # atno 17394 bound_to 11000
  140.5917  134.0255  155.7502 LP  0  0  0  0  0  0  0  0  0  0  0  0  # atno 17395 bound_to 11000

$$$$
