AV-unprocessed.smi:2355|AV-procd|sdf|9385|dock5
  -GOLD-   2272013 13D 1   1.00000     0.00000
 Structure written by MMmdl.
 48 49  0  0  0  0  0  0  0  0  1 V2000
  145.3323  132.2953  149.8448 C   0  0  0  0  0  0  0  0  0  0  0  0
  144.9013  133.3912  150.7966 C   0  0  0  0  0  0  0  0  0  0  0  0
  143.6133  133.3902  151.3657 C   0  0  0  0  0  0  0  0  0  0  0  0
  143.2739  134.4385  152.2434 C   0  0  0  0  0  0  0  0  0  0  0  0
  141.9053  134.5030  152.8879 C   0  0  0  0  0  0  0  0  0  0  0  0
  144.1244  135.4375  152.5616 N   0  0  0  0  0  0  0  0  0  0  0  0
  145.3681  135.4480  152.0209 C   0  0  0  0  0  0  0  0  0  0  0  0
  146.3381  136.4486  152.2945 N   0  0  0  0  0  0  0  0  0  0  0  0
  146.2028  137.5521  153.0508 C   0  0  0  0  0  0  0  0  0  0  0  0
  145.1702  137.8991  153.6252 O   0  0  0  0  0  0  0  0  0  0  0  0
  147.3522  138.2407  153.1084 N   0  0  0  0  0  0  0  0  0  0  0  0
  147.5786  139.4645  153.8776 C   0  0  2  0  0  0  0  0  0  0  0  0
  147.0322  140.6755  153.1001 C   0  0  0  0  0  0  0  0  0  0  0  0
  149.0780  139.5820  154.2968 C   0  0  2  0  0  0  0  0  0  0  0  0
  149.6097  138.1968  154.7484 C   0  0  0  0  0  0  0  0  0  0  0  0
  149.3361  140.6456  155.3012 N   0  0  0  0  0  0  0  0  0  0  0  0
  148.5696  140.4530  156.5378 C   0  0  0  0  0  0  0  0  0  0  0  0
  148.8435  141.5434  157.5884 C   0  0  0  0  0  0  0  0  0  0  0  0
  150.2335  141.5927  157.8776 O   0  0  0  0  0  0  0  0  0  0  0  0
  151.0090  141.8585  156.7175 C   0  0  0  0  0  0  0  0  0  0  0  0
  150.7540  140.7685  155.6624 C   0  0  0  0  0  0  0  0  0  0  0  0
  145.7881  134.4349  151.1300 C   0  0  0  0  0  0  0  0  0  0  0  0
  144.5442  131.5540  149.7089 H   0  0  0  0  0  0  0  0  0  0  0  0
  146.2161  131.7864  150.2303 H   0  0  0  0  0  0  0  0  0  0  0  0
  145.5758  132.7175  148.8694 H   0  0  0  0  0  0  0  0  0  0  0  0
  142.9045  132.6083  151.1355 H   0  0  0  0  0  0  0  0  0  0  0  0
  141.3213  133.6090  152.6669 H   0  0  0  0  0  0  0  0  0  0  0  0
  141.3553  135.3694  152.5198 H   0  0  0  0  0  0  0  0  0  0  0  0
  141.9978  134.5894  153.9711 H   0  0  0  0  0  0  0  0  0  0  0  0
  147.2458  136.2975  151.8803 H   0  0  0  0  0  0  0  0  0  0  0  0
  148.1469  137.8753  152.6047 H   0  0  0  0  0  0  0  0  0  0  0  0
  146.9752  139.4508  154.7839 H   0  0  0  0  0  0  0  0  0  0  0  0
  147.2728  141.6102  153.6069 H   0  0  0  0  0  0  0  0  0  0  0  0
  145.9461  140.6194  153.0186 H   0  0  0  0  0  0  0  0  0  0  0  0
  147.4224  140.7294  152.0842 H   0  0  0  0  0  0  0  0  0  0  0  0
  149.6291  139.8455  153.3926 H   0  0  0  0  0  0  0  0  0  0  0  0
  149.3941  137.4140  154.0240 H   0  0  0  0  0  0  0  0  0  0  0  0
  149.1786  137.8928  155.7027 H   0  0  0  0  0  0  0  0  0  0  0  0
  150.6934  138.1847  154.8519 H   0  0  0  0  0  0  0  0  0  0  0  0
  147.5006  140.4709  156.3351 H   0  0  0  0  0  0  0  0  0  0  0  0
  148.7958  139.4747  156.9644 H   0  0  0  0  0  0  0  0  0  0  0  0
  148.5018  142.5168  157.2335 H   0  0  0  0  0  0  0  0  0  0  0  0
  148.2976  141.3285  158.5071 H   0  0  0  0  0  0  0  0  0  0  0  0
  150.7610  142.8445  156.3212 H   0  0  0  0  0  0  0  0  0  0  0  0
  152.0638  141.8804  156.9916 H   0  0  0  0  0  0  0  0  0  0  0  0
  151.1284  139.8115  156.0288 H   0  0  0  0  0  0  0  0  0  0  0  0
  151.3529  141.0339  154.7937 H   0  0  0  0  0  0  0  0  0  0  0  0
  146.7816  134.4547  150.7054 H   0  0  0  0  0  0  0  0  0  0  0  0
  1  2  1  0  0  0  0
  1 23  1  0  0  0  0
  1 24  1  0  0  0  0
  1 25  1  0  0  0  0
  2 22  1  0  0  0  0
  2  3  2  0  0  0  0
  3  4  1  0  0  0  0
  3 26  1  0  0  0  0
  4  5  1  0  0  0  0
  4  6  2  0  0  0  0
  5 27  1  0  0  0  0
  5 28  1  0  0  0  0
  5 29  1  0  0  0  0
  6  7  1  0  0  0  0
  7  8  1  0  0  0  0
  7 22  2  0  0  0  0
  8  9  1  0  0  0  0
  8 30  1  0  0  0  0
  9 10  2  0  0  0  0
  9 11  1  0  0  0  0
 11 12  1  0  0  0  0
 11 31  1  0  0  0  0
 12 13  1  0  0  0  0
 12 14  1  0  0  0  0
 12 32  1  0  0  0  0
 13 33  1  0  0  0  0
 13 34  1  0  0  0  0
 13 35  1  0  0  0  0
 14 15  1  0  0  0  0
 14 16  1  0  0  0  0
 14 36  1  0  0  0  0
 15 37  1  0  0  0  0
 15 38  1  0  0  0  0
 15 39  1  0  0  0  0
 16 21  1  0  0  0  0
 16 17  1  0  0  0  0
 17 18  1  0  0  0  0
 17 40  1  0  0  0  0
 17 41  1  0  0  0  0
 18 19  1  0  0  0  0
 18 42  1  0  0  0  0
 18 43  1  0  0  0  0
 19 20  1  0  0  0  0
 20 21  1  0  0  0  0
 20 44  1  0  0  0  0
 20 45  1  0  0  0  0
 21 46  1  0  0  0  0
 21 47  1  0  0  0  0
 22 48  1  0  0  0  0
M  END
> <s_m_source_file>
AV-unprocessed.smi

> <i_m_source_file_index>
2355

> <i_lp_mmshare_version>
43012

> <i_f3d_flags>
0

> <s_epik_input>
W0NIM11jMVtjSF1jKFtDSDNdKW5jKFtjSF0xKVtOSF1DKD1PKVtOSF1bQ0BIXShbQ0gzXSlbQ0BIXShbQ0gzXSlOMltDSDJdW0NIMl1PW0NIMl1bQ0gyXTI=

> <s_epik_cmdline>
J2VwaWtfcHl0aG9uJywgJy1waCcsICc3LjAnLCAnLXRuJywgJzgnLCAnLW1hJywgJzIwMCcsICctbWV0YWxfYmluZGluZycsICctaW1hZScsICc8aW5maWxlLm1hZT4nLCAnLW9tYWUnLCAnPG91dGZpbGUubWFlPic=

> <r_epik_Ionization_Penalty>
0.266238

> <r_epik_Ionization_Penalty_Charging>
0

> <r_epik_Ionization_Penalty_Neutral>
0.266238

> <r_epik_State_Penalty>
0.257924

> <r_epik_Charging_Adjusted_Penalty>
0.257924

> <i_epik_Tot_Q>
0

> <i_epik_Tot_abs_Q>
0

> <r_epik_Metal_State_Penalty>
0.257904

> <b_epik_Metal_Only>
0

> <s_lp_Force_Field>
OPLS_2005

> <r_lp_Energy>
36.7742

> <b_lp_Chiralities_Consistent>
1

> <s_lp_Variant>
AV-unprocessed.smi:2355-1

> <Gold.Version>
5.8.1

> <Gold.Id.Protein>
6NUR|6NUR_protein|mol2

> <Gold.PLP.Fitness>
40.3067

> <Gold.PLP.PLP>
-35.5149

> <Gold.PLP.part.hbond>
-2.0000

> <Gold.PLP.part.metal>
0.0000

> <Gold.PLP.part.buried>
-6.0743

> <Gold.PLP.part.nonpolar>
-28.6635

> <Gold.PLP.part.repulsive>
0.4734

> <Gold.PLP.ligand.clash>
0.0000

> <Gold.PLP.ligand.torsion>
0.5304

> <Gold.PLP.Chemscore.Hbond>
1.9120

> <Gold.PLP.Chemscore.CHOScore>
0.0000

> <Gold.PLP.Chemscore.Metal>
0.0000

> <Gold.Chemscore.Hbonds>
donor molecule, donor type, donor heavy atom, donor atom, acceptor molecule, acceptor atom, score
      L1  H     8    30       P1  7948  1.00
      L1  H    11    31       P1  7948  0.91

> <Gold.PLP.Chemscore.Internal.Correction>
0.1166

> <Gold.Rescore>
     Score         DG    S(hbond)    S(metal)    S(lipo)     H(rot)  DE(clash)    DE(int)     intcor
     16.76     -18.51       1.96        0.00      85.96       1.40       0.01       1.74       ----

> <Gold.Chemscore.Fitness>
16.7570

> <Gold.Chemscore.DG>
-18.5054

> <Gold.Chemscore.ZeroCoef>
-5.4800

> <Gold.Chemscore.Hbond>
1.9627

> <Gold.Chemscore.Metal>
0.0000

> <Gold.Chemscore.Lipo>
85.9635

> <Gold.Chemscore.Internal_Hbond>
0.0000

> <Gold.Chemscore.DEClash>
0.0102

> <Gold.Chemscore.DEInternal>
1.7381

> <Gold.Chemscore.Rot>
1.4015

> <Gold.Chemscore.Internal.Correction>
   9.000000E+99

> <Gold.Chemscore.Hbonds>
donor molecule, donor type, donor heavy atom, donor atom, acceptor molecule, acceptor atom, score
      L1  H     8    30       P1  7948  0.99
      L1  H    11    31       P1  7948  0.87

> <Gold.Chemscore.Hbond.Weighted>
-6.5554

> <Gold.Chemscore.Metal.Weighted>
-0.0000

> <Gold.Chemscore.Lipo.Weighted>
-10.0577

> <Gold.Chemscore.Internal_Hbond.Weighted>
0.0000

> <Gold.Chemscore.DEClash.Weighted>
0.0102

> <Gold.Chemscore.DEInternal.Weighted>
1.7381

> <Gold.Chemscore.Rot.Weighted>
3.5878

> <Gold.Chemscore.Internal.Correction.Weighted>
   9.000000E+99

> <Gold.Protein.RotatedTorsions>
[ 6907 6896 6895 6894 ] final  -57.08 input  -60.11 | X-H torsion
[ 7974 7965 7964 7962 ] final  -99.18 input  175.53 | X-H torsion
[ 8008 7997 7996 7995 ] final -110.56 input   59.86 | X-H torsion
[ 10167 10162 10161 10158 ] final  -51.68 input  -65.29 | X-H torsion
[ 10718 10713 10712 10709 ] final   97.06 input   66.30 | X-H torsion
[ 10763 10752 10751 10750 ] final  120.73 input  -60.55 | X-H torsion
[ 11005 11000 10999 10996 ] final   66.49 input  -57.11 | X-H torsion

> <Gold.Protein.ActiveResidues>
 VAL166  LYS551  ARG553  GLY616  TRP617  ASP618  TYR619  PRO620  LYS621  CYS622 
 ASP623  PHE694  ASN695  SER759  ASP760  ASP761  ALA762  ILE779  LEU786  VAL792 
 PHE793  MET794  SER795  GLU796  ALA797  LYS798  CYS799  TRP800  GLU811  SER814 

> <Gold.Protein.RotatedAtoms>
  150.8115  134.7273  159.6691 H   0  0  0  0  0  0  0  0  0  0  0  0  # atno 6907 bound_to 6896
  152.4235  134.5908  159.9983 H   0  0  0  0  0  0  0  0  0  0  0  0  # atno 6908 bound_to 6896
  151.6117  133.3309  159.3105 H   0  0  0  0  0  0  0  0  0  0  0  0  # atno 6909 bound_to 6896
  145.3109  140.9400  143.2770 H   0  0  0  0  0  0  0  0  0  0  0  0  # atno 7974 bound_to 7965
  154.9764  140.0397  157.2258 H   0  0  0  0  0  0  0  0  0  0  0  0  # atno 8008 bound_to 7997
  154.7754  140.2809  155.6082 H   0  0  0  0  0  0  0  0  0  0  0  0  # atno 8009 bound_to 7997
  156.2928  140.2602  156.2567 H   0  0  0  0  0  0  0  0  0  0  0  0  # atno 8010 bound_to 7997
  140.6576  143.2611  151.4539 H   0  0  0  0  0  0  0  0  0  0  0  0  # atno 10167 bound_to 10162
  157.6918  131.0598  150.4587 H   0  0  0  0  0  0  0  0  0  0  0  0  # atno 10718 bound_to 10713
  153.6031  135.3444  155.2952 H   0  0  0  0  0  0  0  0  0  0  0  0  # atno 10763 bound_to 10752
  154.8632  135.4232  154.2391 H   0  0  0  0  0  0  0  0  0  0  0  0  # atno 10764 bound_to 10752
  153.3224  135.7039  153.7090 H   0  0  0  0  0  0  0  0  0  0  0  0  # atno 10765 bound_to 10752
  139.9828  134.6716  156.0230 H   0  0  0  0  0  0  0  0  0  0  0  0  # atno 11005 bound_to 11000
  144.9016  139.4642  143.6630 LP  0  0  0  0  0  0  0  0  0  0  0  0  # atno 17320 bound_to 7965
  146.3118  139.7774  142.9014 LP  0  0  0  0  0  0  0  0  0  0  0  0  # atno 17321 bound_to 7965
  139.5802  144.1727  152.1958 LP  0  0  0  0  0  0  0  0  0  0  0  0  # atno 17342 bound_to 10162
  140.1050  144.5507  150.6963 LP  0  0  0  0  0  0  0  0  0  0  0  0  # atno 17343 bound_to 10162
  156.4932  130.4100  149.6394 LP  0  0  0  0  0  0  0  0  0  0  0  0  # atno 17370 bound_to 10713
  156.3397  130.7375  151.2318 LP  0  0  0  0  0  0  0  0  0  0  0  0  # atno 17371 bound_to 10713
  141.1498  133.6550  156.3978 LP  0  0  0  0  0  0  0  0  0  0  0  0  # atno 17394 bound_to 11000
  140.5061  134.6439  157.5267 LP  0  0  0  0  0  0  0  0  0  0  0  0  # atno 17395 bound_to 11000

$$$$
