AV-unprocessed.smi:3031|AV-procd|sdf|11555|dock9
  -GOLD-   2272016523D 1   1.00000     0.00000
 Structure written by MMmdl.
 46 47  0  0  0  0  0  0  0  0  1 V2000
  151.4196  142.0025  158.2941 C   0  0  0  0  0  0  0  0  0  0  0  0
  151.0751  141.2985  157.0134 C   0  0  0  0  0  0  0  0  0  0  0  0
  151.9032  140.4331  156.2437 C   0  0  0  0  0  0  0  0  0  0  0  0
  151.2988  139.9715  155.1617 N   0  0  0  0  0  0  0  0  0  0  0  0
  150.0636  140.5159  155.2047 N   0  0  0  0  0  0  0  0  0  0  0  0
  149.1036  140.2179  154.1529 C   0  0  0  0  0  0  0  0  0  0  0  0
  148.6457  138.7370  154.1253 C   0  0  2  0  0  0  0  0  0  0  0  0
  149.7659  137.7725  154.5457 C   0  0  0  0  0  0  0  0  0  0  0  0
  148.1178  138.3271  152.8195 N   0  0  0  0  0  0  0  0  0  0  0  0
  146.7832  138.8264  152.4884 C   0  0  0  0  0  0  0  0  0  0  0  0
  145.9292  137.7284  151.8348 C   0  0  1  0  0  0  0  0  0  0  0  0
  146.4137  137.5464  150.5203 O   0  0  0  0  0  0  0  0  0  0  0  0
  146.0511  136.3804  152.5800 C   0  0  0  0  0  0  0  0  0  0  0  0
  145.8636  135.1840  151.7578 N   0  0  0  0  0  0  0  0  0  0  0  0
  144.5246  135.1053  151.1756 C   0  0  0  0  0  0  0  0  0  0  0  0
  144.3341  133.8258  150.3423 C   0  0  0  0  0  0  0  0  0  0  0  0
  144.6073  132.6830  151.1466 O   0  0  0  0  0  0  0  0  0  0  0  0
  145.9208  132.7006  151.6954 C   0  0  0  0  0  0  0  0  0  0  0  0
  146.1091  133.9746  152.5366 C   0  0  0  0  0  0  0  0  0  0  0  0
  149.9053  141.3280  156.3081 C   0  0  0  0  0  0  0  0  0  0  0  0
  151.5210  141.3010  159.1222 H   0  0  0  0  0  0  0  0  0  0  0  0
  150.6562  142.7271  158.5782 H   0  0  0  0  0  0  0  0  0  0  0  0
  152.3620  142.5445  158.2139 H   0  0  0  0  0  0  0  0  0  0  0  0
  152.9214  140.1295  156.4378 H   0  0  0  0  0  0  0  0  0  0  0  0
  148.2355  140.8605  154.3037 H   0  0  0  0  0  0  0  0  0  0  0  0
  149.5233  140.5232  153.1943 H   0  0  0  0  0  0  0  0  0  0  0  0
  147.8500  138.6326  154.8640 H   0  0  0  0  0  0  0  0  0  0  0  0
  150.1792  138.0503  155.5157 H   0  0  0  0  0  0  0  0  0  0  0  0
  150.5838  137.7619  153.8245 H   0  0  0  0  0  0  0  0  0  0  0  0
  149.3907  136.7522  154.6310 H   0  0  0  0  0  0  0  0  0  0  0  0
  148.1283  137.3146  152.7489 H   0  0  0  0  0  0  0  0  0  0  0  0
  146.2949  139.1726  153.4004 H   0  0  0  0  0  0  0  0  0  0  0  0
  146.8380  139.6834  151.8177 H   0  0  0  0  0  0  0  0  0  0  0  0
  144.8967  138.0707  151.7750 H   0  0  0  0  0  0  0  0  0  0  0  0
  145.7739  137.8903  149.9159 H   0  0  0  0  0  0  0  0  0  0  0  0
  147.0338  136.3444  153.0536 H   0  0  0  0  0  0  0  0  0  0  0  0
  145.3341  136.3547  153.4021 H   0  0  0  0  0  0  0  0  0  0  0  0
  143.7748  135.1331  151.9677 H   0  0  0  0  0  0  0  0  0  0  0  0
  144.3341  135.9653  150.5353 H   0  0  0  0  0  0  0  0  0  0  0  0
  143.3107  133.7638  149.9716 H   0  0  0  0  0  0  0  0  0  0  0  0
  144.9906  133.8311  149.4706 H   0  0  0  0  0  0  0  0  0  0  0  0
  146.0614  131.8133  152.3127 H   0  0  0  0  0  0  0  0  0  0  0  0
  146.6593  132.6542  150.8934 H   0  0  0  0  0  0  0  0  0  0  0  0
  147.1234  133.9921  152.9374 H   0  0  0  0  0  0  0  0  0  0  0  0
  145.4357  133.9430  153.3949 H   0  0  0  0  0  0  0  0  0  0  0  0
  148.9793  141.8498  156.5010 H   0  0  0  0  0  0  0  0  0  0  0  0
  1  2  1  0  0  0  0
  1 21  1  0  0  0  0
  1 22  1  0  0  0  0
  1 23  1  0  0  0  0
  2 20  2  0  0  0  0
  2  3  1  0  0  0  0
  3  4  2  0  0  0  0
  3 24  1  0  0  0  0
  4  5  1  0  0  0  0
  5  6  1  0  0  0  0
  5 20  1  0  0  0  0
  6  7  1  0  0  0  0
  6 25  1  0  0  0  0
  6 26  1  0  0  0  0
  7  8  1  0  0  0  0
  7  9  1  0  0  0  0
  7 27  1  0  0  0  0
  8 28  1  0  0  0  0
  8 29  1  0  0  0  0
  8 30  1  0  0  0  0
  9 10  1  0  0  0  0
  9 31  1  0  0  0  0
 10 11  1  0  0  0  0
 10 32  1  0  0  0  0
 10 33  1  0  0  0  0
 11 12  1  0  0  0  0
 11 13  1  0  0  0  0
 11 34  1  0  0  0  0
 12 35  1  0  0  0  0
 13 14  1  0  0  0  0
 13 36  1  0  0  0  0
 13 37  1  0  0  0  0
 14 19  1  0  0  0  0
 14 15  1  0  0  0  0
 15 16  1  0  0  0  0
 15 38  1  0  0  0  0
 15 39  1  0  0  0  0
 16 17  1  0  0  0  0
 16 40  1  0  0  0  0
 16 41  1  0  0  0  0
 17 18  1  0  0  0  0
 18 19  1  0  0  0  0
 18 42  1  0  0  0  0
 18 43  1  0  0  0  0
 19 44  1  0  0  0  0
 19 45  1  0  0  0  0
 20 46  1  0  0  0  0
M  END
> <s_m_source_file>
AV-unprocessed.smi

> <i_m_source_file_index>
3031

> <i_lp_mmshare_version>
43012

> <i_f3d_flags>
0

> <s_epik_input>
W0NIM11jMVtjSF1ubihbY0hdMSlbQ0gyXVtDQEhdKFtDSDNdKVtOSF1bQ0gyXVtDQEhdKFtPSF0pW0NIMl1OMltDSDJdW0NIMl1PW0NIMl1bQ0gyXTI=

> <s_epik_cmdline>
J2VwaWtfcHl0aG9uJywgJy1waCcsICc3LjAnLCAnLXRuJywgJzgnLCAnLW1hJywgJzIwMCcsICctbWV0YWxfYmluZGluZycsICctaW1hZScsICc8aW5maWxlLm1hZT4nLCAnLW9tYWUnLCAnPG91dGZpbGUubWFlPic=

> <r_lp_tautomer_probability>
1

> <r_epik_Ionization_Penalty>
2.8101

> <r_epik_Ionization_Penalty_Charging>
0

> <r_epik_Ionization_Penalty_Neutral>
2.8101

> <r_epik_State_Penalty>
2.12351

> <r_epik_Charging_Adjusted_Penalty>
2.12351

> <i_epik_Tot_Q>
0

> <i_epik_Tot_abs_Q>
0

> <r_epik_Metal_State_Penalty>
2.12345

> <b_epik_Metal_Only>
0

> <s_lp_Force_Field>
OPLS_2005

> <r_lp_Energy>
32.0321

> <b_lp_Chiralities_Consistent>
1

> <s_lp_Variant>
AV-unprocessed.smi:3031-15

> <Gold.Version>
5.8.1

> <Gold.Id.Protein>
6NUR|6NUR_protein|mol2

> <Gold.PLP.Fitness>
45.9526

> <Gold.PLP.PLP>
-36.4545

> <Gold.PLP.part.hbond>
-5.6444

> <Gold.PLP.part.metal>
0.0000

> <Gold.PLP.part.buried>
-1.6919

> <Gold.PLP.part.nonpolar>
-30.5831

> <Gold.PLP.part.repulsive>
0.3213

> <Gold.PLP.ligand.clash>
0.0000

> <Gold.PLP.ligand.torsion>
1.1920

> <Gold.PLP.Chemscore.Hbond>
3.4960

> <Gold.PLP.Chemscore.CHOScore>
0.4096

> <Gold.PLP.Chemscore.Metal>
0.0000

> <Gold.Chemscore.Hbonds>
donor molecule, donor type, donor heavy atom, donor atom, acceptor molecule, acceptor atom, score
      L1  H     9    31       P1  7948  0.67
      L1  H    12    35       P1 10171  0.88
      P1  H  7954  7966       L1    12  0.94
      P1  H  7989  7998       L1     4  0.50

> <Gold.PLP.Chemscore.Internal.Correction>
0.1653

> <Gold.Rescore>
     Score         DG    S(hbond)    S(metal)    S(lipo)     H(rot)  DE(clash)    DE(int)     intcor
     14.82     -18.21       2.75        0.00      85.75       2.53       0.64       2.76       ----

> <Gold.Chemscore.Fitness>
14.8153

> <Gold.Chemscore.DG>
-18.2117

> <Gold.Chemscore.ZeroCoef>
-5.4800

> <Gold.Chemscore.Hbond>
2.7499

> <Gold.Chemscore.Metal>
0.0000

> <Gold.Chemscore.Lipo>
85.7459

> <Gold.Chemscore.Internal_Hbond>
0.0000

> <Gold.Chemscore.DEClash>
0.6354

> <Gold.Chemscore.DEInternal>
2.7610

> <Gold.Chemscore.Rot>
2.5333

> <Gold.Chemscore.Internal.Correction>
   9.000000E+99

> <Gold.Chemscore.Hbonds>
donor molecule, donor type, donor heavy atom, donor atom, acceptor molecule, acceptor atom, score
      L1  H     9    31       P1  7948  0.67
      L1  H    12    35       P1 10171  0.82
      P1  H  7954  7966       L1    12  0.68
      P1  H  7989  7998       L1     4  0.02

> <Gold.Chemscore.Hbond.Weighted>
-9.1846

> <Gold.Chemscore.Metal.Weighted>
-0.0000

> <Gold.Chemscore.Lipo.Weighted>
-10.0323

> <Gold.Chemscore.Internal_Hbond.Weighted>
0.0000

> <Gold.Chemscore.DEClash.Weighted>
0.6354

> <Gold.Chemscore.DEInternal.Weighted>
2.7610

> <Gold.Chemscore.Rot.Weighted>
6.4852

> <Gold.Chemscore.Internal.Correction.Weighted>
   9.000000E+99

> <Gold.Protein.RotatedTorsions>
[ 6907 6896 6895 6894 ] final  128.06 input  -60.11 | X-H torsion
[ 7974 7965 7964 7962 ] final  135.04 input  175.53 | X-H torsion
[ 8008 7997 7996 7995 ] final  -77.56 input   59.86 | X-H torsion
[ 10167 10162 10161 10158 ] final  108.92 input  -65.29 | X-H torsion
[ 10718 10713 10712 10709 ] final   42.21 input   66.30 | X-H torsion
[ 10763 10752 10751 10750 ] final -106.97 input  -60.55 | X-H torsion
[ 11005 11000 10999 10996 ] final -164.11 input  -57.11 | X-H torsion

> <Gold.Protein.ActiveResidues>
 VAL166  LYS551  ARG553  GLY616  TRP617  ASP618  TYR619  PRO620  LYS621  CYS622 
 ASP623  PHE694  ASN695  SER759  ASP760  ASP761  ALA762  ILE779  LEU786  VAL792 
 PHE793  MET794  SER795  GLU796  ALA797  LYS798  CYS799  TRP800  GLU811  SER814 

> <Gold.Protein.RotatedAtoms>
  152.3755  133.6475  159.6119 H   0  0  0  0  0  0  0  0  0  0  0  0  # atno 6907 bound_to 6896
  150.7701  133.9200  159.3404 H   0  0  0  0  0  0  0  0  0  0  0  0  # atno 6908 bound_to 6896
  151.7015  135.0930  160.0303 H   0  0  0  0  0  0  0  0  0  0  0  0  # atno 6909 bound_to 6896
  144.9703  139.4613  143.5436 H   0  0  0  0  0  0  0  0  0  0  0  0  # atno 7974 bound_to 7965
  154.5608  140.0708  156.8815 H   0  0  0  0  0  0  0  0  0  0  0  0  # atno 8008 bound_to 7997
  155.2815  140.3372  155.4240 H   0  0  0  0  0  0  0  0  0  0  0  0  # atno 8009 bound_to 7997
  156.2040  140.1733  156.7824 H   0  0  0  0  0  0  0  0  0  0  0  0  # atno 8010 bound_to 7997
  139.6808  144.7118  151.1519 H   0  0  0  0  0  0  0  0  0  0  0  0  # atno 10167 bound_to 10162
  157.4023  130.7867  149.7359 H   0  0  0  0  0  0  0  0  0  0  0  0  # atno 10718 bound_to 10713
  154.8046  135.4692  154.0360 H   0  0  0  0  0  0  0  0  0  0  0  0  # atno 10763 bound_to 10752
  153.1839  135.6845  153.8448 H   0  0  0  0  0  0  0  0  0  0  0  0  # atno 10764 bound_to 10752
  153.7989  135.3232  155.3365 H   0  0  0  0  0  0  0  0  0  0  0  0  # atno 10765 bound_to 10752
  140.5906  134.5049  157.5192 H   0  0  0  0  0  0  0  0  0  0  0  0  # atno 11005 bound_to 11000
  146.3380  139.8911  142.8809 LP  0  0  0  0  0  0  0  0  0  0  0  0  # atno 17320 bound_to 7965
  145.2568  141.0063  143.3849 LP  0  0  0  0  0  0  0  0  0  0  0  0  # atno 17321 bound_to 7965
  140.7651  143.5702  150.9003 LP  0  0  0  0  0  0  0  0  0  0  0  0  # atno 17342 bound_to 10162
  139.9374  143.6422  152.3062 LP  0  0  0  0  0  0  0  0  0  0  0  0  # atno 17343 bound_to 10162
  155.9827  130.4007  150.3404 LP  0  0  0  0  0  0  0  0  0  0  0  0  # atno 17370 bound_to 10713
  157.1533  131.0326  151.2875 LP  0  0  0  0  0  0  0  0  0  0  0  0  # atno 17371 bound_to 10713
  139.9276  134.8026  156.1023 LP  0  0  0  0  0  0  0  0  0  0  0  0  # atno 17394 bound_to 11000
  141.0938  133.6704  156.2598 LP  0  0  0  0  0  0  0  0  0  0  0  0  # atno 17395 bound_to 11000

$$$$
