#       Name:                AV-unprocessed.smi:1752
#       Creating user name   scv26
#       Creation time:       Fri Mar 27 08:27:49 2020


#       File generated by GOLD software.
#

@<TRIPOS>MOLECULE
AV-unprocessed.smi:1752
    46    47     1
SMALL
NO_CHARGES


@<TRIPOS>ATOM
      1 ****        -3.0776  -1.6682   0.7894 C.3            1 S1                 0.0000
      2 ****        -2.3903  -0.9943  -0.4055 C.3            1 S1                 0.0000
      3 ****        -2.6627  -1.7628  -1.7162 C.3            1 S1                 0.0000
      4 ****        -2.1888  -1.0571  -2.8936 N.pl3          1 S1                 0.0000
      5 ****        -1.1087  -1.3569  -3.6970 C.2            1 S1                 0.0000
      6 ****        -1.0561  -0.4081  -4.6774 C.2            1 S1                 0.0000
      7 ****        -2.1638   0.4375  -4.3890 C.2            1 S1                 0.0000
      8 ****        -2.8418   0.0442  -3.3229 N.2            1 S1                 0.0000
      9 ****        -0.9554  -0.9129  -0.1372 N.am           1 S1                 0.0000
     10 ****        -0.1579   0.1360  -0.4059 C.2            1 S1                 0.0000
     11 ****        -0.5716   1.1614  -0.9481 O.2            1 S1                 0.0000
     12 ****         1.1381  -0.0286  -0.0383 N.am           1 S1                 0.0000
     13 ****         1.6707  -1.1484   0.7558 C.3            1 S1                 0.0000
     14 ****         1.5997  -0.8258   2.2584 C.3            1 S1                 0.0000
     15 ****         2.3378   0.4693   2.6580 C.3            1 S1                 0.0000
     16 ****         1.6311   1.6833   2.1676 N.4            1 S1                 1.0000
     17 ****         1.6545   2.7902   3.1496 C.3            1 S1                 0.0000
     18 ****         2.0516   2.1453   0.8146 C.3            1 S1                 0.0000
     19 ****         2.1233   1.0370  -0.2616 C.3            1 S1                 0.0000
     20 ****        -4.1576  -1.7123   0.6453 H              1 S1                 0.0000
     21 ****        -2.8924  -1.1169   1.7119 H              1 S1                 0.0000
     22 ****        -2.7190  -2.6884   0.9314 H              1 S1                 0.0000
     23 ****        -2.8100   0.0099  -0.4899 H              1 S1                 0.0000
     24 ****        -2.1968  -2.7489  -1.6866 H              1 S1                 0.0000
     25 ****        -3.7340  -1.9304  -1.8366 H              1 S1                 0.0000
     26 ****        -0.4726  -2.2080  -3.5038 H              1 S1                 0.0000
     27 ****        -0.3373  -0.3300  -5.4793 H              1 S1                 0.0000
     28 ****        -2.4942   1.3182  -4.9197 H              1 S1                 0.0000
     29 ****        -0.5336  -1.7217   0.2956 H              1 S1                 0.0000
     30 ****         1.1488  -2.0835   0.5497 H              1 S1                 0.0000
     31 ****         2.7046  -1.3549   0.4773 H              1 S1                 0.0000
     32 ****         0.5580  -0.7668   2.5768 H              1 S1                 0.0000
     33 ****         2.0324  -1.6611   2.8097 H              1 S1                 0.0000
     34 ****         2.3795   0.4924   3.7479 H              1 S1                 0.0000
     35 ****         3.3751   0.4606   2.3201 H              1 S1                 0.0000
     36 ****         2.6762   3.1203   3.3424 H              1 S1                 0.0000
     37 ****         1.2094   2.4789   4.0953 H              1 S1                 0.0000
     38 ****         1.0822   3.6433   2.7835 H              1 S1                 0.0000
     39 ****         1.3347   2.9009   0.4903 H              1 S1                 0.0000
     40 ****         3.0178   2.6481   0.8780 H              1 S1                 0.0000
     41 ****         3.1315   0.6218  -0.2687 H              1 S1                 0.0000
     42 ****         2.0033   1.4725  -1.2551 H              1 S1                 0.0000
     43 ****         0.6602   1.4166   2.0851 H              1 S1                 0.0000
     44 ****        -3.6554   0.4676  -2.9245 LP             1 S1                 0.0000
     45 ****        -1.5347   1.2367  -1.2064 LP             1 S1                 0.0000
     46 ****         0.0556   1.9187  -1.1301 LP             1 S1                 0.0000
@<TRIPOS>BOND
    1    1    2 1     
    2    1   20 1     
    3    1   21 1     
    4    1   22 1     
    5    2    3 1     
    6    2    9 1     
    7    2   23 1     
    8    3    4 1     
    9    3   24 1     
   10    3   25 1     
   11    4    8 1     
   12    4    5 1     
   13    5    6 2     
   14    5   26 1     
   15    6    7 1     
   16    6   27 1     
   17    7    8 2     
   18    7   28 1     
   19    9   10 am    
   20    9   29 1     
   21   10   11 2     
   22   10   12 am    
   23   12   19 1     
   24   12   13 1     
   25   13   14 1     
   26   13   30 1     
   27   13   31 1     
   28   14   15 1     
   29   14   32 1     
   30   14   33 1     
   31   15   16 1     
   32   15   34 1     
   33   15   35 1     
   34   16   17 1     
   35   16   18 1     
   36   16   43 1     
   37   17   36 1     
   38   17   37 1     
   39   17   38 1     
   40   18   19 1     
   41   18   39 1     
   42   18   40 1     
   43   19   41 1     
   44   19   42 1     
   45    8   44 1     
   46   11   45 1     
   47   11   46 1     
@<TRIPOS>SUBSTRUCTURE
      1 S1             1
@<TRIPOS>SET
LONE_PAIRS      STATIC     ATOMS    <user>   **** ""
3 44 45 46
DONOR_HYDROGENS      STATIC     ATOMS    <user>   **** ""
2 29 43
ATOM$BLUE        STATIC     ATOMS    COLORGROUP SYSTEM
3 44 45 46
ATOM$RED        STATIC     ATOMS    COLORGROUP SYSTEM
2 29 43
