AV-unprocessed.smi:223|AV-procd|sdf|1705|dock2
  -GOLD-   2262020163D 1   1.00000     0.00000
 Structure written by MMmdl.
 47 50  0  0  0  0  0  0  0  0  1 V2000
  152.3578  144.2795  156.8867 C   0  0  0  0  0  0  0  0  0  0  0  0
  152.0385  144.0075  158.3612 C   0  0  2  0  0  0  0  0  0  0  0  0
  152.1956  145.2309  159.1642 C   0  0  0  0  0  0  0  0  0  0  0  0
  152.3199  146.1927  159.7951 N   0  0  0  0  0  0  0  0  0  0  0  0
  152.9053  142.8615  158.9164 C   0  0  0  0  0  0  0  0  0  0  0  0
  152.2504  141.5574  158.8199 N   0  0  0  0  0  0  0  0  0  0  0  0
  151.7938  141.1043  157.6138 C   0  0  0  0  0  0  0  0  0  0  0  0
  152.4976  140.1056  157.0163 N   0  0  0  0  0  0  0  0  0  0  0  0
  152.1174  139.5973  155.8424 C   0  0  0  0  0  0  0  0  0  0  0  0
  151.0705  139.9334  155.0916 N   0  0  0  0  0  0  0  0  0  0  0  0
  150.3506  140.9345  155.6711 C   0  0  0  0  0  0  0  0  0  0  0  0
  150.6376  141.5779  156.9126 C   0  0  0  0  0  0  0  0  0  0  0  0
  149.6803  142.5631  157.1419 N   0  0  0  0  0  0  0  0  0  0  0  0
  148.8779  142.4950  156.1168 C   0  0  0  0  0  0  0  0  0  0  0  0
  149.2000  141.5342  155.1885 N   0  0  0  0  0  0  0  0  0  0  0  0
  148.4841  141.2365  153.9566 C   0  0  0  0  0  0  0  0  0  0  0  0
  146.9570  141.0754  154.1483 C   0  0  2  0  0  0  0  0  0  0  0  0
  146.3865  140.5921  152.9447 O   0  0  0  0  0  0  0  0  0  0  0  0
  146.2646  142.3818  154.5146 C   0  0  0  0  0  0  0  0  0  0  0  0
  145.0578  141.9090  155.3136 C   0  0  0  0  0  0  0  0  0  0  0  0
  145.5833  140.8380  156.0796 O   0  0  0  0  0  0  0  0  0  0  0  0
  146.5419  140.1320  155.2964 C   0  0  0  0  0  0  0  0  0  0  0  0
  152.6905  140.5374  159.7722 C   0  0  0  0  0  0  0  0  0  0  0  0
  153.4002  140.9542  161.0458 C   0  0  0  0  0  0  0  0  0  0  0  0
  154.1740  140.2822  159.9431 C   0  0  0  0  0  0  0  0  0  0  0  0
  151.7258  145.0745  156.4904 H   0  0  0  0  0  0  0  0  0  0  0  0
  152.1905  143.3897  156.2794 H   0  0  0  0  0  0  0  0  0  0  0  0
  153.3969  144.5837  156.7577 H   0  0  0  0  0  0  0  0  0  0  0  0
  150.9839  143.7454  158.4320 H   0  0  0  0  0  0  0  0  0  0  0  0
  153.8761  142.8247  158.4241 H   0  0  0  0  0  0  0  0  0  0  0  0
  153.1315  143.0752  159.9614 H   0  0  0  0  0  0  0  0  0  0  0  0
  152.7400  138.8067  155.4505 H   0  0  0  0  0  0  0  0  0  0  0  0
  148.0240  143.1483  156.0117 H   0  0  0  0  0  0  0  0  0  0  0  0
  148.6890  142.0378  153.2455 H   0  0  0  0  0  0  0  0  0  0  0  0
  148.9078  140.3294  153.5234 H   0  0  0  0  0  0  0  0  0  0  0  0
  145.5836  141.0632  152.7828 H   0  0  0  0  0  0  0  0  0  0  0  0
  146.9055  142.9826  155.1616 H   0  0  0  0  0  0  0  0  0  0  0  0
  145.9961  142.9942  153.6527 H   0  0  0  0  0  0  0  0  0  0  0  0
  144.6374  142.6897  155.9476 H   0  0  0  0  0  0  0  0  0  0  0  0
  144.2718  141.5378  154.6542 H   0  0  0  0  0  0  0  0  0  0  0  0
  146.1178  139.1950  154.9316 H   0  0  0  0  0  0  0  0  0  0  0  0
  147.3794  139.8793  155.9459 H   0  0  0  0  0  0  0  0  0  0  0  0
  152.0465  139.6634  159.8513 H   0  0  0  0  0  0  0  0  0  0  0  0
  153.5868  142.0143  161.2065 H   0  0  0  0  0  0  0  0  0  0  0  0
  153.1963  140.3760  161.9445 H   0  0  0  0  0  0  0  0  0  0  0  0
  154.4899  139.2538  160.1051 H   0  0  0  0  0  0  0  0  0  0  0  0
  154.8712  140.9002  159.3804 H   0  0  0  0  0  0  0  0  0  0  0  0
  1  2  1  0  0  0  0
  1 26  1  0  0  0  0
  1 27  1  0  0  0  0
  1 28  1  0  0  0  0
  2  3  1  0  0  0  0
  2  5  1  0  0  0  0
  2 29  1  0  0  0  0
  3  4  3  0  0  0  0
  5  6  1  0  0  0  0
  5 30  1  0  0  0  0
  5 31  1  0  0  0  0
  6  7  1  0  0  0  0
  6 23  1  0  0  0  0
  7 12  1  0  0  0  0
  7  8  2  0  0  0  0
  8  9  1  0  0  0  0
  9 10  2  0  0  0  0
  9 32  1  0  0  0  0
 10 11  1  0  0  0  0
 11 15  1  0  0  0  0
 11 12  2  0  0  0  0
 12 13  1  0  0  0  0
 13 14  2  0  0  0  0
 14 15  1  0  0  0  0
 14 33  1  0  0  0  0
 15 16  1  0  0  0  0
 16 17  1  0  0  0  0
 16 34  1  0  0  0  0
 16 35  1  0  0  0  0
 17 22  1  0  0  0  0
 17 18  1  0  0  0  0
 17 19  1  0  0  0  0
 18 36  1  0  0  0  0
 19 20  1  0  0  0  0
 19 37  1  0  0  0  0
 19 38  1  0  0  0  0
 20 21  1  0  0  0  0
 20 39  1  0  0  0  0
 20 40  1  0  0  0  0
 21 22  1  0  0  0  0
 22 41  1  0  0  0  0
 22 42  1  0  0  0  0
 23 25  1  0  0  0  0
 23 24  1  0  0  0  0
 23 43  1  0  0  0  0
 24 25  1  0  0  0  0
 24 44  1  0  0  0  0
 24 45  1  0  0  0  0
 25 46  1  0  0  0  0
 25 47  1  0  0  0  0
M  END
> <s_m_source_file>
AV-unprocessed.smi

> <i_m_source_file_index>
223

> <i_lp_mmshare_version>
43012

> <i_f3d_flags>
0

> <s_epik_input>
TiNDW0NAQEhdKFtDSDNdKVtDSDJdTihbQ0hdMVtDSDJdW0NIMl0xKWMobltjSF1uMiljKGMyMyluW2NIXW4zW0NIMl1bQ0BAXTQoW09IXSlbQ0gyXVtDSDJdT1tDSDJdNA==

> <s_epik_cmdline>
J2VwaWtfcHl0aG9uJywgJy1waCcsICc3LjAnLCAnLXRuJywgJzgnLCAnLW1hJywgJzIwMCcsICctbWV0YWxfYmluZGluZycsICctaW1hZScsICc8aW5maWxlLm1hZT4nLCAnLW9tYWUnLCAnPG91dGZpbGUubWFlPic=

> <r_lp_tautomer_probability>
1

> <r_epik_Ionization_Penalty>
0.000756152

> <r_epik_Ionization_Penalty_Charging>
0

> <r_epik_Ionization_Penalty_Neutral>
0.000756152

> <r_epik_State_Penalty>
0.00038036

> <r_epik_Charging_Adjusted_Penalty>
0.00038036

> <i_epik_Tot_Q>
0

> <i_epik_Tot_abs_Q>
0

> <r_epik_Metal_State_Penalty>
-0

> <b_epik_Metal_Only>
0

> <s_lp_Force_Field>
OPLS_2005

> <r_lp_Energy>
38.8251

> <b_lp_Chiralities_Consistent>
1

> <s_lp_Variant>
AV-unprocessed.smi:223-3

> <Gold.Version>
5.8.1

> <Gold.Id.Protein>
6NUR|6NUR_protein|mol2

> <Gold.PLP.Fitness>
51.0179

> <Gold.PLP.PLP>
-44.4090

> <Gold.PLP.part.hbond>
-4.1896

> <Gold.PLP.part.metal>
0.0000

> <Gold.PLP.part.buried>
-1.4429

> <Gold.PLP.part.nonpolar>
-39.1351

> <Gold.PLP.part.repulsive>
1.2997

> <Gold.PLP.ligand.clash>
0.0000

> <Gold.PLP.ligand.torsion>
2.2432

> <Gold.PLP.Chemscore.Hbond>
2.9920

> <Gold.PLP.Chemscore.CHOScore>
0.2495

> <Gold.PLP.Chemscore.Metal>
0.0000

> <Gold.Chemscore.Hbonds>
donor molecule, donor type, donor heavy atom, donor atom, acceptor molecule, acceptor atom, score
      L1  H    18    36       P1 10175  0.55
      P1  H  7989  7998       L1    10  0.95
      P1  H  7997  8010       L1     8  0.90
      L1  C    14    33       P1  8028  0.18

> <Gold.PLP.Chemscore.Internal.Correction>
1.3709

> <Gold.Rescore>
     Score         DG    S(hbond)    S(metal)    S(lipo)     H(rot)  DE(clash)    DE(int)     intcor
      9.64     -13.93       1.57        0.00      86.85       2.72       2.01       2.28       ----

> <Gold.Chemscore.Fitness>
9.6415

> <Gold.Chemscore.DG>
-13.9343

> <Gold.Chemscore.ZeroCoef>
-5.4800

> <Gold.Chemscore.Hbond>
1.5713

> <Gold.Chemscore.Metal>
0.0000

> <Gold.Chemscore.Lipo>
86.8550

> <Gold.Chemscore.Internal_Hbond>
0.0000

> <Gold.Chemscore.DEClash>
2.0110

> <Gold.Chemscore.DEInternal>
2.2819

> <Gold.Chemscore.Rot>
2.7171

> <Gold.Chemscore.Internal.Correction>
   9.000000E+99

> <Gold.Chemscore.Hbonds>
donor molecule, donor type, donor heavy atom, donor atom, acceptor molecule, acceptor atom, score
      L1  H    18    36       P1 10175  0.08
      P1  H  7989  7998       L1    10  0.17
      P1  H  7997  8010       L1     8  0.17

> <Gold.Chemscore.Hbond.Weighted>
-5.2481

> <Gold.Chemscore.Metal.Weighted>
-0.0000

> <Gold.Chemscore.Lipo.Weighted>
-10.1620

> <Gold.Chemscore.Internal_Hbond.Weighted>
0.0000

> <Gold.Chemscore.DEClash.Weighted>
2.0110

> <Gold.Chemscore.DEInternal.Weighted>
2.2819

> <Gold.Chemscore.Rot.Weighted>
6.9558

> <Gold.Chemscore.Internal.Correction.Weighted>
   9.000000E+99

> <Gold.Protein.RotatedTorsions>
[ 6907 6896 6895 6894 ] final -123.10 input  -60.11 | X-H torsion
[ 7974 7965 7964 7962 ] final  -84.61 input  175.53 | X-H torsion
[ 8008 7997 7996 7995 ] final   55.12 input   59.86 | X-H torsion
[ 10167 10162 10161 10158 ] final   87.26 input  -65.29 | X-H torsion
[ 10718 10713 10712 10709 ] final  -77.20 input   66.30 | X-H torsion
[ 10763 10752 10751 10750 ] final  124.61 input  -60.55 | X-H torsion
[ 11005 11000 10999 10996 ] final  115.92 input  -57.11 | X-H torsion

> <Gold.Protein.ActiveResidues>
 VAL166  LYS551  ARG553  GLY616  TRP617  ASP618  TYR619  PRO620  LYS621  CYS622 
 ASP623  PHE694  ASN695  SER759  ASP760  ASP761  ALA762  ILE779  LEU786  VAL792 
 PHE793  MET794  SER795  GLU796  ALA797  LYS798  CYS799  TRP800  GLU811  SER814 

> <Gold.Protein.RotatedAtoms>
  150.8638  133.7604  159.2983 H   0  0  0  0  0  0  0  0  0  0  0  0  # atno 6907 bound_to 6896
  151.5238  135.1066  159.9895 H   0  0  0  0  0  0  0  0  0  0  0  0  # atno 6908 bound_to 6896
  152.4646  133.7851  159.6927 H   0  0  0  0  0  0  0  0  0  0  0  0  # atno 6909 bound_to 6896
  145.5043  140.9545  143.1742 H   0  0  0  0  0  0  0  0  0  0  0  0  # atno 7974 bound_to 7965
  155.4959  140.3473  155.4363 H   0  0  0  0  0  0  0  0  0  0  0  0  # atno 8008 bound_to 7997
  156.0946  140.1419  156.9576 H   0  0  0  0  0  0  0  0  0  0  0  0  # atno 8009 bound_to 7997
  154.4655  140.0919  156.6987 H   0  0  0  0  0  0  0  0  0  0  0  0  # atno 8010 bound_to 7997
  139.8791  144.6450  150.8863 H   0  0  0  0  0  0  0  0  0  0  0  0  # atno 10167 bound_to 10162
  156.0152  130.4485  150.3309 H   0  0  0  0  0  0  0  0  0  0  0  0  # atno 10718 bound_to 10713
  153.6641  135.3341  155.3135 H   0  0  0  0  0  0  0  0  0  0  0  0  # atno 10763 bound_to 10752
  154.8507  135.4370  154.1773 H   0  0  0  0  0  0  0  0  0  0  0  0  # atno 10764 bound_to 10752
  153.2748  135.7003  153.7520 H   0  0  0  0  0  0  0  0  0  0  0  0  # atno 10765 bound_to 10752
  139.9025  134.9591  156.7119 H   0  0  0  0  0  0  0  0  0  0  0  0  # atno 11005 bound_to 11000
  144.7762  139.6624  143.7173 LP  0  0  0  0  0  0  0  0  0  0  0  0  # atno 17320 bound_to 7965
  146.2206  139.5629  142.9621 LP  0  0  0  0  0  0  0  0  0  0  0  0  # atno 17321 bound_to 7965
  140.7747  143.3600  151.1846 LP  0  0  0  0  0  0  0  0  0  0  0  0  # atno 17342 bound_to 10162
  139.7212  143.9220  152.2986 LP  0  0  0  0  0  0  0  0  0  0  0  0  # atno 17343 bound_to 10162
  157.1407  131.0295  151.2929 LP  0  0  0  0  0  0  0  0  0  0  0  0  # atno 17370 bound_to 10713
  157.4474  130.7579  149.7122 LP  0  0  0  0  0  0  0  0  0  0  0  0  # atno 17371 bound_to 10713
  140.7068  133.9258  155.8059 LP  0  0  0  0  0  0  0  0  0  0  0  0  # atno 17394 bound_to 11000
  141.0330  134.0729  157.3992 LP  0  0  0  0  0  0  0  0  0  0  0  0  # atno 17395 bound_to 11000

$$$$
