AV-unprocessed.smi:2466|AV-procd|sdf|9724|dock1
  -GOLD-   2272013363D 1   1.00000     0.00000
 Structure written by MMmdl.
 36 37  0  0  0  0  0  0  0  0  1 V2000
  150.8184  141.5147  156.1045 C   0  0  0  0  0  0  0  0  0  0  0  0
  150.5593  140.4891  155.1524 O   0  0  0  0  0  0  0  0  0  0  0  0
  149.2679  140.3396  154.6909 C   0  0  0  0  0  0  0  0  0  0  0  0
  148.9242  139.1818  153.9636 C   0  0  0  0  0  0  0  0  0  0  0  0
  147.5904  139.0659  153.5119 C   0  0  0  0  0  0  0  0  0  0  0  0
  147.2854  137.8825  152.7888 N   0  0  0  0  0  0  0  0  0  0  0  0
  146.0792  137.3273  152.5775 C   0  0  0  0  0  0  0  0  0  0  0  0
  145.0069  137.7842  152.9742 O   0  0  0  0  0  0  0  0  0  0  0  0
  146.1857  136.1950  151.8663 N   0  0  0  0  0  0  0  0  0  0  0  0
  145.0771  135.3298  151.4687 C   0  0  0  0  0  0  0  0  0  0  0  0
  145.4379  133.8383  151.5562 C   0  0  0  0  0  0  0  0  0  0  0  0
  145.8209  133.5135  153.0080 C   0  0  0  0  0  0  0  0  0  0  0  0
  144.4367  132.8597  150.9051 C   0  0  0  0  0  0  0  0  0  0  0  0
  145.6105  132.0620  150.3401 C   0  0  0  0  0  0  0  0  0  0  0  0
  146.4417  133.3344  150.4966 C   0  0  0  0  0  0  0  0  0  0  0  0
  146.6972  140.0500  153.7811 N   0  0  0  0  0  0  0  0  0  0  0  0
  147.1217  141.1069  154.4763 C   0  0  0  0  0  0  0  0  0  0  0  0
  148.3537  141.3067  154.9459 N   0  0  0  0  0  0  0  0  0  0  0  0
  151.8761  141.5045  156.3675 H   0  0  0  0  0  0  0  0  0  0  0  0
  150.2483  141.3600  157.0217 H   0  0  0  0  0  0  0  0  0  0  0  0
  150.5870  142.5017  155.7012 H   0  0  0  0  0  0  0  0  0  0  0  0
  149.6588  138.4148  153.7651 H   0  0  0  0  0  0  0  0  0  0  0  0
  148.0783  137.3961  152.3977 H   0  0  0  0  0  0  0  0  0  0  0  0
  147.1083  135.9022  151.5794 H   0  0  0  0  0  0  0  0  0  0  0  0
  144.2468  135.5548  152.1387 H   0  0  0  0  0  0  0  0  0  0  0  0
  144.7163  135.5812  150.4698 H   0  0  0  0  0  0  0  0  0  0  0  0
  146.2207  132.5040  153.1047 H   0  0  0  0  0  0  0  0  0  0  0  0
  144.9629  133.5769  153.6774 H   0  0  0  0  0  0  0  0  0  0  0  0
  146.5837  134.1959  153.3842 H   0  0  0  0  0  0  0  0  0  0  0  0
  143.8113  132.3092  151.6087 H   0  0  0  0  0  0  0  0  0  0  0  0
  143.8344  133.3227  150.1211 H   0  0  0  0  0  0  0  0  0  0  0  0
  145.9351  131.2549  150.9985 H   0  0  0  0  0  0  0  0  0  0  0  0
  145.4811  131.7228  149.3120 H   0  0  0  0  0  0  0  0  0  0  0  0
  146.4471  133.9387  149.5876 H   0  0  0  0  0  0  0  0  0  0  0  0
  147.4549  133.1709  150.8653 H   0  0  0  0  0  0  0  0  0  0  0  0
  146.3935  141.8780  154.6800 H   0  0  0  0  0  0  0  0  0  0  0  0
  1  2  1  0  0  0  0
  1 19  1  0  0  0  0
  1 20  1  0  0  0  0
  1 21  1  0  0  0  0
  2  3  1  0  0  0  0
  3 18  1  0  0  0  0
  3  4  2  0  0  0  0
  4  5  1  0  0  0  0
  4 22  1  0  0  0  0
  5  6  1  0  0  0  0
  5 16  2  0  0  0  0
  6  7  1  0  0  0  0
  6 23  1  0  0  0  0
  7  8  2  0  0  0  0
  7  9  1  0  0  0  0
  9 10  1  0  0  0  0
  9 24  1  0  0  0  0
 10 11  1  0  0  0  0
 10 25  1  0  0  0  0
 10 26  1  0  0  0  0
 11 15  1  0  0  0  0
 11 12  1  0  0  0  0
 11 13  1  0  0  0  0
 12 27  1  0  0  0  0
 12 28  1  0  0  0  0
 12 29  1  0  0  0  0
 13 14  1  0  0  0  0
 13 30  1  0  0  0  0
 13 31  1  0  0  0  0
 14 15  1  0  0  0  0
 14 32  1  0  0  0  0
 14 33  1  0  0  0  0
 15 34  1  0  0  0  0
 15 35  1  0  0  0  0
 16 17  1  0  0  0  0
 17 18  2  0  0  0  0
 17 36  1  0  0  0  0
M  END
> <s_m_source_file>
AV-unprocessed.smi

> <i_m_source_file_index>
2466

> <i_lp_mmshare_version>
43012

> <i_f3d_flags>
0

> <s_epik_input>
W0NIM11PYzFbY0hdYyhuW2NIXW4xKVtOSF1DKD1PKVtOSF1bQ0gyXUMyKFtDSDNdKVtDSDJdW0NIMl1bQ0gyXTI=

> <s_epik_cmdline>
J2VwaWtfcHl0aG9uJywgJy1waCcsICc3LjAnLCAnLXRuJywgJzgnLCAnLW1hJywgJzIwMCcsICctbWV0YWxfYmluZGluZycsICctaW1hZScsICc8aW5maWxlLm1hZT4nLCAnLW9tYWUnLCAnPG91dGZpbGUubWFlPic=

> <r_lp_tautomer_probability>
1

> <r_epik_Ionization_Penalty>
2.72078e-05

> <r_epik_Ionization_Penalty_Charging>
0

> <r_epik_Ionization_Penalty_Neutral>
2.72078e-05

> <r_epik_State_Penalty>
-0

> <r_epik_Charging_Adjusted_Penalty>
0

> <i_epik_Tot_Q>
0

> <i_epik_Tot_abs_Q>
0

> <r_epik_Metal_State_Penalty>
-0

> <b_epik_Metal_Only>
0

> <s_lp_Force_Field>
OPLS_2005

> <r_lp_Energy>
15.1515

> <b_lp_Chiralities_Consistent>
1

> <s_lp_Variant>
AV-unprocessed.smi:2466-1

> <Gold.Version>
5.8.1

> <Gold.Id.Protein>
6NUR|6NUR_protein|mol2

> <Gold.PLP.Fitness>
36.9146

> <Gold.PLP.PLP>
-28.9930

> <Gold.PLP.part.hbond>
-2.9310

> <Gold.PLP.part.metal>
0.0000

> <Gold.PLP.part.buried>
-3.9058

> <Gold.PLP.part.nonpolar>
-23.2173

> <Gold.PLP.part.repulsive>
1.3526

> <Gold.PLP.ligand.clash>
0.0000

> <Gold.PLP.ligand.torsion>
0.4457

> <Gold.PLP.Chemscore.Hbond>
2.8960

> <Gold.PLP.Chemscore.CHOScore>
0.0000

> <Gold.PLP.Chemscore.Metal>
0.0000

> <Gold.Chemscore.Hbonds>
donor molecule, donor type, donor heavy atom, donor atom, acceptor molecule, acceptor atom, score
      L1  H     6    23       P1  7948  1.00
      L1  H     9    24       P1  7948  0.90
      P1  H  7989  7998       L1     2  1.00

> <Gold.PLP.Chemscore.Internal.Correction>
0.1249

> <Gold.Rescore>
     Score         DG    S(hbond)    S(metal)    S(lipo)     H(rot)  DE(clash)    DE(int)     intcor
     14.08     -16.17       2.60        0.00      52.58       1.62       0.30       1.80       ----

> <Gold.Chemscore.Fitness>
14.0756

> <Gold.Chemscore.DG>
-16.1742

> <Gold.Chemscore.ZeroCoef>
-5.4800

> <Gold.Chemscore.Hbond>
2.6021

> <Gold.Chemscore.Metal>
0.0000

> <Gold.Chemscore.Lipo>
52.5836

> <Gold.Chemscore.Internal_Hbond>
0.0000

> <Gold.Chemscore.DEClash>
0.3006

> <Gold.Chemscore.DEInternal>
1.7980

> <Gold.Chemscore.Rot>
1.6207

> <Gold.Chemscore.Internal.Correction>
   9.000000E+99

> <Gold.Chemscore.Hbonds>
donor molecule, donor type, donor heavy atom, donor atom, acceptor molecule, acceptor atom, score
      L1  H     6    23       P1  7948  0.93
      L1  H     9    24       P1  7948  0.86
      P1  H  7989  7998       L1     2  0.27

> <Gold.Chemscore.Hbond.Weighted>
-8.6910

> <Gold.Chemscore.Metal.Weighted>
-0.0000

> <Gold.Chemscore.Lipo.Weighted>
-6.1523

> <Gold.Chemscore.Internal_Hbond.Weighted>
0.0000

> <Gold.Chemscore.DEClash.Weighted>
0.3006

> <Gold.Chemscore.DEInternal.Weighted>
1.7980

> <Gold.Chemscore.Rot.Weighted>
4.1491

> <Gold.Chemscore.Internal.Correction.Weighted>
   9.000000E+99

> <Gold.Protein.RotatedTorsions>
[ 6907 6896 6895 6894 ] final  -27.35 input  -60.11 | X-H torsion
[ 7974 7965 7964 7962 ] final   80.94 input  175.53 | X-H torsion
[ 8008 7997 7996 7995 ] final -151.84 input   59.86 | X-H torsion
[ 10167 10162 10161 10158 ] final   74.00 input  -65.29 | X-H torsion
[ 10718 10713 10712 10709 ] final    4.91 input   66.30 | X-H torsion
[ 10763 10752 10751 10750 ] final    2.95 input  -60.55 | X-H torsion
[ 11005 11000 10999 10996 ] final  -75.39 input  -57.11 | X-H torsion

> <Gold.Protein.ActiveResidues>
 VAL166  LYS551  ARG553  GLY616  TRP617  ASP618  TYR619  PRO620  LYS621  CYS622 
 ASP623  PHE694  ASN695  SER759  ASP760  ASP761  ALA762  ILE779  LEU786  VAL792 
 PHE793  MET794  SER795  GLU796  ALA797  LYS798  CYS799  TRP800  GLU811  SER814 

> <Gold.Protein.RotatedAtoms>
  151.1482  135.0214  159.8655 H   0  0  0  0  0  0  0  0  0  0  0  0  # atno 6907 bound_to 6896
  152.5453  134.1420  159.8493 H   0  0  0  0  0  0  0  0  0  0  0  0  # atno 6908 bound_to 6896
  151.1502  133.4866  159.2628 H   0  0  0  0  0  0  0  0  0  0  0  0  # atno 6909 bound_to 6896
  145.6447  139.2433  143.2011 H   0  0  0  0  0  0  0  0  0  0  0  0  # atno 7974 bound_to 7965
  155.6457  140.0706  157.2604 H   0  0  0  0  0  0  0  0  0  0  0  0  # atno 8008 bound_to 7997
  154.4173  140.1742  156.1670 H   0  0  0  0  0  0  0  0  0  0  0  0  # atno 8009 bound_to 7997
  155.9819  140.3353  155.6674 H   0  0  0  0  0  0  0  0  0  0  0  0  # atno 8010 bound_to 7997
  140.0184  144.5559  150.7601 H   0  0  0  0  0  0  0  0  0  0  0  0  # atno 10167 bound_to 10162
  156.8996  130.5717  149.5648 H   0  0  0  0  0  0  0  0  0  0  0  0  # atno 10718 bound_to 10713
  153.2893  135.6947  153.7308 H   0  0  0  0  0  0  0  0  0  0  0  0  # atno 10763 bound_to 10752
  153.6265  135.3418  155.3029 H   0  0  0  0  0  0  0  0  0  0  0  0  # atno 10764 bound_to 10752
  154.8519  135.4399  154.1971 H   0  0  0  0  0  0  0  0  0  0  0  0  # atno 10765 bound_to 10752
  141.1645  133.6945  156.7509 H   0  0  0  0  0  0  0  0  0  0  0  0  # atno 11005 bound_to 11000
  146.1252  140.7257  142.9438 LP  0  0  0  0  0  0  0  0  0  0  0  0  # atno 17320 bound_to 7965
  144.7144  140.4158  143.7055 LP  0  0  0  0  0  0  0  0  0  0  0  0  # atno 17321 bound_to 7965
  140.7352  143.2738  151.3804 LP  0  0  0  0  0  0  0  0  0  0  0  0  # atno 17342 bound_to 10162
  139.6156  144.1009  152.2342 LP  0  0  0  0  0  0  0  0  0  0  0  0  # atno 17343 bound_to 10162
  156.0589  130.5645  150.9150 LP  0  0  0  0  0  0  0  0  0  0  0  0  # atno 17370 bound_to 10713
  157.6034  131.0940  150.8920 LP  0  0  0  0  0  0  0  0  0  0  0  0  # atno 17371 bound_to 10713
  140.2605  134.8471  157.3753 LP  0  0  0  0  0  0  0  0  0  0  0  0  # atno 17394 bound_to 11000
  140.1616  134.4721  155.7891 LP  0  0  0  0  0  0  0  0  0  0  0  0  # atno 17395 bound_to 11000

$$$$
