AV-unprocessed.smi:3248|AV-procd|sdf|12415|dock1
  -GOLD-   2272018293D 1   1.00000     0.00000
 Structure written by MMmdl.
 38 39  0  0  0  0  0  0  0  0  1 V2000
  150.1879  139.2493  157.5908 C   0  0  0  0  0  0  0  0  0  0  0  0
  150.3394  140.7321  157.2200 C   0  0  2  0  0  0  0  0  0  0  0  0
  150.7141  140.9099  155.7361 C   0  0  0  0  0  0  0  0  0  0  0  0
  149.6134  140.5798  154.8472 N   0  0  0  0  0  0  0  0  0  0  0  0
  148.6650  141.4239  154.3091 C   0  0  0  0  0  0  0  0  0  0  0  0
  147.8428  140.6647  153.5266 C   0  0  0  0  0  0  0  0  0  0  0  0
  148.3760  139.3512  153.6504 C   0  0  0  0  0  0  0  0  0  0  0  0
  149.4353  139.3032  154.4421 N   0  0  0  0  0  0  0  0  0  0  0  0
  151.3531  141.3536  158.0690 N   0  0  0  0  0  0  0  0  0  0  0  0
  151.2283  142.5260  158.7130 C   0  0  0  0  0  0  0  0  0  0  0  0
  150.2103  143.2142  158.6403 O   0  0  0  0  0  0  0  0  0  0  0  0
  152.3703  142.9203  159.3284 N   0  0  0  0  0  0  0  0  0  0  0  0
  153.2812  141.9409  159.9399 C   0  0  0  0  0  0  0  0  0  0  0  0
  152.9404  141.8323  161.4394 C   0  0  0  0  0  0  0  0  0  0  0  0
  153.0544  143.1120  162.0582 O   0  0  0  0  0  0  0  0  0  0  0  0
  152.2275  144.1078  161.4588 C   0  0  0  0  0  0  0  0  0  0  0  0
  152.5857  144.2347  159.9645 C   0  0  2  0  0  0  0  0  0  0  0  0
  151.8851  145.4285  159.2820 C   0  0  0  0  0  0  0  0  0  0  0  0
  149.4254  138.7682  156.9777 H   0  0  0  0  0  0  0  0  0  0  0  0
  149.8920  139.1316  158.6338 H   0  0  0  0  0  0  0  0  0  0  0  0
  151.1225  138.7065  157.4459 H   0  0  0  0  0  0  0  0  0  0  0  0
  149.3778  141.2224  157.3832 H   0  0  0  0  0  0  0  0  0  0  0  0
  151.0402  141.9329  155.5396 H   0  0  0  0  0  0  0  0  0  0  0  0
  151.5542  140.2624  155.4821 H   0  0  0  0  0  0  0  0  0  0  0  0
  148.6569  142.4826  154.5233 H   0  0  0  0  0  0  0  0  0  0  0  0
  146.9909  140.9970  152.9519 H   0  0  0  0  0  0  0  0  0  0  0  0
  148.0273  138.4377  153.1917 H   0  0  0  0  0  0  0  0  0  0  0  0
  152.2389  140.8739  158.1387 H   0  0  0  0  0  0  0  0  0  0  0  0
  153.2228  140.9525  159.4827 H   0  0  0  0  0  0  0  0  0  0  0  0
  154.3146  142.2651  159.8093 H   0  0  0  0  0  0  0  0  0  0  0  0
  151.9318  141.4406  161.5818 H   0  0  0  0  0  0  0  0  0  0  0  0
  153.6238  141.1406  161.9323 H   0  0  0  0  0  0  0  0  0  0  0  0
  151.1748  143.8542  161.5932 H   0  0  0  0  0  0  0  0  0  0  0  0
  152.3975  145.0539  161.9732 H   0  0  0  0  0  0  0  0  0  0  0  0
  153.6534  144.4508  159.8953 H   0  0  0  0  0  0  0  0  0  0  0  0
  152.2630  146.3695  159.6824 H   0  0  0  0  0  0  0  0  0  0  0  0
  150.8078  145.4304  159.4447 H   0  0  0  0  0  0  0  0  0  0  0  0
  152.0702  145.4348  158.2074 H   0  0  0  0  0  0  0  0  0  0  0  0
  1  2  1  0  0  0  0
  1 19  1  0  0  0  0
  1 20  1  0  0  0  0
  1 21  1  0  0  0  0
  2  3  1  0  0  0  0
  2  9  1  0  0  0  0
  2 22  1  0  0  0  0
  3  4  1  0  0  0  0
  3 23  1  0  0  0  0
  3 24  1  0  0  0  0
  4  8  1  0  0  0  0
  4  5  1  0  0  0  0
  5  6  2  0  0  0  0
  5 25  1  0  0  0  0
  6  7  1  0  0  0  0
  6 26  1  0  0  0  0
  7  8  2  0  0  0  0
  7 27  1  0  0  0  0
  9 10  1  0  0  0  0
  9 28  1  0  0  0  0
 10 11  2  0  0  0  0
 10 12  1  0  0  0  0
 12 17  1  0  0  0  0
 12 13  1  0  0  0  0
 13 14  1  0  0  0  0
 13 29  1  0  0  0  0
 13 30  1  0  0  0  0
 14 15  1  0  0  0  0
 14 31  1  0  0  0  0
 14 32  1  0  0  0  0
 15 16  1  0  0  0  0
 16 17  1  0  0  0  0
 16 33  1  0  0  0  0
 16 34  1  0  0  0  0
 17 18  1  0  0  0  0
 17 35  1  0  0  0  0
 18 36  1  0  0  0  0
 18 37  1  0  0  0  0
 18 38  1  0  0  0  0
M  END
> <s_m_source_file>
AV-unprocessed.smi

> <i_m_source_file_index>
3248

> <i_lp_mmshare_version>
43012

> <i_f3d_flags>
0

> <s_epik_input>
bjFbY0hdW2NIXVtjSF1uMVtDSDJdW0NAQEhdKFtDSDNdKVtOSF1DKD1PKU4yW0NIMl1bQ0gyXU9bQ0gyXVtDQEhdMltDSDNd

> <s_epik_cmdline>
J2VwaWtfcHl0aG9uJywgJy1waCcsICc3LjAnLCAnLXRuJywgJzgnLCAnLW1hJywgJzIwMCcsICctbWV0YWxfYmluZGluZycsICctaW1hZScsICc8aW5maWxlLm1hZT4nLCAnLW9tYWUnLCAnPG91dGZpbGUubWFlPic=

> <r_lp_tautomer_probability>
1

> <r_epik_Ionization_Penalty>
4.45233e-05

> <r_epik_Ionization_Penalty_Charging>
0

> <r_epik_Ionization_Penalty_Neutral>
4.45233e-05

> <r_epik_State_Penalty>
-0

> <r_epik_Charging_Adjusted_Penalty>
0

> <i_epik_Tot_Q>
0

> <i_epik_Tot_abs_Q>
0

> <r_epik_Metal_State_Penalty>
-0

> <b_epik_Metal_Only>
0

> <s_lp_Force_Field>
OPLS_2005

> <r_lp_Energy>
31.9687

> <b_lp_Chiralities_Consistent>
1

> <s_lp_Variant>
AV-unprocessed.smi:3248-3

> <Gold.Version>
5.8.1

> <Gold.Id.Protein>
6NUR|6NUR_protein|mol2

> <Gold.PLP.Fitness>
43.9118

> <Gold.PLP.PLP>
-39.5293

> <Gold.PLP.part.hbond>
0.0000

> <Gold.PLP.part.metal>
0.0000

> <Gold.PLP.part.buried>
-0.3674

> <Gold.PLP.part.nonpolar>
-38.2932

> <Gold.PLP.part.repulsive>
0.4316

> <Gold.PLP.ligand.clash>
0.0000

> <Gold.PLP.ligand.torsion>
0.8312

> <Gold.PLP.Chemscore.Hbond>
0.0000

> <Gold.PLP.Chemscore.CHOScore>
1.8422

> <Gold.PLP.Chemscore.Metal>
0.0000

> <Gold.Chemscore.Hbonds>
donor molecule, donor type, donor heavy atom, donor atom, acceptor molecule, acceptor atom, score
      L1  C     5    25       P1  8028  1.00
      L1  C     7    27       P1  7948  0.52

> <Gold.PLP.Chemscore.Internal.Correction>
0.5181

> <Gold.Rescore>
     Score         DG    S(hbond)    S(metal)    S(lipo)     H(rot)  DE(clash)    DE(int)     intcor
     10.82     -12.94       0.00        0.00      94.79       1.42       0.05       2.07       ----

> <Gold.Chemscore.Fitness>
10.8229

> <Gold.Chemscore.DG>
-12.9379

> <Gold.Chemscore.ZeroCoef>
-5.4800

> <Gold.Chemscore.Hbond>
0.0000

> <Gold.Chemscore.Metal>
0.0000

> <Gold.Chemscore.Lipo>
94.7938

> <Gold.Chemscore.Internal_Hbond>
0.0000

> <Gold.Chemscore.DEClash>
0.0466

> <Gold.Chemscore.DEInternal>
2.0684

> <Gold.Chemscore.Rot>
1.4191

> <Gold.Chemscore.Internal.Correction>
   9.000000E+99

> <Gold.Chemscore.Hbond.Weighted>
-0.0000

> <Gold.Chemscore.Metal.Weighted>
-0.0000

> <Gold.Chemscore.Lipo.Weighted>
-11.0909

> <Gold.Chemscore.Internal_Hbond.Weighted>
0.0000

> <Gold.Chemscore.DEClash.Weighted>
0.0466

> <Gold.Chemscore.DEInternal.Weighted>
2.0684

> <Gold.Chemscore.Rot.Weighted>
3.6330

> <Gold.Chemscore.Internal.Correction.Weighted>
   9.000000E+99

> <Gold.Protein.RotatedTorsions>
[ 6907 6896 6895 6894 ] final  -27.85 input  -60.11 | X-H torsion
[ 7974 7965 7964 7962 ] final   97.12 input  175.53 | X-H torsion
[ 8008 7997 7996 7995 ] final  126.93 input   59.86 | X-H torsion
[ 10167 10162 10161 10158 ] final -151.39 input  -65.29 | X-H torsion
[ 10718 10713 10712 10709 ] final    1.41 input   66.30 | X-H torsion
[ 10763 10752 10751 10750 ] final  -79.84 input  -60.55 | X-H torsion
[ 11005 11000 10999 10996 ] final  -81.98 input  -57.11 | X-H torsion

> <Gold.Protein.ActiveResidues>
 VAL166  LYS551  ARG553  GLY616  TRP617  ASP618  TYR619  PRO620  LYS621  CYS622 
 ASP623  PHE694  ASN695  SER759  ASP760  ASP761  ALA762  ILE779  LEU786  VAL792 
 PHE793  MET794  SER795  GLU796  ALA797  LYS798  CYS799  TRP800  GLU811  SER814 

> <Gold.Protein.RotatedAtoms>
  151.1412  135.0180  159.8626 H   0  0  0  0  0  0  0  0  0  0  0  0  # atno 6907 bound_to 6896
  152.5452  134.1497  159.8523 H   0  0  0  0  0  0  0  0  0  0  0  0  # atno 6908 bound_to 6896
  151.1573  133.4823  159.2627 H   0  0  0  0  0  0  0  0  0  0  0  0  # atno 6909 bound_to 6896
  145.4297  139.2312  143.3151 H   0  0  0  0  0  0  0  0  0  0  0  0  # atno 7974 bound_to 7965
  156.2877  140.2681  156.2191 H   0  0  0  0  0  0  0  0  0  0  0  0  # atno 8008 bound_to 7997
  155.0186  140.0386  157.2446 H   0  0  0  0  0  0  0  0  0  0  0  0  # atno 8009 bound_to 7997
  154.7455  140.2733  155.6342 H   0  0  0  0  0  0  0  0  0  0  0  0  # atno 8010 bound_to 7997
  139.7272  143.8865  152.2523 H   0  0  0  0  0  0  0  0  0  0  0  0  # atno 10167 bound_to 10162
  156.8478  130.5543  149.5672 H   0  0  0  0  0  0  0  0  0  0  0  0  # atno 10718 bound_to 10713
  154.5437  135.5681  153.6862 H   0  0  0  0  0  0  0  0  0  0  0  0  # atno 10763 bound_to 10752
  152.9970  135.6234  154.2467 H   0  0  0  0  0  0  0  0  0  0  0  0  # atno 10764 bound_to 10752
  154.2399  135.2863  155.2837 H   0  0  0  0  0  0  0  0  0  0  0  0  # atno 10765 bound_to 10752
  141.1665  133.7222  156.8504 H   0  0  0  0  0  0  0  0  0  0  0  0  # atno 11005 bound_to 11000
  146.2613  140.5032  142.8852 LP  0  0  0  0  0  0  0  0  0  0  0  0  # atno 17320 bound_to 7965
  144.8191  140.6519  143.6365 LP  0  0  0  0  0  0  0  0  0  0  0  0  # atno 17321 bound_to 7965
  139.8778  144.7034  150.8913 LP  0  0  0  0  0  0  0  0  0  0  0  0  # atno 17342 bound_to 10162
  140.7765  143.3686  151.1692 LP  0  0  0  0  0  0  0  0  0  0  0  0  # atno 17343 bound_to 10162
  156.0845  130.5847  150.9623 LP  0  0  0  0  0  0  0  0  0  0  0  0  # atno 17370 bound_to 10713
  157.6320  131.0920  150.8422 LP  0  0  0  0  0  0  0  0  0  0  0  0  # atno 17371 bound_to 10713
  140.1920  134.8959  157.3071 LP  0  0  0  0  0  0  0  0  0  0  0  0  # atno 17394 bound_to 11000
  140.2280  134.3943  155.7535 LP  0  0  0  0  0  0  0  0  0  0  0  0  # atno 17395 bound_to 11000

$$$$
