AV-unprocessed.smi:243|AV-procd|sdf|1852|dock9
  -GOLD-   2262020473D 1   1.00000     0.00000
 Structure written by MMmdl.
 58 61  0  0  0  0  0  0  0  0  2 V2000
  152.1947  144.4514  157.9701 C   0  0  0  0  0  0  0  0  0  0  0  0
  150.8912  144.1228  158.7189 C   0  0  0  0  0  0  0  0  0  0  0  0
  149.9748  143.2138  157.9832 N   0  3  2  0  0  0  0  0  0  0  0  0
  148.6603  143.0137  158.6428 C   0  0  0  0  0  0  0  0  0  0  0  0
  147.6878  142.3027  157.6911 C   0  0  0  0  0  0  0  0  0  0  0  0
  148.2869  140.9622  157.2037 C   0  0  1  0  0  0  0  0  0  0  0  0
  147.3783  140.1109  156.4183 N   0  0  0  0  0  0  0  0  0  0  0  0
  146.7337  140.6579  155.2297 C   0  0  0  0  0  0  0  0  0  0  0  0
  146.9323  138.8951  156.8311 C   0  0  0  0  0  0  0  0  0  0  0  0
  145.7711  138.3959  156.3349 N   0  0  0  0  0  0  0  0  0  0  0  0
  145.3266  137.1969  156.7210 C   0  0  0  0  0  0  0  0  0  0  0  0
  145.8787  136.3414  157.5820 N   0  0  0  0  0  0  0  0  0  0  0  0
  147.0461  136.8330  158.0862 C   0  0  0  0  0  0  0  0  0  0  0  0
  147.6432  138.0848  157.7626 C   0  0  0  0  0  0  0  0  0  0  0  0
  148.8269  138.2388  158.4752 N   0  0  0  0  0  0  0  0  0  0  0  0
  148.9253  137.1419  159.1749 C   0  0  0  0  0  0  0  0  0  0  0  0
  147.8924  136.2472  159.0112 N   0  0  0  0  0  0  0  0  0  0  0  0
  147.7389  134.9615  159.6742 C   0  0  0  0  0  0  0  0  0  0  0  0
  147.0210  135.0581  161.0411 C   0  0  2  0  0  0  0  0  0  0  0  0
  145.6343  135.2518  160.8233 O   0  0  0  0  0  0  0  0  0  0  0  0
  147.5307  136.1849  161.9365 C   0  0  0  0  0  0  0  0  0  0  0  0
  147.3594  135.6118  163.3362 C   0  0  0  0  0  0  0  0  0  0  0  0
  147.7345  134.2569  163.1595 O   0  0  0  0  0  0  0  0  0  0  0  0
  147.2065  133.8031  161.9176 C   0  0  0  0  0  0  0  0  0  0  0  0
  149.6954  141.1607  156.5778 C   0  0  1  0  0  0  0  0  0  0  0  0
  149.7068  141.8215  155.1876 C   0  0  0  0  0  0  0  0  0  0  0  0
  150.5974  141.9305  157.5665 C   0  0  0  0  0  0  0  0  0  0  0  0
  152.8161  145.1183  158.5679 H   0  0  0  0  0  0  0  0  0  0  0  0
  152.0041  144.9538  157.0220 H   0  0  0  0  0  0  0  0  0  0  0  0
  152.7852  143.5578  157.7688 H   0  0  0  0  0  0  0  0  0  0  0  0
  151.1302  143.6715  159.6826 H   0  0  0  0  0  0  0  0  0  0  0  0
  150.3592  145.0476  158.9446 H   0  0  0  0  0  0  0  0  0  0  0  0
  148.7820  142.4277  159.5544 H   0  0  0  0  0  0  0  0  0  0  0  0
  148.2435  143.9783  158.9350 H   0  0  0  0  0  0  0  0  0  0  0  0
  146.7399  142.1267  158.2010 H   0  0  0  0  0  0  0  0  0  0  0  0
  147.4753  142.9750  156.8616 H   0  0  0  0  0  0  0  0  0  0  0  0
  148.4498  140.3813  158.1130 H   0  0  0  0  0  0  0  0  0  0  0  0
  145.6630  140.4505  155.2361 H   0  0  0  0  0  0  0  0  0  0  0  0
  147.1640  140.2253  154.3269 H   0  0  0  0  0  0  0  0  0  0  0  0
  146.8638  141.7378  155.1668 H   0  0  0  0  0  0  0  0  0  0  0  0
  144.3955  136.8771  156.2770 H   0  0  0  0  0  0  0  0  0  0  0  0
  149.7557  136.9592  159.8413 H   0  0  0  0  0  0  0  0  0  0  0  0
  147.1963  134.2899  159.0073 H   0  0  0  0  0  0  0  0  0  0  0  0
  148.7315  134.5275  159.8025 H   0  0  0  0  0  0  0  0  0  0  0  0
  145.3980  136.1109  161.1376 H   0  0  0  0  0  0  0  0  0  0  0  0
  148.5932  136.3565  161.7595 H   0  0  0  0  0  0  0  0  0  0  0  0
  147.0124  137.1339  161.7922 H   0  0  0  0  0  0  0  0  0  0  0  0
  147.9840  136.1104  164.0774 H   0  0  0  0  0  0  0  0  0  0  0  0
  146.3195  135.6691  163.6616 H   0  0  0  0  0  0  0  0  0  0  0  0
  146.2640  133.2813  162.0930 H   0  0  0  0  0  0  0  0  0  0  0  0
  147.8981  133.0850  161.4760 H   0  0  0  0  0  0  0  0  0  0  0  0
  150.1492  140.1779  156.4491 H   0  0  0  0  0  0  0  0  0  0  0  0
  149.2272  142.8001  155.1964 H   0  0  0  0  0  0  0  0  0  0  0  0
  149.1966  141.1995  154.4526 H   0  0  0  0  0  0  0  0  0  0  0  0
  150.7270  141.9593  154.8289 H   0  0  0  0  0  0  0  0  0  0  0  0
  151.5711  142.1200  157.1125 H   0  0  0  0  0  0  0  0  0  0  0  0
  150.7796  141.3128  158.4468 H   0  0  0  0  0  0  0  0  0  0  0  0
  149.7678  143.6990  157.1218 H   0  0  0  0  0  0  0  0  0  0  0  0
  1  2  1  0  0  0  0
  1 28  1  0  0  0  0
  1 29  1  0  0  0  0
  1 30  1  0  0  0  0
  2  3  1  0  0  0  0
  2 31  1  0  0  0  0
  2 32  1  0  0  0  0
  3 27  1  0  0  0  0
  3  4  1  0  0  0  0
  3 58  1  0  0  0  0
  4  5  1  0  0  0  0
  4 33  1  0  0  0  0
  4 34  1  0  0  0  0
  5  6  1  0  0  0  0
  5 35  1  0  0  0  0
  5 36  1  0  0  0  0
  6  7  1  0  0  0  0
  6 25  1  0  0  0  0
  6 37  1  0  0  0  0
  7  8  1  0  0  0  0
  7  9  1  0  0  0  0
  8 38  1  0  0  0  0
  8 39  1  0  0  0  0
  8 40  1  0  0  0  0
  9 14  1  0  0  0  0
  9 10  2  0  0  0  0
 10 11  1  0  0  0  0
 11 12  2  0  0  0  0
 11 41  1  0  0  0  0
 12 13  1  0  0  0  0
 13 17  1  0  0  0  0
 13 14  2  0  0  0  0
 14 15  1  0  0  0  0
 15 16  2  0  0  0  0
 16 17  1  0  0  0  0
 16 42  1  0  0  0  0
 17 18  1  0  0  0  0
 18 19  1  0  0  0  0
 18 43  1  0  0  0  0
 18 44  1  0  0  0  0
 19 24  1  0  0  0  0
 19 20  1  0  0  0  0
 19 21  1  0  0  0  0
 20 45  1  0  0  0  0
 21 22  1  0  0  0  0
 21 46  1  0  0  0  0
 21 47  1  0  0  0  0
 22 23  1  0  0  0  0
 22 48  1  0  0  0  0
 22 49  1  0  0  0  0
 23 24  1  0  0  0  0
 24 50  1  0  0  0  0
 24 51  1  0  0  0  0
 25 26  1  0  0  0  0
 25 27  1  0  0  0  0
 25 52  1  0  0  0  0
 26 53  1  0  0  0  0
 26 54  1  0  0  0  0
 26 55  1  0  0  0  0
 27 56  1  0  0  0  0
 27 57  1  0  0  0  0
M  CHG  1   3   1
M  END
> <s_m_source_file>
AV-unprocessed.smi

> <i_m_source_file_index>
243

> <i_lp_mmshare_version>
43012

> <i_f3d_flags>
0

> <s_epik_input>
W0NIM11bQ0gyXU4xW0NIMl1bQ0gyXVtDQEhdKFtDQEBIXShbQ0gzXSlbQ0gyXTEpTihbQ0gzXSljKG5bY0hdbjIpYyhjMjMpbltjSF1uM1tDSDJdW0NAQF00KFtPSF0pW0NIMl1bQ0gyXU9bQ0gyXTQ=

> <s_epik_cmdline>
J2VwaWtfcHl0aG9uJywgJy1waCcsICc3LjAnLCAnLXRuJywgJzgnLCAnLW1hJywgJzIwMCcsICctbWV0YWxfYmluZGluZycsICctaW1hZScsICc8aW5maWxlLm1hZT4nLCAnLW9tYWUnLCAnPG91dGZpbGUubWFlPic=

> <r_lp_tautomer_probability>
1

> <r_epik_Ionization_Penalty>
0.00253099

> <r_epik_Ionization_Penalty_Charging>
0.00137877

> <r_epik_Ionization_Penalty_Neutral>
0.00115221

> <r_epik_State_Penalty>
-0

> <r_epik_Charging_Adjusted_Penalty>
0.00137877

> <i_epik_Tot_Q>
1

> <i_epik_Tot_abs_Q>
1

> <r_epik_Metal_State_Penalty>
-0

> <b_epik_Metal_Only>
0

> <s_lp_Force_Field>
OPLS_2005

> <r_lp_Energy>
49.3868

> <b_lp_Chiralities_Consistent>
1

> <s_lp_Variant>
AV-unprocessed.smi:243-5

> <Gold.Version>
5.8.1

> <Gold.Id.Protein>
6NUR|6NUR_protein|mol2

> <Gold.PLP.Fitness>
40.7267

> <Gold.PLP.PLP>
-36.1984

> <Gold.PLP.part.hbond>
-3.1882

> <Gold.PLP.part.metal>
0.0000

> <Gold.PLP.part.buried>
-4.9673

> <Gold.PLP.part.nonpolar>
-28.7469

> <Gold.PLP.part.repulsive>
0.0732

> <Gold.PLP.ligand.clash>
0.0000

> <Gold.PLP.ligand.torsion>
0.8851

> <Gold.PLP.Chemscore.Hbond>
2.0000

> <Gold.PLP.Chemscore.CHOScore>
0.0000

> <Gold.PLP.Chemscore.Metal>
0.0000

> <Gold.Chemscore.Hbonds>
donor molecule, donor type, donor heavy atom, donor atom, acceptor molecule, acceptor atom, score
      L1  H     3    58       P1  8028  2.00

> <Gold.PLP.Chemscore.Internal.Correction>
0.2986

> <Gold.Rescore>
     Score         DG    S(hbond)    S(metal)    S(lipo)     H(rot)  DE(clash)    DE(int)     intcor
     11.71     -13.69       0.98        0.00      91.19       2.24       0.18       1.79       ----

> <Gold.Chemscore.Fitness>
11.7103

> <Gold.Chemscore.DG>
-13.6865

> <Gold.Chemscore.ZeroCoef>
-5.4800

> <Gold.Chemscore.Hbond>
0.9779

> <Gold.Chemscore.Metal>
0.0000

> <Gold.Chemscore.Lipo>
91.1914

> <Gold.Chemscore.Internal_Hbond>
0.0000

> <Gold.Chemscore.DEClash>
0.1844

> <Gold.Chemscore.DEInternal>
1.7919

> <Gold.Chemscore.Rot>
2.2379

> <Gold.Chemscore.Internal.Correction>
   9.000000E+99

> <Gold.Chemscore.Hbonds>
donor molecule, donor type, donor heavy atom, donor atom, acceptor molecule, acceptor atom, score
      L1  H     3    58       P1  8028  0.91

> <Gold.Chemscore.Hbond.Weighted>
-3.2662

> <Gold.Chemscore.Metal.Weighted>
-0.0000

> <Gold.Chemscore.Lipo.Weighted>
-10.6694

> <Gold.Chemscore.Internal_Hbond.Weighted>
0.0000

> <Gold.Chemscore.DEClash.Weighted>
0.1844

> <Gold.Chemscore.DEInternal.Weighted>
1.7919

> <Gold.Chemscore.Rot.Weighted>
5.7291

> <Gold.Chemscore.Internal.Correction.Weighted>
   9.000000E+99

> <Gold.Protein.RotatedTorsions>
[ 6907 6896 6895 6894 ] final -116.10 input  -60.11 | X-H torsion
[ 7974 7965 7964 7962 ] final  143.46 input  175.53 | X-H torsion
[ 8008 7997 7996 7995 ] final   -1.44 input   59.86 | X-H torsion
[ 10167 10162 10161 10158 ] final  129.50 input  -65.29 | X-H torsion
[ 10718 10713 10712 10709 ] final   58.19 input   66.30 | X-H torsion
[ 10763 10752 10751 10750 ] final  123.61 input  -60.55 | X-H torsion
[ 11005 11000 10999 10996 ] final  131.48 input  -57.11 | X-H torsion

> <Gold.Protein.ActiveResidues>
 VAL166  LYS551  ARG553  GLY616  TRP617  ASP618  TYR619  PRO620  LYS621  CYS622 
 ASP623  PHE694  ASN695  SER759  ASP760  ASP761  ALA762  ILE779  LEU786  VAL792 
 PHE793  MET794  SER795  GLU796  ALA797  LYS798  CYS799  TRP800  GLU811  SER814 

> <Gold.Protein.RotatedAtoms>
  150.8030  133.8564  159.3219 H   0  0  0  0  0  0  0  0  0  0  0  0  # atno 6907 bound_to 6896
  151.6371  135.1015  160.0143 H   0  0  0  0  0  0  0  0  0  0  0  0  # atno 6908 bound_to 6896
  152.4118  133.6936  159.6439 H   0  0  0  0  0  0  0  0  0  0  0  0  # atno 6909 bound_to 6896
  144.8919  139.5546  143.5794 H   0  0  0  0  0  0  0  0  0  0  0  0  # atno 7974 bound_to 7965
  154.6468  140.2559  155.7259 H   0  0  0  0  0  0  0  0  0  0  0  0  # atno 8008 bound_to 7997
  156.2556  140.2876  156.0806 H   0  0  0  0  0  0  0  0  0  0  0  0  # atno 8009 bound_to 7997
  155.1512  140.0382  157.2811 H   0  0  0  0  0  0  0  0  0  0  0  0  # atno 8010 bound_to 7997
  139.5475  144.6785  151.4428 H   0  0  0  0  0  0  0  0  0  0  0  0  # atno 10167 bound_to 10162
  157.5576  130.8811  149.9060 H   0  0  0  0  0  0  0  0  0  0  0  0  # atno 10718 bound_to 10713
  153.6482  135.3367  155.3092 H   0  0  0  0  0  0  0  0  0  0  0  0  # atno 10763 bound_to 10752
  154.8544  135.4334  154.1932 H   0  0  0  0  0  0  0  0  0  0  0  0  # atno 10764 bound_to 10752
  153.2868  135.7013  153.7406 H   0  0  0  0  0  0  0  0  0  0  0  0  # atno 10765 bound_to 10752
  139.9733  134.9571  156.9444 H   0  0  0  0  0  0  0  0  0  0  0  0  # atno 11005 bound_to 11000
  146.3059  139.7578  142.9057 LP  0  0  0  0  0  0  0  0  0  0  0  0  # atno 17320 bound_to 7965
  145.3767  141.0352  143.3200 LP  0  0  0  0  0  0  0  0  0  0  0  0  # atno 17321 bound_to 7965
  140.6727  143.8258  150.7020 LP  0  0  0  0  0  0  0  0  0  0  0  0  # atno 17342 bound_to 10162
  140.1687  143.4213  152.2016 LP  0  0  0  0  0  0  0  0  0  0  0  0  # atno 17343 bound_to 10162
  156.0632  130.3696  150.0935 LP  0  0  0  0  0  0  0  0  0  0  0  0  # atno 17370 bound_to 10713
  156.9102  130.9649  151.3564 LP  0  0  0  0  0  0  0  0  0  0  0  0  # atno 17371 bound_to 10713
  140.5248  134.0871  155.7301 LP  0  0  0  0  0  0  0  0  0  0  0  0  # atno 17394 bound_to 11000
  141.1411  133.9136  157.2323 LP  0  0  0  0  0  0  0  0  0  0  0  0  # atno 17395 bound_to 11000

$$$$
