AV-unprocessed.smi:74|AV-procd|sdf|763|dock5
  -GOLD-   2262017103D 1   1.00000     0.00000
 Structure written by MMmdl.
 58 62  0  0  0  0  0  0  0  0  1 V2000
  148.1691  134.0647  151.5742 O   0  0  0  0  0  0  0  0  0  0  0  0
  148.1815  132.6533  151.6428 C   0  0  0  0  0  0  0  0  0  0  0  0
  148.7982  132.1661  152.9643 C   0  0  0  0  0  0  0  0  0  0  0  0
  148.4676  130.6721  153.1572 C   0  0  0  0  0  0  0  0  0  0  0  0
  148.7625  129.9232  151.9954 O   0  0  0  0  0  0  0  0  0  0  0  0
  150.2791  132.5478  153.1881 C   0  0  0  0  0  0  0  0  0  0  0  0
  149.9677  132.8715  154.6508 C   0  0  0  0  0  0  0  0  0  0  0  0
  150.6715  133.9100  155.3439 N   0  0  0  0  0  0  0  0  0  0  0  0
  151.7744  134.6003  154.8943 C   0  0  0  0  0  0  0  0  0  0  0  0
  152.2081  135.5369  155.6928 N   0  0  0  0  0  0  0  0  0  0  0  0
  151.3184  135.5133  156.7607 C   0  0  0  0  0  0  0  0  0  0  0  0
  151.1895  136.2679  157.9615 C   0  0  0  0  0  0  0  0  0  0  0  0
  152.0620  137.2481  158.3098 N   0  0  0  0  0  0  0  0  0  0  0  0
  153.4754  137.0500  157.9971 C   0  0  0  0  0  0  0  0  0  0  0  0
  154.3284  138.1151  158.7048 C   0  0  0  0  0  0  0  0  0  0  0  0
  153.8707  139.4141  158.3439 O   0  0  0  0  0  0  0  0  0  0  0  0
  152.5140  139.6337  158.7225 C   0  0  1  0  0  0  0  0  0  0  0  0
  152.1369  141.0856  158.3970 C   0  0  0  0  0  0  0  0  0  0  0  0
  151.5931  141.7118  159.5480 O   0  0  0  0  0  0  0  0  0  0  0  0
  152.0307  143.0500  159.7032 C   0  0  0  0  0  0  0  0  0  0  0  0
  151.4312  143.8931  158.5983 C   0  0  0  0  0  0  0  0  0  0  0  0
  152.3152  144.7107  157.6839 C   0  0  0  0  0  0  0  0  0  0  0  0
  151.4417  145.4015  158.6998 C   0  0  0  0  0  0  0  0  0  0  0  0
  151.5996  138.6038  158.0296 C   0  0  0  0  0  0  0  0  0  0  0  0
  150.1373  135.9741  158.7723 N   0  0  0  0  0  0  0  0  0  0  0  0
  149.2774  135.0065  158.4417 C   0  0  0  0  0  0  0  0  0  0  0  0
  149.2818  134.2194  157.3647 N   0  0  0  0  0  0  0  0  0  0  0  0
  150.3313  134.5100  156.5438 C   0  0  0  0  0  0  0  0  0  0  0  0
  148.5208  133.0642  154.1900 C   0  0  0  0  0  0  0  0  0  0  0  0
  149.0621  134.3705  151.5290 H   0  0  0  0  0  0  0  0  0  0  0  0
  147.1647  132.2827  151.5119 H   0  0  0  0  0  0  0  0  0  0  0  0
  148.7516  132.2843  150.7897 H   0  0  0  0  0  0  0  0  0  0  0  0
  149.0398  130.2446  153.9807 H   0  0  0  0  0  0  0  0  0  0  0  0
  147.4177  130.5253  153.4115 H   0  0  0  0  0  0  0  0  0  0  0  0
  149.6996  129.9135  151.8740 H   0  0  0  0  0  0  0  0  0  0  0  0
  150.9937  131.7356  153.0508 H   0  0  0  0  0  0  0  0  0  0  0  0
  150.5834  133.4313  152.6236 H   0  0  0  0  0  0  0  0  0  0  0  0
  150.0608  131.9787  155.2713 H   0  0  0  0  0  0  0  0  0  0  0  0
  152.2552  134.3834  153.9513 H   0  0  0  0  0  0  0  0  0  0  0  0
  153.7949  136.0561  158.3131 H   0  0  0  0  0  0  0  0  0  0  0  0
  153.6229  137.1136  156.9179 H   0  0  0  0  0  0  0  0  0  0  0  0
  154.2862  137.9904  159.7880 H   0  0  0  0  0  0  0  0  0  0  0  0
  155.3739  138.0131  158.4135 H   0  0  0  0  0  0  0  0  0  0  0  0
  152.4384  139.5055  159.8038 H   0  0  0  0  0  0  0  0  0  0  0  0
  153.0250  141.6294  158.0706 H   0  0  0  0  0  0  0  0  0  0  0  0
  151.4192  141.1110  157.5756 H   0  0  0  0  0  0  0  0  0  0  0  0
  151.7061  143.4465  160.6662 H   0  0  0  0  0  0  0  0  0  0  0  0
  153.1198  143.1067  159.6647 H   0  0  0  0  0  0  0  0  0  0  0  0
  150.5412  143.4585  158.1471 H   0  0  0  0  0  0  0  0  0  0  0  0
  153.3874  144.6977  157.8694 H   0  0  0  0  0  0  0  0  0  0  0  0
  152.0245  144.7809  156.6378 H   0  0  0  0  0  0  0  0  0  0  0  0
  150.5680  145.9355  158.3316 H   0  0  0  0  0  0  0  0  0  0  0  0
  151.9329  145.8493  159.5614 H   0  0  0  0  0  0  0  0  0  0  0  0
  151.6072  138.7554  156.9493 H   0  0  0  0  0  0  0  0  0  0  0  0
  150.5727  138.7522  158.3612 H   0  0  0  0  0  0  0  0  0  0  0  0
  148.4722  134.8383  159.1417 H   0  0  0  0  0  0  0  0  0  0  0  0
  148.3033  134.0986  153.9162 H   0  0  0  0  0  0  0  0  0  0  0  0
  147.7713  132.6778  154.8813 H   0  0  0  0  0  0  0  0  0  0  0  0
  1  2  1  0  0  0  0
  1 30  1  0  0  0  0
  2  3  1  0  0  0  0
  2 31  1  0  0  0  0
  2 32  1  0  0  0  0
  3 29  1  0  0  0  0
  3  4  1  0  0  0  0
  3  6  1  0  0  0  0
  4  5  1  0  0  0  0
  4 33  1  0  0  0  0
  4 34  1  0  0  0  0
  5 35  1  0  0  0  0
  6  7  1  0  0  0  0
  6 36  1  0  0  0  0
  6 37  1  0  0  0  0
  7  8  1  0  0  0  0
  7 29  1  0  0  0  0
  7 38  1  0  0  0  0
  8 28  1  0  0  0  0
  8  9  1  0  0  0  0
  9 10  2  0  0  0  0
  9 39  1  0  0  0  0
 10 11  1  0  0  0  0
 11 28  2  0  0  0  0
 11 12  1  0  0  0  0
 12 13  1  0  0  0  0
 12 25  2  0  0  0  0
 13 24  1  0  0  0  0
 13 14  1  0  0  0  0
 14 15  1  0  0  0  0
 14 40  1  0  0  0  0
 14 41  1  0  0  0  0
 15 16  1  0  0  0  0
 15 42  1  0  0  0  0
 15 43  1  0  0  0  0
 16 17  1  0  0  0  0
 17 18  1  0  0  0  0
 17 24  1  0  0  0  0
 17 44  1  0  0  0  0
 18 19  1  0  0  0  0
 18 45  1  0  0  0  0
 18 46  1  0  0  0  0
 19 20  1  0  0  0  0
 20 21  1  0  0  0  0
 20 47  1  0  0  0  0
 20 48  1  0  0  0  0
 21 23  1  0  0  0  0
 21 22  1  0  0  0  0
 21 49  1  0  0  0  0
 22 23  1  0  0  0  0
 22 50  1  0  0  0  0
 22 51  1  0  0  0  0
 23 52  1  0  0  0  0
 23 53  1  0  0  0  0
 24 54  1  0  0  0  0
 24 55  1  0  0  0  0
 25 26  1  0  0  0  0
 26 27  2  0  0  0  0
 26 56  1  0  0  0  0
 27 28  1  0  0  0  0
 29 57  1  0  0  0  0
 29 58  1  0  0  0  0
M  END
> <s_m_source_file>
AV-unprocessed.smi

> <i_m_source_file_index>
74

> <i_lp_mmshare_version>
43012

> <i_f3d_flags>
0

> <s_epik_input>
W09IXVtDSDJdQzEoW0NIMl1bT0hdKVtDSDJdW0NIXShbQ0gyXTEpbihbY0hdbjIpYyhjMjMpbltjSF1uYzNONFtDSDJdW0NIMl1PW0NASF0oW0NIMl00KVtDSDJdT1tDSDJdW0NIXTVbQ0gyXVtDSDJdNQ==

> <s_epik_cmdline>
J2VwaWtfcHl0aG9uJywgJy1waCcsICc3LjAnLCAnLXRuJywgJzgnLCAnLW1hJywgJzIwMCcsICctbWV0YWxfYmluZGluZycsICctaW1hZScsICc8aW5maWxlLm1hZT4nLCAnLW9tYWUnLCAnPG91dGZpbGUubWFlPic=

> <r_lp_tautomer_probability>
1

> <r_epik_Ionization_Penalty>
5.89322e-05

> <r_epik_Ionization_Penalty_Charging>
0

> <r_epik_Ionization_Penalty_Neutral>
5.89322e-05

> <r_epik_State_Penalty>
-0

> <r_epik_Charging_Adjusted_Penalty>
0

> <i_epik_Tot_Q>
0

> <i_epik_Tot_abs_Q>
0

> <r_epik_Metal_State_Penalty>
-0

> <b_epik_Metal_Only>
0

> <s_lp_Force_Field>
OPLS_2005

> <r_lp_Energy>
49.0423

> <b_lp_Chiralities_Consistent>
1

> <s_lp_Variant>
AV-unprocessed.smi:74-1

> <Gold.Version>
5.8.1

> <Gold.Id.Protein>
6NUR|6NUR_protein|mol2

> <Gold.PLP.Fitness>
57.2673

> <Gold.PLP.PLP>
-45.4741

> <Gold.PLP.part.hbond>
-5.3400

> <Gold.PLP.part.metal>
0.0000

> <Gold.PLP.part.buried>
-4.8863

> <Gold.PLP.part.nonpolar>
-35.2419

> <Gold.PLP.part.repulsive>
0.0888

> <Gold.PLP.ligand.clash>
0.0000

> <Gold.PLP.ligand.torsion>
2.5378

> <Gold.PLP.Chemscore.Hbond>
4.4100

> <Gold.PLP.Chemscore.CHOScore>
0.6665

> <Gold.PLP.Chemscore.Metal>
0.0000

> <Gold.Chemscore.Hbonds>
donor molecule, donor type, donor heavy atom, donor atom, acceptor molecule, acceptor atom, score
      P1  H  6896  6907       L1    25  0.44
      P1  H  7997  8008       L1    16  1.00

> <Gold.PLP.Chemscore.Internal.Correction>
1.6392

> <Gold.Rescore>
     Score         DG    S(hbond)    S(metal)    S(lipo)     H(rot)  DE(clash)    DE(int)     intcor
     16.40     -19.61       3.59        0.00     104.96       3.97       0.24       2.97       ----

> <Gold.Chemscore.Fitness>
16.3967

> <Gold.Chemscore.DG>
-19.6104

> <Gold.Chemscore.ZeroCoef>
-5.4800

> <Gold.Chemscore.Hbond>
3.5938

> <Gold.Chemscore.Metal>
0.0000

> <Gold.Chemscore.Lipo>
104.9575

> <Gold.Chemscore.Internal_Hbond>
0.0000

> <Gold.Chemscore.DEClash>
0.2442

> <Gold.Chemscore.DEInternal>
2.9696

> <Gold.Chemscore.Rot>
3.9660

> <Gold.Chemscore.Internal.Correction>
   9.000000E+99

> <Gold.Chemscore.Hbonds>
donor molecule, donor type, donor heavy atom, donor atom, acceptor molecule, acceptor atom, score
      P1  H  7997  8008       L1    16  0.59

> <Gold.Chemscore.Hbond.Weighted>
-12.0033

> <Gold.Chemscore.Metal.Weighted>
-0.0000

> <Gold.Chemscore.Lipo.Weighted>
-12.2800

> <Gold.Chemscore.Internal_Hbond.Weighted>
0.0000

> <Gold.Chemscore.DEClash.Weighted>
0.2442

> <Gold.Chemscore.DEInternal.Weighted>
2.9696

> <Gold.Chemscore.Rot.Weighted>
10.1529

> <Gold.Chemscore.Internal.Correction.Weighted>
   9.000000E+99

> <Gold.Protein.RotatedTorsions>
[ 6907 6896 6895 6894 ] final  -39.73 input  -60.11 | X-H torsion
[ 7974 7965 7964 7962 ] final  -29.99 input  175.53 | X-H torsion
[ 8008 7997 7996 7995 ] final -112.19 input   59.86 | X-H torsion
[ 10167 10162 10161 10158 ] final -156.90 input  -65.29 | X-H torsion
[ 10718 10713 10712 10709 ] final   55.41 input   66.30 | X-H torsion
[ 10763 10752 10751 10750 ] final -155.40 input  -60.55 | X-H torsion
[ 11005 11000 10999 10996 ] final -155.98 input  -57.11 | X-H torsion

> <Gold.Protein.ActiveResidues>
 VAL166  LYS551  ARG553  GLY616  TRP617  ASP618  TYR619  PRO620  LYS621  CYS622 
 ASP623  PHE694  ASN695  SER759  ASP760  ASP761  ALA762  ILE779  LEU786  VAL792 
 PHE793  MET794  SER795  GLU796  ALA797  LYS798  CYS799  TRP800  GLU811  SER814 

> <Gold.Protein.RotatedAtoms>
  150.9868  134.9212  159.7876 H   0  0  0  0  0  0  0  0  0  0  0  0  # atno 6907 bound_to 6896
  152.5239  134.3335  159.9201 H   0  0  0  0  0  0  0  0  0  0  0  0  # atno 6908 bound_to 6896
  151.3341  133.3947  159.2699 H   0  0  0  0  0  0  0  0  0  0  0  0  # atno 6909 bound_to 6896
  146.1176  140.5483  142.8750 H   0  0  0  0  0  0  0  0  0  0  0  0  # atno 7974 bound_to 7965
  155.0014  140.0394  157.2361 H   0  0  0  0  0  0  0  0  0  0  0  0  # atno 8008 bound_to 7997
  154.7540  140.2772  155.6246 H   0  0  0  0  0  0  0  0  0  0  0  0  # atno 8009 bound_to 7997
  156.2891  140.2641  156.2301 H   0  0  0  0  0  0  0  0  0  0  0  0  # atno 8010 bound_to 7997
  139.6813  143.9576  152.2338 H   0  0  0  0  0  0  0  0  0  0  0  0  # atno 10167 bound_to 10162
  157.5342  130.8652  149.8730 H   0  0  0  0  0  0  0  0  0  0  0  0  # atno 10718 bound_to 10713
  154.7789  135.3168  154.8031 H   0  0  0  0  0  0  0  0  0  0  0  0  # atno 10763 bound_to 10752
  153.8748  135.6841  153.4776 H   0  0  0  0  0  0  0  0  0  0  0  0  # atno 10764 bound_to 10752
  153.1420  135.4735  154.9447 H   0  0  0  0  0  0  0  0  0  0  0  0  # atno 10765 bound_to 10752
  140.6806  134.4149  157.5227 H   0  0  0  0  0  0  0  0  0  0  0  0  # atno 11005 bound_to 11000
  144.7567  140.5324  143.6764 LP  0  0  0  0  0  0  0  0  0  0  0  0  # atno 17320 bound_to 7965
  145.5535  139.1477  143.3381 LP  0  0  0  0  0  0  0  0  0  0  0  0  # atno 17321 bound_to 7965
  139.9367  144.6707  150.8307 LP  0  0  0  0  0  0  0  0  0  0  0  0  # atno 17342 bound_to 10162
  140.7653  143.3272  151.2490 LP  0  0  0  0  0  0  0  0  0  0  0  0  # atno 17343 bound_to 10162
  156.0446  130.3731  150.1350 LP  0  0  0  0  0  0  0  0  0  0  0  0  # atno 17370 bound_to 10713
  156.9533  130.9781  151.3494 LP  0  0  0  0  0  0  0  0  0  0  0  0  # atno 17371 bound_to 10713
  139.8953  134.8686  156.2138 LP  0  0  0  0  0  0  0  0  0  0  0  0  # atno 17394 bound_to 11000
  141.0321  133.6983  156.1448 LP  0  0  0  0  0  0  0  0  0  0  0  0  # atno 17395 bound_to 11000

$$$$
