#       Name:                AV-unprocessed.smi:1492
#       Creating user name   scv26
#       Creation time:       Fri Mar 27 06:14:57 2020


#       File generated by GOLD software.
#

@<TRIPOS>MOLECULE
AV-unprocessed.smi:1492
    60    61     1
SMALL
NO_CHARGES


@<TRIPOS>ATOM
      1 ****        -3.0942   0.5407   3.8798 C.3            1 S1                 0.0000
      2 ****        -2.3933  -0.3600   2.8461 C.3            1 S1                 0.0000
      3 ****        -1.6505   0.3616   1.6770 C.3            1 S1                 0.0000
      4 ****        -2.6579   1.2851   0.9399 C.3            1 S1                 0.0000
      5 ****        -0.5558   1.2999   2.2737 C.3            1 S1                 0.0000
      6 ****         0.2333   1.9359   1.2220 N.am           1 S1                 0.0000
      7 ****         1.5655   1.8751   1.0866 C.2            1 S1                 0.0000
      8 ****         2.3224   1.4048   1.9352 O.2            1 S1                 0.0000
      9 ****         2.1181   2.3862  -0.2427 C.3            1 S1                 0.0000
     10 ****         1.8686   1.4517  -1.4255 C.2            1 S1                 0.0000
     11 ****         2.7040   0.4323  -1.7495 C.2            1 S1                 0.0000
     12 ****         3.9811   0.0988  -0.9991 C.3            1 S1                 0.0000
     13 ****         2.4274  -0.4101  -2.8117 N.pl3          1 S1                 0.0000
     14 ****         1.2599  -0.1934  -3.5240 C.2            1 S1                 0.0000
     15 ****         1.0367  -1.1882  -4.6418 C.3            1 S1                 0.0000
     16 ****         0.3997   0.7507  -3.2923 N.2            1 S1                 0.0000
     17 ****         0.6402   1.6409  -2.2338 C.2            1 S1                 0.0000
     18 ****        -0.1602   2.5421  -1.9866 O.2            1 S1                 0.0000
     19 ****        -1.0452  -0.6049   0.7130 N.3            1 S1                 0.0000
     20 ****        -0.0177  -1.4894   1.2756 C.3            1 S1                 0.0000
     21 ****         0.6726  -2.3304   0.1895 C.3            1 S1                 0.0000
     22 ****        -0.2999  -3.0873  -0.5208 O.3            1 S1                 0.0000
     23 ****        -1.2940  -2.2680  -1.1242 C.3            1 S1                 0.0000
     24 ****        -1.9970  -1.4217  -0.0487 C.3            1 S1                 0.0000
     25 ****         3.0722  -1.1607  -3.0136 H              1 S1                 0.0000
     26 ****        -3.5864  -0.0692   4.6375 H              1 S1                 0.0000
     27 ****        -3.8629   1.1648   3.4252 H              1 S1                 0.0000
     28 ****        -2.3916   1.1892   4.4019 H              1 S1                 0.0000
     29 ****        -1.6952  -0.9927   3.3935 H              1 S1                 0.0000
     30 ****        -3.1491  -1.0339   2.4439 H              1 S1                 0.0000
     31 ****        -2.9291   2.1557   1.5372 H              1 S1                 0.0000
     32 ****        -3.5894   0.7696   0.7048 H              1 S1                 0.0000
     33 ****        -2.2455   1.6621   0.0030 H              1 S1                 0.0000
     34 ****        -1.0066   2.1049   2.8537 H              1 S1                 0.0000
     35 ****         0.0775   0.7616   2.9800 H              1 S1                 0.0000
     36 ****        -0.2900   2.3533   0.4660 H              1 S1                 0.0000
     37 ****         1.7081   3.3767  -0.4445 H              1 S1                 0.0000
     38 ****         3.1902   2.5485  -0.1305 H              1 S1                 0.0000
     39 ****         3.7616  -0.1185   0.0463 H              1 S1                 0.0000
     40 ****         4.6788   0.9353  -1.0408 H              1 S1                 0.0000
     41 ****         4.4801  -0.7735  -1.4229 H              1 S1                 0.0000
     42 ****         0.1289  -0.9520  -5.1982 H              1 S1                 0.0000
     43 ****         0.9360  -2.1957  -4.2371 H              1 S1                 0.0000
     44 ****         1.8763  -1.1747  -5.3375 H              1 S1                 0.0000
     45 ****         0.7494  -0.9205   1.7965 H              1 S1                 0.0000
     46 ****        -0.4605  -2.1646   2.0079 H              1 S1                 0.0000
     47 ****         1.2220  -1.6911  -0.5011 H              1 S1                 0.0000
     48 ****         1.3958  -3.0110   0.6388 H              1 S1                 0.0000
     49 ****        -0.8380  -1.6275  -1.8797 H              1 S1                 0.0000
     50 ****        -2.0151  -2.9036  -1.6379 H              1 S1                 0.0000
     51 ****        -2.5454  -2.0864   0.6185 H              1 S1                 0.0000
     52 ****        -2.7340  -0.7975  -0.5508 H              1 S1                 0.0000
     53 ****         1.9510   1.0379   2.7882 LP             1 S1                 0.0000
     54 ****         3.3088   1.3894   1.7719 LP             1 S1                 0.0000
     55 ****        -0.4199   0.8423  -3.8578 LP             1 S1                 0.0000
     56 ****         0.0107   3.1678  -1.2254 LP             1 S1                 0.0000
     57 ****        -0.9817   2.6488  -2.5468 LP             1 S1                 0.0000
     58 ****        -0.6052   0.0314   0.0794 LP             1 S1                 0.0000
     59 ****        -0.7458  -3.7154   0.1169 LP             1 S1                 0.0000
     60 ****         0.1617  -3.6112  -1.2366 LP             1 S1                 0.0000
@<TRIPOS>BOND
    1    1    2 1     
    2    1   26 1     
    3    1   27 1     
    4    1   28 1     
    5    2    3 1     
    6    2   29 1     
    7    2   30 1     
    8    3    4 1     
    9    3    5 1     
   10    3   19 1     
   11    4   31 1     
   12    4   32 1     
   13    4   33 1     
   14    5    6 1     
   15    5   34 1     
   16    5   35 1     
   17    6    7 am    
   18    6   36 1     
   19    7    8 2     
   20    7    9 1     
   21    9   37 1     
   22    9   38 1     
   23    9   10 1     
   24   10   17 1     
   25   10   11 2     
   26   11   12 1     
   27   11   13 1     
   28   12   39 1     
   29   12   40 1     
   30   12   41 1     
   31   13   25 1     
   32   13   14 1     
   33   14   15 1     
   34   14   16 2     
   35   15   42 1     
   36   15   43 1     
   37   15   44 1     
   38   16   17 1     
   39   17   18 2     
   40   19   24 1     
   41   19   20 1     
   42   20   21 1     
   43   20   45 1     
   44   20   46 1     
   45   21   22 1     
   46   21   47 1     
   47   21   48 1     
   48   22   23 1     
   49   23   24 1     
   50   23   49 1     
   51   23   50 1     
   52   24   51 1     
   53   24   52 1     
   54    8   53 1     
   55    8   54 1     
   56   16   55 1     
   57   18   56 1     
   58   18   57 1     
   59   19   58 1     
   60   22   59 1     
   61   22   60 1     
@<TRIPOS>SUBSTRUCTURE
      1 S1             1
@<TRIPOS>SET
LONE_PAIRS      STATIC     ATOMS    <user>   **** ""
8 53 54 55 56 57 58 59 60
DONOR_HYDROGENS      STATIC     ATOMS    <user>   **** ""
2 36 25
ATOM$BLUE        STATIC     ATOMS    COLORGROUP SYSTEM
8 53 54 55 56 57 58 59 60
ATOM$RED        STATIC     ATOMS    COLORGROUP SYSTEM
2 36 25
