#       Name:                AV-unprocessed.smi:2425
#       Creating user name   scv26
#       Creation time:       Fri Mar 27 13:20:50 2020


#       File generated by GOLD software.
#

@<TRIPOS>MOLECULE
AV-unprocessed.smi:2425
    40    41     1
SMALL
NO_CHARGES


@<TRIPOS>ATOM
      1 ****        -2.4112   1.8260   1.9579 C.3            1 S1                 0.0000
      2 ****        -2.8228   1.0531   0.6961 C.3            1 S1                 0.0000
      3 ****        -2.2047  -0.3497   0.5961 C.3            1 S1                 0.0000
      4 ****        -0.7372  -0.2673   0.5345 N.am           1 S1                 0.0000
      5 ****         0.0043   0.2201  -0.4733 C.2            1 S1                 0.0000
      6 ****        -0.4706   0.6647  -1.5182 O.2            1 S1                 0.0000
      7 ****         1.3153   0.1384  -0.1891 N.am           1 S1                 0.0000
      8 ****         2.4267   0.5136  -0.9978 C.ar           1 S1                 0.0000
      9 ****         2.3432   1.5579  -1.9514 C.ar           1 S1                 0.0000
     10 ****         3.4940   1.9120  -2.6800 C.ar           1 S1                 0.0000
     11 ****         4.6901   1.3156  -2.5101 N.ar           1 S1                 0.0000
     12 ****         4.7759   0.3318  -1.5913 C.ar           1 S1                 0.0000
     13 ****         3.6880  -0.1154  -0.8068 C.ar           1 S1                 0.0000
     14 ****         3.9029  -1.2021   0.1676 N.pl3          1 S1                 1.0000
     15 ****         3.0308  -2.0543   0.3029 O.2            1 S1                 0.0000
     16 ****         4.9648  -1.2108   0.7812 O.2            1 S1                -1.0000
     17 ****        -2.6007  -1.3957   1.6583 C.3            1 S1                 0.0000
     18 ****        -2.6122  -2.4729   0.5708 C.3            1 S1                 0.0000
     19 ****        -2.7575  -1.3435  -0.4518 C.3            1 S1                 0.0000
     20 ****        -2.9066   2.7963   1.9938 H              1 S1                 0.0000
     21 ****        -1.3364   2.0056   1.9856 H              1 S1                 0.0000
     22 ****        -2.6846   1.2812   2.8618 H              1 S1                 0.0000
     23 ****        -3.9102   0.9718   0.6858 H              1 S1                 0.0000
     24 ****        -2.5729   1.6468  -0.1832 H              1 S1                 0.0000
     25 ****        -0.2438  -0.6151   1.3435 H              1 S1                 0.0000
     26 ****         1.5488  -0.3370   0.6706 H              1 S1                 0.0000
     27 ****         1.4292   2.1048  -2.1245 H              1 S1                 0.0000
     28 ****         3.4544   2.7056  -3.4113 H              1 S1                 0.0000
     29 ****         5.7515  -0.1194  -1.4851 H              1 S1                 0.0000
     30 ****        -1.8706  -1.5574   2.4524 H              1 S1                 0.0000
     31 ****        -3.5951  -1.2176   2.0713 H              1 S1                 0.0000
     32 ****        -1.6618  -3.0022   0.4863 H              1 S1                 0.0000
     33 ****        -3.4581  -3.1594   0.6161 H              1 S1                 0.0000
     34 ****        -3.8016  -1.1489  -0.7023 H              1 S1                 0.0000
     35 ****        -2.1608  -1.4752  -1.3548 H              1 S1                 0.0000
     36 ****        -1.4616   0.6761  -1.6520 LP             1 S1                 0.0000
     37 ****         0.1345   1.0144  -2.2334 LP             1 S1                 0.0000
     38 ****         5.4870   1.5928  -3.0469 LP             1 S1                 0.0000
     39 ****         2.1938  -2.0041  -0.2420 LP             1 S1                 0.0000
     40 ****         3.1569  -2.7992   0.9580 LP             1 S1                 0.0000
@<TRIPOS>BOND
    1    1    2 1     
    2    1   20 1     
    3    1   21 1     
    4    1   22 1     
    5    2    3 1     
    6    2   23 1     
    7    2   24 1     
    8    3   19 1     
    9    3    4 1     
   10    3   17 1     
   11    4    5 am    
   12    4   25 1     
   13    5    6 2     
   14    5    7 am    
   15    7    8 1     
   16    7   26 1     
   17    8   13 ar    
   18    8    9 ar    
   19    9   10 ar    
   20    9   27 1     
   21   10   11 ar    
   22   10   28 1     
   23   11   12 ar    
   24   12   13 ar    
   25   12   29 1     
   26   13   14 1     
   27   14   15 2     
   28   14   16 1     
   29   17   18 1     
   30   17   30 1     
   31   17   31 1     
   32   18   19 1     
   33   18   32 1     
   34   18   33 1     
   35   19   34 1     
   36   19   35 1     
   37    6   36 1     
   38    6   37 1     
   39   11   38 1     
   40   15   39 1     
   41   15   40 1     
@<TRIPOS>SUBSTRUCTURE
      1 S1             1
@<TRIPOS>SET
LONE_PAIRS      STATIC     ATOMS    <user>   **** ""
6 36 37 38 39 40 16
DONOR_HYDROGENS      STATIC     ATOMS    <user>   **** ""
2 25 26
ATOM$BLUE        STATIC     ATOMS    COLORGROUP SYSTEM
6 36 37 38 39 40 16
ATOM$RED        STATIC     ATOMS    COLORGROUP SYSTEM
2 25 26
