#       Name:                AV-unprocessed.smi:2339
#       Creating user name   scv26
#       Creation time:       Fri Mar 27 12:56:07 2020


#       File generated by GOLD software.
#

@<TRIPOS>MOLECULE
AV-unprocessed.smi:2339
    55    58     1
SMALL
NO_CHARGES


@<TRIPOS>ATOM
      1 ****        -5.0348   3.3420  -2.3121 C.3            1 S1                 0.0000
      2 ****        -4.5183   1.9716  -2.7645 C.3            1 S1                 0.0000
      3 ****        -3.0700   1.8772  -2.6509 N.pl3          1 S1                 0.0000
      4 ****        -2.2389   2.1952  -3.7195 C.2            1 S1                 0.0000
      5 ****        -0.8963   2.0945  -3.6864 C.2            1 S1                 0.0000
      6 ****        -0.2364   1.6154  -2.4554 C.2            1 S1                 0.0000
      7 ****         0.9892   1.5242  -2.3887 O.2            1 S1                 0.0000
      8 ****        -1.1254   1.2562  -1.3185 C.2            1 S1                 0.0000
      9 ****        -0.4893   0.7818  -0.1588 N.am           1 S1                 0.0000
     10 ****        -1.0245   0.3706   1.0092 C.2            1 S1                 0.0000
     11 ****        -2.2216   0.3741   1.2857 O.2            1 S1                 0.0000
     12 ****        -0.1179  -0.0766   1.8946 N.am           1 S1                 0.0000
     13 ****        -0.3538  -0.5910   3.2437 C.3            1 S1                 0.0000
     14 ****         0.9529  -0.9763   3.9385 C.3            1 S1                 0.0000
     15 ****         1.5651  -2.2621   4.3657 C.3            1 S1                 0.0000
     16 ****         1.9928  -1.8307   5.7933 C.3            1 S1                 0.0000
     17 ****         1.3597  -0.5494   6.0272 O.3            1 S1                 0.0000
     18 ****         0.2149  -0.5792   5.1991 C.3            1 S1                 0.0000
     19 ****        -0.4641   0.5202   4.3593 C.3            1 S1                 0.0000
     20 ****         0.2512   1.8695   4.1869 C.3            1 S1                 0.0000
     21 ****        -0.8069   2.8779   3.7455 C.3            1 S1                 0.0000
     22 ****        -2.1095   2.3938   4.3792 C.3            1 S1                 0.0000
     23 ****        -1.8690   0.9376   4.7985 C.3            1 S1                 0.0000
     24 ****        -2.4645   1.4055  -1.4878 C.2            1 S1                 0.0000
     25 ****        -6.1199   3.3956  -2.4007 H              1 S1                 0.0000
     26 ****        -4.6110   4.1427  -2.9191 H              1 S1                 0.0000
     27 ****        -4.7756   3.5366  -1.2709 H              1 S1                 0.0000
     28 ****        -4.9826   1.1855  -2.1678 H              1 S1                 0.0000
     29 ****        -4.8159   1.7863  -3.7973 H              1 S1                 0.0000
     30 ****        -2.7592   2.5429  -4.6003 H              1 S1                 0.0000
     31 ****        -0.2898   2.3559  -4.5410 H              1 S1                 0.0000
     32 ****         0.5164   0.7233  -0.2292 H              1 S1                 0.0000
     33 ****         0.8467  -0.0589   1.5964 H              1 S1                 0.0000
     34 ****        -1.1160  -1.3735   3.3025 H              1 S1                 0.0000
     35 ****         1.7447  -0.2677   3.6777 H              1 S1                 0.0000
     36 ****         0.8373  -3.0746   4.3848 H              1 S1                 0.0000
     37 ****         2.4121  -2.5555   3.7452 H              1 S1                 0.0000
     38 ****         1.6636  -2.5600   6.5345 H              1 S1                 0.0000
     39 ****         3.0743  -1.7235   5.8795 H              1 S1                 0.0000
     40 ****        -0.5012  -1.3304   5.5515 H              1 S1                 0.0000
     41 ****         0.6743   2.1857   5.1413 H              1 S1                 0.0000
     42 ****         1.0745   1.8430   3.4735 H              1 S1                 0.0000
     43 ****        -0.5552   3.8988   4.0337 H              1 S1                 0.0000
     44 ****        -0.9010   2.8587   2.6593 H              1 S1                 0.0000
     45 ****        -2.3548   2.9970   5.2541 H              1 S1                 0.0000
     46 ****        -2.9422   2.4800   3.6800 H              1 S1                 0.0000
     47 ****        -2.6297   0.2824   4.3761 H              1 S1                 0.0000
     48 ****        -1.9658   0.8543   5.8819 H              1 S1                 0.0000
     49 ****        -3.1857   1.1715  -0.7219 H              1 S1                 0.0000
     50 ****         1.5529   1.7763  -3.1753 LP             1 S1                 0.0000
     51 ****         1.4213   1.1980  -1.5479 LP             1 S1                 0.0000
     52 ****        -2.8885   0.7015   0.6163 LP             1 S1                 0.0000
     53 ****        -2.5291   0.0495   2.1802 LP             1 S1                 0.0000
     54 ****         1.9677   0.2006   5.7667 LP             1 S1                 0.0000
     55 ****         1.1012  -0.4504   6.9881 LP             1 S1                 0.0000
@<TRIPOS>BOND
    1    1    2 1     
    2    1   25 1     
    3    1   26 1     
    4    1   27 1     
    5    2    3 1     
    6    2   28 1     
    7    2   29 1     
    8    3   24 1     
    9    3    4 1     
   10    4    5 2     
   11    4   30 1     
   12    5    6 1     
   13    5   31 1     
   14    6    7 2     
   15    6    8 1     
   16    8    9 1     
   17    8   24 2     
   18    9   10 am    
   19    9   32 1     
   20   10   11 2     
   21   10   12 am    
   22   12   13 1     
   23   12   33 1     
   24   13   19 1     
   25   13   14 1     
   26   13   34 1     
   27   14   18 1     
   28   14   15 1     
   29   14   35 1     
   30   15   16 1     
   31   15   36 1     
   32   15   37 1     
   33   16   17 1     
   34   16   38 1     
   35   16   39 1     
   36   17   18 1     
   37   18   19 1     
   38   18   40 1     
   39   19   23 1     
   40   19   20 1     
   41   20   21 1     
   42   20   41 1     
   43   20   42 1     
   44   21   22 1     
   45   21   43 1     
   46   21   44 1     
   47   22   23 1     
   48   22   45 1     
   49   22   46 1     
   50   23   47 1     
   51   23   48 1     
   52   24   49 1     
   53    7   50 1     
   54    7   51 1     
   55   11   52 1     
   56   11   53 1     
   57   17   54 1     
   58   17   55 1     
@<TRIPOS>SUBSTRUCTURE
      1 S1             1
@<TRIPOS>SET
LONE_PAIRS      STATIC     ATOMS    <user>   **** ""
6 50 51 52 53 54 55
DONOR_HYDROGENS      STATIC     ATOMS    <user>   **** ""
2 32 33
ATOM$BLUE        STATIC     ATOMS    COLORGROUP SYSTEM
6 50 51 52 53 54 55
ATOM$RED        STATIC     ATOMS    COLORGROUP SYSTEM
2 32 33
