#       Name:                AV-unprocessed.smi:68
#       Creating user name   scv26
#       Creation time:       Thu Mar 26 16:53:44 2020


#       File generated by GOLD software.
#

@<TRIPOS>MOLECULE
AV-unprocessed.smi:68
    29    30     1
SMALL
NO_CHARGES


@<TRIPOS>ATOM
      1 ****        -4.6230   0.3390  -0.3327 O.2            1 S1                 0.0000
      2 ****        -3.3938   0.3249  -0.3413 C.2            1 S1                 0.0000
      3 ****        -2.6770   1.5250  -0.3522 N.am           1 S1                 0.0000
      4 ****        -1.2856   1.6392  -0.3628 C.2            1 S1                 0.0000
      5 ****        -0.7620   2.7525  -0.3535 O.2            1 S1                 0.0000
      6 ****        -0.5401   0.4392  -0.3759 N.am           1 S1                 0.0000
      7 ****         0.9704   0.5073  -0.3817 C.3            1 S1                 0.0000
      8 ****         1.5243   0.3827   1.0425 C.3            1 S1                 0.0000
      9 ****         2.7301  -0.5060   0.8272 C.3            1 S1                 0.0000
     10 ****         2.2441  -1.4164  -0.2933 C.3            1 S1                 0.0000
     11 ****         1.4790  -0.5578  -1.1336 O.3            1 S1                 0.0000
     12 ****        -1.2104  -0.7768  -0.3506 C.2            1 S1                 0.0000
     13 ****        -2.5608  -0.8741  -0.3359 C.2            1 S1                 0.0000
     14 ****        -3.1386  -2.0871  -0.3102 F              1 S1                 0.0000
     15 ****        -3.2110   2.3817  -0.3479 H              1 S1                 0.0000
     16 ****         1.2615   1.4310  -0.8844 H              1 S1                 0.0000
     17 ****         1.7637   1.3602   1.4622 H              1 S1                 0.0000
     18 ****         0.7967  -0.1153   1.6856 H              1 S1                 0.0000
     19 ****         3.5802   0.0875   0.4879 H              1 S1                 0.0000
     20 ****         3.0264  -1.0514   1.7235 H              1 S1                 0.0000
     21 ****         3.0628  -1.8832  -0.8410 H              1 S1                 0.0000
     22 ****         1.6073  -2.2070   0.1047 H              1 S1                 0.0000
     23 ****        -0.6450  -1.6957  -0.3374 H              1 S1                 0.0000
     24 ****        -5.1328  -0.5212  -0.3209 LP             1 S1                 0.0000
     25 ****        -5.1130   1.2107  -0.3374 LP             1 S1                 0.0000
     26 ****        -1.3328   3.5734  -0.3383 LP             1 S1                 0.0000
     27 ****         0.2345   2.8365  -0.3610 LP             1 S1                 0.0000
     28 ****         2.0622  -0.2009  -1.8633 LP             1 S1                 0.0000
     29 ****         0.7216  -1.0734  -1.5342 LP             1 S1                 0.0000
@<TRIPOS>BOND
    1    1    2 2     
    2    2   13 1     
    3    2    3 1     
    4    3   15 1     
    5    3    4 1     
    6    4    5 2     
    7    4    6 1     
    8    6    7 1     
    9    6   12 1     
   10    7   11 1     
   11    7    8 1     
   12    7   16 1     
   13    8    9 1     
   14    8   17 1     
   15    8   18 1     
   16    9   10 1     
   17    9   19 1     
   18    9   20 1     
   19   10   11 1     
   20   10   21 1     
   21   10   22 1     
   22   12   13 2     
   23   12   23 1     
   24   13   14 1     
   25    1   24 1     
   26    1   25 1     
   27    5   26 1     
   28    5   27 1     
   29   11   28 1     
   30   11   29 1     
@<TRIPOS>SUBSTRUCTURE
      1 S1             1
@<TRIPOS>SET
LONE_PAIRS      STATIC     ATOMS    <user>   **** ""
6 24 25 26 27 28 29
DONOR_HYDROGENS      STATIC     ATOMS    <user>   **** ""
1 15
ATOM$BLUE        STATIC     ATOMS    COLORGROUP SYSTEM
6 24 25 26 27 28 29
ATOM$RED        STATIC     ATOMS    COLORGROUP SYSTEM
1 15
