#       Name:                AV-unprocessed.smi:3187
#       Creating user name   scv26
#       Creation time:       Fri Mar 27 18:01:48 2020


#       File generated by GOLD software.
#

@<TRIPOS>MOLECULE
AV-unprocessed.smi:3187
    42    43     1
SMALL
NO_CHARGES


@<TRIPOS>ATOM
      1 ****         0.6361   2.2334   1.1343 C.3            1 S1                 0.0000
      2 ****        -0.7703   1.6652   1.2423 C.2            1 S1                 0.0000
      3 ****        -1.5489   1.9506   2.3046 C.2            1 S1                 0.0000
      4 ****        -2.9857   1.4895   2.4758 C.3            1 S1                 0.0000
      5 ****        -3.4382   0.4997   1.3894 C.3            1 S1                 0.0000
      6 ****        -2.8310   0.8477   0.0188 C.3            1 S1                 0.0000
      7 ****        -3.4470   0.0104  -1.1153 C.3            1 S1                 0.0000
      8 ****        -1.2775   0.8114   0.0719 C.3            1 S1                 0.0000
      9 ****        -0.7103  -0.6325   0.1005 C.3            1 S1                 0.0000
     10 ****         0.7607  -0.6750  -0.0021 N.4            1 S1                 1.0000
     11 ****         1.3313  -2.0368  -0.0237 C.3            1 S1                 0.0000
     12 ****         2.8673  -2.0030  -0.0463 C.3            1 S1                 0.0000
     13 ****         3.3839  -1.3651  -1.2423 N.pl3          1 S1                 0.0000
     14 ****         3.4540  -1.9090  -2.5182 C.2            1 S1                 0.0000
     15 ****         4.0080  -0.9427  -3.3273 C.2            1 S1                 0.0000
     16 ****         4.2854   0.1958  -2.5742 N.2            1 S1                 0.0000
     17 ****         3.8947  -0.1306  -1.3496 C.2            1 S1                 0.0000
     18 ****         0.7952   2.6789   0.1521 H              1 S1                 0.0000
     19 ****         1.3932   1.4686   1.2977 H              1 S1                 0.0000
     20 ****         0.8000   3.0123   1.8800 H              1 S1                 0.0000
     21 ****        -1.1642   2.5787   3.0951 H              1 S1                 0.0000
     22 ****        -3.1110   1.0473   3.4644 H              1 S1                 0.0000
     23 ****        -3.6174   2.3777   2.4471 H              1 S1                 0.0000
     24 ****        -3.1518  -0.5127   1.6741 H              1 S1                 0.0000
     25 ****        -4.5275   0.4982   1.3357 H              1 S1                 0.0000
     26 ****        -3.1105   1.8812  -0.1945 H              1 S1                 0.0000
     27 ****        -3.3574  -1.0597  -0.9288 H              1 S1                 0.0000
     28 ****        -2.9716   0.2302  -2.0716 H              1 S1                 0.0000
     29 ****        -4.5099   0.2289  -1.2216 H              1 S1                 0.0000
     30 ****        -0.9254   1.2869  -0.8447 H              1 S1                 0.0000
     31 ****        -1.0129  -1.1427   1.0152 H              1 S1                 0.0000
     32 ****        -1.1028  -1.2129  -0.7337 H              1 S1                 0.0000
     33 ****         1.0375  -0.1997  -0.8494 H              1 S1                 0.0000
     34 ****         0.9941  -2.5781   0.8611 H              1 S1                 0.0000
     35 ****         0.9516  -2.5763  -0.8926 H              1 S1                 0.0000
     36 ****         3.2520  -1.4798   0.8303 H              1 S1                 0.0000
     37 ****         3.2635  -3.0183  -0.0045 H              1 S1                 0.0000
     38 ****         3.1132  -2.9099  -2.7400 H              1 S1                 0.0000
     39 ****         4.2265  -0.9790  -4.3845 H              1 S1                 0.0000
     40 ****         3.9755   0.5474  -0.5123 H              1 S1                 0.0000
     41 ****         1.1464  -0.1773   0.7876 H              1 S1                 0.0000
     42 ****         4.6858   1.0581  -2.8845 LP             1 S1                 0.0000
@<TRIPOS>BOND
    1    1    2 1     
    2    1   18 1     
    3    1   19 1     
    4    1   20 1     
    5    2    8 1     
    6    2    3 2     
    7    3    4 1     
    8    3   21 1     
    9    4    5 1     
   10    4   22 1     
   11    4   23 1     
   12    5    6 1     
   13    5   24 1     
   14    5   25 1     
   15    6    7 1     
   16    6    8 1     
   17    6   26 1     
   18    7   27 1     
   19    7   28 1     
   20    7   29 1     
   21    8    9 1     
   22    8   30 1     
   23    9   10 1     
   24    9   31 1     
   25    9   32 1     
   26   10   11 1     
   27   10   33 1     
   28   10   41 1     
   29   11   12 1     
   30   11   34 1     
   31   11   35 1     
   32   12   13 1     
   33   12   36 1     
   34   12   37 1     
   35   13   17 1     
   36   13   14 1     
   37   14   15 2     
   38   14   38 1     
   39   15   16 1     
   40   15   39 1     
   41   16   17 2     
   42   17   40 1     
   43   16   42 1     
@<TRIPOS>SUBSTRUCTURE
      1 S1             1
@<TRIPOS>SET
LONE_PAIRS      STATIC     ATOMS    <user>   **** ""
1 42
DONOR_HYDROGENS      STATIC     ATOMS    <user>   **** ""
2 33 41
ATOM$BLUE        STATIC     ATOMS    COLORGROUP SYSTEM
1 42
ATOM$RED        STATIC     ATOMS    COLORGROUP SYSTEM
2 33 41
