#       Name:                AV-unprocessed.smi:2908
#       Creating user name   scv26
#       Creation time:       Fri Mar 27 16:05:49 2020


#       File generated by GOLD software.
#

@<TRIPOS>MOLECULE
AV-unprocessed.smi:2908
    48    49     1
SMALL
NO_CHARGES


@<TRIPOS>ATOM
      1 ****        -2.2876   2.4259   0.1555 O.2            1 S1                 0.0000
      2 ****        -1.8773   1.4154   0.7280 C.2            1 S1                 0.0000
      3 ****        -2.5139   0.2371   0.6421 N.am           1 S1                 0.0000
      4 ****        -3.6443  -0.0542  -0.2315 C.3            1 S1                 0.0000
      5 ****        -3.7015  -1.5486  -0.5990 C.3            1 S1                 0.0000
      6 ****        -2.3888  -2.0886  -1.1452 C.ar           1 S1                 0.0000
      7 ****        -2.0861  -1.9818  -2.5190 C.ar           1 S1                 0.0000
      8 ****        -0.8419  -2.4619  -2.9717 C.ar           1 S1                 0.0000
      9 ****         0.0474  -3.0283  -2.0382 C.ar           1 S1                 0.0000
     10 ****        -0.3495  -3.0913  -0.6880 C.ar           1 S1                 0.0000
     11 ****        -1.5381  -2.6302  -0.2430 N.ar           1 S1                 0.0000
     12 ****        -0.7517   1.3924   1.4860 N.am           1 S1                 0.0000
     13 ****        -0.0911   0.1907   2.0199 C.3            1 S1                 0.0000
     14 ****         1.1017  -0.1472   1.1093 C.3            1 S1                 0.0000
     15 ****         2.0904   1.0408   1.0042 C.3            1 S1                 0.0000
     16 ****         3.2607   0.7154   0.0393 C.3            1 S1                 0.0000
     17 ****         2.7821   0.5954  -1.2875 O.3            1 S1                 0.0000
     18 ****         4.4443   1.7077   0.0699 C.3            1 S1                 0.0000
     19 ****         5.4448   1.2304  -0.6709 F              1 S1                 0.0000
     20 ****         4.1024   2.9119  -0.3880 F              1 S1                 0.0000
     21 ****         4.8889   1.8363   1.3200 F              1 S1                 0.0000
     22 ****         1.3430   2.3628   0.6867 C.3            1 S1                 0.0000
     23 ****         0.1236   2.5624   1.6072 C.3            1 S1                 0.0000
     24 ****        -2.1247  -0.5429   1.1518 H              1 S1                 0.0000
     25 ****        -4.5700   0.2536   0.2552 H              1 S1                 0.0000
     26 ****        -3.5581   0.5299  -1.1495 H              1 S1                 0.0000
     27 ****        -3.9814  -2.1289   0.2817 H              1 S1                 0.0000
     28 ****        -4.4903  -1.7173  -1.3330 H              1 S1                 0.0000
     29 ****        -2.7866  -1.5343  -3.2088 H              1 S1                 0.0000
     30 ****        -0.5732  -2.3944  -4.0154 H              1 S1                 0.0000
     31 ****         1.0102  -3.4058  -2.3488 H              1 S1                 0.0000
     32 ****         0.3071  -3.5174   0.0559 H              1 S1                 0.0000
     33 ****         0.2591   0.3892   3.0339 H              1 S1                 0.0000
     34 ****        -0.7505  -0.6725   2.1106 H              1 S1                 0.0000
     35 ****         1.6155  -1.0304   1.4901 H              1 S1                 0.0000
     36 ****         0.7273  -0.4118   0.1195 H              1 S1                 0.0000
     37 ****         2.5214   1.1602   1.9991 H              1 S1                 0.0000
     38 ****         3.6555  -0.2624   0.3191 H              1 S1                 0.0000
     39 ****         2.0995  -0.0577  -1.3020 H              1 S1                 0.0000
     40 ****         2.0096   3.2163   0.8033 H              1 S1                 0.0000
     41 ****         1.0104   2.3673  -0.3521 H              1 S1                 0.0000
     42 ****        -0.3865   3.4942   1.3590 H              1 S1                 0.0000
     43 ****         0.4480   2.6719   2.6430 H              1 S1                 0.0000
     44 ****        -3.1210   2.3848  -0.3956 LP             1 S1                 0.0000
     45 ****        -1.7873   3.2875   0.2419 LP             1 S1                 0.0000
     46 ****        -1.7825  -2.6873   0.7250 LP             1 S1                 0.0000
     47 ****         3.5287   0.3165  -1.8915 LP             1 S1                 0.0000
     48 ****         2.4153   1.4736  -1.5945 LP             1 S1                 0.0000
@<TRIPOS>BOND
    1    1    2 2     
    2    2    3 am    
    3    2   12 am    
    4    3    4 1     
    5    3   24 1     
    6    4    5 1     
    7    4   25 1     
    8    4   26 1     
    9    5    6 1     
   10    5   27 1     
   11    5   28 1     
   12    6   11 ar    
   13    6    7 ar    
   14    7    8 ar    
   15    7   29 1     
   16    8    9 ar    
   17    8   30 1     
   18    9   10 ar    
   19    9   31 1     
   20   10   11 ar    
   21   10   32 1     
   22   12   23 1     
   23   12   13 1     
   24   13   14 1     
   25   13   33 1     
   26   13   34 1     
   27   14   15 1     
   28   14   35 1     
   29   14   36 1     
   30   15   16 1     
   31   15   22 1     
   32   15   37 1     
   33   16   17 1     
   34   16   18 1     
   35   16   38 1     
   36   17   39 1     
   37   18   19 1     
   38   18   20 1     
   39   18   21 1     
   40   22   23 1     
   41   22   40 1     
   42   22   41 1     
   43   23   42 1     
   44   23   43 1     
   45    1   44 1     
   46    1   45 1     
   47   11   46 1     
   48   17   47 1     
   49   17   48 1     
@<TRIPOS>SUBSTRUCTURE
      1 S1             1
@<TRIPOS>SET
LONE_PAIRS      STATIC     ATOMS    <user>   **** ""
5 44 45 46 47 48
DONOR_HYDROGENS      STATIC     ATOMS    <user>   **** ""
2 24 39
ATOM$BLUE        STATIC     ATOMS    COLORGROUP SYSTEM
5 44 45 46 47 48
ATOM$RED        STATIC     ATOMS    COLORGROUP SYSTEM
2 24 39
