AV-unprocessed.smi:2675|AV-procd|sdf|10363|dock9
  -GOLD-   2272014393D 1   1.00000     0.00000
 Structure written by MMmdl.
 36 37  0  0  0  0  0  0  0  0  1 V2000
  152.5145  144.1071  162.0413 C   0  0  0  0  0  0  0  0  0  0  0  0
  152.0024  144.3439  160.6535 C   0  0  0  0  0  0  0  0  0  0  0  0
  151.0084  145.2911  160.4191 N   0  0  0  0  0  0  0  0  0  0  0  0
  150.8117  145.2280  159.1104 C   0  0  0  0  0  0  0  0  0  0  0  0
  151.5802  144.3330  158.4744 N   0  0  0  0  0  0  0  0  0  0  0  0
  151.5708  144.0458  157.0497 C   0  0  0  0  0  0  0  0  0  0  0  0
  150.9941  142.6569  156.7748 C   0  0  0  0  0  0  0  0  0  0  0  0
  151.4416  141.6803  157.3738 O   0  0  0  0  0  0  0  0  0  0  0  0
  150.0047  142.5952  155.8665 N   0  0  0  0  0  0  0  0  0  0  0  0
  149.2368  141.4225  155.4286 C   0  0  2  0  0  0  0  0  0  0  0  0
  148.5860  140.8463  156.6974 C   0  0  0  0  0  0  0  0  0  0  0  0
  150.1117  140.3777  154.8607 C   0  0  0  0  0  0  0  0  0  0  0  0
  150.7986  139.5606  154.4132 N   0  0  0  0  0  0  0  0  0  0  0  0
  148.1348  141.7081  154.4055 C   0  0  0  0  0  0  0  0  0  0  0  0
  146.7863  142.3002  154.7524 C   0  0  0  0  0  0  0  0  0  0  0  0
  146.8870  140.8601  154.3008 C   0  0  0  0  0  0  0  0  0  0  0  0
  152.3651  143.7433  159.4646 C   0  0  0  0  0  0  0  0  0  0  0  0
  153.3728  142.6749  159.1790 C   0  0  0  0  0  0  0  0  0  0  0  0
  153.2857  143.3383  162.0677 H   0  0  0  0  0  0  0  0  0  0  0  0
  151.7111  143.7873  162.7051 H   0  0  0  0  0  0  0  0  0  0  0  0
  152.9460  145.0167  162.4597 H   0  0  0  0  0  0  0  0  0  0  0  0
  150.0865  145.8459  158.6015 H   0  0  0  0  0  0  0  0  0  0  0  0
  150.9795  144.8060  156.5369 H   0  0  0  0  0  0  0  0  0  0  0  0
  152.5860  144.1171  156.6581 H   0  0  0  0  0  0  0  0  0  0  0  0
  149.7334  143.4695  155.4408 H   0  0  0  0  0  0  0  0  0  0  0  0
  148.0176  139.9420  156.4761 H   0  0  0  0  0  0  0  0  0  0  0  0
  147.9004  141.5615  157.1538 H   0  0  0  0  0  0  0  0  0  0  0  0
  149.3365  140.5835  157.4445 H   0  0  0  0  0  0  0  0  0  0  0  0
  148.5371  142.0514  153.4538 H   0  0  0  0  0  0  0  0  0  0  0  0
  146.5326  142.4746  155.7940 H   0  0  0  0  0  0  0  0  0  0  0  0
  146.3619  143.0159  154.0514 H   0  0  0  0  0  0  0  0  0  0  0  0
  146.5270  140.6202  153.3025 H   0  0  0  0  0  0  0  0  0  0  0  0
  146.7198  140.0901  155.0510 H   0  0  0  0  0  0  0  0  0  0  0  0
  153.8494  142.3176  160.0909 H   0  0  0  0  0  0  0  0  0  0  0  0
  154.1568  143.0489  158.5207 H   0  0  0  0  0  0  0  0  0  0  0  0
  152.9041  141.8184  158.6942 H   0  0  0  0  0  0  0  0  0  0  0  0
  1  2  1  0  0  0  0
  1 19  1  0  0  0  0
  1 20  1  0  0  0  0
  1 21  1  0  0  0  0
  2 17  2  0  0  0  0
  2  3  1  0  0  0  0
  3  4  2  0  0  0  0
  4  5  1  0  0  0  0
  4 22  1  0  0  0  0
  5  6  1  0  0  0  0
  5 17  1  0  0  0  0
  6  7  1  0  0  0  0
  6 23  1  0  0  0  0
  6 24  1  0  0  0  0
  7  8  2  0  0  0  0
  7  9  1  0  0  0  0
  9 10  1  0  0  0  0
  9 25  1  0  0  0  0
 10 11  1  0  0  0  0
 10 12  1  0  0  0  0
 10 14  1  0  0  0  0
 11 26  1  0  0  0  0
 11 27  1  0  0  0  0
 11 28  1  0  0  0  0
 12 13  3  0  0  0  0
 14 16  1  0  0  0  0
 14 15  1  0  0  0  0
 14 29  1  0  0  0  0
 15 16  1  0  0  0  0
 15 30  1  0  0  0  0
 15 31  1  0  0  0  0
 16 32  1  0  0  0  0
 16 33  1  0  0  0  0
 17 18  1  0  0  0  0
 18 34  1  0  0  0  0
 18 35  1  0  0  0  0
 18 36  1  0  0  0  0
M  END
> <s_m_source_file>
AV-unprocessed.smi

> <i_m_source_file_index>
2675

> <i_lp_mmshare_version>
43012

> <i_f3d_flags>
0

> <s_epik_input>
W0NIM11jMW5bY0hdbihjMVtDSDNdKVtDSDJdQyg9TylbTkhdW0NAQF0oW0NIM10pKEMjTilbQ0hdMltDSDJdW0NIMl0y

> <s_epik_cmdline>
J2VwaWtfcHl0aG9uJywgJy1waCcsICc3LjAnLCAnLXRuJywgJzgnLCAnLW1hJywgJzIwMCcsICctbWV0YWxfYmluZGluZycsICctaW1hZScsICc8aW5maWxlLm1hZT4nLCAnLW9tYWUnLCAnPG91dGZpbGUubWFlPic=

> <r_lp_tautomer_probability>
1

> <r_epik_Ionization_Penalty>
0.876174

> <r_epik_Ionization_Penalty_Charging>
0.876172

> <r_epik_Ionization_Penalty_Neutral>
2.64295e-06

> <r_epik_State_Penalty>
0.913958

> <r_epik_Charging_Adjusted_Penalty>
1.79013

> <i_epik_Tot_Q>
0

> <i_epik_Tot_abs_Q>
0

> <r_epik_Metal_State_Penalty>
0.359336

> <b_epik_Metal_Only>
0

> <s_lp_Force_Field>
OPLS_2005

> <r_lp_Energy>
15.5339

> <b_lp_Chiralities_Consistent>
1

> <s_lp_Variant>
AV-unprocessed.smi:2675-4

> <Gold.Version>
5.8.1

> <Gold.Id.Protein>
6NUR|6NUR_protein|mol2

> <Gold.PLP.Fitness>
48.2295

> <Gold.PLP.PLP>
-41.7967

> <Gold.PLP.part.hbond>
-1.6452

> <Gold.PLP.part.metal>
0.0000

> <Gold.PLP.part.buried>
-3.2526

> <Gold.PLP.part.nonpolar>
-36.2108

> <Gold.PLP.part.repulsive>
0.5375

> <Gold.PLP.ligand.clash>
0.0000

> <Gold.PLP.ligand.torsion>
0.8950

> <Gold.PLP.Chemscore.Hbond>
1.2800

> <Gold.PLP.Chemscore.CHOScore>
0.9634

> <Gold.PLP.Chemscore.Metal>
0.0000

> <Gold.Chemscore.Hbonds>
donor molecule, donor type, donor heavy atom, donor atom, acceptor molecule, acceptor atom, score
      L1  H     9    25       P1  8028  0.86
      P1  H  7989  7998       L1    13  0.40
      L1  C     4    22       P1  8029  0.97

> <Gold.PLP.Chemscore.Internal.Correction>
1.4925

> <Gold.Rescore>
     Score         DG    S(hbond)    S(metal)    S(lipo)     H(rot)  DE(clash)    DE(int)     intcor
     11.61     -14.56       0.91        0.00      89.82       1.74       0.14       2.81       ----

> <Gold.Chemscore.Fitness>
11.6128

> <Gold.Chemscore.DG>
-14.5644

> <Gold.Chemscore.ZeroCoef>
-5.4800

> <Gold.Chemscore.Hbond>
0.9092

> <Gold.Chemscore.Metal>
0.0000

> <Gold.Chemscore.Lipo>
89.8230

> <Gold.Chemscore.Internal_Hbond>
0.0000

> <Gold.Chemscore.DEClash>
0.1429

> <Gold.Chemscore.DEInternal>
2.8087

> <Gold.Chemscore.Rot>
1.7429

> <Gold.Chemscore.Internal.Correction>
   9.000000E+99

> <Gold.Chemscore.Hbonds>
donor molecule, donor type, donor heavy atom, donor atom, acceptor molecule, acceptor atom, score
      L1  H     9    25       P1  8028  0.79
      P1  H  7989  7998       L1    13  0.01

> <Gold.Chemscore.Hbond.Weighted>
-3.0368

> <Gold.Chemscore.Metal.Weighted>
-0.0000

> <Gold.Chemscore.Lipo.Weighted>
-10.5093

> <Gold.Chemscore.Internal_Hbond.Weighted>
0.0000

> <Gold.Chemscore.DEClash.Weighted>
0.1429

> <Gold.Chemscore.DEInternal.Weighted>
2.8087

> <Gold.Chemscore.Rot.Weighted>
4.4617

> <Gold.Chemscore.Internal.Correction.Weighted>
   9.000000E+99

> <Gold.Protein.RotatedTorsions>
[ 6907 6896 6895 6894 ] final  -70.33 input  -60.11 | X-H torsion
[ 7974 7965 7964 7962 ] final    4.89 input  175.53 | X-H torsion
[ 8008 7997 7996 7995 ] final  -94.40 input   59.86 | X-H torsion
[ 10167 10162 10161 10158 ] final    1.69 input  -65.29 | X-H torsion
[ 10718 10713 10712 10709 ] final   44.58 input   66.30 | X-H torsion
[ 10763 10752 10751 10750 ] final   31.46 input  -60.55 | X-H torsion
[ 11005 11000 10999 10996 ] final -103.92 input  -57.11 | X-H torsion

> <Gold.Protein.ActiveResidues>
 VAL166  LYS551  ARG553  GLY616  TRP617  ASP618  TYR619  PRO620  LYS621  CYS622 
 ASP623  PHE694  ASN695  SER759  ASP760  ASP761  ALA762  ILE779  LEU786  VAL792 
 PHE793  MET794  SER795  GLU796  ALA797  LYS798  CYS799  TRP800  GLU811  SER814 

> <Gold.Protein.RotatedAtoms>
  150.7263  134.5469  159.5774 H   0  0  0  0  0  0  0  0  0  0  0  0  # atno 6907 bound_to 6896
  152.2966  134.7657  160.0376 H   0  0  0  0  0  0  0  0  0  0  0  0  # atno 6908 bound_to 6896
  151.8252  133.3365  159.3633 H   0  0  0  0  0  0  0  0  0  0  0  0  # atno 6909 bound_to 6896
  146.2442  140.0466  142.8378 H   0  0  0  0  0  0  0  0  0  0  0  0  # atno 7974 bound_to 7965
  154.7480  140.0489  157.0868 H   0  0  0  0  0  0  0  0  0  0  0  0  # atno 8008 bound_to 7997
  155.0094  140.3134  155.4816 H   0  0  0  0  0  0  0  0  0  0  0  0  # atno 8009 bound_to 7997
  156.2879  140.2187  156.5207 H   0  0  0  0  0  0  0  0  0  0  0  0  # atno 8010 bound_to 7997
  140.6671  143.7150  150.7848 H   0  0  0  0  0  0  0  0  0  0  0  0  # atno 10167 bound_to 10162
  157.4283  130.8010  149.7579 H   0  0  0  0  0  0  0  0  0  0  0  0  # atno 10718 bound_to 10713
  153.0314  135.6438  154.1203 H   0  0  0  0  0  0  0  0  0  0  0  0  # atno 10763 bound_to 10752
  154.0924  135.2865  155.3270 H   0  0  0  0  0  0  0  0  0  0  0  0  # atno 10764 bound_to 10752
  154.6455  135.5444  153.7903 H   0  0  0  0  0  0  0  0  0  0  0  0  # atno 10765 bound_to 10752
  141.1124  133.8680  157.1546 H   0  0  0  0  0  0  0  0  0  0  0  0  # atno 11005 bound_to 11000
  145.1022  140.9353  143.4706 LP  0  0  0  0  0  0  0  0  0  0  0  0  # atno 17320 bound_to 7965
  145.0661  139.3067  143.5855 LP  0  0  0  0  0  0  0  0  0  0  0  0  # atno 17321 bound_to 7965
  140.0829  143.4951  152.2520 LP  0  0  0  0  0  0  0  0  0  0  0  0  # atno 17342 bound_to 10162
  139.5924  144.7555  151.3369 LP  0  0  0  0  0  0  0  0  0  0  0  0  # atno 17343 bound_to 10162
  155.9904  130.3944  150.3029 LP  0  0  0  0  0  0  0  0  0  0  0  0  # atno 17370 bound_to 10713
  157.1183  131.0240  151.3020 LP  0  0  0  0  0  0  0  0  0  0  0  0  # atno 17371 bound_to 10713
  140.0026  135.0022  157.0222 LP  0  0  0  0  0  0  0  0  0  0  0  0  # atno 17394 bound_to 11000
  140.4739  134.1359  155.7207 LP  0  0  0  0  0  0  0  0  0  0  0  0  # atno 17395 bound_to 11000

$$$$
