AV-unprocessed.smi:870|AV-procd|sdf|4009|dock5
  -GOLD-   22720 1493D 1   1.00000     0.00000
 Structure written by MMmdl.
 47 49  0  0  0  0  0  0  0  0  2 V2000
  152.2577  137.2925  156.7000 C   0  0  0  0  0  0  0  0  0  0  0  0
  151.8229  137.0510  155.3733 O   0  0  0  0  0  0  0  0  0  0  0  0
  150.4375  136.7563  155.3017 C   0  0  0  0  0  0  0  0  0  0  0  0
  149.6392  137.9355  154.8508 C   0  0  0  0  0  0  0  0  0  0  0  0
  148.8169  137.9829  153.7647 N   0  3  0  0  0  0  0  0  0  0  0  0
  148.2437  139.2506  153.6599 C   0  0  0  0  0  0  0  0  0  0  0  0
  147.3501  139.7720  152.7294 C   0  0  0  0  0  0  0  0  0  0  0  0
  146.9570  141.1139  152.9126 C   0  0  0  0  0  0  0  0  0  0  0  0
  147.4479  141.8823  153.9880 C   0  0  0  0  0  0  0  0  0  0  0  0
  148.3541  141.3430  154.9246 C   0  0  0  0  0  0  0  0  0  0  0  0
  148.7399  140.0158  154.7357 C   0  0  0  0  0  0  0  0  0  0  0  0
  149.5971  139.1633  155.4428 N   0  0  0  0  0  0  0  0  0  0  0  0
  150.2964  139.6563  156.6403 C   0  0  0  0  0  0  0  0  0  0  0  0
  151.3844  140.6986  156.3121 C   0  0  2  0  0  0  0  0  0  0  0  0
  152.2609  140.1927  155.3258 O   0  0  0  0  0  0  0  0  0  0  0  0
  152.2113  141.0886  157.5452 C   0  0  0  0  0  0  0  0  0  0  0  0
  151.8643  142.4134  157.9249 O   0  0  0  0  0  0  0  0  0  0  0  0
  152.0999  142.8098  159.2251 C   0  0  0  0  0  0  0  0  0  0  0  0
  152.7163  141.9848  160.2004 C   0  0  0  0  0  0  0  0  0  0  0  0
  152.9252  142.4584  161.5095 C   0  0  0  0  0  0  0  0  0  0  0  0
  152.5232  143.7589  161.8620 C   0  0  0  0  0  0  0  0  0  0  0  0
  151.9108  144.5862  160.9031 C   0  0  0  0  0  0  0  0  0  0  0  0
  151.6990  144.1164  159.5899 C   0  0  0  0  0  0  0  0  0  0  0  0
  151.0351  145.0204  158.5682 C   0  0  0  0  0  0  0  0  0  0  0  0
  153.3254  137.5121  156.7015 H   0  0  0  0  0  0  0  0  0  0  0  0
  152.0931  136.4201  157.3337 H   0  0  0  0  0  0  0  0  0  0  0  0
  151.7379  138.1462  157.1365 H   0  0  0  0  0  0  0  0  0  0  0  0
  150.2689  135.9321  154.6074 H   0  0  0  0  0  0  0  0  0  0  0  0
  150.0721  136.4421  156.2804 H   0  0  0  0  0  0  0  0  0  0  0  0
  146.9713  139.1846  151.9059 H   0  0  0  0  0  0  0  0  0  0  0  0
  146.2643  141.5626  152.2153 H   0  0  0  0  0  0  0  0  0  0  0  0
  147.1221  142.9065  154.0978 H   0  0  0  0  0  0  0  0  0  0  0  0
  148.7186  141.9405  155.7471 H   0  0  0  0  0  0  0  0  0  0  0  0
  149.5419  140.0991  157.2915 H   0  0  0  0  0  0  0  0  0  0  0  0
  150.7094  138.8119  157.1922 H   0  0  0  0  0  0  0  0  0  0  0  0
  150.9187  141.5958  155.9029 H   0  0  0  0  0  0  0  0  0  0  0  0
  153.1122  140.5822  155.4543 H   0  0  0  0  0  0  0  0  0  0  0  0
  152.0219  140.3885  158.3609 H   0  0  0  0  0  0  0  0  0  0  0  0
  153.2745  141.0478  157.3018 H   0  0  0  0  0  0  0  0  0  0  0  0
  153.0403  140.9814  159.9700 H   0  0  0  0  0  0  0  0  0  0  0  0
  153.3951  141.8216  162.2446 H   0  0  0  0  0  0  0  0  0  0  0  0
  152.6839  144.1217  162.8666 H   0  0  0  0  0  0  0  0  0  0  0  0
  151.6035  145.5836  161.1813 H   0  0  0  0  0  0  0  0  0  0  0  0
  150.7864  145.9923  158.9956 H   0  0  0  0  0  0  0  0  0  0  0  0
  150.1143  144.5654  158.2024 H   0  0  0  0  0  0  0  0  0  0  0  0
  151.6994  145.1840  157.7189 H   0  0  0  0  0  0  0  0  0  0  0  0
  148.6630  137.1994  153.1428 H   0  0  0  0  0  0  0  0  0  0  0  0
  1  2  1  0  0  0  0
  1 25  1  0  0  0  0
  1 26  1  0  0  0  0
  1 27  1  0  0  0  0
  2  3  1  0  0  0  0
  3  4  1  0  0  0  0
  3 28  1  0  0  0  0
  3 29  1  0  0  0  0
  4 12  1  0  0  0  0
  4  5  2  0  0  0  0
  5  6  1  0  0  0  0
  5 47  1  0  0  0  0
  6 11  2  0  0  0  0
  6  7  1  0  0  0  0
  7  8  2  0  0  0  0
  7 30  1  0  0  0  0
  8  9  1  0  0  0  0
  8 31  1  0  0  0  0
  9 10  2  0  0  0  0
  9 32  1  0  0  0  0
 10 11  1  0  0  0  0
 10 33  1  0  0  0  0
 11 12  1  0  0  0  0
 12 13  1  0  0  0  0
 13 14  1  0  0  0  0
 13 34  1  0  0  0  0
 13 35  1  0  0  0  0
 14 15  1  0  0  0  0
 14 16  1  0  0  0  0
 14 36  1  0  0  0  0
 15 37  1  0  0  0  0
 16 17  1  0  0  0  0
 16 38  1  0  0  0  0
 16 39  1  0  0  0  0
 17 18  1  0  0  0  0
 18 23  1  0  0  0  0
 18 19  2  0  0  0  0
 19 20  1  0  0  0  0
 19 40  1  0  0  0  0
 20 21  2  0  0  0  0
 20 41  1  0  0  0  0
 21 22  1  0  0  0  0
 21 42  1  0  0  0  0
 22 23  2  0  0  0  0
 22 43  1  0  0  0  0
 23 24  1  0  0  0  0
 24 44  1  0  0  0  0
 24 45  1  0  0  0  0
 24 46  1  0  0  0  0
M  CHG  1   5   1
M  END
> <s_m_source_file>
AV-unprocessed.smi

> <i_m_source_file_index>
870

> <i_lp_mmshare_version>
43012

> <i_f3d_flags>
0

> <s_epik_input>
W2NIXTFbY0hdW2NIXVtjSF1jKGMxMiluKGMobjIpW0NIMl1PW0NIM10pW0NIMl1bQ0BIXShbT0hdKVtDSDJdT2MzW2NIXVtjSF1bY0hdW2NIXWMzW0NIM10=

> <s_epik_cmdline>
J2VwaWtfcHl0aG9uJywgJy1waCcsICc3LjAnLCAnLXRuJywgJzgnLCAnLW1hJywgJzIwMCcsICctbWV0YWxfYmluZGluZycsICctaW1hZScsICc8aW5maWxlLm1hZT4nLCAnLW9tYWUnLCAnPG91dGZpbGUubWFlPic=

> <r_lp_tautomer_probability>
1

> <r_epik_Ionization_Penalty>
1.55338

> <r_epik_Ionization_Penalty_Charging>
1.55338

> <r_epik_Ionization_Penalty_Neutral>
2.3993e-06

> <r_epik_State_Penalty>
1.64778

> <r_epik_Charging_Adjusted_Penalty>
3.20115

> <i_epik_Tot_Q>
1

> <i_epik_Tot_abs_Q>
1

> <r_epik_Metal_State_Penalty>
5.70266

> <b_epik_Metal_Only>
0

> <s_lp_Force_Field>
OPLS_2005

> <r_lp_Energy>
18.2102

> <b_lp_Chiralities_Consistent>
1

> <s_lp_Variant>
AV-unprocessed.smi:870-3

> <Gold.Version>
5.8.1

> <Gold.Id.Protein>
6NUR|6NUR_protein|mol2

> <Gold.PLP.Fitness>
56.8120

> <Gold.PLP.PLP>
-48.0361

> <Gold.PLP.part.hbond>
-3.1425

> <Gold.PLP.part.metal>
0.0000

> <Gold.PLP.part.buried>
-3.3768

> <Gold.PLP.part.nonpolar>
-40.1513

> <Gold.PLP.part.repulsive>
0.1182

> <Gold.PLP.ligand.clash>
0.0000

> <Gold.PLP.ligand.torsion>
1.2267

> <Gold.PLP.Chemscore.Hbond>
3.7040

> <Gold.PLP.Chemscore.CHOScore>
0.0000

> <Gold.PLP.Chemscore.Metal>
0.0000

> <Gold.Chemscore.Hbonds>
donor molecule, donor type, donor heavy atom, donor atom, acceptor molecule, acceptor atom, score
      L1  H     5    47       P1  7948  2.00
      P1  H  7989  7998       L1    15  0.66
      P1  H 10752 10764       L1     2  1.00

> <Gold.PLP.Chemscore.Internal.Correction>
0.1175

> <Gold.Rescore>
     Score         DG    S(hbond)    S(metal)    S(lipo)     H(rot)  DE(clash)    DE(int)     intcor
     19.60     -22.55       1.81        0.00     147.91       2.45       1.74       1.21       ----

> <Gold.Chemscore.Fitness>
19.6032

> <Gold.Chemscore.DG>
-22.5536

> <Gold.Chemscore.ZeroCoef>
-5.4800

> <Gold.Chemscore.Hbond>
1.8081

> <Gold.Chemscore.Metal>
0.0000

> <Gold.Chemscore.Lipo>
147.9063

> <Gold.Chemscore.Internal_Hbond>
0.0000

> <Gold.Chemscore.DEClash>
1.7443

> <Gold.Chemscore.DEInternal>
1.2060

> <Gold.Chemscore.Rot>
2.4494

> <Gold.Chemscore.Internal.Correction>
   9.000000E+99

> <Gold.Chemscore.Hbonds>
donor molecule, donor type, donor heavy atom, donor atom, acceptor molecule, acceptor atom, score
      L1  H     5    47       P1  7948  0.97
      P1  H  7989  7998       L1    15  0.19
      P1  H 10752 10764       L1     2  0.40

> <Gold.Chemscore.Hbond.Weighted>
-6.0390

> <Gold.Chemscore.Metal.Weighted>
-0.0000

> <Gold.Chemscore.Lipo.Weighted>
-17.3050

> <Gold.Chemscore.Internal_Hbond.Weighted>
0.0000

> <Gold.Chemscore.DEClash.Weighted>
1.7443

> <Gold.Chemscore.DEInternal.Weighted>
1.2060

> <Gold.Chemscore.Rot.Weighted>
6.2704

> <Gold.Chemscore.Internal.Correction.Weighted>
   9.000000E+99

> <Gold.Protein.RotatedTorsions>
[ 6907 6896 6895 6894 ] final   -2.16 input  -60.11 | X-H torsion
[ 7974 7965 7964 7962 ] final  143.67 input  175.53 | X-H torsion
[ 8008 7997 7996 7995 ] final -137.36 input   59.86 | X-H torsion
[ 10167 10162 10161 10158 ] final  -15.44 input  -65.29 | X-H torsion
[ 10718 10713 10712 10709 ] final -131.99 input   66.30 | X-H torsion
[ 10763 10752 10751 10750 ] final  -52.30 input  -60.55 | X-H torsion
[ 11005 11000 10999 10996 ] final  142.22 input  -57.11 | X-H torsion

> <Gold.Protein.ActiveResidues>
 VAL166  LYS551  ARG553  GLY616  TRP617  ASP618  TYR619  PRO620  LYS621  CYS622 
 ASP623  PHE694  ASN695  SER759  ASP760  ASP761  ALA762  ILE779  LEU786  VAL792 
 PHE793  MET794  SER795  GLU796  ALA797  LYS798  CYS799  TRP800  GLU811  SER814 

> <Gold.Protein.RotatedAtoms>
  151.5343  135.1068  159.9910 H   0  0  0  0  0  0  0  0  0  0  0  0  # atno 6907 bound_to 6896
  152.4564  133.7728  159.6818 H   0  0  0  0  0  0  0  0  0  0  0  0  # atno 6908 bound_to 6896
  150.8509  133.7722  159.3050 H   0  0  0  0  0  0  0  0  0  0  0  0  # atno 6909 bound_to 6896
  144.8901  139.5571  143.5802 H   0  0  0  0  0  0  0  0  0  0  0  0  # atno 7974 bound_to 7965
  155.4105  140.0512  157.3032 H   0  0  0  0  0  0  0  0  0  0  0  0  # atno 8008 bound_to 7997
  154.4948  140.2134  155.9429 H   0  0  0  0  0  0  0  0  0  0  0  0  # atno 8009 bound_to 7997
  156.1391  140.3157  155.8473 H   0  0  0  0  0  0  0  0  0  0  0  0  # atno 8010 bound_to 7997
  140.7218  143.5218  150.9625 H   0  0  0  0  0  0  0  0  0  0  0  0  # atno 10167 bound_to 10162
  156.2300  130.7032  151.0848 H   0  0  0  0  0  0  0  0  0  0  0  0  # atno 10718 bound_to 10713
  154.1405  135.6506  153.4941 H   0  0  0  0  0  0  0  0  0  0  0  0  # atno 10763 bound_to 10752
  153.0167  135.5314  154.6910 H   0  0  0  0  0  0  0  0  0  0  0  0  # atno 10764 bound_to 10752
  154.6170  135.2960  155.0340 H   0  0  0  0  0  0  0  0  0  0  0  0  # atno 10765 bound_to 10752
  140.0460  134.9280  157.0931 H   0  0  0  0  0  0  0  0  0  0  0  0  # atno 11005 bound_to 11000
  146.3048  139.7544  142.9064 LP  0  0  0  0  0  0  0  0  0  0  0  0  # atno 17320 bound_to 7965
  145.3799  141.0356  143.3183 LP  0  0  0  0  0  0  0  0  0  0  0  0  # atno 17321 bound_to 7965
  139.8935  143.6923  152.3142 LP  0  0  0  0  0  0  0  0  0  0  0  0  # atno 17342 bound_to 10162
  139.7248  144.7595  151.0897 LP  0  0  0  0  0  0  0  0  0  0  0  0  # atno 17343 bound_to 10162
  157.7128  131.0725  150.6437 LP  0  0  0  0  0  0  0  0  0  0  0  0  # atno 17370 bound_to 10713
  156.6504  130.4483  149.5721 LP  0  0  0  0  0  0  0  0  0  0  0  0  # atno 17371 bound_to 10713
  140.3993  134.2100  155.7164 LP  0  0  0  0  0  0  0  0  0  0  0  0  # atno 17394 bound_to 11000
  141.1907  133.8211  157.0908 LP  0  0  0  0  0  0  0  0  0  0  0  0  # atno 17395 bound_to 11000

$$$$
