AV-unprocessed.smi:1997|AV-procd|sdf|8086|dock9
  -GOLD-   2272010303D 1   1.00000     0.00000
 Structure written by MMmdl.
 37 39  0  0  0  0  0  0  0  0  1 V2000
  152.7103  135.7216  156.9109 O   0  0  0  0  0  0  0  0  0  0  0  0
  151.5811  136.1906  157.0581 C   0  0  0  0  0  0  0  0  0  0  0  0
  151.2999  137.3847  157.6083 N   0  0  0  0  0  0  0  0  0  0  0  0
  152.2033  138.3487  158.1289 C   0  0  0  0  0  0  0  0  0  0  0  0
  153.5361  138.2519  158.0289 N   0  0  0  0  0  0  0  0  0  0  0  0
  154.1793  139.3297  158.6213 N   0  0  0  0  0  0  0  0  0  0  0  0
  153.3187  140.2083  159.1487 C   0  0  0  0  0  0  0  0  0  0  0  0
  153.7720  141.4509  159.8402 C   0  0  0  0  0  0  0  0  0  0  0  0
  153.4976  141.6851  161.3099 C   0  0  0  0  0  0  0  0  0  0  0  0
  152.7765  142.5040  160.2701 C   0  0  0  0  0  0  0  0  0  0  0  0
  151.6210  139.7796  158.9619 S   0  0  0  0  0  0  0  0  0  0  0  0
  150.4610  135.5532  156.6841 N   0  0  0  0  0  0  0  0  0  0  0  0
  150.4049  134.2160  156.0889 C   0  0  2  0  0  0  0  0  0  0  0  0
  149.2733  134.2193  155.0356 C   0  0  0  0  0  0  0  0  0  0  0  0
  149.4182  133.1214  153.9673 C   0  0  0  0  0  0  0  0  0  0  0  0
  149.3021  131.6827  154.4940 C   0  0  0  0  0  0  0  0  0  0  0  0
  150.3973  131.3031  155.5053 C   0  0  0  0  0  0  0  0  0  0  0  0
  150.1362  131.8539  156.8286 N   0  0  0  0  0  0  0  0  0  0  0  0
  150.0923  133.1515  157.1665 C   0  0  0  0  0  0  0  0  0  0  0  0
  149.8019  133.4854  158.3154 O   0  0  0  0  0  0  0  0  0  0  0  0
  150.3228  137.6305  157.6685 H   0  0  0  0  0  0  0  0  0  0  0  0
  154.7277  141.7856  159.4417 H   0  0  0  0  0  0  0  0  0  0  0  0
  152.9129  140.9435  161.8505 H   0  0  0  0  0  0  0  0  0  0  0  0
  154.2718  142.1812  161.8918 H   0  0  0  0  0  0  0  0  0  0  0  0
  153.0693  143.5458  160.1573 H   0  0  0  0  0  0  0  0  0  0  0  0
  151.7200  142.2962  160.1119 H   0  0  0  0  0  0  0  0  0  0  0  0
  149.5766  136.0113  156.8474 H   0  0  0  0  0  0  0  0  0  0  0  0
  151.3624  133.9978  155.6119 H   0  0  0  0  0  0  0  0  0  0  0  0
  148.2936  134.1553  155.5124 H   0  0  0  0  0  0  0  0  0  0  0  0
  149.2791  135.1762  154.5111 H   0  0  0  0  0  0  0  0  0  0  0  0
  148.6505  133.2730  153.2080 H   0  0  0  0  0  0  0  0  0  0  0  0
  150.3717  133.2426  153.4518 H   0  0  0  0  0  0  0  0  0  0  0  0
  148.3150  131.5179  154.9282 H   0  0  0  0  0  0  0  0  0  0  0  0
  149.3699  131.0052  153.6423 H   0  0  0  0  0  0  0  0  0  0  0  0
  150.4270  130.2183  155.6095 H   0  0  0  0  0  0  0  0  0  0  0  0
  151.3847  131.6044  155.1525 H   0  0  0  0  0  0  0  0  0  0  0  0
  149.9399  131.1843  157.5586 H   0  0  0  0  0  0  0  0  0  0  0  0
  1  2  2  0  0  0  0
  2  3  1  0  0  0  0
  2 12  1  0  0  0  0
  3  4  1  0  0  0  0
  3 21  1  0  0  0  0
  4 11  1  0  0  0  0
  4  5  2  0  0  0  0
  5  6  1  0  0  0  0
  6  7  2  0  0  0  0
  7  8  1  0  0  0  0
  7 11  1  0  0  0  0
  8 10  1  0  0  0  0
  8  9  1  0  0  0  0
  8 22  1  0  0  0  0
  9 10  1  0  0  0  0
  9 23  1  0  0  0  0
  9 24  1  0  0  0  0
 10 25  1  0  0  0  0
 10 26  1  0  0  0  0
 12 13  1  0  0  0  0
 12 27  1  0  0  0  0
 13 19  1  0  0  0  0
 13 14  1  0  0  0  0
 13 28  1  0  0  0  0
 14 15  1  0  0  0  0
 14 29  1  0  0  0  0
 14 30  1  0  0  0  0
 15 16  1  0  0  0  0
 15 31  1  0  0  0  0
 15 32  1  0  0  0  0
 16 17  1  0  0  0  0
 16 33  1  0  0  0  0
 16 34  1  0  0  0  0
 17 18  1  0  0  0  0
 17 35  1  0  0  0  0
 17 36  1  0  0  0  0
 18 19  1  0  0  0  0
 18 37  1  0  0  0  0
 19 20  2  0  0  0  0
M  END
> <s_m_source_file>
AV-unprocessed.smi

> <i_m_source_file_index>
1997

> <i_lp_mmshare_version>
43012

> <i_f3d_flags>
0

> <s_epik_input>
W0NIMl0xW0NIMl1bQ0hdMWMoczIpbm5jMltOSF1DKD1PKVtOSF1bQ0BASF0zW0NIMl1bQ0gyXVtDSDJdW0NIMl1bTkhdQzM9Tw==

> <s_epik_cmdline>
J2VwaWtfcHl0aG9uJywgJy1waCcsICc3LjAnLCAnLXRuJywgJzgnLCAnLW1hJywgJzIwMCcsICctbWV0YWxfYmluZGluZycsICctaW1hZScsICc8aW5maWxlLm1hZT4nLCAnLW9tYWUnLCAnPG91dGZpbGUubWFlPic=

> <r_lp_tautomer_probability>
1

> <r_epik_Ionization_Penalty>
0.000421558

> <r_epik_Ionization_Penalty_Charging>
0

> <r_epik_Ionization_Penalty_Neutral>
0.000421558

> <r_epik_State_Penalty>
-0

> <r_epik_Charging_Adjusted_Penalty>
0

> <i_epik_Tot_Q>
0

> <i_epik_Tot_abs_Q>
0

> <r_epik_Metal_State_Penalty>
0.200761

> <b_epik_Metal_Only>
0

> <s_lp_Force_Field>
OPLS_2005

> <r_lp_Energy>
8.57521

> <b_lp_Chiralities_Consistent>
1

> <s_lp_Variant>
AV-unprocessed.smi:1997-1

> <Gold.Version>
5.8.1

> <Gold.Id.Protein>
6NUR|6NUR_protein|mol2

> <Gold.PLP.Fitness>
41.0912

> <Gold.PLP.PLP>
-32.7840

> <Gold.PLP.part.hbond>
-3.4338

> <Gold.PLP.part.metal>
0.0000

> <Gold.PLP.part.buried>
-4.1746

> <Gold.PLP.part.nonpolar>
-25.8554

> <Gold.PLP.part.repulsive>
0.2042

> <Gold.PLP.ligand.clash>
0.0000

> <Gold.PLP.ligand.torsion>
0.4097

> <Gold.PLP.Chemscore.Hbond>
3.0000

> <Gold.PLP.Chemscore.CHOScore>
0.0000

> <Gold.PLP.Chemscore.Metal>
0.0000

> <Gold.Chemscore.Hbonds>
donor molecule, donor type, donor heavy atom, donor atom, acceptor molecule, acceptor atom, score
      P1  H  6896  6909       L1    20  0.75
      P1  H  7997  8008       L1     6  1.00
      P1  H 10752 10765       L1     1  1.00

> <Gold.PLP.Chemscore.Internal.Correction>
0.1265

> <Gold.Rescore>
     Score         DG    S(hbond)    S(metal)    S(lipo)     H(rot)  DE(clash)    DE(int)     intcor
     17.75     -19.42       2.77        0.00      68.37       1.29       0.00       1.67       ----

> <Gold.Chemscore.Fitness>
17.7496

> <Gold.Chemscore.DG>
-19.4234

> <Gold.Chemscore.ZeroCoef>
-5.4800

> <Gold.Chemscore.Hbond>
2.7653

> <Gold.Chemscore.Metal>
0.0000

> <Gold.Chemscore.Lipo>
68.3730

> <Gold.Chemscore.Internal_Hbond>
0.0000

> <Gold.Chemscore.DEClash>
0.0000

> <Gold.Chemscore.DEInternal>
1.6737

> <Gold.Chemscore.Rot>
1.2860

> <Gold.Chemscore.Internal.Correction>
   9.000000E+99

> <Gold.Chemscore.Hbonds>
donor molecule, donor type, donor heavy atom, donor atom, acceptor molecule, acceptor atom, score
      P1  H  6896  6909       L1    20  0.68
      P1  H  7997  8008       L1     6  0.27
      P1  H 10752 10765       L1     1  0.99

> <Gold.Chemscore.Hbond.Weighted>
-9.2360

> <Gold.Chemscore.Metal.Weighted>
-0.0000

> <Gold.Chemscore.Lipo.Weighted>
-7.9996

> <Gold.Chemscore.Internal_Hbond.Weighted>
0.0000

> <Gold.Chemscore.DEClash.Weighted>
0.0000

> <Gold.Chemscore.DEInternal.Weighted>
1.6737

> <Gold.Chemscore.Rot.Weighted>
3.2923

> <Gold.Chemscore.Internal.Correction.Weighted>
   9.000000E+99

> <Gold.Protein.RotatedTorsions>
[ 6907 6896 6895 6894 ] final   -9.62 input  -60.11 | X-H torsion
[ 7974 7965 7964 7962 ] final  122.99 input  175.53 | X-H torsion
[ 8008 7997 7996 7995 ] final -116.02 input   59.86 | X-H torsion
[ 10167 10162 10161 10158 ] final   47.38 input  -65.29 | X-H torsion
[ 10718 10713 10712 10709 ] final   23.42 input   66.30 | X-H torsion
[ 10763 10752 10751 10750 ] final -129.76 input  -60.55 | X-H torsion
[ 11005 11000 10999 10996 ] final -161.67 input  -57.11 | X-H torsion

> <Gold.Protein.ActiveResidues>
 VAL166  LYS551  ARG553  GLY616  TRP617  ASP618  TYR619  PRO620  LYS621  CYS622 
 ASP623  PHE694  ASN695  SER759  ASP760  ASP761  ALA762  ILE779  LEU786  VAL792 
 PHE793  MET794  SER795  GLU796  ALA797  LYS798  CYS799  TRP800  GLU811  SER814 

> <Gold.Protein.RotatedAtoms>
  151.4149  135.0990  159.9596 H   0  0  0  0  0  0  0  0  0  0  0  0  # atno 6907 bound_to 6896
  152.5007  133.8762  159.7333 H   0  0  0  0  0  0  0  0  0  0  0  0  # atno 6908 bound_to 6896
  150.9265  133.6760  159.2848 H   0  0  0  0  0  0  0  0  0  0  0  0  # atno 6909 bound_to 6896
  145.1011  139.3518  143.4811 H   0  0  0  0  0  0  0  0  0  0  0  0  # atno 7974 bound_to 7965
  155.0611  140.0393  157.2577 H   0  0  0  0  0  0  0  0  0  0  0  0  # atno 8008 bound_to 7997
  154.7058  140.2682  155.6651 H   0  0  0  0  0  0  0  0  0  0  0  0  # atno 8009 bound_to 7997
  156.2774  140.2731  156.1684 H   0  0  0  0  0  0  0  0  0  0  0  0  # atno 8010 bound_to 7997
  140.3042  144.2897  150.6212 H   0  0  0  0  0  0  0  0  0  0  0  0  # atno 10167 bound_to 10162
  157.1658  130.6737  149.6060 H   0  0  0  0  0  0  0  0  0  0  0  0  # atno 10718 bound_to 10713
  154.8757  135.3885  154.3973 H   0  0  0  0  0  0  0  0  0  0  0  0  # atno 10763 bound_to 10752
  153.4701  135.7030  153.6003 H   0  0  0  0  0  0  0  0  0  0  0  0  # atno 10764 bound_to 10752
  153.4464  135.3844  155.2226 H   0  0  0  0  0  0  0  0  0  0  0  0  # atno 10765 bound_to 10752
  140.6178  134.4783  157.5221 H   0  0  0  0  0  0  0  0  0  0  0  0  # atno 11005 bound_to 11000
  146.3529  140.0889  142.8613 LP  0  0  0  0  0  0  0  0  0  0  0  0  # atno 17320 bound_to 7965
  145.0954  140.9312  143.4744 LP  0  0  0  0  0  0  0  0  0  0  0  0  # atno 17321 bound_to 7965
  140.5624  143.2190  151.7741 LP  0  0  0  0  0  0  0  0  0  0  0  0  # atno 17342 bound_to 10162
  139.4908  144.4330  151.9851 LP  0  0  0  0  0  0  0  0  0  0  0  0  # atno 17343 bound_to 10162
  155.9746  130.4696  150.6400 LP  0  0  0  0  0  0  0  0  0  0  0  0  # atno 17370 bound_to 10713
  157.4089  131.0821  151.1239 LP  0  0  0  0  0  0  0  0  0  0  0  0  # atno 17371 bound_to 10713
  139.9166  134.8234  156.1347 LP  0  0  0  0  0  0  0  0  0  0  0  0  # atno 17394 bound_to 11000
  141.0764  133.6774  156.2244 LP  0  0  0  0  0  0  0  0  0  0  0  0  # atno 17395 bound_to 11000

$$$$
