AV-unprocessed.smi:239|AV-procd|sdf|1820|dock9
  -GOLD-   2262020413D 1   1.00000     0.00000
 Structure written by MMmdl.
 54 58  0  0  0  0  0  0  0  0  1 V2000
  147.8655  127.2036  152.1302 C   0  0  0  0  0  0  0  0  0  0  0  0
  147.6735  128.7190  152.2469 C   0  0  2  0  0  0  0  0  0  0  0  0
  148.4277  129.3016  153.4547 C   0  0  0  0  0  0  0  0  0  0  0  0
  148.1319  130.7232  153.5928 N   0  0  0  0  0  0  0  0  0  0  0  0
  148.9731  131.4108  154.4069 C   0  0  0  0  0  0  0  0  0  0  0  0
  149.9966  130.7642  155.0277 N   0  0  0  0  0  0  0  0  0  0  0  0
  150.8388  131.4339  155.8198 C   0  0  0  0  0  0  0  0  0  0  0  0
  150.8412  132.7321  156.1270 N   0  0  0  0  0  0  0  0  0  0  0  0
  149.8123  133.3858  155.5160 C   0  0  0  0  0  0  0  0  0  0  0  0
  148.8397  132.8074  154.6517 C   0  0  0  0  0  0  0  0  0  0  0  0
  147.9396  133.7821  154.2366 N   0  0  0  0  0  0  0  0  0  0  0  0
  148.3664  134.8756  154.8068 C   0  0  0  0  0  0  0  0  0  0  0  0
  149.4908  134.7301  155.5869 N   0  0  0  0  0  0  0  0  0  0  0  0
  150.1782  135.7772  156.3271 C   0  0  0  0  0  0  0  0  0  0  0  0
  150.8069  136.8698  155.4270 C   0  0  0  0  0  0  0  0  0  0  0  0
  151.4751  136.2163  154.3611 O   0  0  0  0  0  0  0  0  0  0  0  0
  149.7093  137.7741  154.8315 C   0  0  0  0  0  0  0  0  0  0  0  0
  150.2965  138.9753  154.0687 C   0  0  0  0  0  0  0  0  0  0  0  0
  151.1696  139.7113  154.9167 O   0  0  0  0  0  0  0  0  0  0  0  0
  152.2937  138.9503  155.3416 C   0  0  0  0  0  0  0  0  0  0  0  0
  151.8308  137.7465  156.1813 C   0  0  0  0  0  0  0  0  0  0  0  0
  146.7007  131.0026  153.6860 C   0  0  0  0  0  0  0  0  0  0  0  0
  145.9410  130.3642  152.5075 C   0  0  1  0  0  0  0  0  0  0  0  0
  146.1373  131.1121  151.1962 C   0  0  0  0  0  0  0  0  0  0  0  0
  145.8713  132.5960  151.1002 C   0  0  0  0  0  0  0  0  0  0  0  0
  144.9475  131.6168  150.4149 C   0  0  0  0  0  0  0  0  0  0  0  0
  146.2777  128.9803  152.3892 O   0  0  0  0  0  0  0  0  0  0  0  0
  148.9188  126.9502  152.0073 H   0  0  0  0  0  0  0  0  0  0  0  0
  147.3258  126.8078  151.2695 H   0  0  0  0  0  0  0  0  0  0  0  0
  147.4993  126.6897  153.0194 H   0  0  0  0  0  0  0  0  0  0  0  0
  148.0420  129.1788  151.3293 H   0  0  0  0  0  0  0  0  0  0  0  0
  148.1236  128.7903  154.3691 H   0  0  0  0  0  0  0  0  0  0  0  0
  149.4953  129.1220  153.3354 H   0  0  0  0  0  0  0  0  0  0  0  0
  151.6247  130.8453  156.2698 H   0  0  0  0  0  0  0  0  0  0  0  0
  147.8727  135.8267  154.6697 H   0  0  0  0  0  0  0  0  0  0  0  0
  149.4685  136.2232  157.0254 H   0  0  0  0  0  0  0  0  0  0  0  0
  150.9496  135.3079  156.9391 H   0  0  0  0  0  0  0  0  0  0  0  0
  150.8301  135.9344  153.7306 H   0  0  0  0  0  0  0  0  0  0  0  0
  149.0528  137.1993  154.1770 H   0  0  0  0  0  0  0  0  0  0  0  0
  149.0799  138.1541  155.6374 H   0  0  0  0  0  0  0  0  0  0  0  0
  150.8282  138.6520  153.1726 H   0  0  0  0  0  0  0  0  0  0  0  0
  149.4931  139.6338  153.7376 H   0  0  0  0  0  0  0  0  0  0  0  0
  152.8760  138.6273  154.4771 H   0  0  0  0  0  0  0  0  0  0  0  0
  152.9447  139.5900  155.9376 H   0  0  0  0  0  0  0  0  0  0  0  0
  151.3751  138.1203  157.0991 H   0  0  0  0  0  0  0  0  0  0  0  0
  152.6977  137.1596  156.4870 H   0  0  0  0  0  0  0  0  0  0  0  0
  146.3229  130.5969  154.6255 H   0  0  0  0  0  0  0  0  0  0  0  0
  146.5207  132.0783  153.7039 H   0  0  0  0  0  0  0  0  0  0  0  0
  144.8761  130.3979  152.7407 H   0  0  0  0  0  0  0  0  0  0  0  0
  146.9675  130.7458  150.5955 H   0  0  0  0  0  0  0  0  0  0  0  0
  145.4957  133.1048  151.9859 H   0  0  0  0  0  0  0  0  0  0  0  0
  146.5359  133.1849  150.4714 H   0  0  0  0  0  0  0  0  0  0  0  0
  144.9963  131.5534  149.3297 H   0  0  0  0  0  0  0  0  0  0  0  0
  143.9594  131.4710  150.8466 H   0  0  0  0  0  0  0  0  0  0  0  0
  1  2  1  0  0  0  0
  1 28  1  0  0  0  0
  1 29  1  0  0  0  0
  1 30  1  0  0  0  0
  2 27  1  0  0  0  0
  2  3  1  0  0  0  0
  2 31  1  0  0  0  0
  3  4  1  0  0  0  0
  3 32  1  0  0  0  0
  3 33  1  0  0  0  0
  4  5  1  0  0  0  0
  4 22  1  0  0  0  0
  5 10  1  0  0  0  0
  5  6  2  0  0  0  0
  6  7  1  0  0  0  0
  7  8  2  0  0  0  0
  7 34  1  0  0  0  0
  8  9  1  0  0  0  0
  9 13  1  0  0  0  0
  9 10  2  0  0  0  0
 10 11  1  0  0  0  0
 11 12  2  0  0  0  0
 12 13  1  0  0  0  0
 12 35  1  0  0  0  0
 13 14  1  0  0  0  0
 14 15  1  0  0  0  0
 14 36  1  0  0  0  0
 14 37  1  0  0  0  0
 15 21  1  0  0  0  0
 15 16  1  0  0  0  0
 15 17  1  0  0  0  0
 16 38  1  0  0  0  0
 17 18  1  0  0  0  0
 17 39  1  0  0  0  0
 17 40  1  0  0  0  0
 18 19  1  0  0  0  0
 18 41  1  0  0  0  0
 18 42  1  0  0  0  0
 19 20  1  0  0  0  0
 20 21  1  0  0  0  0
 20 43  1  0  0  0  0
 20 44  1  0  0  0  0
 21 45  1  0  0  0  0
 21 46  1  0  0  0  0
 22 23  1  0  0  0  0
 22 47  1  0  0  0  0
 22 48  1  0  0  0  0
 23 24  1  0  0  0  0
 23 27  1  0  0  0  0
 23 49  1  0  0  0  0
 24 26  1  0  0  0  0
 24 25  1  0  0  0  0
 24 50  1  0  0  0  0
 25 26  1  0  0  0  0
 25 51  1  0  0  0  0
 25 52  1  0  0  0  0
 26 53  1  0  0  0  0
 26 54  1  0  0  0  0
M  END
> <s_m_source_file>
AV-unprocessed.smi

> <i_m_source_file_index>
239

> <i_lp_mmshare_version>
43012

> <i_f3d_flags>
0

> <s_epik_input>
W0NIMl0xW0NIMl1bQ0hdMVtDQEBIXShPMilbQ0gyXU4oW0NIMl1bQ0BIXTJbQ0gzXSljKG5bY0hdbjMpYyhjMzQpbltjSF1uNFtDSDJdQzUoW09IXSlbQ0gyXVtDSDJdT1tDSDJdW0NIMl01

> <s_epik_cmdline>
J2VwaWtfcHl0aG9uJywgJy1waCcsICc3LjAnLCAnLXRuJywgJzgnLCAnLW1hJywgJzIwMCcsICctbWV0YWxfYmluZGluZycsICctaW1hZScsICc8aW5maWxlLm1hZT4nLCAnLW9tYWUnLCAnPG91dGZpbGUubWFlPic=

> <r_lp_tautomer_probability>
1

> <r_epik_Ionization_Penalty>
9.13091e-05

> <r_epik_Ionization_Penalty_Charging>
0

> <r_epik_Ionization_Penalty_Neutral>
9.13091e-05

> <r_epik_State_Penalty>
-0

> <r_epik_Charging_Adjusted_Penalty>
0

> <i_epik_Tot_Q>
0

> <i_epik_Tot_abs_Q>
0

> <r_epik_Metal_State_Penalty>
-0

> <b_epik_Metal_Only>
0

> <s_lp_Force_Field>
OPLS_2005

> <r_lp_Energy>
39.9708

> <b_lp_Chiralities_Consistent>
1

> <s_lp_Variant>
AV-unprocessed.smi:239-1

> <Gold.Version>
5.8.1

> <Gold.Id.Protein>
6NUR|6NUR_protein|mol2

> <Gold.PLP.Fitness>
49.1284

> <Gold.PLP.PLP>
-43.9994

> <Gold.PLP.part.hbond>
-3.1831

> <Gold.PLP.part.metal>
0.0000

> <Gold.PLP.part.buried>
-3.6673

> <Gold.PLP.part.nonpolar>
-36.5831

> <Gold.PLP.part.repulsive>
0.3942

> <Gold.PLP.ligand.clash>
0.0000

> <Gold.PLP.ligand.torsion>
1.1416

> <Gold.PLP.Chemscore.Hbond>
2.0073

> <Gold.PLP.Chemscore.CHOScore>
0.0000

> <Gold.PLP.Chemscore.Metal>
0.0000

> <Gold.Chemscore.Hbonds>
donor molecule, donor type, donor heavy atom, donor atom, acceptor molecule, acceptor atom, score
      L1  H    16    38       P1  7949  0.15
      P1  H  7989  7998       L1    19  0.55
      P1  H 10752 10763       L1    16  1.00

> <Gold.PLP.Chemscore.Internal.Correction>
1.3903

> <Gold.Rescore>
     Score         DG    S(hbond)    S(metal)    S(lipo)     H(rot)  DE(clash)    DE(int)     intcor
     13.45     -14.90       1.02        0.00     100.51       2.24       0.26       1.20       ----

> <Gold.Chemscore.Fitness>
13.4520

> <Gold.Chemscore.DG>
-14.9048

> <Gold.Chemscore.ZeroCoef>
-5.4800

> <Gold.Chemscore.Hbond>
1.0169

> <Gold.Chemscore.Metal>
0.0000

> <Gold.Chemscore.Lipo>
100.5070

> <Gold.Chemscore.Internal_Hbond>
0.0000

> <Gold.Chemscore.DEClash>
0.2575

> <Gold.Chemscore.DEInternal>
1.1953

> <Gold.Chemscore.Rot>
2.2387

> <Gold.Chemscore.Internal.Correction>
   9.000000E+99

> <Gold.Chemscore.Hbonds>
donor molecule, donor type, donor heavy atom, donor atom, acceptor molecule, acceptor atom, score
      L1  H    16    38       P1  7949  0.02
      P1  H  7989  7998       L1    19  0.02
      P1  H 10752 10763       L1    16  0.93

> <Gold.Chemscore.Hbond.Weighted>
-3.3966

> <Gold.Chemscore.Metal.Weighted>
-0.0000

> <Gold.Chemscore.Lipo.Weighted>
-11.7593

> <Gold.Chemscore.Internal_Hbond.Weighted>
0.0000

> <Gold.Chemscore.DEClash.Weighted>
0.2575

> <Gold.Chemscore.DEInternal.Weighted>
1.1953

> <Gold.Chemscore.Rot.Weighted>
5.7311

> <Gold.Chemscore.Internal.Correction.Weighted>
   9.000000E+99

> <Gold.Protein.RotatedTorsions>
[ 6907 6896 6895 6894 ] final  160.77 input  -60.11 | X-H torsion
[ 7974 7965 7964 7962 ] final   67.91 input  175.53 | X-H torsion
[ 8008 7997 7996 7995 ] final -114.89 input   59.86 | X-H torsion
[ 10167 10162 10161 10158 ] final   23.22 input  -65.29 | X-H torsion
[ 10718 10713 10712 10709 ] final  -93.50 input   66.30 | X-H torsion
[ 10763 10752 10751 10750 ] final   41.51 input  -60.55 | X-H torsion
[ 11005 11000 10999 10996 ] final   88.02 input  -57.11 | X-H torsion

> <Gold.Protein.ActiveResidues>
 VAL166  LYS551  ARG553  GLY616  TRP617  ASP618  TYR619  PRO620  LYS621  CYS622 
 ASP623  PHE694  ASN695  SER759  ASP760  ASP761  ALA762  ILE779  LEU786  VAL792 
 PHE793  MET794  SER795  GLU796  ALA797  LYS798  CYS799  TRP800  GLU811  SER814 

> <Gold.Protein.RotatedAtoms>
  151.9656  133.3709  159.4051 H   0  0  0  0  0  0  0  0  0  0  0  0  # atno 6907 bound_to 6896
  150.6957  134.4194  159.5207 H   0  0  0  0  0  0  0  0  0  0  0  0  # atno 6908 bound_to 6896
  152.1890  134.8688  160.0570 H   0  0  0  0  0  0  0  0  0  0  0  0  # atno 6909 bound_to 6896
  145.8090  139.3022  143.1110 H   0  0  0  0  0  0  0  0  0  0  0  0  # atno 7974 bound_to 7965
  155.0435  140.0392  157.2518 H   0  0  0  0  0  0  0  0  0  0  0  0  # atno 8008 bound_to 7997
  154.7197  140.2709  155.6529 H   0  0  0  0  0  0  0  0  0  0  0  0  # atno 8009 bound_to 7997
  156.2813  140.2705  156.1864 H   0  0  0  0  0  0  0  0  0  0  0  0  # atno 8010 bound_to 7997
  140.5287  143.9879  150.6454 H   0  0  0  0  0  0  0  0  0  0  0  0  # atno 10167 bound_to 10162
  156.0014  130.5029  150.5786 H   0  0  0  0  0  0  0  0  0  0  0  0  # atno 10718 bound_to 10713
  152.9906  135.6159  154.2800 H   0  0  0  0  0  0  0  0  0  0  0  0  # atno 10763 bound_to 10752
  154.2529  135.2785  155.2811 H   0  0  0  0  0  0  0  0  0  0  0  0  # atno 10764 bound_to 10752
  154.5272  135.5798  153.6786 H   0  0  0  0  0  0  0  0  0  0  0  0  # atno 10765 bound_to 10752
  139.8906  134.8461  156.2942 H   0  0  0  0  0  0  0  0  0  0  0  0  # atno 11005 bound_to 11000
  145.9797  140.8692  143.0120 LP  0  0  0  0  0  0  0  0  0  0  0  0  # atno 17320 bound_to 7965
  144.6759  140.2063  143.7382 LP  0  0  0  0  0  0  0  0  0  0  0  0  # atno 17321 bound_to 7965
  140.3248  143.3114  152.0747 LP  0  0  0  0  0  0  0  0  0  0  0  0  # atno 17342 bound_to 10162
  139.4947  144.6549  151.6594 LP  0  0  0  0  0  0  0  0  0  0  0  0  # atno 17343 bound_to 10162
  157.3670  131.0759  151.1590 LP  0  0  0  0  0  0  0  0  0  0  0  0  # atno 17370 bound_to 10713
  157.2356  130.6545  149.5868 LP  0  0  0  0  0  0  0  0  0  0  0  0  # atno 17371 bound_to 10713
  140.9956  133.7182  156.0881 LP  0  0  0  0  0  0  0  0  0  0  0  0  # atno 17394 bound_to 11000
  140.7567  134.3985  157.5532 LP  0  0  0  0  0  0  0  0  0  0  0  0  # atno 17395 bound_to 11000

$$$$
