AV-unprocessed.smi:2583|AV-procd|sdf|10136|dock3
  -GOLD-   2272014153D 1   1.00000     0.00000
 Structure written by MMmdl.
 55 57  0  0  0  0  0  0  0  0  3 V2000
  147.6643  136.9373  163.3358 C   0  0  0  0  0  0  0  0  0  0  0  0
  147.6493  135.8942  162.2380 C   0  0  0  0  0  0  0  0  0  0  0  0
  147.3679  134.5421  162.5227 C   0  0  0  0  0  0  0  0  0  0  0  0
  147.3563  133.5743  161.5823 N   0  0  0  0  0  0  0  0  0  0  0  0
  147.6235  133.9294  160.3079 C   0  0  0  0  0  0  0  0  0  0  0  0
  147.9033  135.2522  159.9054 C   0  0  0  0  0  0  0  0  0  0  0  0
  148.1868  135.4842  158.5328 N   0  0  0  0  0  0  0  0  0  0  0  0
  148.4786  136.6458  157.9235 C   0  0  0  0  0  0  0  0  0  0  0  0
  148.5106  137.7477  158.4705 O   0  0  0  0  0  0  0  0  0  0  0  0
  148.7153  136.4575  156.6170 N   0  0  0  0  0  0  0  0  0  0  0  0
  149.0513  137.5003  155.6508 C   0  0  2  0  0  0  0  0  0  0  0  0
  150.4880  137.9998  155.8937 C   0  0  0  0  0  0  0  0  0  0  0  0
  150.8103  139.2225  155.0123 C   0  0  0  0  0  0  0  0  0  0  0  0
  149.8369  140.3327  155.2249 N   0  3  2  0  0  0  0  0  0  0  0  0
  149.9545  141.0469  156.5435 C   0  0  2  0  0  0  0  0  0  0  0  0
  148.6215  141.7087  156.9768 C   0  0  0  0  0  0  0  0  0  0  0  0
  148.7565  142.5039  158.2866 C   0  0  0  0  0  0  0  0  0  0  0  0
  149.8130  143.5357  158.1794 N   0  3  1  0  0  0  0  0  0  0  0  0
  149.8846  144.3971  159.3793 C   0  0  0  0  0  0  0  0  0  0  0  0
  151.1215  142.9330  157.8371 C   0  0  0  0  0  0  0  0  0  0  0  0
  151.0433  142.1493  156.5159 C   0  0  0  0  0  0  0  0  0  0  0  0
  148.4693  139.8493  154.8780 C   0  0  0  0  0  0  0  0  0  0  0  0
  148.0433  138.6594  155.7597 C   0  0  0  0  0  0  0  0  0  0  0  0
  147.9246  136.2558  160.9039 C   0  0  0  0  0  0  0  0  0  0  0  0
  147.3945  136.5041  164.2994 H   0  0  0  0  0  0  0  0  0  0  0  0
  146.9557  137.7345  163.1100 H   0  0  0  0  0  0  0  0  0  0  0  0
  148.6581  137.3764  163.4254 H   0  0  0  0  0  0  0  0  0  0  0  0
  147.1532  134.2240  163.5323 H   0  0  0  0  0  0  0  0  0  0  0  0
  147.6093  133.1284  159.5832 H   0  0  0  0  0  0  0  0  0  0  0  0
  148.1113  134.6744  157.9349 H   0  0  0  0  0  0  0  0  0  0  0  0
  148.6577  135.5136  156.2637 H   0  0  0  0  0  0  0  0  0  0  0  0
  148.9991  137.1099  154.6328 H   0  0  0  0  0  0  0  0  0  0  0  0
  150.6292  138.2510  156.9452 H   0  0  0  0  0  0  0  0  0  0  0  0
  151.1961  137.1983  155.6786 H   0  0  0  0  0  0  0  0  0  0  0  0
  151.8401  139.5435  155.1516 H   0  0  0  0  0  0  0  0  0  0  0  0
  150.7581  138.9238  153.9643 H   0  0  0  0  0  0  0  0  0  0  0  0
  150.2303  140.3239  157.3112 H   0  0  0  0  0  0  0  0  0  0  0  0
  148.2600  142.3677  156.1859 H   0  0  0  0  0  0  0  0  0  0  0  0
  147.8474  140.9610  157.1417 H   0  0  0  0  0  0  0  0  0  0  0  0
  147.8038  142.9802  158.5224 H   0  0  0  0  0  0  0  0  0  0  0  0
  148.9860  141.8290  159.1133 H   0  0  0  0  0  0  0  0  0  0  0  0
  150.1574  143.8182  160.2627 H   0  0  0  0  0  0  0  0  0  0  0  0
  148.9230  144.8758  159.5674 H   0  0  0  0  0  0  0  0  0  0  0  0
  150.6264  145.1849  159.2439 H   0  0  0  0  0  0  0  0  0  0  0  0
  151.8733  143.7187  157.7498 H   0  0  0  0  0  0  0  0  0  0  0  0
  151.4444  142.2747  158.6456 H   0  0  0  0  0  0  0  0  0  0  0  0
  152.0303  141.7238  156.3434 H   0  0  0  0  0  0  0  0  0  0  0  0
  150.8509  142.8398  155.6935 H   0  0  0  0  0  0  0  0  0  0  0  0
  147.7289  140.6456  154.9093 H   0  0  0  0  0  0  0  0  0  0  0  0
  148.4779  139.5290  153.8351 H   0  0  0  0  0  0  0  0  0  0  0  0
  147.0542  138.3151  155.4552 H   0  0  0  0  0  0  0  0  0  0  0  0
  147.9446  138.9804  156.7972 H   0  0  0  0  0  0  0  0  0  0  0  0
  148.1609  137.2836  160.6763 H   0  0  0  0  0  0  0  0  0  0  0  0
  150.0619  141.0281  154.5272 H   0  0  0  0  0  0  0  0  0  0  0  0
  149.5573  144.1391  157.4106 H   0  0  0  0  0  0  0  0  0  0  0  0
  1  2  1  0  0  0  0
  1 25  1  0  0  0  0
  1 26  1  0  0  0  0
  1 27  1  0  0  0  0
  2 24  1  0  0  0  0
  2  3  2  0  0  0  0
  3  4  1  0  0  0  0
  3 28  1  0  0  0  0
  4  5  2  0  0  0  0
  5  6  1  0  0  0  0
  5 29  1  0  0  0  0
  6  7  1  0  0  0  0
  6 24  2  0  0  0  0
  7  8  1  0  0  0  0
  7 30  1  0  0  0  0
  8  9  2  0  0  0  0
  8 10  1  0  0  0  0
 10 11  1  0  0  0  0
 10 31  1  0  0  0  0
 11 23  1  0  0  0  0
 11 12  1  0  0  0  0
 11 32  1  0  0  0  0
 12 13  1  0  0  0  0
 12 33  1  0  0  0  0
 12 34  1  0  0  0  0
 13 14  1  0  0  0  0
 13 35  1  0  0  0  0
 13 36  1  0  0  0  0
 14 15  1  0  0  0  0
 14 22  1  0  0  0  0
 14 54  1  0  0  0  0
 15 21  1  0  0  0  0
 15 16  1  0  0  0  0
 15 37  1  0  0  0  0
 16 17  1  0  0  0  0
 16 38  1  0  0  0  0
 16 39  1  0  0  0  0
 17 18  1  0  0  0  0
 17 40  1  0  0  0  0
 17 41  1  0  0  0  0
 18 19  1  0  0  0  0
 18 20  1  0  0  0  0
 18 55  1  0  0  0  0
 19 42  1  0  0  0  0
 19 43  1  0  0  0  0
 19 44  1  0  0  0  0
 20 21  1  0  0  0  0
 20 45  1  0  0  0  0
 20 46  1  0  0  0  0
 21 47  1  0  0  0  0
 21 48  1  0  0  0  0
 22 23  1  0  0  0  0
 22 49  1  0  0  0  0
 22 50  1  0  0  0  0
 23 51  1  0  0  0  0
 23 52  1  0  0  0  0
 24 53  1  0  0  0  0
M  CHG  1  14   1
M  CHG  1  18   1
M  END
> <s_m_source_file>
AV-unprocessed.smi

> <i_m_source_file_index>
2583

> <i_lp_mmshare_version>
43012

> <i_f3d_flags>
0

> <s_epik_input>
W0NIM11jMVtjSF1uW2NIXWMoW2NIXTEpW05IXUMoPU8pW05IXVtDSF0yW0NIMl1bQ0gyXU4oW0NIMl1bQ0gyXTIpW0NIXTNbQ0gyXVtDSDJdTihbQ0gzXSlbQ0gyXVtDSDJdMw==

> <s_epik_cmdline>
J2VwaWtfcHl0aG9uJywgJy1waCcsICc3LjAnLCAnLXRuJywgJzgnLCAnLW1hJywgJzIwMCcsICctbWV0YWxfYmluZGluZycsICctaW1hZScsICc8aW5maWxlLm1hZT4nLCAnLW9tYWUnLCAnPG91dGZpbGUubWFlPic=

> <r_epik_Ionization_Penalty>
0.188357

> <r_epik_Ionization_Penalty_Charging>
0.180787

> <r_epik_Ionization_Penalty_Neutral>
0.00756971

> <r_epik_State_Penalty>
0.157948

> <r_epik_Charging_Adjusted_Penalty>
0.338735

> <i_epik_Tot_Q>
2

> <i_epik_Tot_abs_Q>
2

> <r_epik_Metal_State_Penalty>
0.153874

> <b_epik_Metal_Only>
0

> <s_lp_Force_Field>
OPLS_2005

> <r_lp_Energy>
45.5267

> <b_lp_Chiralities_Consistent>
1

> <s_lp_Variant>
AV-unprocessed.smi:2583-2

> <Gold.Version>
5.8.1

> <Gold.Id.Protein>
6NUR|6NUR_protein|mol2

> <Gold.PLP.Fitness>
40.1657

> <Gold.PLP.PLP>
-35.7424

> <Gold.PLP.part.hbond>
-1.4628

> <Gold.PLP.part.metal>
0.0000

> <Gold.PLP.part.buried>
-5.9401

> <Gold.PLP.part.nonpolar>
-28.7447

> <Gold.PLP.part.repulsive>
0.2232

> <Gold.PLP.ligand.clash>
0.0000

> <Gold.PLP.ligand.torsion>
0.8096

> <Gold.PLP.Chemscore.Hbond>
2.0000

> <Gold.PLP.Chemscore.CHOScore>
0.0000

> <Gold.PLP.Chemscore.Metal>
0.0000

> <Gold.Chemscore.Hbonds>
donor molecule, donor type, donor heavy atom, donor atom, acceptor molecule, acceptor atom, score
      L1  H    18    55       P1  8028  2.00

> <Gold.PLP.Chemscore.Internal.Correction>
0.0425

> <Gold.Rescore>
     Score         DG    S(hbond)    S(metal)    S(lipo)     H(rot)  DE(clash)    DE(int)     intcor
     13.95     -17.26       0.96        0.00      99.65       1.21       0.08       3.23       ----

> <Gold.Chemscore.Fitness>
13.9485

> <Gold.Chemscore.DG>
-17.2582

> <Gold.Chemscore.ZeroCoef>
-5.4800

> <Gold.Chemscore.Hbond>
0.9625

> <Gold.Chemscore.Metal>
0.0000

> <Gold.Chemscore.Lipo>
99.6479

> <Gold.Chemscore.Internal_Hbond>
0.0000

> <Gold.Chemscore.DEClash>
0.0805

> <Gold.Chemscore.DEInternal>
3.2291

> <Gold.Chemscore.Rot>
1.2092

> <Gold.Chemscore.Internal.Correction>
   9.000000E+99

> <Gold.Chemscore.Hbonds>
donor molecule, donor type, donor heavy atom, donor atom, acceptor molecule, acceptor atom, score
      L1  H    18    55       P1  8028  0.25

> <Gold.Chemscore.Hbond.Weighted>
-3.2148

> <Gold.Chemscore.Metal.Weighted>
-0.0000

> <Gold.Chemscore.Lipo.Weighted>
-11.6588

> <Gold.Chemscore.Internal_Hbond.Weighted>
0.0000

> <Gold.Chemscore.DEClash.Weighted>
0.0805

> <Gold.Chemscore.DEInternal.Weighted>
3.2291

> <Gold.Chemscore.Rot.Weighted>
3.0955

> <Gold.Chemscore.Internal.Correction.Weighted>
   9.000000E+99

> <Gold.Protein.RotatedTorsions>
[ 6907 6896 6895 6894 ] final  -12.92 input  -60.11 | X-H torsion
[ 7974 7965 7964 7962 ] final  -73.68 input  175.53 | X-H torsion
[ 8008 7997 7996 7995 ] final -143.37 input   59.86 | X-H torsion
[ 10167 10162 10161 10158 ] final  165.33 input  -65.29 | X-H torsion
[ 10718 10713 10712 10709 ] final   55.56 input   66.30 | X-H torsion
[ 10763 10752 10751 10750 ] final   45.13 input  -60.55 | X-H torsion
[ 11005 11000 10999 10996 ] final  -22.97 input  -57.11 | X-H torsion

> <Gold.Protein.ActiveResidues>
 VAL166  LYS551  ARG553  GLY616  TRP617  ASP618  TYR619  PRO620  LYS621  CYS622 
 ASP623  PHE694  ASN695  SER759  ASP760  ASP761  ALA762  ILE779  LEU786  VAL792 
 PHE793  MET794  SER795  GLU796  ALA797  LYS798  CYS799  TRP800  GLU811  SER814 

> <Gold.Protein.RotatedAtoms>
  151.3629  135.0907  159.9440 H   0  0  0  0  0  0  0  0  0  0  0  0  # atno 6907 bound_to 6896
  152.5157  133.9240  159.7558 H   0  0  0  0  0  0  0  0  0  0  0  0  # atno 6908 bound_to 6896
  150.9638  133.6362  159.2779 H   0  0  0  0  0  0  0  0  0  0  0  0  # atno 6909 bound_to 6896
  145.6490  140.9288  143.0995 H   0  0  0  0  0  0  0  0  0  0  0  0  # atno 7974 bound_to 7965
  155.5095  140.0582  157.2926 H   0  0  0  0  0  0  0  0  0  0  0  0  # atno 8008 bound_to 7997
  154.4557  140.1971  156.0335 H   0  0  0  0  0  0  0  0  0  0  0  0  # atno 8009 bound_to 7997
  156.0794  140.3249  155.7679 H   0  0  0  0  0  0  0  0  0  0  0  0  # atno 8010 bound_to 7997
  139.4904  144.4143  151.9263 H   0  0  0  0  0  0  0  0  0  0  0  0  # atno 10167 bound_to 10162
  157.5355  130.8660  149.8748 H   0  0  0  0  0  0  0  0  0  0  0  0  # atno 10718 bound_to 10713
  152.9829  135.6049  154.3386 H   0  0  0  0  0  0  0  0  0  0  0  0  # atno 10763 bound_to 10752
  154.3085  135.2771  155.2579 H   0  0  0  0  0  0  0  0  0  0  0  0  # atno 10764 bound_to 10752
  154.4799  135.5920  153.6438 H   0  0  0  0  0  0  0  0  0  0  0  0  # atno 10765 bound_to 10752
  140.8707  133.7722  156.0183 H   0  0  0  0  0  0  0  0  0  0  0  0  # atno 11005 bound_to 11000
  144.7129  139.8302  143.7408 LP  0  0  0  0  0  0  0  0  0  0  0  0  # atno 17320 bound_to 7965
  146.1219  139.4238  143.0223 LP  0  0  0  0  0  0  0  0  0  0  0  0  # atno 17321 bound_to 7965
  140.3585  144.3002  150.5937 LP  0  0  0  0  0  0  0  0  0  0  0  0  # atno 17342 bound_to 10162
  140.5424  143.2221  151.8063 LP  0  0  0  0  0  0  0  0  0  0  0  0  # atno 17343 bound_to 10162
  156.0456  130.3729  150.1327 LP  0  0  0  0  0  0  0  0  0  0  0  0  # atno 17370 bound_to 10713
  156.9509  130.9774  151.3498 LP  0  0  0  0  0  0  0  0  0  0  0  0  # atno 17371 bound_to 10713
  140.8576  134.2879  157.5248 LP  0  0  0  0  0  0  0  0  0  0  0  0  # atno 17394 bound_to 11000
  139.8712  134.9501  156.4045 LP  0  0  0  0  0  0  0  0  0  0  0  0  # atno 17395 bound_to 11000

$$$$
