AV-unprocessed.smi:3278|AV-procd|sdf|12542|dock2
  -GOLD-   2272018453D 1   1.00000     0.00000
 Structure written by MMmdl.
 39 40  0  0  0  0  0  0  0  0  2 V2000
  145.7144  143.0644  154.3856 C   0  0  0  0  0  0  0  0  0  0  0  0
  146.8537  142.1721  154.3923 N   0  0  0  0  0  0  0  0  0  0  0  0
  147.8587  142.0654  155.3287 C   0  0  0  0  0  0  0  0  0  0  0  0
  148.7138  141.0826  154.9104 C   0  0  0  0  0  0  0  0  0  0  0  0
  149.9802  140.5860  155.5759 C   0  0  1  0  0  0  0  0  0  0  0  0
  149.6336  139.7751  156.8370 C   0  0  0  0  0  0  0  0  0  0  0  0
  150.7061  139.7055  154.7379 O   0  0  0  0  0  0  0  0  0  0  0  0
  150.9184  141.7602  155.9290 C   0  0  0  0  0  0  0  0  0  0  0  0
  150.3279  142.6439  156.9602 N   0  3  0  0  0  0  0  0  0  0  0  0
  151.2939  143.2977  157.8700 C   0  0  1  0  0  0  0  0  0  0  0  0
  150.6729  144.5457  158.5362 C   0  0  0  0  0  0  0  0  0  0  0  0
  151.6589  145.2851  159.4557 C   0  0  0  0  0  0  0  0  0  0  0  0
  152.1555  144.4072  160.6119 C   0  0  0  0  0  0  0  0  0  0  0  0
  153.0595  142.9651  159.9902 S   0  0  0  0  0  0  0  0  0  0  0  0
  151.7638  142.2782  158.9234 C   0  0  0  0  0  0  0  0  0  0  0  0
  148.1260  140.6435  153.6869 C   0  0  0  0  0  0  0  0  0  0  0  0
  147.0199  141.2992  153.3789 N   0  0  0  0  0  0  0  0  0  0  0  0
  145.7424  143.7143  155.2608 H   0  0  0  0  0  0  0  0  0  0  0  0
  144.7912  142.4843  154.4042 H   0  0  0  0  0  0  0  0  0  0  0  0
  145.7328  143.6807  153.4860 H   0  0  0  0  0  0  0  0  0  0  0  0
  147.8832  142.6924  156.2081 H   0  0  0  0  0  0  0  0  0  0  0  0
  149.0973  140.3821  157.5670 H   0  0  0  0  0  0  0  0  0  0  0  0
  150.5308  139.3952  157.3276 H   0  0  0  0  0  0  0  0  0  0  0  0
  149.0025  138.9184  156.5962 H   0  0  0  0  0  0  0  0  0  0  0  0
  150.3588  138.8323  154.8412 H   0  0  0  0  0  0  0  0  0  0  0  0
  151.8653  141.3724  156.3074 H   0  0  0  0  0  0  0  0  0  0  0  0
  151.1507  142.3342  155.0319 H   0  0  0  0  0  0  0  0  0  0  0  0
  149.7680  143.3525  156.5077 H   0  0  0  0  0  0  0  0  0  0  0  0
  152.1629  143.5972  157.2814 H   0  0  0  0  0  0  0  0  0  0  0  0
  150.3284  145.2466  157.7768 H   0  0  0  0  0  0  0  0  0  0  0  0
  149.7888  144.2589  159.1074 H   0  0  0  0  0  0  0  0  0  0  0  0
  152.5094  145.6437  158.8742 H   0  0  0  0  0  0  0  0  0  0  0  0
  151.1731  146.1723  159.8632 H   0  0  0  0  0  0  0  0  0  0  0  0
  152.8144  144.9796  161.2651 H   0  0  0  0  0  0  0  0  0  0  0  0
  151.3167  144.0677  161.2205 H   0  0  0  0  0  0  0  0  0  0  0  0
  150.9284  141.9551  159.5460 H   0  0  0  0  0  0  0  0  0  0  0  0
  152.1631  141.3864  158.4389 H   0  0  0  0  0  0  0  0  0  0  0  0
  148.4730  139.8742  153.0129 H   0  0  0  0  0  0  0  0  0  0  0  0
  149.7160  142.0698  157.5229 H   0  0  0  0  0  0  0  0  0  0  0  0
  1  2  1  0  0  0  0
  1 18  1  0  0  0  0
  1 19  1  0  0  0  0
  1 20  1  0  0  0  0
  2 17  1  0  0  0  0
  2  3  1  0  0  0  0
  3  4  2  0  0  0  0
  3 21  1  0  0  0  0
  4  5  1  0  0  0  0
  4 16  1  0  0  0  0
  5  6  1  0  0  0  0
  5  7  1  0  0  0  0
  5  8  1  0  0  0  0
  6 22  1  0  0  0  0
  6 23  1  0  0  0  0
  6 24  1  0  0  0  0
  7 25  1  0  0  0  0
  8  9  1  0  0  0  0
  8 26  1  0  0  0  0
  8 27  1  0  0  0  0
  9 10  1  0  0  0  0
  9 28  1  0  0  0  0
  9 39  1  0  0  0  0
 10 15  1  0  0  0  0
 10 11  1  0  0  0  0
 10 29  1  0  0  0  0
 11 12  1  0  0  0  0
 11 30  1  0  0  0  0
 11 31  1  0  0  0  0
 12 13  1  0  0  0  0
 12 32  1  0  0  0  0
 12 33  1  0  0  0  0
 13 14  1  0  0  0  0
 13 34  1  0  0  0  0
 13 35  1  0  0  0  0
 14 15  1  0  0  0  0
 15 36  1  0  0  0  0
 15 37  1  0  0  0  0
 16 17  2  0  0  0  0
 16 38  1  0  0  0  0
M  CHG  1   9   1
M  END
> <s_m_source_file>
AV-unprocessed.smi

> <i_m_source_file_index>
3278

> <i_lp_mmshare_version>
43012

> <i_f3d_flags>
0

> <s_epik_input>
W0NIM11uMVtjSF1jKFtjSF1uMSlbQ0BAXShbQ0gzXSkoW09IXSlbQ0gyXVtOSF1bQ0BASF0yW0NIMl1bQ0gyXVtDSDJdU1tDSDJdMg==

> <s_epik_cmdline>
J2VwaWtfcHl0aG9uJywgJy1waCcsICc3LjAnLCAnLXRuJywgJzgnLCAnLW1hJywgJzIwMCcsICctbWV0YWxfYmluZGluZycsICctaW1hZScsICc8aW5maWxlLm1hZT4nLCAnLW9tYWUnLCAnPG91dGZpbGUubWFlPic=

> <r_lp_tautomer_probability>
1

> <r_epik_Ionization_Penalty>
0.0185703

> <r_epik_Ionization_Penalty_Charging>
0.0185619

> <r_epik_Ionization_Penalty_Neutral>
8.47286e-06

> <r_epik_State_Penalty>
0.0147768

> <r_epik_Charging_Adjusted_Penalty>
0.0333386

> <i_epik_Tot_Q>
1

> <i_epik_Tot_abs_Q>
1

> <r_epik_Metal_State_Penalty>
0.0147782

> <b_epik_Metal_Only>
0

> <s_lp_Force_Field>
OPLS_2005

> <r_lp_Energy>
8.69556

> <b_lp_Chiralities_Consistent>
1

> <s_lp_Variant>
AV-unprocessed.smi:3278-3

> <Gold.Version>
5.8.1

> <Gold.Id.Protein>
6NUR|6NUR_protein|mol2

> <Gold.PLP.Fitness>
50.1410

> <Gold.PLP.PLP>
-37.8438

> <Gold.PLP.part.hbond>
-2.0000

> <Gold.PLP.part.metal>
0.0000

> <Gold.PLP.part.buried>
-1.1149

> <Gold.PLP.part.nonpolar>
-34.1783

> <Gold.PLP.part.repulsive>
0.2136

> <Gold.PLP.ligand.clash>
0.0000

> <Gold.PLP.ligand.torsion>
0.6872

> <Gold.PLP.Chemscore.Hbond>
3.0000

> <Gold.PLP.Chemscore.CHOScore>
1.5493

> <Gold.PLP.Chemscore.Metal>
0.0000

> <Gold.Chemscore.Hbonds>
donor molecule, donor type, donor heavy atom, donor atom, acceptor molecule, acceptor atom, score
      L1  H     9    28       P1  8028  2.00
      P1  H  7989  7998       L1     7  1.00
      L1  C     3    21       P1  8028  0.58
      L1  C    16    38       P1  7957  1.00

> <Gold.PLP.Chemscore.Internal.Correction>
0.0237

> <Gold.Rescore>
     Score         DG    S(hbond)    S(metal)    S(lipo)     H(rot)  DE(clash)    DE(int)     intcor
     18.68     -19.50       1.95        0.00     108.09       2.00       0.22       0.61       ----

> <Gold.Chemscore.Fitness>
18.6752

> <Gold.Chemscore.DG>
-19.5046

> <Gold.Chemscore.ZeroCoef>
-5.4800

> <Gold.Chemscore.Hbond>
1.9483

> <Gold.Chemscore.Metal>
0.0000

> <Gold.Chemscore.Lipo>
108.0933

> <Gold.Chemscore.Internal_Hbond>
0.0000

> <Gold.Chemscore.DEClash>
0.2228

> <Gold.Chemscore.DEInternal>
0.6067

> <Gold.Chemscore.Rot>
2.0038

> <Gold.Chemscore.Internal.Correction>
   9.000000E+99

> <Gold.Chemscore.Hbonds>
donor molecule, donor type, donor heavy atom, donor atom, acceptor molecule, acceptor atom, score
      L1  H     9    28       P1  8028  1.00
      P1  H  7989  7998       L1     7  0.50

> <Gold.Chemscore.Hbond.Weighted>
-6.5074

> <Gold.Chemscore.Metal.Weighted>
-0.0000

> <Gold.Chemscore.Lipo.Weighted>
-12.6469

> <Gold.Chemscore.Internal_Hbond.Weighted>
0.0000

> <Gold.Chemscore.DEClash.Weighted>
0.2228

> <Gold.Chemscore.DEInternal.Weighted>
0.6067

> <Gold.Chemscore.Rot.Weighted>
5.1296

> <Gold.Chemscore.Internal.Correction.Weighted>
   9.000000E+99

> <Gold.Protein.RotatedTorsions>
[ 6907 6896 6895 6894 ] final    0.97 input  -60.11 | X-H torsion
[ 7974 7965 7964 7962 ] final -168.66 input  175.53 | X-H torsion
[ 8008 7997 7996 7995 ] final -119.95 input   59.86 | X-H torsion
[ 10167 10162 10161 10158 ] final   21.72 input  -65.29 | X-H torsion
[ 10718 10713 10712 10709 ] final   26.02 input   66.30 | X-H torsion
[ 10763 10752 10751 10750 ] final  -46.47 input  -60.55 | X-H torsion
[ 11005 11000 10999 10996 ] final  133.77 input  -57.11 | X-H torsion

> <Gold.Protein.ActiveResidues>
 VAL166  LYS551  ARG553  GLY616  TRP617  ASP618  TYR619  PRO620  LYS621  CYS622 
 ASP623  PHE694  ASN695  SER759  ASP760  ASP761  ALA762  ILE779  LEU786  VAL792 
 PHE793  MET794  SER795  GLU796  ALA797  LYS798  CYS799  TRP800  GLU811  SER814 

> <Gold.Protein.RotatedAtoms>
  151.5851  135.1056  160.0025 H   0  0  0  0  0  0  0  0  0  0  0  0  # atno 6907 bound_to 6896
  152.4334  133.7314  159.6600 H   0  0  0  0  0  0  0  0  0  0  0  0  # atno 6908 bound_to 6896
  150.8229  133.8151  159.3154 H   0  0  0  0  0  0  0  0  0  0  0  0  # atno 6909 bound_to 6896
  144.7199  140.2336  143.6301 H   0  0  0  0  0  0  0  0  0  0  0  0  # atno 7974 bound_to 7965
  155.1240  140.0399  157.2757 H   0  0  0  0  0  0  0  0  0  0  0  0  # atno 8008 bound_to 7997
  154.6592  140.2587  155.7101 H   0  0  0  0  0  0  0  0  0  0  0  0  # atno 8009 bound_to 7997
  156.2612  140.2820  156.1057 H   0  0  0  0  0  0  0  0  0  0  0  0  # atno 8010 bound_to 7997
  140.5405  143.9686  150.6516 H   0  0  0  0  0  0  0  0  0  0  0  0  # atno 10167 bound_to 10162
  157.2012  130.6890  149.6189 H   0  0  0  0  0  0  0  0  0  0  0  0  # atno 10718 bound_to 10713
  154.0455  135.6638  153.4794 H   0  0  0  0  0  0  0  0  0  0  0  0  # atno 10763 bound_to 10752
  153.0484  135.5100  154.7801 H   0  0  0  0  0  0  0  0  0  0  0  0  # atno 10764 bound_to 10752
  154.6791  135.3042  154.9604 H   0  0  0  0  0  0  0  0  0  0  0  0  # atno 10765 bound_to 10752
  139.9872  134.9528  156.9772 H   0  0  0  0  0  0  0  0  0  0  0  0  # atno 11005 bound_to 11000
  145.8387  139.2119  143.1840 LP  0  0  0  0  0  0  0  0  0  0  0  0  # atno 17320 bound_to 7965
  146.0366  140.8206  142.9849 LP  0  0  0  0  0  0  0  0  0  0  0  0  # atno 17321 bound_to 7965
  140.3085  143.3213  152.0902 LP  0  0  0  0  0  0  0  0  0  0  0  0  # atno 17342 bound_to 10162
  139.4987  144.6651  151.6374 LP  0  0  0  0  0  0  0  0  0  0  0  0  # atno 17343 bound_to 10162
  155.9700  130.4582  150.5991 LP  0  0  0  0  0  0  0  0  0  0  0  0  # atno 17370 bound_to 10713
  157.3765  131.0774  151.1513 LP  0  0  0  0  0  0  0  0  0  0  0  0  # atno 17371 bound_to 10713
  140.4978  134.1128  155.7244 LP  0  0  0  0  0  0  0  0  0  0  0  0  # atno 17394 bound_to 11000
  141.1535  133.8925  157.2037 LP  0  0  0  0  0  0  0  0  0  0  0  0  # atno 17395 bound_to 11000

$$$$
