AV-unprocessed.smi:2163|AV-procd|sdf|8805|dock3
  -GOLD-   2272011593D 1   1.00000     0.00000
 Structure written by MMmdl.
 43 45  0  0  0  0  0  0  0  0  1 V2000
  151.7733  138.6270  158.0203 C   0  0  0  0  0  0  0  0  0  0  0  0
  151.8695  140.0869  158.3313 C   0  0  0  0  0  0  0  0  0  0  0  0
  152.2822  140.5331  159.5181 N   0  0  0  0  0  0  0  0  0  0  0  0
  152.2107  141.9044  159.3675 C   0  0  0  0  0  0  0  0  0  0  0  0
  152.5155  142.9453  160.2737 C   0  0  0  0  0  0  0  0  0  0  0  0
  152.3594  144.2936  159.8906 C   0  0  0  0  0  0  0  0  0  0  0  0
  151.8981  144.6201  158.5989 C   0  0  0  0  0  0  0  0  0  0  0  0
  151.5891  143.5985  157.6803 C   0  0  0  0  0  0  0  0  0  0  0  0
  151.7467  142.2544  158.0677 C   0  0  0  0  0  0  0  0  0  0  0  0
  151.5385  141.0390  157.4236 N   0  0  0  0  0  0  0  0  0  0  0  0
  151.0584  140.8614  156.0590 C   0  0  0  0  0  0  0  0  0  0  0  0
  149.6606  141.4736  155.8360 C   0  0  1  0  0  0  0  0  0  0  0  0
  149.6501  142.1662  154.6034 O   0  0  0  0  0  0  0  0  0  0  0  0
  148.5643  140.3978  155.7954 C   0  0  0  0  0  0  0  0  0  0  0  0
  147.6266  140.7381  154.7821 O   0  0  0  0  0  0  0  0  0  0  0  0
  146.7106  141.7336  155.0464 C   0  0  0  0  0  0  0  0  0  0  0  0
  146.2496  142.4874  153.9472 C   0  0  0  0  0  0  0  0  0  0  0  0
  145.3120  143.5229  154.1243 C   0  0  0  0  0  0  0  0  0  0  0  0
  144.8223  143.8189  155.4110 C   0  0  0  0  0  0  0  0  0  0  0  0
  143.8073  144.9258  155.6050 C   0  0  0  0  0  0  0  0  0  0  0  0
  143.6542  145.7474  154.3952 C   0  0  0  0  0  0  0  0  0  0  0  0
  143.5341  146.3945  153.4436 N   0  0  0  0  0  0  0  0  0  0  0  0
  145.2768  143.0746  156.5170 C   0  0  0  0  0  0  0  0  0  0  0  0
  146.2144  142.0387  156.3393 C   0  0  0  0  0  0  0  0  0  0  0  0
  152.1605  138.0329  158.8487 H   0  0  0  0  0  0  0  0  0  0  0  0
  152.3532  138.3880  157.1290 H   0  0  0  0  0  0  0  0  0  0  0  0
  150.7334  138.3461  157.8526 H   0  0  0  0  0  0  0  0  0  0  0  0
  152.8698  142.7056  161.2654 H   0  0  0  0  0  0  0  0  0  0  0  0
  152.5948  145.0807  160.5918 H   0  0  0  0  0  0  0  0  0  0  0  0
  151.7820  145.6556  158.3136 H   0  0  0  0  0  0  0  0  0  0  0  0
  151.2354  143.8441  156.6901 H   0  0  0  0  0  0  0  0  0  0  0  0
  151.7779  141.2850  155.3583 H   0  0  0  0  0  0  0  0  0  0  0  0
  151.0317  139.7909  155.8525 H   0  0  0  0  0  0  0  0  0  0  0  0
  149.4486  142.1803  156.6393 H   0  0  0  0  0  0  0  0  0  0  0  0
  149.2253  143.0004  154.7340 H   0  0  0  0  0  0  0  0  0  0  0  0
  148.9975  139.4095  155.6307 H   0  0  0  0  0  0  0  0  0  0  0  0
  148.0434  140.3788  156.7542 H   0  0  0  0  0  0  0  0  0  0  0  0
  146.6170  142.2676  152.9555 H   0  0  0  0  0  0  0  0  0  0  0  0
  144.9679  144.0865  153.2694 H   0  0  0  0  0  0  0  0  0  0  0  0
  142.8357  144.5019  155.8595 H   0  0  0  0  0  0  0  0  0  0  0  0
  144.1088  145.5743  156.4277 H   0  0  0  0  0  0  0  0  0  0  0  0
  144.9042  143.2953  157.5065 H   0  0  0  0  0  0  0  0  0  0  0  0
  146.5367  141.4924  157.2125 H   0  0  0  0  0  0  0  0  0  0  0  0
  1  2  1  0  0  0  0
  1 25  1  0  0  0  0
  1 26  1  0  0  0  0
  1 27  1  0  0  0  0
  2 10  1  0  0  0  0
  2  3  2  0  0  0  0
  3  4  1  0  0  0  0
  4  9  2  0  0  0  0
  4  5  1  0  0  0  0
  5  6  2  0  0  0  0
  5 28  1  0  0  0  0
  6  7  1  0  0  0  0
  6 29  1  0  0  0  0
  7  8  2  0  0  0  0
  7 30  1  0  0  0  0
  8  9  1  0  0  0  0
  8 31  1  0  0  0  0
  9 10  1  0  0  0  0
 10 11  1  0  0  0  0
 11 12  1  0  0  0  0
 11 32  1  0  0  0  0
 11 33  1  0  0  0  0
 12 13  1  0  0  0  0
 12 14  1  0  0  0  0
 12 34  1  0  0  0  0
 13 35  1  0  0  0  0
 14 15  1  0  0  0  0
 14 36  1  0  0  0  0
 14 37  1  0  0  0  0
 15 16  1  0  0  0  0
 16 24  1  0  0  0  0
 16 17  2  0  0  0  0
 17 18  1  0  0  0  0
 17 38  1  0  0  0  0
 18 19  2  0  0  0  0
 18 39  1  0  0  0  0
 19 20  1  0  0  0  0
 19 23  1  0  0  0  0
 20 21  1  0  0  0  0
 20 40  1  0  0  0  0
 20 41  1  0  0  0  0
 21 22  3  0  0  0  0
 23 24  2  0  0  0  0
 23 42  1  0  0  0  0
 24 43  1  0  0  0  0
M  END
> <s_m_source_file>
AV-unprocessed.smi

> <i_m_source_file_index>
2163

> <i_lp_mmshare_version>
43012

> <i_f3d_flags>
0

> <s_epik_input>
W2NIXTFbY0hdW2NIXVtjSF1jKGMxMiluKGMobjIpW0NIM10pW0NIMl1bQ0BIXShbT0hdKVtDSDJdT2MzW2NIXVtjSF1jKFtDSDJdQyNOKVtjSF1bY0hdMw==

> <s_epik_cmdline>
J2VwaWtfcHl0aG9uJywgJy1waCcsICc3LjAnLCAnLXRuJywgJzgnLCAnLW1hJywgJzIwMCcsICctbWV0YWxfYmluZGluZycsICctaW1hZScsICc8aW5maWxlLm1hZT4nLCAnLW9tYWUnLCAnPG91dGZpbGUubWFlPic=

> <r_lp_tautomer_probability>
1

> <r_epik_Ionization_Penalty>
0.114213

> <r_epik_Ionization_Penalty_Charging>
0

> <r_epik_Ionization_Penalty_Neutral>
0.114213

> <r_epik_State_Penalty>
0.103875

> <r_epik_Charging_Adjusted_Penalty>
0.103875

> <i_epik_Tot_Q>
0

> <i_epik_Tot_abs_Q>
0

> <r_epik_Metal_State_Penalty>
0.000113526

> <b_epik_Metal_Only>
0

> <s_lp_Force_Field>
OPLS_2005

> <r_lp_Energy>
15.853

> <b_lp_Chiralities_Consistent>
1

> <s_lp_Variant>
AV-unprocessed.smi:2163-2

> <Gold.Version>
5.8.1

> <Gold.Id.Protein>
6NUR|6NUR_protein|mol2

> <Gold.PLP.Fitness>
51.3427

> <Gold.PLP.PLP>
-52.1077

> <Gold.PLP.part.hbond>
-5.0000

> <Gold.PLP.part.metal>
0.0000

> <Gold.PLP.part.buried>
-4.7145

> <Gold.PLP.part.nonpolar>
-42.8435

> <Gold.PLP.part.repulsive>
0.1891

> <Gold.PLP.ligand.clash>
0.6725

> <Gold.PLP.ligand.torsion>
1.7365

> <Gold.PLP.Chemscore.Hbond>
1.0699

> <Gold.PLP.Chemscore.CHOScore>
0.0000

> <Gold.PLP.Chemscore.Metal>
0.0000

> <Gold.Chemscore.Hbonds>
donor molecule, donor type, donor heavy atom, donor atom, acceptor molecule, acceptor atom, score
      L1  H    13    35       P1  8028  1.00
      P1  H  8011  8017       L1    13  0.06

> <Gold.PLP.Chemscore.Internal.Correction>
0.1709

> <Gold.Rescore>
     Score         DG    S(hbond)    S(metal)    S(lipo)     H(rot)  DE(clash)    DE(int)     intcor
     14.12     -15.71       0.99        0.00     114.12       2.51       0.04       1.56       ----

> <Gold.Chemscore.Fitness>
14.1157

> <Gold.Chemscore.DG>
-15.7105

> <Gold.Chemscore.ZeroCoef>
-5.4800

> <Gold.Chemscore.Hbond>
0.9903

> <Gold.Chemscore.Metal>
0.0000

> <Gold.Chemscore.Lipo>
114.1221

> <Gold.Chemscore.Internal_Hbond>
0.0000

> <Gold.Chemscore.DEClash>
0.0358

> <Gold.Chemscore.DEInternal>
1.5590

> <Gold.Chemscore.Rot>
2.5115

> <Gold.Chemscore.Internal.Correction>
   9.000000E+99

> <Gold.Chemscore.Hbonds>
donor molecule, donor type, donor heavy atom, donor atom, acceptor molecule, acceptor atom, score
      L1  H    13    35       P1  8028  0.97

> <Gold.Chemscore.Hbond.Weighted>
-3.3077

> <Gold.Chemscore.Metal.Weighted>
-0.0000

> <Gold.Chemscore.Lipo.Weighted>
-13.3523

> <Gold.Chemscore.Internal_Hbond.Weighted>
0.0000

> <Gold.Chemscore.DEClash.Weighted>
0.0358

> <Gold.Chemscore.DEInternal.Weighted>
1.5590

> <Gold.Chemscore.Rot.Weighted>
6.4296

> <Gold.Chemscore.Internal.Correction.Weighted>
   9.000000E+99

> <Gold.Protein.RotatedTorsions>
[ 6907 6896 6895 6894 ] final   14.28 input  -60.11 | X-H torsion
[ 7974 7965 7964 7962 ] final  173.39 input  175.53 | X-H torsion
[ 8008 7997 7996 7995 ] final   68.65 input   59.86 | X-H torsion
[ 10167 10162 10161 10158 ] final   40.39 input  -65.29 | X-H torsion
[ 10718 10713 10712 10709 ] final   37.18 input   66.30 | X-H torsion
[ 10763 10752 10751 10750 ] final -117.48 input  -60.55 | X-H torsion
[ 11005 11000 10999 10996 ] final  -97.60 input  -57.11 | X-H torsion

> <Gold.Protein.ActiveResidues>
 VAL166  LYS551  ARG553  GLY616  TRP617  ASP618  TYR619  PRO620  LYS621  CYS622 
 ASP623  PHE694  ASN695  SER759  ASP760  ASP761  ALA762  ILE779  LEU786  VAL792 
 PHE793  MET794  SER795  GLU796  ALA797  LYS798  CYS799  TRP800  GLU811  SER814 

> <Gold.Protein.RotatedAtoms>
  151.7997  135.0712  160.0398 H   0  0  0  0  0  0  0  0  0  0  0  0  # atno 6907 bound_to 6896
  152.3098  133.5736  159.5681 H   0  0  0  0  0  0  0  0  0  0  0  0  # atno 6908 bound_to 6896
  150.7314  134.0085  159.3704 H   0  0  0  0  0  0  0  0  0  0  0  0  # atno 6909 bound_to 6896
  144.7245  139.9641  143.6435 H   0  0  0  0  0  0  0  0  0  0  0  0  # atno 7974 bound_to 7965
  155.7116  140.3494  155.4976 H   0  0  0  0  0  0  0  0  0  0  0  0  # atno 8008 bound_to 7997
  155.9350  140.1091  157.1123 H   0  0  0  0  0  0  0  0  0  0  0  0  # atno 8009 bound_to 7997
  154.4092  140.1224  156.4839 H   0  0  0  0  0  0  0  0  0  0  0  0  # atno 8010 bound_to 7997
  140.3747  144.2059  150.6132 H   0  0  0  0  0  0  0  0  0  0  0  0  # atno 10167 bound_to 10162
  157.3438  130.7562  149.6930 H   0  0  0  0  0  0  0  0  0  0  0  0  # atno 10718 bound_to 10713
  154.8556  135.4308  154.1987 H   0  0  0  0  0  0  0  0  0  0  0  0  # atno 10763 bound_to 10752
  153.3039  135.6971  153.7184 H   0  0  0  0  0  0  0  0  0  0  0  0  # atno 10764 bound_to 10752
  153.6303  135.3486  155.3014 H   0  0  0  0  0  0  0  0  0  0  0  0  # atno 10765 bound_to 10752
  141.1373  133.8183  157.0728 H   0  0  0  0  0  0  0  0  0  0  0  0  # atno 11005 bound_to 11000
  146.0614  139.3608  143.0579 LP  0  0  0  0  0  0  0  0  0  0  0  0  # atno 17320 bound_to 7965
  145.8087  140.9736  143.0960 LP  0  0  0  0  0  0  0  0  0  0  0  0  # atno 17321 bound_to 7965
  140.4998  143.2321  151.8695 LP  0  0  0  0  0  0  0  0  0  0  0  0  # atno 17342 bound_to 10162
  139.4800  144.5072  151.8981 LP  0  0  0  0  0  0  0  0  0  0  0  0  # atno 17343 bound_to 10162
  155.9711  130.4160  150.4209 LP  0  0  0  0  0  0  0  0  0  0  0  0  # atno 17370 bound_to 10713
  157.2261  131.0493  151.2519 LP  0  0  0  0  0  0  0  0  0  0  0  0  # atno 17371 bound_to 10713
  140.0500  134.9810  157.1120 LP  0  0  0  0  0  0  0  0  0  0  0  0  # atno 17394 bound_to 11000
  140.4003  134.2089  155.7163 LP  0  0  0  0  0  0  0  0  0  0  0  0  # atno 17395 bound_to 11000

$$$$
