AV-unprocessed.smi:1102|AV-procd|sdf|4769|dock1
  -GOLD-   22720 3303D 1   1.00000     0.00000
 Structure written by MMmdl.
 39 40  0  0  0  0  0  0  0  0  1 V2000
  153.5380  138.8095  154.4154 C   0  0  0  0  0  0  0  0  0  0  0  0
  152.1784  138.7769  154.9390 N   0  0  0  0  0  0  0  0  0  0  0  0
  151.3238  137.6241  154.6733 C   0  0  0  0  0  0  0  0  0  0  0  0
  151.6657  139.8801  155.6593 C   0  0  0  0  0  0  0  0  0  0  0  0
  152.0241  140.1136  157.0102 C   0  0  0  0  0  0  0  0  0  0  0  0
  151.4848  141.2271  157.6820 C   0  0  0  0  0  0  0  0  0  0  0  0
  150.5945  142.0798  157.0021 C   0  0  0  0  0  0  0  0  0  0  0  0
  150.0832  143.2078  157.6990 N   0  0  0  0  0  0  0  0  0  0  0  0
  150.3054  143.5750  158.9727 C   0  0  0  0  0  0  0  0  0  0  0  0
  151.0664  143.0059  159.7548 O   0  0  0  0  0  0  0  0  0  0  0  0
  149.6004  144.6699  159.2905 N   0  0  0  0  0  0  0  0  0  0  0  0
  149.5982  145.3156  160.5986 C   0  0  0  0  0  0  0  0  0  0  0  0
  148.1694  145.4865  161.1413 C   0  0  2  0  0  0  0  0  0  0  0  0
  147.2515  144.3054  160.8289 C   0  0  0  0  0  0  0  0  0  0  0  0
  145.8879  144.9548  160.8782 C   0  0  0  0  0  0  0  0  0  0  0  0
  146.1701  146.3093  160.2367 C   0  0  0  0  0  0  0  0  0  0  0  0
  147.5255  146.6150  160.5522 O   0  0  0  0  0  0  0  0  0  0  0  0
  150.3020  141.7765  155.6517 C   0  0  0  0  0  0  0  0  0  0  0  0
  150.8183  140.7109  155.0041 N   0  0  0  0  0  0  0  0  0  0  0  0
  153.6623  139.6433  153.7237 H   0  0  0  0  0  0  0  0  0  0  0  0
  153.7781  137.8926  153.8771 H   0  0  0  0  0  0  0  0  0  0  0  0
  154.2594  138.9161  155.2259 H   0  0  0  0  0  0  0  0  0  0  0  0
  150.4515  137.9208  154.0897 H   0  0  0  0  0  0  0  0  0  0  0  0
  150.9810  137.1779  155.6074 H   0  0  0  0  0  0  0  0  0  0  0  0
  151.8546  136.8549  154.1123 H   0  0  0  0  0  0  0  0  0  0  0  0
  152.7010  139.4638  157.5437 H   0  0  0  0  0  0  0  0  0  0  0  0
  151.7524  141.4194  158.7108 H   0  0  0  0  0  0  0  0  0  0  0  0
  149.5039  143.8279  157.1523 H   0  0  0  0  0  0  0  0  0  0  0  0
  149.0067  145.0761  158.5824 H   0  0  0  0  0  0  0  0  0  0  0  0
  150.2177  144.7636  161.3076 H   0  0  0  0  0  0  0  0  0  0  0  0
  150.0630  146.2949  160.4821 H   0  0  0  0  0  0  0  0  0  0  0  0
  148.1916  145.6411  162.2214 H   0  0  0  0  0  0  0  0  0  0  0  0
  147.4433  143.9216  159.8257 H   0  0  0  0  0  0  0  0  0  0  0  0
  147.3603  143.4830  161.5365 H   0  0  0  0  0  0  0  0  0  0  0  0
  145.1197  144.3856  160.3543 H   0  0  0  0  0  0  0  0  0  0  0  0
  145.5723  145.0860  161.9142 H   0  0  0  0  0  0  0  0  0  0  0  0
  146.0744  146.2454  159.1523 H   0  0  0  0  0  0  0  0  0  0  0  0
  145.4930  147.0867  160.5910 H   0  0  0  0  0  0  0  0  0  0  0  0
  149.6601  142.4003  155.0496 H   0  0  0  0  0  0  0  0  0  0  0  0
  1  2  1  0  0  0  0
  1 20  1  0  0  0  0
  1 21  1  0  0  0  0
  1 22  1  0  0  0  0
  2  3  1  0  0  0  0
  2  4  1  0  0  0  0
  3 23  1  0  0  0  0
  3 24  1  0  0  0  0
  3 25  1  0  0  0  0
  4 19  1  0  0  0  0
  4  5  2  0  0  0  0
  5  6  1  0  0  0  0
  5 26  1  0  0  0  0
  6  7  2  0  0  0  0
  6 27  1  0  0  0  0
  7  8  1  0  0  0  0
  7 18  1  0  0  0  0
  8  9  1  0  0  0  0
  8 28  1  0  0  0  0
  9 10  2  0  0  0  0
  9 11  1  0  0  0  0
 11 12  1  0  0  0  0
 11 29  1  0  0  0  0
 12 13  1  0  0  0  0
 12 30  1  0  0  0  0
 12 31  1  0  0  0  0
 13 17  1  0  0  0  0
 13 14  1  0  0  0  0
 13 32  1  0  0  0  0
 14 15  1  0  0  0  0
 14 33  1  0  0  0  0
 14 34  1  0  0  0  0
 15 16  1  0  0  0  0
 15 35  1  0  0  0  0
 15 36  1  0  0  0  0
 16 17  1  0  0  0  0
 16 37  1  0  0  0  0
 16 38  1  0  0  0  0
 18 19  2  0  0  0  0
 18 39  1  0  0  0  0
M  END
> <s_m_source_file>
AV-unprocessed.smi

> <i_m_source_file_index>
1102

> <i_lp_mmshare_version>
43012

> <i_f3d_flags>
0

> <s_epik_input>
W0NIM11OKFtDSDNdKWMxW2NIXVtjSF1jKFtjSF1uMSlbTkhdQyg9TylbTkhdW0NIMl1bQ0BASF0yW0NIMl1bQ0gyXVtDSDJdTzI=

> <s_epik_cmdline>
J2VwaWtfcHl0aG9uJywgJy1waCcsICc3LjAnLCAnLXRuJywgJzgnLCAnLW1hJywgJzIwMCcsICctbWV0YWxfYmluZGluZycsICctaW1hZScsICc8aW5maWxlLm1hZT4nLCAnLW9tYWUnLCAnPG91dGZpbGUubWFlPic=

> <r_lp_tautomer_probability>
1

> <r_epik_Ionization_Penalty>
0.605145

> <r_epik_Ionization_Penalty_Charging>
0

> <r_epik_Ionization_Penalty_Neutral>
0.605145

> <r_epik_State_Penalty>
0.618734

> <r_epik_Charging_Adjusted_Penalty>
0.618734

> <i_epik_Tot_Q>
0

> <i_epik_Tot_abs_Q>
0

> <r_epik_Metal_State_Penalty>
0.302184

> <b_epik_Metal_Only>
0

> <s_lp_Force_Field>
OPLS_2005

> <r_lp_Energy>
22.0104

> <b_lp_Chiralities_Consistent>
1

> <s_lp_Variant>
AV-unprocessed.smi:1102-3

> <Gold.Version>
5.8.1

> <Gold.Id.Protein>
6NUR|6NUR_protein|mol2

> <Gold.PLP.Fitness>
48.9345

> <Gold.PLP.PLP>
-40.7773

> <Gold.PLP.part.hbond>
-5.9917

> <Gold.PLP.part.metal>
0.0000

> <Gold.PLP.part.buried>
-5.6251

> <Gold.PLP.part.nonpolar>
-28.8383

> <Gold.PLP.part.repulsive>
0.5260

> <Gold.PLP.ligand.clash>
0.0000

> <Gold.PLP.ligand.torsion>
1.6391

> <Gold.PLP.Chemscore.Hbond>
2.9600

> <Gold.PLP.Chemscore.CHOScore>
0.8488

> <Gold.PLP.Chemscore.Metal>
0.0000

> <Gold.Chemscore.Hbonds>
donor molecule, donor type, donor heavy atom, donor atom, acceptor molecule, acceptor atom, score
      L1  H     8    28       P1  8028  1.00
      L1  H    11    29       P1  8029  1.00
      P1  H  7989  7998       L1    19  0.90
      L1  C    18    39       P1  8028  0.92

> <Gold.PLP.Chemscore.Internal.Correction>
0.0089

> <Gold.Rescore>
     Score         DG    S(hbond)    S(metal)    S(lipo)     H(rot)  DE(clash)    DE(int)     intcor
     14.46     -17.75       2.21        0.00      68.51       1.21       0.33       2.96       ----

> <Gold.Chemscore.Fitness>
14.4608

> <Gold.Chemscore.DG>
-17.7524

> <Gold.Chemscore.ZeroCoef>
-5.4800

> <Gold.Chemscore.Hbond>
2.2054

> <Gold.Chemscore.Metal>
0.0000

> <Gold.Chemscore.Lipo>
68.5095

> <Gold.Chemscore.Internal_Hbond>
0.0000

> <Gold.Chemscore.DEClash>
0.3273

> <Gold.Chemscore.DEInternal>
2.9642

> <Gold.Chemscore.Rot>
1.2146

> <Gold.Chemscore.Internal.Correction>
   9.000000E+99

> <Gold.Chemscore.Hbonds>
donor molecule, donor type, donor heavy atom, donor atom, acceptor molecule, acceptor atom, score
      L1  H     8    28       P1  8028  0.70
      L1  H    11    29       P1  8029  0.94
      P1  H  7989  7998       L1    19  0.26

> <Gold.Chemscore.Hbond.Weighted>
-7.3661

> <Gold.Chemscore.Metal.Weighted>
-0.0000

> <Gold.Chemscore.Lipo.Weighted>
-8.0156

> <Gold.Chemscore.Internal_Hbond.Weighted>
0.0000

> <Gold.Chemscore.DEClash.Weighted>
0.3273

> <Gold.Chemscore.DEInternal.Weighted>
2.9642

> <Gold.Chemscore.Rot.Weighted>
3.1093

> <Gold.Chemscore.Internal.Correction.Weighted>
   9.000000E+99

> <Gold.Protein.RotatedTorsions>
[ 6907 6896 6895 6894 ] final   41.64 input  -60.11 | X-H torsion
[ 7974 7965 7964 7962 ] final  -33.35 input  175.53 | X-H torsion
[ 8008 7997 7996 7995 ] final    3.93 input   59.86 | X-H torsion
[ 10167 10162 10161 10158 ] final  -47.43 input  -65.29 | X-H torsion
[ 10718 10713 10712 10709 ] final  -53.67 input   66.30 | X-H torsion
[ 10763 10752 10751 10750 ] final -150.94 input  -60.55 | X-H torsion
[ 11005 11000 10999 10996 ] final  -71.07 input  -57.11 | X-H torsion

> <Gold.Protein.ActiveResidues>
 VAL166  LYS551  ARG553  GLY616  TRP617  ASP618  TYR619  PRO620  LYS621  CYS622 
 ASP623  PHE694  ASN695  SER759  ASP760  ASP761  ALA762  ILE779  LEU786  VAL792 
 PHE793  MET794  SER795  GLU796  ALA797  LYS798  CYS799  TRP800  GLU811  SER814 

> <Gold.Protein.RotatedAtoms>
  152.1979  134.8614  160.0510 H   0  0  0  0  0  0  0  0  0  0  0  0  # atno 6907 bound_to 6896
  151.9479  133.3652  159.3997 H   0  0  0  0  0  0  0  0  0  0  0  0  # atno 6908 bound_to 6896
  150.6948  134.4295  159.5286 H   0  0  0  0  0  0  0  0  0  0  0  0  # atno 6909 bound_to 6896
  146.0917  140.5905  142.8861 H   0  0  0  0  0  0  0  0  0  0  0  0  # atno 7974 bound_to 7965
  154.7096  140.2690  155.6641 H   0  0  0  0  0  0  0  0  0  0  0  0  # atno 8008 bound_to 7997
  156.2791  140.2756  156.1658 H   0  0  0  0  0  0  0  0  0  0  0  0  # atno 8009 bound_to 7997
  155.0652  140.0371  157.2580 H   0  0  0  0  0  0  0  0  0  0  0  0  # atno 8010 bound_to 7997
  140.6775  143.2785  151.3925 H   0  0  0  0  0  0  0  0  0  0  0  0  # atno 10167 bound_to 10162
  156.1515  130.4151  149.9937 H   0  0  0  0  0  0  0  0  0  0  0  0  # atno 10718 bound_to 10713
  154.8088  135.3272  154.7360 H   0  0  0  0  0  0  0  0  0  0  0  0  # atno 10763 bound_to 10752
  153.8013  135.6903  153.4859 H   0  0  0  0  0  0  0  0  0  0  0  0  # atno 10764 bound_to 10752
  153.1852  135.4571  155.0025 H   0  0  0  0  0  0  0  0  0  0  0  0  # atno 10765 bound_to 10752
  141.1586  133.6807  156.6850 H   0  0  0  0  0  0  0  0  0  0  0  0  # atno 11005 bound_to 11000
  144.7365  140.4824  143.6900 LP  0  0  0  0  0  0  0  0  0  0  0  0  # atno 17320 bound_to 7965
  145.6025  139.1505  143.3121 LP  0  0  0  0  0  0  0  0  0  0  0  0  # atno 17321 bound_to 7965
  139.6077  144.1163  152.2266 LP  0  0  0  0  0  0  0  0  0  0  0  0  # atno 17342 bound_to 10162
  140.0567  144.5889  150.7294 LP  0  0  0  0  0  0  0  0  0  0  0  0  # atno 17343 bound_to 10162
  156.7793  130.9215  151.3646 LP  0  0  0  0  0  0  0  0  0  0  0  0  # atno 17370 bound_to 10713
  157.6661  130.9008  149.9934 LP  0  0  0  0  0  0  0  0  0  0  0  0  # atno 17371 bound_to 10713
  140.3074  134.8114  157.4148 LP  0  0  0  0  0  0  0  0  0  0  0  0  # atno 17394 bound_to 11000
  140.1209  134.5221  155.8185 LP  0  0  0  0  0  0  0  0  0  0  0  0  # atno 17395 bound_to 11000

$$$$
