AV-unprocessed.smi:657|AV-procd|sdf|3223|dock2
  -GOLD-   22720 0163D 1   1.00000     0.00000
 Structure written by MMmdl.
 47 48  0  0  0  0  0  0  0  0  2 V2000
  148.7959  133.5298  154.0146 C   0  0  0  0  0  0  0  0  0  0  0  0
  147.7237  134.5580  154.4169 C   0  0  0  0  0  0  0  0  0  0  0  0
  146.7548  133.9835  155.4692 C   0  0  0  0  0  0  0  0  0  0  0  0
  147.0341  135.1385  153.2145 N   0  3  1  0  0  0  0  0  0  0  0  0
  146.3111  134.1131  152.4042 C   0  0  0  0  0  0  0  0  0  0  0  0
  145.7972  134.6859  151.0774 C   0  0  0  0  0  0  0  0  0  0  0  0
  144.8634  135.8675  151.3390 C   0  0  0  0  0  0  0  0  0  0  0  0
  145.6062  136.9230  152.1610 C   0  0  0  0  0  0  0  0  0  0  0  0
  146.1785  136.3465  153.4794 C   0  0  2  0  0  0  0  0  0  0  0  0
  146.9268  137.4889  154.1877 C   0  0  0  0  0  0  0  0  0  0  0  0
  146.5168  137.9263  155.2634 O   0  0  0  0  0  0  0  0  0  0  0  0
  148.0310  137.9474  153.5810 N   0  0  0  0  0  0  0  0  0  0  0  0
  148.8663  139.0227  154.0968 C   0  0  0  0  0  0  0  0  0  0  0  0
  150.3343  138.5820  154.1631 C   0  0  0  0  0  0  0  0  0  0  0  0
  151.0545  139.2357  155.3088 C   0  0  0  0  0  0  0  0  0  0  0  0
  152.3801  138.9849  155.7652 C   0  0  0  0  0  0  0  0  0  0  0  0
  152.7167  139.7320  156.8039 N   0  0  0  0  0  0  0  0  0  0  0  0
  151.6231  140.4838  157.0454 N   0  0  0  0  0  0  0  0  0  0  0  0
  151.6388  141.4363  158.1348 C   0  0  0  0  0  0  0  0  0  0  0  0
  150.6042  140.2051  156.1602 C   0  0  0  0  0  0  0  0  0  0  0  0
  149.4062  133.2543  154.8752 H   0  0  0  0  0  0  0  0  0  0  0  0
  149.4668  133.9364  153.2572 H   0  0  0  0  0  0  0  0  0  0  0  0
  148.3647  132.6085  153.6243 H   0  0  0  0  0  0  0  0  0  0  0  0
  148.2869  135.3439  154.9160 H   0  0  0  0  0  0  0  0  0  0  0  0
  147.3009  133.6699  156.3595 H   0  0  0  0  0  0  0  0  0  0  0  0
  146.2193  133.1086  155.1005 H   0  0  0  0  0  0  0  0  0  0  0  0
  146.0197  134.7217  155.7888 H   0  0  0  0  0  0  0  0  0  0  0  0
  146.9610  133.2686  152.1807 H   0  0  0  0  0  0  0  0  0  0  0  0
  145.4663  133.7197  152.9703 H   0  0  0  0  0  0  0  0  0  0  0  0
  146.6375  135.0014  150.4572 H   0  0  0  0  0  0  0  0  0  0  0  0
  145.2697  133.9132  150.5171 H   0  0  0  0  0  0  0  0  0  0  0  0
  144.5208  136.2948  150.3961 H   0  0  0  0  0  0  0  0  0  0  0  0
  143.9748  135.5326  151.8756 H   0  0  0  0  0  0  0  0  0  0  0  0
  146.4130  137.3371  151.5529 H   0  0  0  0  0  0  0  0  0  0  0  0
  144.9294  137.7522  152.3734 H   0  0  0  0  0  0  0  0  0  0  0  0
  145.3431  136.0339  154.1082 H   0  0  0  0  0  0  0  0  0  0  0  0
  148.3099  137.5291  152.7051 H   0  0  0  0  0  0  0  0  0  0  0  0
  148.7673  139.8973  153.4518 H   0  0  0  0  0  0  0  0  0  0  0  0
  148.5152  139.3106  155.0892 H   0  0  0  0  0  0  0  0  0  0  0  0
  150.3811  137.4963  154.2564 H   0  0  0  0  0  0  0  0  0  0  0  0
  150.8258  138.8197  153.2187 H   0  0  0  0  0  0  0  0  0  0  0  0
  153.1033  138.2843  155.3742 H   0  0  0  0  0  0  0  0  0  0  0  0
  150.7139  142.0136  158.1406 H   0  0  0  0  0  0  0  0  0  0  0  0
  152.4812  142.1188  158.0176 H   0  0  0  0  0  0  0  0  0  0  0  0
  151.7340  140.9086  159.0841 H   0  0  0  0  0  0  0  0  0  0  0  0
  149.6525  140.7141  156.2082 H   0  0  0  0  0  0  0  0  0  0  0  0
  147.7809  135.4790  152.6256 H   0  0  0  0  0  0  0  0  0  0  0  0
  1  2  1  0  0  0  0
  1 21  1  0  0  0  0
  1 22  1  0  0  0  0
  1 23  1  0  0  0  0
  2  3  1  0  0  0  0
  2  4  1  0  0  0  0
  2 24  1  0  0  0  0
  3 25  1  0  0  0  0
  3 26  1  0  0  0  0
  3 27  1  0  0  0  0
  4  9  1  0  0  0  0
  4  5  1  0  0  0  0
  4 47  1  0  0  0  0
  5  6  1  0  0  0  0
  5 28  1  0  0  0  0
  5 29  1  0  0  0  0
  6  7  1  0  0  0  0
  6 30  1  0  0  0  0
  6 31  1  0  0  0  0
  7  8  1  0  0  0  0
  7 32  1  0  0  0  0
  7 33  1  0  0  0  0
  8  9  1  0  0  0  0
  8 34  1  0  0  0  0
  8 35  1  0  0  0  0
  9 10  1  0  0  0  0
  9 36  1  0  0  0  0
 10 11  2  0  0  0  0
 10 12  1  0  0  0  0
 12 13  1  0  0  0  0
 12 37  1  0  0  0  0
 13 14  1  0  0  0  0
 13 38  1  0  0  0  0
 13 39  1  0  0  0  0
 14 15  1  0  0  0  0
 14 40  1  0  0  0  0
 14 41  1  0  0  0  0
 15 20  2  0  0  0  0
 15 16  1  0  0  0  0
 16 17  2  0  0  0  0
 16 42  1  0  0  0  0
 17 18  1  0  0  0  0
 18 19  1  0  0  0  0
 18 20  1  0  0  0  0
 19 43  1  0  0  0  0
 19 44  1  0  0  0  0
 19 45  1  0  0  0  0
 20 46  1  0  0  0  0
M  CHG  1   4   1
M  END
> <s_m_source_file>
AV-unprocessed.smi

> <i_m_source_file_index>
657

> <i_lp_mmshare_version>
43012

> <i_f3d_flags>
0

> <s_epik_input>
W0NIM11bQ0hdKFtDSDNdKU4xW0NIMl1bQ0gyXVtDSDJdW0NIMl1bQ0BIXTFDKD1PKVtOSF1bQ0gyXVtDSDJdYzJbY0hdbm4oW0NIM10pW2NIXTI=

> <s_epik_cmdline>
J2VwaWtfcHl0aG9uJywgJy1waCcsICc3LjAnLCAnLXRuJywgJzgnLCAnLW1hJywgJzIwMCcsICctbWV0YWxfYmluZGluZycsICctaW1hZScsICc8aW5maWxlLm1hZT4nLCAnLW9tYWUnLCAnPG91dGZpbGUubWFlPic=

> <r_lp_tautomer_probability>
1

> <r_epik_Ionization_Penalty>
0.0244317

> <r_epik_Ionization_Penalty_Charging>
0.0240236

> <r_epik_Ionization_Penalty_Neutral>
0.00040815

> <r_epik_State_Penalty>
0.0194773

> <r_epik_Charging_Adjusted_Penalty>
0.0435009

> <i_epik_Tot_Q>
1

> <i_epik_Tot_abs_Q>
1

> <r_epik_Metal_State_Penalty>
0.0361957

> <b_epik_Metal_Only>
0

> <s_lp_Force_Field>
OPLS_2005

> <r_lp_Energy>
18.4932

> <b_lp_Chiralities_Consistent>
1

> <s_lp_Variant>
AV-unprocessed.smi:657-4

> <Gold.Version>
5.8.1

> <Gold.Id.Protein>
6NUR|6NUR_protein|mol2

> <Gold.PLP.Fitness>
43.8447

> <Gold.PLP.PLP>
-32.4564

> <Gold.PLP.part.hbond>
-3.0000

> <Gold.PLP.part.metal>
0.0000

> <Gold.PLP.part.buried>
-1.7318

> <Gold.PLP.part.nonpolar>
-27.2362

> <Gold.PLP.part.repulsive>
0.0550

> <Gold.PLP.ligand.clash>
0.0000

> <Gold.PLP.ligand.torsion>
0.3742

> <Gold.PLP.Chemscore.Hbond>
3.9920

> <Gold.PLP.Chemscore.CHOScore>
0.0000

> <Gold.PLP.Chemscore.Metal>
0.0000

> <Gold.Chemscore.Hbonds>
donor molecule, donor type, donor heavy atom, donor atom, acceptor molecule, acceptor atom, score
      L1  H     4    47       P1  7948  2.00
      L1  H    12    37       P1  7948  1.00
      P1  H  7997  8008       L1    17  1.00

> <Gold.PLP.Chemscore.Internal.Correction>
0.1606

> <Gold.Rescore>
     Score         DG    S(hbond)    S(metal)    S(lipo)     H(rot)  DE(clash)    DE(int)     intcor
     18.99     -19.48       2.84        0.00      74.26       1.63       0.10       0.40       ----

> <Gold.Chemscore.Fitness>
18.9853

> <Gold.Chemscore.DG>
-19.4830

> <Gold.Chemscore.ZeroCoef>
-5.4800

> <Gold.Chemscore.Hbond>
2.8389

> <Gold.Chemscore.Metal>
0.0000

> <Gold.Chemscore.Lipo>
74.2592

> <Gold.Chemscore.Internal_Hbond>
0.0000

> <Gold.Chemscore.DEClash>
0.1013

> <Gold.Chemscore.DEInternal>
0.3963

> <Gold.Chemscore.Rot>
1.6279

> <Gold.Chemscore.Internal.Correction>
   9.000000E+99

> <Gold.Chemscore.Hbonds>
donor molecule, donor type, donor heavy atom, donor atom, acceptor molecule, acceptor atom, score
      L1  H     4    47       P1  7948  0.97
      L1  H    12    37       P1  7948  0.95
      P1  H  7997  8008       L1    17  0.30

> <Gold.Chemscore.Hbond.Weighted>
-9.4820

> <Gold.Chemscore.Metal.Weighted>
-0.0000

> <Gold.Chemscore.Lipo.Weighted>
-8.6883

> <Gold.Chemscore.Internal_Hbond.Weighted>
0.0000

> <Gold.Chemscore.DEClash.Weighted>
0.1013

> <Gold.Chemscore.DEInternal.Weighted>
0.3963

> <Gold.Chemscore.Rot.Weighted>
4.1673

> <Gold.Chemscore.Internal.Correction.Weighted>
   9.000000E+99

> <Gold.Protein.RotatedTorsions>
[ 6907 6896 6895 6894 ] final   73.16 input  -60.11 | X-H torsion
[ 7974 7965 7964 7962 ] final  130.41 input  175.53 | X-H torsion
[ 8008 7997 7996 7995 ] final  -45.23 input   59.86 | X-H torsion
[ 10167 10162 10161 10158 ] final  168.06 input  -65.29 | X-H torsion
[ 10718 10713 10712 10709 ] final -168.49 input   66.30 | X-H torsion
[ 10763 10752 10751 10750 ] final  -51.45 input  -60.55 | X-H torsion
[ 11005 11000 10999 10996 ] final  114.35 input  -57.11 | X-H torsion

> <Gold.Protein.ActiveResidues>
 VAL166  LYS551  ARG553  GLY616  TRP617  ASP618  TYR619  PRO620  LYS621  CYS622 
 ASP623  PHE694  ASN695  SER759  ASP760  ASP761  ALA762  ILE779  LEU786  VAL792 
 PHE793  MET794  SER795  GLU796  ALA797  LYS798  CYS799  TRP800  GLU811  SER814 

> <Gold.Protein.RotatedAtoms>
  152.4908  134.4464  159.9559 H   0  0  0  0  0  0  0  0  0  0  0  0  # atno 6907 bound_to 6896
  151.4451  133.3626  159.2795 H   0  0  0  0  0  0  0  0  0  0  0  0  # atno 6908 bound_to 6896
  150.9060  134.8499  159.7453 H   0  0  0  0  0  0  0  0  0  0  0  0  # atno 6909 bound_to 6896
  145.0182  139.4157  143.5211 H   0  0  0  0  0  0  0  0  0  0  0  0  # atno 7974 bound_to 7965
  154.4000  140.1402  156.3813 H   0  0  0  0  0  0  0  0  0  0  0  0  # atno 8008 bound_to 7997
  155.8001  140.3476  155.5377 H   0  0  0  0  0  0  0  0  0  0  0  0  # atno 8009 bound_to 7997
  155.8492  140.0939  157.1676 H   0  0  0  0  0  0  0  0  0  0  0  0  # atno 8010 bound_to 7997
  139.4959  144.3855  151.9575 H   0  0  0  0  0  0  0  0  0  0  0  0  # atno 10167 bound_to 10162
  156.6977  130.9184  151.3076 H   0  0  0  0  0  0  0  0  0  0  0  0  # atno 10718 bound_to 10713
  154.1268  135.6526  153.4914 H   0  0  0  0  0  0  0  0  0  0  0  0  # atno 10763 bound_to 10752
  153.0207  135.5283  154.7041 H   0  0  0  0  0  0  0  0  0  0  0  0  # atno 10764 bound_to 10752
  154.6264  135.2971  155.0237 H   0  0  0  0  0  0  0  0  0  0  0  0  # atno 10765 bound_to 10752
  139.8978  134.9566  156.6878 H   0  0  0  0  0  0  0  0  0  0  0  0  # atno 11005 bound_to 11000
  146.3481  139.9664  142.8711 LP  0  0  0  0  0  0  0  0  0  0  0  0  # atno 17320 bound_to 7965
  145.1932  140.9821  143.4199 LP  0  0  0  0  0  0  0  0  0  0  0  0  # atno 17321 bound_to 7965
  140.3292  144.3337  150.5991 LP  0  0  0  0  0  0  0  0  0  0  0  0  # atno 17342 bound_to 10162
  140.5659  143.2186  151.7684 LP  0  0  0  0  0  0  0  0  0  0  0  0  # atno 17343 bound_to 10162
  157.6985  130.9307  150.0714 LP  0  0  0  0  0  0  0  0  0  0  0  0  # atno 17370 bound_to 10713
  156.1751  130.3648  149.9111 LP  0  0  0  0  0  0  0  0  0  0  0  0  # atno 17371 bound_to 10713
  140.7248  133.9109  155.8171 LP  0  0  0  0  0  0  0  0  0  0  0  0  # atno 17394 bound_to 11000
  141.0199  134.0904  157.4132 LP  0  0  0  0  0  0  0  0  0  0  0  0  # atno 17395 bound_to 11000

$$$$
