AV-unprocessed.smi:1235|AV-procd|sdf|5178|dock5
  -GOLD-   22720 4253D 1   1.00000     0.00000
 Structure written by MMmdl.
 50 51  0  0  0  0  0  0  0  0  2 V2000
  153.2088  141.1123  159.8736 C   0  0  0  0  0  0  0  0  0  0  0  0
  153.5060  139.9038  159.1964 O   0  0  0  0  0  0  0  0  0  0  0  0
  152.3758  139.3603  158.5360 C   0  0  0  0  0  0  0  0  0  0  0  0
  152.7339  137.9636  158.0057 C   0  0  0  0  0  0  0  0  0  0  0  0
  152.0956  137.6990  156.7121 N   0  0  0  0  0  0  0  0  0  0  0  0
  151.3277  136.5465  156.6859 N   0  0  0  0  0  0  0  0  0  0  0  0
  150.7189  136.1961  155.5992 C   0  0  0  0  0  0  0  0  0  0  0  0
  149.8798  134.9674  155.5288 C   0  0  0  0  0  0  0  0  0  0  0  0
  149.8895  134.1203  156.4237 O   0  0  0  0  0  0  0  0  0  0  0  0
  149.1210  134.8459  154.4242 N   0  0  0  0  0  0  0  0  0  0  0  0
  148.2315  133.7252  154.1404 C   0  0  0  0  0  0  0  0  0  0  0  0
  148.8509  132.7637  153.1036 C   0  0  0  0  0  0  0  0  0  0  0  0
  147.8420  131.9216  152.3974 N   0  3  1  0  0  0  0  0  0  0  0  0
  147.6084  130.6293  153.1063 C   0  0  0  0  0  0  0  0  0  0  0  0
  146.6626  129.7032  152.3293 C   0  0  0  0  0  0  0  0  0  0  0  0
  145.3253  130.3960  152.0743 C   0  0  0  0  0  0  0  0  0  0  0  0
  145.5751  131.7138  151.3388 C   0  0  0  0  0  0  0  0  0  0  0  0
  146.5526  132.6330  152.1052 C   0  0  2  0  0  0  0  0  0  0  0  0
  146.7401  133.9295  151.2887 C   0  0  0  0  0  0  0  0  0  0  0  0
  150.8289  136.9984  154.3925 C   0  0  0  0  0  0  0  0  0  0  0  0
  151.5827  138.1187  154.4333 C   0  0  0  0  0  0  0  0  0  0  0  0
  152.2834  138.5371  155.6483 C   0  0  0  0  0  0  0  0  0  0  0  0
  152.9821  139.5483  155.7079 O   0  0  0  0  0  0  0  0  0  0  0  0
  154.1075  141.4891  160.3617 H   0  0  0  0  0  0  0  0  0  0  0  0
  152.4489  140.9584  160.6410 H   0  0  0  0  0  0  0  0  0  0  0  0
  152.8563  141.8775  159.1804 H   0  0  0  0  0  0  0  0  0  0  0  0
  151.5344  139.3010  159.2282 H   0  0  0  0  0  0  0  0  0  0  0  0
  152.0794  140.0101  157.7107 H   0  0  0  0  0  0  0  0  0  0  0  0
  153.8180  137.8805  157.9091 H   0  0  0  0  0  0  0  0  0  0  0  0
  152.4491  137.2023  158.7341 H   0  0  0  0  0  0  0  0  0  0  0  0
  149.1650  135.5846  153.7362 H   0  0  0  0  0  0  0  0  0  0  0  0
  147.9935  133.1943  155.0638 H   0  0  0  0  0  0  0  0  0  0  0  0
  147.2998  134.1551  153.7766 H   0  0  0  0  0  0  0  0  0  0  0  0
  149.4424  133.3175  152.3729 H   0  0  0  0  0  0  0  0  0  0  0  0
  149.5504  132.1345  153.6472 H   0  0  0  0  0  0  0  0  0  0  0  0
  148.5438  130.0931  153.2526 H   0  0  0  0  0  0  0  0  0  0  0  0
  147.2018  130.8283  154.0992 H   0  0  0  0  0  0  0  0  0  0  0  0
  147.1201  129.4179  151.3809 H   0  0  0  0  0  0  0  0  0  0  0  0
  146.5025  128.7801  152.8872 H   0  0  0  0  0  0  0  0  0  0  0  0
  144.6708  129.7520  151.4860 H   0  0  0  0  0  0  0  0  0  0  0  0
  144.8149  130.5856  153.0195 H   0  0  0  0  0  0  0  0  0  0  0  0
  145.9705  131.5032  150.3437 H   0  0  0  0  0  0  0  0  0  0  0  0
  144.6225  132.2231  151.1876 H   0  0  0  0  0  0  0  0  0  0  0  0
  146.0930  132.8976  153.0592 H   0  0  0  0  0  0  0  0  0  0  0  0
  145.7794  134.3154  150.9463 H   0  0  0  0  0  0  0  0  0  0  0  0
  147.3568  133.7596  150.4058 H   0  0  0  0  0  0  0  0  0  0  0  0
  147.1898  134.7317  151.8727 H   0  0  0  0  0  0  0  0  0  0  0  0
  150.3236  136.7137  153.4810 H   0  0  0  0  0  0  0  0  0  0  0  0
  151.6729  138.7249  153.5438 H   0  0  0  0  0  0  0  0  0  0  0  0
  148.2424  131.6920  151.4989 H   0  0  0  0  0  0  0  0  0  0  0  0
  1  2  1  0  0  0  0
  1 24  1  0  0  0  0
  1 25  1  0  0  0  0
  1 26  1  0  0  0  0
  2  3  1  0  0  0  0
  3  4  1  0  0  0  0
  3 27  1  0  0  0  0
  3 28  1  0  0  0  0
  4  5  1  0  0  0  0
  4 29  1  0  0  0  0
  4 30  1  0  0  0  0
  5 22  1  0  0  0  0
  5  6  1  0  0  0  0
  6  7  2  0  0  0  0
  7  8  1  0  0  0  0
  7 20  1  0  0  0  0
  8  9  2  0  0  0  0
  8 10  1  0  0  0  0
 10 11  1  0  0  0  0
 10 31  1  0  0  0  0
 11 12  1  0  0  0  0
 11 32  1  0  0  0  0
 11 33  1  0  0  0  0
 12 13  1  0  0  0  0
 12 34  1  0  0  0  0
 12 35  1  0  0  0  0
 13 18  1  0  0  0  0
 13 14  1  0  0  0  0
 13 50  1  0  0  0  0
 14 15  1  0  0  0  0
 14 36  1  0  0  0  0
 14 37  1  0  0  0  0
 15 16  1  0  0  0  0
 15 38  1  0  0  0  0
 15 39  1  0  0  0  0
 16 17  1  0  0  0  0
 16 40  1  0  0  0  0
 16 41  1  0  0  0  0
 17 18  1  0  0  0  0
 17 42  1  0  0  0  0
 17 43  1  0  0  0  0
 18 19  1  0  0  0  0
 18 44  1  0  0  0  0
 19 45  1  0  0  0  0
 19 46  1  0  0  0  0
 19 47  1  0  0  0  0
 20 21  2  0  0  0  0
 20 48  1  0  0  0  0
 21 22  1  0  0  0  0
 21 49  1  0  0  0  0
 22 23  2  0  0  0  0
M  CHG  1  13   1
M  END
> <s_m_source_file>
AV-unprocessed.smi

> <i_m_source_file_index>
1235

> <i_lp_mmshare_version>
43012

> <i_f3d_flags>
0

> <s_epik_input>
W0NIM11PW0NIMl1bQ0gyXW4xbmMoW2NIXVtjSF1jMT1PKUMoPU8pW05IXVtDSDJdW0NIMl1OMltDSDJdW0NIMl1bQ0gyXVtDSDJdW0NASF0yW0NIM10=

> <s_epik_cmdline>
J2VwaWtfcHl0aG9uJywgJy1waCcsICc3LjAnLCAnLXRuJywgJzgnLCAnLW1hJywgJzIwMCcsICctbWV0YWxfYmluZGluZycsICctaW1hZScsICc8aW5maWxlLm1hZT4nLCAnLW9tYWUnLCAnPG91dGZpbGUubWFlPic=

> <r_lp_tautomer_probability>
1

> <r_epik_Ionization_Penalty>
0.00271975

> <r_epik_Ionization_Penalty_Charging>
0.00271407

> <r_epik_Ionization_Penalty_Neutral>
5.6803e-06

> <r_epik_State_Penalty>
0.00189271

> <r_epik_Charging_Adjusted_Penalty>
0.00460678

> <i_epik_Tot_Q>
1

> <i_epik_Tot_abs_Q>
1

> <r_epik_Metal_State_Penalty>
-0

> <b_epik_Metal_Only>
0

> <s_lp_Force_Field>
OPLS_2005

> <r_lp_Energy>
40.1633

> <b_lp_Chiralities_Consistent>
1

> <s_lp_Variant>
AV-unprocessed.smi:1235-4

> <Gold.Version>
5.8.1

> <Gold.Id.Protein>
6NUR|6NUR_protein|mol2

> <Gold.PLP.Fitness>
44.8039

> <Gold.PLP.PLP>
-37.4925

> <Gold.PLP.part.hbond>
-3.0000

> <Gold.PLP.part.metal>
0.0000

> <Gold.PLP.part.buried>
-3.7436

> <Gold.PLP.part.nonpolar>
-29.3579

> <Gold.PLP.part.repulsive>
0.0096

> <Gold.PLP.ligand.clash>
0.0730

> <Gold.PLP.ligand.torsion>
0.8804

> <Gold.PLP.Chemscore.Hbond>
3.0000

> <Gold.PLP.Chemscore.CHOScore>
0.0000

> <Gold.PLP.Chemscore.Metal>
0.0000

> <Gold.Chemscore.Hbonds>
donor molecule, donor type, donor heavy atom, donor atom, acceptor molecule, acceptor atom, score
      L1  H    10    31       P1  7948  1.00
      L1  H    13    50       P1 10747  1.00
      P1  H  7997  8010       L1    23  1.00

> <Gold.PLP.Chemscore.Internal.Correction>
0.1452

> <Gold.Rescore>
     Score         DG    S(hbond)    S(metal)    S(lipo)     H(rot)  DE(clash)    DE(int)     intcor
     18.32     -20.30       2.76        0.00      91.64       2.00       0.05       1.94       ----

> <Gold.Chemscore.Fitness>
18.3201

> <Gold.Chemscore.DG>
-20.3009

> <Gold.Chemscore.ZeroCoef>
-5.4800

> <Gold.Chemscore.Hbond>
2.7618

> <Gold.Chemscore.Metal>
0.0000

> <Gold.Chemscore.Lipo>
91.6377

> <Gold.Chemscore.Internal_Hbond>
0.0000

> <Gold.Chemscore.DEClash>
0.0456

> <Gold.Chemscore.DEInternal>
1.9352

> <Gold.Chemscore.Rot>
2.0020

> <Gold.Chemscore.Internal.Correction>
   9.000000E+99

> <Gold.Chemscore.Hbonds>
donor molecule, donor type, donor heavy atom, donor atom, acceptor molecule, acceptor atom, score
      L1  H    10    31       P1  7948  0.61
      L1  H    13    50       P1 10747  0.99
      P1  H  7997  8010       L1    23  0.96

> <Gold.Chemscore.Hbond.Weighted>
-9.2245

> <Gold.Chemscore.Metal.Weighted>
-0.0000

> <Gold.Chemscore.Lipo.Weighted>
-10.7216

> <Gold.Chemscore.Internal_Hbond.Weighted>
0.0000

> <Gold.Chemscore.DEClash.Weighted>
0.0456

> <Gold.Chemscore.DEInternal.Weighted>
1.9352

> <Gold.Chemscore.Rot.Weighted>
5.1252

> <Gold.Chemscore.Internal.Correction.Weighted>
   9.000000E+99

> <Gold.Protein.RotatedTorsions>
[ 6907 6896 6895 6894 ] final   61.08 input  -60.11 | X-H torsion
[ 7974 7965 7964 7962 ] final -107.27 input  175.53 | X-H torsion
[ 8008 7997 7996 7995 ] final   71.19 input   59.86 | X-H torsion
[ 10167 10162 10161 10158 ] final   -0.52 input  -65.29 | X-H torsion
[ 10718 10713 10712 10709 ] final   84.25 input   66.30 | X-H torsion
[ 10763 10752 10751 10750 ] final   89.18 input  -60.55 | X-H torsion
[ 11005 11000 10999 10996 ] final  -26.54 input  -57.11 | X-H torsion

> <Gold.Protein.ActiveResidues>
 VAL166  LYS551  ARG553  GLY616  TRP617  ASP618  TYR619  PRO620  LYS621  CYS622 
 ASP623  PHE694  ASN695  SER759  ASP760  ASP761  ALA762  ILE779  LEU786  VAL792 
 PHE793  MET794  SER795  GLU796  ALA797  LYS798  CYS799  TRP800  GLU811  SER814 

> <Gold.Protein.RotatedAtoms>
  152.4058  134.6209  160.0050 H   0  0  0  0  0  0  0  0  0  0  0  0  # atno 6907 bound_to 6896
  151.6400  133.3321  159.3136 H   0  0  0  0  0  0  0  0  0  0  0  0  # atno 6908 bound_to 6896
  150.7953  134.7050  159.6616 H   0  0  0  0  0  0  0  0  0  0  0  0  # atno 6909 bound_to 6896
  145.2074  140.9082  143.3334 H   0  0  0  0  0  0  0  0  0  0  0  0  # atno 7974 bound_to 7965
  155.7502  140.3488  155.5146 H   0  0  0  0  0  0  0  0  0  0  0  0  # atno 8008 bound_to 7997
  155.9012  140.1034  157.1370 H   0  0  0  0  0  0  0  0  0  0  0  0  # atno 8009 bound_to 7997
  154.4044  140.1286  156.4425 H   0  0  0  0  0  0  0  0  0  0  0  0  # atno 8010 bound_to 7997
  140.6771  143.6884  150.8047 H   0  0  0  0  0  0  0  0  0  0  0  0  # atno 10167 bound_to 10162
  157.6894  131.0125  150.2644 H   0  0  0  0  0  0  0  0  0  0  0  0  # atno 10718 bound_to 10713
  153.1844  135.4480  155.0070 H   0  0  0  0  0  0  0  0  0  0  0  0  # atno 10763 bound_to 10752
  154.8051  135.3271  154.7454 H   0  0  0  0  0  0  0  0  0  0  0  0  # atno 10764 bound_to 10752
  153.7915  135.6970  153.4926 H   0  0  0  0  0  0  0  0  0  0  0  0  # atno 10765 bound_to 10752
  140.9038  133.7506  156.0579 H   0  0  0  0  0  0  0  0  0  0  0  0  # atno 11005 bound_to 11000
  144.9889  139.3709  143.6225 LP  0  0  0  0  0  0  0  0  0  0  0  0  # atno 17320 bound_to 7965
  146.3405  139.9063  142.8787 LP  0  0  0  0  0  0  0  0  0  0  0  0  # atno 17321 bound_to 7965
  140.0579  143.5184  152.2642 LP  0  0  0  0  0  0  0  0  0  0  0  0  # atno 17342 bound_to 10162
  139.6070  144.7599  151.3040 LP  0  0  0  0  0  0  0  0  0  0  0  0  # atno 17343 bound_to 10162
  156.3218  130.3787  149.7568 LP  0  0  0  0  0  0  0  0  0  0  0  0  # atno 17370 bound_to 10713
  156.5136  130.8183  151.3178 LP  0  0  0  0  0  0  0  0  0  0  0  0  # atno 17371 bound_to 10713
  140.8196  134.3305  157.5386 LP  0  0  0  0  0  0  0  0  0  0  0  0  # atno 17394 bound_to 11000
  139.8746  134.9301  156.3495 LP  0  0  0  0  0  0  0  0  0  0  0  0  # atno 17395 bound_to 11000

$$$$
