AV-unprocessed.smi:2458|AV-procd|sdf|9710|dock9
  -GOLD-   2272013353D 1   1.00000     0.00000
 Structure written by MMmdl.
 47 48  0  0  0  0  0  0  0  0  1 V2000
  150.8645  139.8645  156.5139 C   0  0  0  0  0  0  0  0  0  0  0  0
  150.4169  141.3393  156.5099 C   0  0  0  0  0  0  0  0  0  0  0  0
  150.3425  141.8358  157.9670 C   0  0  0  0  0  0  0  0  0  0  0  0
  149.0883  141.5624  155.7280 C   0  0  1  0  0  0  0  0  0  0  0  0
  149.2008  141.1467  154.2409 C   0  0  0  0  0  0  0  0  0  0  0  0
  147.8866  141.3528  153.4635 C   0  0  0  0  0  0  0  0  0  0  0  0
  146.6626  140.6713  154.1113 C   0  0  1  0  0  0  0  0  0  0  0  0
  146.6192  139.1502  153.8707 C   0  0  0  0  0  0  0  0  0  0  0  0
  147.5802  138.4345  154.1520 O   0  0  0  0  0  0  0  0  0  0  0  0
  145.4855  138.6661  153.3432 N   0  0  0  0  0  0  0  0  0  0  0  0
  145.2444  137.2595  153.0500 C   0  0  0  0  0  0  0  0  0  0  0  0
  146.2244  136.7433  151.9816 C   0  0  2  0  0  0  0  0  0  0  0  0
  146.3043  137.6980  150.9412 O   0  0  0  0  0  0  0  0  0  0  0  0
  145.7988  135.3819  151.4555 C   0  0  0  0  0  0  0  0  0  0  0  0
  144.5548  135.1985  150.8133 C   0  0  0  0  0  0  0  0  0  0  0  0
  144.2076  133.9134  150.3546 C   0  0  0  0  0  0  0  0  0  0  0  0
  145.1199  132.8595  150.5588 C   0  0  0  0  0  0  0  0  0  0  0  0
  146.3113  133.0198  151.1736 N   0  0  0  0  0  0  0  0  0  0  0  0
  146.6366  134.2558  151.6103 C   0  0  0  0  0  0  0  0  0  0  0  0
  146.5777  141.0391  155.6066 C   0  0  0  0  0  0  0  0  0  0  0  0
  147.8945  140.8176  156.3727 C   0  0  0  0  0  0  0  0  0  0  0  0
  148.8637  142.6298  155.7547 H   0  0  0  0  0  0  0  0  0  0  0  0
  145.7761  141.0871  153.6290 H   0  0  0  0  0  0  0  0  0  0  0  0
  150.0806  139.2129  156.9015 H   0  0  0  0  0  0  0  0  0  0  0  0
  151.7480  139.7228  157.1369 H   0  0  0  0  0  0  0  0  0  0  0  0
  151.1337  139.5153  155.5177 H   0  0  0  0  0  0  0  0  0  0  0  0
  151.2012  141.9130  156.0143 H   0  0  0  0  0  0  0  0  0  0  0  0
  149.5135  141.3723  158.5027 H   0  0  0  0  0  0  0  0  0  0  0  0
  150.2222  142.9168  158.0259 H   0  0  0  0  0  0  0  0  0  0  0  0
  151.2583  141.6002  158.5098 H   0  0  0  0  0  0  0  0  0  0  0  0
  149.9691  141.7325  153.7381 H   0  0  0  0  0  0  0  0  0  0  0  0
  149.5225  140.1077  154.1709 H   0  0  0  0  0  0  0  0  0  0  0  0
  147.6906  142.4232  153.3885 H   0  0  0  0  0  0  0  0  0  0  0  0
  148.0115  141.0040  152.4373 H   0  0  0  0  0  0  0  0  0  0  0  0
  144.7355  139.3120  153.1427 H   0  0  0  0  0  0  0  0  0  0  0  0
  145.3924  136.7057  153.9787 H   0  0  0  0  0  0  0  0  0  0  0  0
  144.2097  137.0940  152.7434 H   0  0  0  0  0  0  0  0  0  0  0  0
  147.2206  136.6450  152.4161 H   0  0  0  0  0  0  0  0  0  0  0  0
  145.4722  138.1406  150.8744 H   0  0  0  0  0  0  0  0  0  0  0  0
  143.8755  136.0271  150.6757 H   0  0  0  0  0  0  0  0  0  0  0  0
  143.2639  133.7389  149.8593 H   0  0  0  0  0  0  0  0  0  0  0  0
  144.8859  131.8610  150.2203 H   0  0  0  0  0  0  0  0  0  0  0  0
  147.5955  134.3457  152.0993 H   0  0  0  0  0  0  0  0  0  0  0  0
  146.2939  142.0886  155.6941 H   0  0  0  0  0  0  0  0  0  0  0  0
  145.7765  140.4762  156.0875 H   0  0  0  0  0  0  0  0  0  0  0  0
  148.1154  139.7523  156.4423 H   0  0  0  0  0  0  0  0  0  0  0  0
  147.7363  141.1598  157.3944 H   0  0  0  0  0  0  0  0  0  0  0  0
  1  2  1  0  0  0  0
  1 24  1  0  0  0  0
  1 25  1  0  0  0  0
  1 26  1  0  0  0  0
  2  3  1  0  0  0  0
  2  4  1  0  0  0  0
  2 27  1  0  0  0  0
  3 28  1  0  0  0  0
  3 29  1  0  0  0  0
  3 30  1  0  0  0  0
  4 22  1  0  0  0  0
  4 21  1  0  0  0  0
  4  5  1  0  0  0  0
  5  6  1  0  0  0  0
  5 31  1  0  0  0  0
  5 32  1  0  0  0  0
  6  7  1  0  0  0  0
  6 33  1  0  0  0  0
  6 34  1  0  0  0  0
  7 23  1  0  0  0  0
  7  8  1  0  0  0  0
  7 20  1  0  0  0  0
  8  9  2  0  0  0  0
  8 10  1  0  0  0  0
 10 11  1  0  0  0  0
 10 35  1  0  0  0  0
 11 12  1  0  0  0  0
 11 36  1  0  0  0  0
 11 37  1  0  0  0  0
 12 13  1  0  0  0  0
 12 14  1  0  0  0  0
 12 38  1  0  0  0  0
 13 39  1  0  0  0  0
 14 19  1  0  0  0  0
 14 15  2  0  0  0  0
 15 16  1  0  0  0  0
 15 40  1  0  0  0  0
 16 17  2  0  0  0  0
 16 41  1  0  0  0  0
 17 18  1  0  0  0  0
 17 42  1  0  0  0  0
 18 19  2  0  0  0  0
 19 43  1  0  0  0  0
 20 21  1  0  0  0  0
 20 44  1  0  0  0  0
 20 45  1  0  0  0  0
 21 46  1  0  0  0  0
 21 47  1  0  0  0  0
M  END
> <s_m_source_file>
AV-unprocessed.smi

> <i_m_source_file_index>
2458

> <i_lp_mmshare_version>
43012

> <i_f3d_flags>
0

> <s_epik_input>
W0NIM11bQ0hdKFtDSDNdKVtDQEhdMVtDSDJdW0NIMl1bQ0BASF0oW0NIMl1bQ0gyXTEpQyg9TylbTkhdW0NIMl1bQ0BIXShbT0hdKWMyW2NIXVtjSF1bY0hdbltjSF0y

> <s_epik_cmdline>
J2VwaWtfcHl0aG9uJywgJy1waCcsICc3LjAnLCAnLXRuJywgJzgnLCAnLW1hJywgJzIwMCcsICctbWV0YWxfYmluZGluZycsICctaW1hZScsICc8aW5maWxlLm1hZT4nLCAnLW9tYWUnLCAnPG91dGZpbGUubWFlPic=

> <r_epik_Ionization_Penalty>
0.00169206

> <r_epik_Ionization_Penalty_Charging>
0

> <r_epik_Ionization_Penalty_Neutral>
0.00169206

> <r_epik_State_Penalty>
0.0011427

> <r_epik_Charging_Adjusted_Penalty>
0.0011427

> <i_epik_Tot_Q>
0

> <i_epik_Tot_abs_Q>
0

> <r_epik_Metal_State_Penalty>
-0

> <b_epik_Metal_Only>
0

> <s_lp_Force_Field>
OPLS_2005

> <r_lp_Energy>
16.378

> <b_lp_Chiralities_Consistent>
1

> <s_lp_Variant>
AV-unprocessed.smi:2458-3

> <Gold.Version>
5.8.1

> <Gold.Id.Protein>
6NUR|6NUR_protein|mol2

> <Gold.PLP.Fitness>
42.3774

> <Gold.PLP.PLP>
-31.3242

> <Gold.PLP.part.hbond>
-3.6253

> <Gold.PLP.part.metal>
0.0000

> <Gold.PLP.part.buried>
-0.0860

> <Gold.PLP.part.nonpolar>
-27.4978

> <Gold.PLP.part.repulsive>
0.3275

> <Gold.PLP.ligand.clash>
0.0000

> <Gold.PLP.ligand.torsion>
0.2849

> <Gold.PLP.Chemscore.Hbond>
3.0000

> <Gold.PLP.Chemscore.CHOScore>
0.8557

> <Gold.PLP.Chemscore.Metal>
0.0000

> <Gold.Chemscore.Hbonds>
donor molecule, donor type, donor heavy atom, donor atom, acceptor molecule, acceptor atom, score
      L1  H    10    35       P1 10175  1.00
      L1  H    13    39       P1 10171  0.98
      P1  H  7954  7966       L1    13  0.73
      L1  C    19    43       P1  7948  0.85

> <Gold.PLP.Chemscore.Internal.Correction>
0.0559

> <Gold.Rescore>
     Score         DG    S(hbond)    S(metal)    S(lipo)     H(rot)  DE(clash)    DE(int)     intcor
     17.79     -20.66       2.94        0.00      90.98       2.06       1.66       1.21       ----

> <Gold.Chemscore.Fitness>
17.7918

> <Gold.Chemscore.DG>
-20.6591

> <Gold.Chemscore.ZeroCoef>
-5.4800

> <Gold.Chemscore.Hbond>
2.9355

> <Gold.Chemscore.Metal>
0.0000

> <Gold.Chemscore.Lipo>
90.9838

> <Gold.Chemscore.Internal_Hbond>
0.0000

> <Gold.Chemscore.DEClash>
1.6595

> <Gold.Chemscore.DEInternal>
1.2078

> <Gold.Chemscore.Rot>
2.0588

> <Gold.Chemscore.Internal.Correction>
   9.000000E+99

> <Gold.Chemscore.Hbonds>
donor molecule, donor type, donor heavy atom, donor atom, acceptor molecule, acceptor atom, score
      L1  H    10    35       P1 10175  1.00
      L1  H    13    39       P1 10171  0.92
      P1  H  7954  7966       L1    13  0.69

> <Gold.Chemscore.Hbond.Weighted>
-9.8045

> <Gold.Chemscore.Metal.Weighted>
-0.0000

> <Gold.Chemscore.Lipo.Weighted>
-10.6451

> <Gold.Chemscore.Internal_Hbond.Weighted>
0.0000

> <Gold.Chemscore.DEClash.Weighted>
1.6595

> <Gold.Chemscore.DEInternal.Weighted>
1.2078

> <Gold.Chemscore.Rot.Weighted>
5.2705

> <Gold.Chemscore.Internal.Correction.Weighted>
   9.000000E+99

> <Gold.Protein.RotatedTorsions>
[ 6907 6896 6895 6894 ] final -101.84 input  -60.11 | X-H torsion
[ 7974 7965 7964 7962 ] final   32.61 input  175.53 | X-H torsion
[ 8008 7997 7996 7995 ] final  -45.05 input   59.86 | X-H torsion
[ 10167 10162 10161 10158 ] final    3.63 input  -65.29 | X-H torsion
[ 10718 10713 10712 10709 ] final  -72.30 input   66.30 | X-H torsion
[ 10763 10752 10751 10750 ] final  102.95 input  -60.55 | X-H torsion
[ 11005 11000 10999 10996 ] final  112.69 input  -57.11 | X-H torsion

> <Gold.Protein.ActiveResidues>
 VAL166  LYS551  ARG553  GLY616  TRP617  ASP618  TYR619  PRO620  LYS621  CYS622 
 ASP623  PHE694  ASN695  SER759  ASP760  ASP761  ALA762  ILE779  LEU786  VAL792 
 PHE793  MET794  SER795  GLU796  ALA797  LYS798  CYS799  TRP800  GLU811  SER814 

> <Gold.Protein.RotatedAtoms>
  150.7171  134.0673  159.3851 H   0  0  0  0  0  0  0  0  0  0  0  0  # atno 6907 bound_to 6896
  151.8655  135.0506  160.0483 H   0  0  0  0  0  0  0  0  0  0  0  0  # atno 6908 bound_to 6896
  152.2684  133.5324  159.5461 H   0  0  0  0  0  0  0  0  0  0  0  0  # atno 6909 bound_to 6896
  146.1475  139.6504  142.9121 H   0  0  0  0  0  0  0  0  0  0  0  0  # atno 7974 bound_to 7965
  154.3999  140.1406  156.3783 H   0  0  0  0  0  0  0  0  0  0  0  0  # atno 8008 bound_to 7997
  155.8028  140.3475  155.5392 H   0  0  0  0  0  0  0  0  0  0  0  0  # atno 8009 bound_to 7997
  155.8466  140.0935  157.1691 H   0  0  0  0  0  0  0  0  0  0  0  0  # atno 8010 bound_to 7997
  140.6576  143.7388  150.7680 H   0  0  0  0  0  0  0  0  0  0  0  0  # atno 10167 bound_to 10162
  156.0326  130.4369  150.2573 H   0  0  0  0  0  0  0  0  0  0  0  0  # atno 10718 bound_to 10713
  153.3462  135.3993  155.1611 H   0  0  0  0  0  0  0  0  0  0  0  0  # atno 10763 bound_to 10752
  154.8653  135.3645  154.5281 H   0  0  0  0  0  0  0  0  0  0  0  0  # atno 10764 bound_to 10752
  153.5729  135.7078  153.5556 H   0  0  0  0  0  0  0  0  0  0  0  0  # atno 10765 bound_to 10752
  139.8934  134.9535  156.6624 H   0  0  0  0  0  0  0  0  0  0  0  0  # atno 11005 bound_to 11000
  145.4902  141.0438  143.2597 LP  0  0  0  0  0  0  0  0  0  0  0  0  # atno 17320 bound_to 7965
  144.7864  139.6419  143.7132 LP  0  0  0  0  0  0  0  0  0  0  0  0  # atno 17321 bound_to 7965
  140.1050  143.4752  152.2403 LP  0  0  0  0  0  0  0  0  0  0  0  0  # atno 17342 bound_to 10162
  139.5802  144.7506  151.3661 LP  0  0  0  0  0  0  0  0  0  0  0  0  # atno 17343 bound_to 10162
  157.0674  131.0107  151.3202 LP  0  0  0  0  0  0  0  0  0  0  0  0  # atno 17370 bound_to 10713
  157.5025  130.7888  149.7619 LP  0  0  0  0  0  0  0  0  0  0  0  0  # atno 17371 bound_to 10713
  140.7436  133.8956  155.8296 LP  0  0  0  0  0  0  0  0  0  0  0  0  # atno 17394 bound_to 11000
  141.0057  134.1089  157.4272 LP  0  0  0  0  0  0  0  0  0  0  0  0  # atno 17395 bound_to 11000

$$$$
