AV-unprocessed.smi:1208|AV-procd|sdf|5061|dock8
  -GOLD-   22720 4103D 1   1.00000     0.00000
 Structure written by MMmdl.
 35 36  0  0  0  0  0  0  0  0  2 V2000
  151.4241  145.1869  159.1055 C   0  0  0  0  0  0  0  0  0  0  0  0
  152.1685  143.8429  159.0757 C   0  0  2  0  0  0  0  0  0  0  0  0
  151.6156  143.0289  157.9953 N   0  0  0  0  0  0  0  0  0  0  0  0
  150.3506  142.5893  157.9029 C   0  0  0  0  0  0  0  0  0  0  0  0
  149.4876  142.8297  158.7492 O   0  0  0  0  0  0  0  0  0  0  0  0
  150.0353  141.7506  156.6536 C   0  0  0  0  0  0  0  0  0  0  0  0
  150.8154  140.5090  156.5425 N   0  0  0  0  0  0  0  0  0  0  0  0
  151.3666  140.0436  157.8126 N   0  5  0  0  0  0  0  0  0  0  0  0
  152.0976  138.8977  157.8371 C   0  0  0  0  0  0  0  0  0  0  0  0
  152.5823  138.4380  158.8686 O   0  0  0  0  0  0  0  0  0  0  0  0
  152.3125  138.1960  156.5823 C   0  0  0  0  0  0  0  0  0  0  0  0
  151.8097  138.6602  155.4214 C   0  0  0  0  0  0  0  0  0  0  0  0
  151.0198  139.8835  155.3481 C   0  0  0  0  0  0  0  0  0  0  0  0
  150.5676  140.3198  154.2892 O   0  0  0  0  0  0  0  0  0  0  0  0
  152.0555  143.0781  160.4102 C   0  0  2  0  0  0  0  0  0  0  0  0
  152.5143  143.8686  161.6381 C   0  0  0  0  0  0  0  0  0  0  0  0
  152.8931  142.7624  162.5947 C   0  0  0  0  0  0  0  0  0  0  0  0
  153.5422  141.7552  161.6523 C   0  0  0  0  0  0  0  0  0  0  0  0
  152.8869  141.9178  160.3977 O   0  0  0  0  0  0  0  0  0  0  0  0
  151.8311  145.8515  159.8676 H   0  0  0  0  0  0  0  0  0  0  0  0
  150.3631  145.0490  159.3160 H   0  0  0  0  0  0  0  0  0  0  0  0
  151.5095  145.7023  158.1482 H   0  0  0  0  0  0  0  0  0  0  0  0
  153.2228  144.0523  158.8872 H   0  0  0  0  0  0  0  0  0  0  0  0
  152.2482  142.7811  157.2487 H   0  0  0  0  0  0  0  0  0  0  0  0
  148.9695  141.5163  156.6491 H   0  0  0  0  0  0  0  0  0  0  0  0
  150.1991  142.3758  155.7737 H   0  0  0  0  0  0  0  0  0  0  0  0
  152.8899  137.2832  156.5810 H   0  0  0  0  0  0  0  0  0  0  0  0
  151.9953  138.1070  154.5128 H   0  0  0  0  0  0  0  0  0  0  0  0
  151.0288  142.7431  160.5674 H   0  0  0  0  0  0  0  0  0  0  0  0
  153.3919  144.4727  161.4030 H   0  0  0  0  0  0  0  0  0  0  0  0
  151.7412  144.5274  162.0345 H   0  0  0  0  0  0  0  0  0  0  0  0
  153.5584  143.0916  163.3931 H   0  0  0  0  0  0  0  0  0  0  0  0
  151.9973  142.3343  163.0467 H   0  0  0  0  0  0  0  0  0  0  0  0
  154.6003  141.9846  161.5207 H   0  0  0  0  0  0  0  0  0  0  0  0
  153.4599  140.7309  162.0161 H   0  0  0  0  0  0  0  0  0  0  0  0
  1  2  1  0  0  0  0
  1 20  1  0  0  0  0
  1 21  1  0  0  0  0
  1 22  1  0  0  0  0
  2  3  1  0  0  0  0
  2 15  1  0  0  0  0
  2 23  1  0  0  0  0
  3  4  1  0  0  0  0
  3 24  1  0  0  0  0
  4  5  2  0  0  0  0
  4  6  1  0  0  0  0
  6 25  1  0  0  0  0
  6 26  1  0  0  0  0
  6  7  1  0  0  0  0
  7  8  1  0  0  0  0
  7 13  1  0  0  0  0
  8  9  1  0  0  0  0
  9 10  2  0  0  0  0
  9 11  1  0  0  0  0
 11 27  1  0  0  0  0
 11 12  2  0  0  0  0
 12 28  1  0  0  0  0
 12 13  1  0  0  0  0
 13 14  2  0  0  0  0
 15 19  1  0  0  0  0
 15 16  1  0  0  0  0
 15 29  1  0  0  0  0
 16 17  1  0  0  0  0
 16 30  1  0  0  0  0
 16 31  1  0  0  0  0
 17 18  1  0  0  0  0
 17 32  1  0  0  0  0
 17 33  1  0  0  0  0
 18 19  1  0  0  0  0
 18 34  1  0  0  0  0
 18 35  1  0  0  0  0
M  CHG  1   8  -1
M  END
> <s_m_source_file>
AV-unprocessed.smi

> <i_m_source_file_index>
1208

> <i_lp_mmshare_version>
43012

> <i_f3d_flags>
0

> <s_epik_input>
TzFbQ0gyXVtDSDJdW0NIMl1bQ0BIXTFbQ0BIXShbQ0gzXSlbTkhdQyg9TylbQ0gyXW4yW25IXWMoPU8pW2NIXVtjSF1jMj1P

> <s_epik_cmdline>
J2VwaWtfcHl0aG9uJywgJy1waCcsICc3LjAnLCAnLXRuJywgJzgnLCAnLW1hJywgJzIwMCcsICctbWV0YWxfYmluZGluZycsICctaW1hZScsICc8aW5maWxlLm1hZT4nLCAnLW9tYWUnLCAnPG91dGZpbGUubWFlPic=

> <r_lp_tautomer_probability>
1

> <r_epik_Ionization_Penalty>
0.0975494

> <r_epik_Ionization_Penalty_Charging>
0.0975494

> <r_epik_Ionization_Penalty_Neutral>
2.30132e-08

> <r_epik_State_Penalty>
0.034345

> <r_epik_Charging_Adjusted_Penalty>
0.131894

> <i_epik_Tot_Q>
-1

> <i_epik_Tot_abs_Q>
1

> <r_epik_Metal_State_Penalty>
0.034345

> <b_epik_Metal_Only>
0

> <s_lp_Force_Field>
OPLS_2005

> <r_lp_Energy>
34.668

> <b_lp_Chiralities_Consistent>
1

> <s_lp_Variant>
AV-unprocessed.smi:1208-1

> <Gold.Version>
5.8.1

> <Gold.Id.Protein>
6NUR|6NUR_protein|mol2

> <Gold.PLP.Fitness>
42.9070

> <Gold.PLP.PLP>
-40.8620

> <Gold.PLP.part.hbond>
-1.7833

> <Gold.PLP.part.metal>
0.0000

> <Gold.PLP.part.buried>
-6.1818

> <Gold.PLP.part.nonpolar>
-33.4681

> <Gold.PLP.part.repulsive>
0.2538

> <Gold.PLP.ligand.clash>
0.2718

> <Gold.PLP.ligand.torsion>
0.3472

> <Gold.PLP.Chemscore.Hbond>
1.0000

> <Gold.PLP.Chemscore.CHOScore>
0.0000

> <Gold.PLP.Chemscore.Metal>
0.0000

> <Gold.Chemscore.Hbonds>
donor molecule, donor type, donor heavy atom, donor atom, acceptor molecule, acceptor atom, score
      P1  H  7989  7998       L1    14  0.75

> <Gold.PLP.Chemscore.Internal.Correction>
0.0112

> <Gold.Rescore>
     Score         DG    S(hbond)    S(metal)    S(lipo)     H(rot)  DE(clash)    DE(int)     intcor
     12.91     -14.27       1.00        0.00      90.35       1.99       0.03       1.33       ----

> <Gold.Chemscore.Fitness>
12.9073

> <Gold.Chemscore.DG>
-14.2733

> <Gold.Chemscore.ZeroCoef>
-5.4800

> <Gold.Chemscore.Hbond>
0.9961

> <Gold.Chemscore.Metal>
0.0000

> <Gold.Chemscore.Lipo>
90.3520

> <Gold.Chemscore.Internal_Hbond>
0.0000

> <Gold.Chemscore.DEClash>
0.0321

> <Gold.Chemscore.DEInternal>
1.3339

> <Gold.Chemscore.Rot>
1.9940

> <Gold.Chemscore.Internal.Correction>
   9.000000E+99

> <Gold.Chemscore.Hbonds>
donor molecule, donor type, donor heavy atom, donor atom, acceptor molecule, acceptor atom, score
      P1  H  7989  7998       L1    14  0.58

> <Gold.Chemscore.Hbond.Weighted>
-3.3268

> <Gold.Chemscore.Metal.Weighted>
-0.0000

> <Gold.Chemscore.Lipo.Weighted>
-10.5712

> <Gold.Chemscore.Internal_Hbond.Weighted>
0.0000

> <Gold.Chemscore.DEClash.Weighted>
0.0321

> <Gold.Chemscore.DEInternal.Weighted>
1.3339

> <Gold.Chemscore.Rot.Weighted>
5.1047

> <Gold.Chemscore.Internal.Correction.Weighted>
   9.000000E+99

> <Gold.Protein.RotatedTorsions>
[ 6907 6896 6895 6894 ] final  -32.60 input  -60.11 | X-H torsion
[ 7974 7965 7964 7962 ] final   56.01 input  175.53 | X-H torsion
[ 8008 7997 7996 7995 ] final  101.07 input   59.86 | X-H torsion
[ 10167 10162 10161 10158 ] final  127.23 input  -65.29 | X-H torsion
[ 10718 10713 10712 10709 ] final  -60.28 input   66.30 | X-H torsion
[ 10763 10752 10751 10750 ] final   31.90 input  -60.55 | X-H torsion
[ 11005 11000 10999 10996 ] final  -50.80 input  -57.11 | X-H torsion

> <Gold.Protein.ActiveResidues>
 VAL166  LYS551  ARG553  GLY616  TRP617  ASP618  TYR619  PRO620  LYS621  CYS622 
 ASP623  PHE694  ASN695  SER759  ASP760  ASP761  ALA762  ILE779  LEU786  VAL792 
 PHE793  MET794  SER795  GLU796  ALA797  LYS798  CYS799  TRP800  GLU811  SER814 

> <Gold.Protein.RotatedAtoms>
  151.0766  134.9832  159.8334 H   0  0  0  0  0  0  0  0  0  0  0  0  # atno 6907 bound_to 6896
  152.5415  134.2233  159.8806 H   0  0  0  0  0  0  0  0  0  0  0  0  # atno 6908 bound_to 6896
  151.2261  133.4432  159.2636 H   0  0  0  0  0  0  0  0  0  0  0  0  # atno 6909 bound_to 6896
  145.9444  139.3916  143.0344 H   0  0  0  0  0  0  0  0  0  0  0  0  # atno 7974 bound_to 7965
  156.1264  140.3203  155.8283 H   0  0  0  0  0  0  0  0  0  0  0  0  # atno 8008 bound_to 7997
  155.4412  140.0525  157.3027 H   0  0  0  0  0  0  0  0  0  0  0  0  # atno 8009 bound_to 7997
  154.4865  140.2075  155.9656 H   0  0  0  0  0  0  0  0  0  0  0  0  # atno 8010 bound_to 7997
  139.5589  144.6868  151.4100 H   0  0  0  0  0  0  0  0  0  0  0  0  # atno 10167 bound_to 10162
  156.1002  130.4187  150.0832 H   0  0  0  0  0  0  0  0  0  0  0  0  # atno 10718 bound_to 10713
  153.0291  135.6427  154.1272 H   0  0  0  0  0  0  0  0  0  0  0  0  # atno 10763 bound_to 10752
  154.0996  135.2860  155.3256 H   0  0  0  0  0  0  0  0  0  0  0  0  # atno 10764 bound_to 10752
  154.6408  135.5460  153.7850 H   0  0  0  0  0  0  0  0  0  0  0  0  # atno 10765 bound_to 10752
  141.0836  133.6647  156.3784 H   0  0  0  0  0  0  0  0  0  0  0  0  # atno 11005 bound_to 11000
  145.8256  140.9657  143.0876 LP  0  0  0  0  0  0  0  0  0  0  0  0  # atno 17320 bound_to 7965
  144.6784  140.0097  143.7484 LP  0  0  0  0  0  0  0  0  0  0  0  0  # atno 17321 bound_to 7965
  140.6866  143.7959  150.7195 LP  0  0  0  0  0  0  0  0  0  0  0  0  # atno 17342 bound_to 10162
  140.1428  143.4426  152.2182 LP  0  0  0  0  0  0  0  0  0  0  0  0  # atno 17343 bound_to 10162
  156.8821  130.9560  151.3598 LP  0  0  0  0  0  0  0  0  0  0  0  0  # atno 17370 bound_to 10713
  157.6170  130.8626  149.9045 LP  0  0  0  0  0  0  0  0  0  0  0  0  # atno 17371 bound_to 10713
  140.5413  134.6117  157.5380 LP  0  0  0  0  0  0  0  0  0  0  0  0  # atno 17394 bound_to 11000
  139.9652  134.7385  156.0153 LP  0  0  0  0  0  0  0  0  0  0  0  0  # atno 17395 bound_to 11000

$$$$
