#       Name:                AV-unprocessed.smi:176
#       Creating user name   scv26
#       Creation time:       Thu Mar 26 19:21:40 2020


#       File generated by GOLD software.
#

@<TRIPOS>MOLECULE
AV-unprocessed.smi:176
    67    71     1
SMALL
NO_CHARGES


@<TRIPOS>ATOM
      1 ****        -7.0089  -2.3259  -2.1844 O.3            1 S1                 0.0000
      2 ****        -6.3959  -2.2274  -0.9150 C.3            1 S1                 0.0000
      3 ****        -5.7820  -0.8343  -0.7010 C.3            1 S1                 0.0000
      4 ****        -6.9124   0.2108  -0.6132 C.3            1 S1                 0.0000
      5 ****        -7.7051   0.0194   0.5414 O.3            1 S1                 0.0000
      6 ****        -4.7113  -0.7422   0.4096 C.3            1 S1                 0.0000
      7 ****        -3.8600   0.1528  -0.4933 C.3            1 S1                 0.0000
      8 ****        -2.4286   0.1074  -0.4373 N.pl3          1 S1                 0.0000
      9 ****        -1.5605   0.1077  -1.5061 C.2            1 S1                 0.0000
     10 ****        -0.2935   0.1029  -1.1942 N.2            1 S1                 0.0000
     11 ****        -0.2869   0.1342   0.1952 C.ar           1 S1                 0.0000
     12 ****         0.7406   0.1611   1.1791 C.ar           1 S1                 0.0000
     13 ****         2.0575   0.1227   0.8574 N.3            1 S1                 0.0000
     14 ****         2.4871  -1.1130   0.2067 C.3            1 S1                 0.0000
     15 ****         3.8362  -0.9183  -0.5063 C.3            1 S1                 0.0000
     16 ****         4.9150  -0.3282   0.4336 C.3            1 S1                 0.0000
     17 ****         5.2122  -1.3130   1.4079 O.3            1 S1                 0.0000
     18 ****         6.2470  -0.0401  -0.2986 C.3            1 S1                 0.0000
     19 ****         6.1703   1.1841  -1.2258 C.3            1 S1                 0.0000
     20 ****         5.6868   2.4237  -0.4616 C.3            1 S1                 0.0000
     21 ****         4.3315   2.1632   0.2113 C.3            1 S1                 0.0000
     22 ****         4.3847   0.9420   1.1566 C.3            1 S1                 0.0000
     23 ****         3.0112   0.6857   1.8140 C.3            1 S1                 0.0000
     24 ****         0.3584   0.2273   2.4826 N.ar           1 S1                 0.0000
     25 ****        -0.9385   0.2537   2.8041 C.ar           1 S1                 0.0000
     26 ****        -1.9996   0.2230   1.9955 N.ar           1 S1                 0.0000
     27 ****        -1.6224   0.1613   0.6863 C.ar           1 S1                 0.0000
     28 ****        -4.6274  -0.4725  -1.6606 C.3            1 S1                 0.0000
     29 ****        -7.3710  -3.1940  -2.2760 H              1 S1                 0.0000
     30 ****        -7.1304  -2.4671  -0.1459 H              1 S1                 0.0000
     31 ****        -5.6293  -3.0005  -0.8560 H              1 S1                 0.0000
     32 ****        -6.5104   1.2233  -0.5751 H              1 S1                 0.0000
     33 ****        -7.5573   0.1755  -1.4915 H              1 S1                 0.0000
     34 ****        -8.3758   0.6849   0.5583 H              1 S1                 0.0000
     35 ****        -5.0398  -0.2645   1.3331 H              1 S1                 0.0000
     36 ****        -4.2280  -1.6985   0.6187 H              1 S1                 0.0000
     37 ****        -4.1348   1.2013  -0.3662 H              1 S1                 0.0000
     38 ****        -1.8964   0.1039  -2.5329 H              1 S1                 0.0000
     39 ****         2.5726  -1.8939   0.9634 H              1 S1                 0.0000
     40 ****         1.7482  -1.4619  -0.5141 H              1 S1                 0.0000
     41 ****         4.1726  -1.8684  -0.9234 H              1 S1                 0.0000
     42 ****         3.6784  -0.2573  -1.3582 H              1 S1                 0.0000
     43 ****         5.8567  -0.9613   2.0026 H              1 S1                 0.0000
     44 ****         7.0329   0.1418   0.4365 H              1 S1                 0.0000
     45 ****         6.5639  -0.9155  -0.8671 H              1 S1                 0.0000
     46 ****         7.1512   1.3783  -1.6602 H              1 S1                 0.0000
     47 ****         5.5019   0.9817  -2.0629 H              1 S1                 0.0000
     48 ****         6.4239   2.7003   0.2934 H              1 S1                 0.0000
     49 ****         5.6072   3.2721  -1.1418 H              1 S1                 0.0000
     50 ****         4.0280   3.0497   0.7690 H              1 S1                 0.0000
     51 ****         3.5714   2.0152  -0.5566 H              1 S1                 0.0000
     52 ****         5.0855   1.1976   1.9532 H              1 S1                 0.0000
     53 ****         2.6245   1.6175   2.2296 H              1 S1                 0.0000
     54 ****         3.1237  -0.0089   2.6478 H              1 S1                 0.0000
     55 ****        -1.1570   0.3041   3.8604 H              1 S1                 0.0000
     56 ****        -4.1253  -1.3519  -2.0689 H              1 S1                 0.0000
     57 ****        -4.8926   0.2277  -2.4533 H              1 S1                 0.0000
     58 ****        -6.3293  -2.1666  -2.9005 LP             1 S1                 0.0000
     59 ****        -7.7386  -1.6463  -2.2603 LP             1 S1                 0.0000
     60 ****        -7.1342   0.0950   1.3589 LP             1 S1                 0.0000
     61 ****        -8.1288  -0.8859   0.5134 LP             1 S1                 0.0000
     62 ****         0.4920   0.0816  -1.8126 LP             1 S1                 0.0000
     63 ****         2.0983   0.8188   0.1406 LP             1 S1                 0.0000
     64 ****         5.5759  -2.1305   0.9613 LP             1 S1                 0.0000
     65 ****         4.3818  -1.5501   1.9121 LP             1 S1                 0.0000
     66 ****         1.0508   0.2564   3.2036 LP             1 S1                 0.0000
     67 ****        -2.9490   0.2427   2.3091 LP             1 S1                 0.0000
@<TRIPOS>BOND
    1    1    2 1     
    2    1   29 1     
    3    2    3 1     
    4    2   30 1     
    5    2   31 1     
    6    3   28 1     
    7    3    4 1     
    8    3    6 1     
    9    4    5 1     
   10    4   32 1     
   11    4   33 1     
   12    5   34 1     
   13    6    7 1     
   14    6   35 1     
   15    6   36 1     
   16    7    8 1     
   17    7   28 1     
   18    7   37 1     
   19    8   27 1     
   20    8    9 1     
   21    9   10 2     
   22    9   38 1     
   23   10   11 1     
   24   11   27 ar    
   25   11   12 ar    
   26   12   13 1     
   27   12   24 ar    
   28   13   23 1     
   29   13   14 1     
   30   14   15 1     
   31   14   39 1     
   32   14   40 1     
   33   15   16 1     
   34   15   41 1     
   35   15   42 1     
   36   16   22 1     
   37   16   17 1     
   38   16   18 1     
   39   17   43 1     
   40   18   19 1     
   41   18   44 1     
   42   18   45 1     
   43   19   20 1     
   44   19   46 1     
   45   19   47 1     
   46   20   21 1     
   47   20   48 1     
   48   20   49 1     
   49   21   22 1     
   50   21   50 1     
   51   21   51 1     
   52   22   23 1     
   53   22   52 1     
   54   23   53 1     
   55   23   54 1     
   56   24   25 ar    
   57   25   26 ar    
   58   25   55 1     
   59   26   27 ar    
   60   28   56 1     
   61   28   57 1     
   62    1   58 1     
   63    1   59 1     
   64    5   60 1     
   65    5   61 1     
   66   10   62 1     
   67   13   63 1     
   68   17   64 1     
   69   17   65 1     
   70   24   66 1     
   71   26   67 1     
@<TRIPOS>SUBSTRUCTURE
      1 S1             1
@<TRIPOS>SET
LONE_PAIRS      STATIC     ATOMS    <user>   **** ""
10 58 59 60 61 62 63 64 65 66 67
DONOR_HYDROGENS      STATIC     ATOMS    <user>   **** ""
3 29 34 43
ATOM$BLUE        STATIC     ATOMS    COLORGROUP SYSTEM
10 58 59 60 61 62 63 64 65 66 67
ATOM$RED        STATIC     ATOMS    COLORGROUP SYSTEM
3 29 34 43
