AV-unprocessed.smi:35|AV-procd|sdf|270|dock6
  -GOLD-   2262016 33D 1   1.00000     0.00000
 Structure written by MMmdl.
 28 29  0  0  0  0  0  0  0  0  2 V2000
  152.3654  136.7942  159.5565 O   0  0  0  0  0  0  0  0  0  0  0  0
  152.0309  137.3982  158.5389 C   0  0  0  0  0  0  0  0  0  0  0  0
  152.9319  137.9072  157.6497 N   0  5  0  0  0  0  0  0  0  0  0  0
  152.5552  138.5773  156.5213 C   0  0  0  0  0  0  0  0  0  0  0  0
  153.3599  139.0534  155.7204 O   0  0  0  0  0  0  0  0  0  0  0  0
  151.1695  138.7511  156.2524 N   0  0  0  0  0  0  0  0  0  0  0  0
  150.7576  139.4878  154.9905 C   0  0  1  0  0  0  0  0  0  0  0  0
  149.7349  138.7837  154.3445 O   0  0  0  0  0  0  0  0  0  0  0  0
  148.5022  139.4807  154.4862 C   0  0  2  0  0  0  0  0  0  0  0  0
  147.4855  139.0401  153.4181 C   0  0  0  0  0  0  0  0  0  0  0  0
  147.2952  137.6419  153.4669 O   0  0  0  0  0  0  0  0  0  0  0  0
  148.9276  140.9539  154.4806 C   0  0  2  0  0  0  0  0  0  0  0  0
  149.1532  141.4180  153.1619 O   0  0  0  0  0  0  0  0  0  0  0  0
  150.2354  140.9225  155.2610 C   0  0  1  0  0  0  0  0  0  0  0  0
  149.9785  141.1922  156.6284 O   0  0  0  0  0  0  0  0  0  0  0  0
  150.2316  138.2467  157.1388 C   0  0  0  0  0  0  0  0  0  0  0  0
  150.6116  137.5893  158.2530 C   0  0  0  0  0  0  0  0  0  0  0  0
  149.1636  136.9238  159.4310 Br  0  0  0  0  0  0  0  0  0  0  0  0
  151.6332  139.4626  154.3394 H   0  0  0  0  0  0  0  0  0  0  0  0
  148.1023  139.2399  155.4727 H   0  0  0  0  0  0  0  0  0  0  0  0
  146.5279  139.5474  153.5365 H   0  0  0  0  0  0  0  0  0  0  0  0
  147.8582  139.2973  152.4264 H   0  0  0  0  0  0  0  0  0  0  0  0
  147.9346  137.2319  152.9046 H   0  0  0  0  0  0  0  0  0  0  0  0
  148.1764  141.5975  154.9406 H   0  0  0  0  0  0  0  0  0  0  0  0
  149.3351  140.6717  152.6115 H   0  0  0  0  0  0  0  0  0  0  0  0
  150.9589  141.6536  154.8975 H   0  0  0  0  0  0  0  0  0  0  0  0
  149.8222  142.1201  156.7224 H   0  0  0  0  0  0  0  0  0  0  0  0
  149.1771  138.3730  156.9504 H   0  0  0  0  0  0  0  0  0  0  0  0
  1  2  2  0  0  0  0
  2 17  1  0  0  0  0
  2  3  1  0  0  0  0
  3  4  1  0  0  0  0
  4  5  2  0  0  0  0
  4  6  1  0  0  0  0
  6  7  1  0  0  0  0
  6 16  1  0  0  0  0
  7 14  1  0  0  0  0
  7  8  1  0  0  0  0
  7 19  1  0  0  0  0
  8  9  1  0  0  0  0
  9 10  1  0  0  0  0
  9 12  1  0  0  0  0
  9 20  1  0  0  0  0
 10 11  1  0  0  0  0
 10 21  1  0  0  0  0
 10 22  1  0  0  0  0
 11 23  1  0  0  0  0
 12 13  1  0  0  0  0
 12 14  1  0  0  0  0
 12 24  1  0  0  0  0
 13 25  1  0  0  0  0
 14 15  1  0  0  0  0
 14 26  1  0  0  0  0
 15 27  1  0  0  0  0
 16 17  2  0  0  0  0
 16 28  1  0  0  0  0
 17 18  1  0  0  0  0
M  CHG  1   3  -1
M  END
> <s_m_source_file>
AV-unprocessed.smi

> <i_m_source_file_index>
35

> <i_lp_mmshare_version>
43012

> <i_f3d_flags>
0

> <s_epik_input>
Tz1jMVtuSF1jKD1PKW4oW2NIXWMxQnIpW0NAQEhdMk9bQ0BASF0oW0NIMl1bT0hdKVtDQEBIXShbT0hdKVtDQEhdMltPSF0=

> <s_epik_cmdline>
J2VwaWtfcHl0aG9uJywgJy1waCcsICc3LjAnLCAnLXRuJywgJzgnLCAnLW1hJywgJzIwMCcsICctbWV0YWxfYmluZGluZycsICctaW1hZScsICc8aW5maWxlLm1hZT4nLCAnLW9tYWUnLCAnPG91dGZpbGUubWFlPic=

> <r_epik_Ionization_Penalty>
1.06112

> <r_epik_Ionization_Penalty_Charging>
2.1796e-09

> <r_epik_Ionization_Penalty_Neutral>
1.06112

> <r_epik_State_Penalty>
1.11484

> <r_epik_Charging_Adjusted_Penalty>
1.11484

> <i_epik_Tot_Q>
-1

> <i_epik_Tot_abs_Q>
1

> <r_epik_Metal_State_Penalty>
0.0032876

> <b_epik_Metal_Only>
0

> <s_epik_Chemistry_Notes>
This compound contains an acetal/aminal-like group ( X-CH(R)-Y where X, Y are N, S, or O) that may be acid/base labile, releasing an aldehyde.

> <s_lp_Force_Field>
OPLS_2005

> <r_lp_Energy>
42.6041

> <b_lp_Chiralities_Consistent>
1

> <s_lp_Variant>
AV-unprocessed.smi:35-24

> <Gold.Version>
5.8.1

> <Gold.Id.Protein>
6NUR|6NUR_protein|mol2

> <Gold.PLP.Fitness>
38.5151

> <Gold.PLP.PLP>
-24.5614

> <Gold.PLP.part.hbond>
-5.4892

> <Gold.PLP.part.metal>
0.0000

> <Gold.PLP.part.buried>
-2.0793

> <Gold.PLP.part.nonpolar>
-16.5246

> <Gold.PLP.part.repulsive>
0.1974

> <Gold.PLP.ligand.clash>
0.0000

> <Gold.PLP.ligand.torsion>
0.3626

> <Gold.PLP.Chemscore.Hbond>
4.8793

> <Gold.PLP.Chemscore.CHOScore>
0.0000

> <Gold.PLP.Chemscore.Metal>
0.0000

> <Gold.Chemscore.Hbonds>
donor molecule, donor type, donor heavy atom, donor atom, acceptor molecule, acceptor atom, score
      L1  H    11    23       P1  7948  1.00
      L1  H    13    25       P1  7957  0.99
      P1  H  6896  6909       L1     1  1.00
      P1  H  7997  8009       L1     5  1.00
      P1  H  8011  8017       L1    13  0.66

> <Gold.PLP.Chemscore.Internal.Correction>
0.0411

> <Gold.Rescore>
     Score         DG    S(hbond)    S(metal)    S(lipo)     H(rot)  DE(clash)    DE(int)     intcor
     11.90     -13.32       3.90        0.00      35.07       3.63       0.01       1.41       ----

> <Gold.Chemscore.Fitness>
11.9022

> <Gold.Chemscore.DG>
-13.3215

> <Gold.Chemscore.ZeroCoef>
-5.4800

> <Gold.Chemscore.Hbond>
3.8984

> <Gold.Chemscore.Metal>
0.0000

> <Gold.Chemscore.Lipo>
35.0738

> <Gold.Chemscore.Internal_Hbond>
0.0000

> <Gold.Chemscore.DEClash>
0.0135

> <Gold.Chemscore.DEInternal>
1.4058

> <Gold.Chemscore.Rot>
3.6261

> <Gold.Chemscore.Internal.Correction>
   9.000000E+99

> <Gold.Chemscore.Hbonds>
donor molecule, donor type, donor heavy atom, donor atom, acceptor molecule, acceptor atom, score
      L1  H    11    23       P1  7948  1.00
      L1  H    13    25       P1  7957  0.92
      P1  H  6896  6909       L1     1  0.98
      P1  H  7997  8009       L1     5  0.92
      P1  H  8011  8017       L1    13  0.11

> <Gold.Chemscore.Hbond.Weighted>
-13.0206

> <Gold.Chemscore.Metal.Weighted>
-0.0000

> <Gold.Chemscore.Lipo.Weighted>
-4.1036

> <Gold.Chemscore.Internal_Hbond.Weighted>
0.0000

> <Gold.Chemscore.DEClash.Weighted>
0.0135

> <Gold.Chemscore.DEInternal.Weighted>
1.4058

> <Gold.Chemscore.Rot.Weighted>
9.2828

> <Gold.Chemscore.Internal.Correction.Weighted>
   9.000000E+99

> <Gold.Protein.RotatedTorsions>
[ 6907 6896 6895 6894 ] final  147.05 input  -60.11 | X-H torsion
[ 7974 7965 7964 7962 ] final  -32.85 input  175.53 | X-H torsion
[ 8008 7997 7996 7995 ] final -145.63 input   59.86 | X-H torsion
[ 10167 10162 10161 10158 ] final  -55.31 input  -65.29 | X-H torsion
[ 10718 10713 10712 10709 ] final -110.68 input   66.30 | X-H torsion
[ 10763 10752 10751 10750 ] final  -10.58 input  -60.55 | X-H torsion
[ 11005 11000 10999 10996 ] final   43.26 input  -57.11 | X-H torsion

> <Gold.Protein.ActiveResidues>
 VAL166  LYS551  ARG553  GLY616  TRP617  ASP618  TYR619  PRO620  LYS621  CYS622 
 ASP623  PHE694  ASN695  SER759  ASP760  ASP761  ALA762  ILE779  LEU786  VAL792 
 PHE793  MET794  SER795  GLU796  ALA797  LYS798  CYS799  TRP800  GLU811  SER814 

> <Gold.Protein.RotatedAtoms>
  152.1598  133.4575  159.4855 H   0  0  0  0  0  0  0  0  0  0  0  0  # atno 6907 bound_to 6896
  150.6905  134.2085  159.4359 H   0  0  0  0  0  0  0  0  0  0  0  0  # atno 6908 bound_to 6896
  151.9987  134.9940  160.0615 H   0  0  0  0  0  0  0  0  0  0  0  0  # atno 6909 bound_to 6896
  146.0957  140.5844  142.8844 H   0  0  0  0  0  0  0  0  0  0  0  0  # atno 7974 bound_to 7965
  155.5464  140.0612  157.2859 H   0  0  0  0  0  0  0  0  0  0  0  0  # atno 8008 bound_to 7997
  154.4435  140.1910  156.0686 H   0  0  0  0  0  0  0  0  0  0  0  0  # atno 8009 bound_to 7997
  156.0548  140.3280  155.7396 H   0  0  0  0  0  0  0  0  0  0  0  0  # atno 8010 bound_to 7997
  140.6382  143.2493  151.5062 H   0  0  0  0  0  0  0  0  0  0  0  0  # atno 10167 bound_to 10162
  156.0604  130.5828  150.8270 H   0  0  0  0  0  0  0  0  0  0  0  0  # atno 10718 bound_to 10713
  153.4713  135.7017  153.5992 H   0  0  0  0  0  0  0  0  0  0  0  0  # atno 10763 bound_to 10752
  153.4244  135.3817  155.2132 H   0  0  0  0  0  0  0  0  0  0  0  0  # atno 10764 bound_to 10752
  154.8725  135.3935  154.4151 H   0  0  0  0  0  0  0  0  0  0  0  0  # atno 10765 bound_to 10752
  140.1662  134.4279  155.8286 H   0  0  0  0  0  0  0  0  0  0  0  0  # atno 11005 bound_to 11000
  144.7393  140.4898  143.6880 LP  0  0  0  0  0  0  0  0  0  0  0  0  # atno 17320 bound_to 7965
  145.5953  139.1499  143.3159 LP  0  0  0  0  0  0  0  0  0  0  0  0  # atno 17321 bound_to 7965
  139.5591  144.2200  152.1662 LP  0  0  0  0  0  0  0  0  0  0  0  0  # atno 17342 bound_to 10162
  140.1463  144.5156  150.6714 LP  0  0  0  0  0  0  0  0  0  0  0  0  # atno 17343 bound_to 10162
  157.5608  131.0946  150.9562 LP  0  0  0  0  0  0  0  0  0  0  0  0  # atno 17370 bound_to 10713
  156.9800  130.5523  149.5295 LP  0  0  0  0  0  0  0  0  0  0  0  0  # atno 17371 bound_to 10713
  141.2214  133.6935  156.7682 LP  0  0  0  0  0  0  0  0  0  0  0  0  # atno 17394 bound_to 11000
  140.2431  134.8598  157.3593 LP  0  0  0  0  0  0  0  0  0  0  0  0  # atno 17395 bound_to 11000

$$$$
