AV-unprocessed.smi:2295|AV-procd|sdf|9218|dock6
  -GOLD-   2272012433D 1   1.00000     0.00000
 Structure written by MMmdl.
 37 38  0  0  0  0  0  0  0  0  1 V2000
  150.6040  140.6784  155.4450 C   0  0  0  0  0  0  0  0  0  0  0  0
  149.2707  140.5761  154.7343 C   0  0  0  0  0  0  0  0  0  0  0  0
  148.4091  141.6865  154.6498 C   0  0  0  0  0  0  0  0  0  0  0  0
  147.1831  141.5266  153.9746 C   0  0  0  0  0  0  0  0  0  0  0  0
  146.2053  142.6760  153.8501 C   0  0  0  0  0  0  0  0  0  0  0  0
  146.8010  140.3626  153.4074 N   0  0  0  0  0  0  0  0  0  0  0  0
  147.6226  139.2863  153.4822 C   0  0  0  0  0  0  0  0  0  0  0  0
  147.3118  138.0182  152.9231 N   0  0  0  0  0  0  0  0  0  0  0  0
  146.1169  137.4033  152.8730 C   0  0  0  0  0  0  0  0  0  0  0  0
  145.0580  137.8695  153.2946 O   0  0  0  0  0  0  0  0  0  0  0  0
  146.2170  136.1986  152.2919 N   0  0  0  0  0  0  0  0  0  0  0  0
  145.1130  135.2693  152.0687 C   0  0  0  0  0  0  0  0  0  0  0  0
  145.2779  134.4808  150.7560 C   0  0  2  0  0  0  0  0  0  0  0  0
  144.0400  133.6373  150.4196 C   0  0  0  0  0  0  0  0  0  0  0  0
  144.4942  132.5290  149.4691 C   0  0  0  0  0  0  0  0  0  0  0  0
  145.7824  131.9584  150.0615 C   0  0  0  0  0  0  0  0  0  0  0  0
  146.6959  133.3423  150.7875 S   0  0  0  0  0  0  0  0  0  0  0  0
  148.8691  139.3609  154.1439 C   0  0  0  0  0  0  0  0  0  0  0  0
  150.7884  141.6935  155.7981 H   0  0  0  0  0  0  0  0  0  0  0  0
  151.4143  140.4007  154.7707 H   0  0  0  0  0  0  0  0  0  0  0  0
  150.6256  140.0082  156.3044 H   0  0  0  0  0  0  0  0  0  0  0  0
  148.6796  142.6350  155.0905 H   0  0  0  0  0  0  0  0  0  0  0  0
  146.6238  143.5978  154.2547 H   0  0  0  0  0  0  0  0  0  0  0  0
  145.2873  142.4507  154.3937 H   0  0  0  0  0  0  0  0  0  0  0  0
  145.9515  142.8482  152.8038 H   0  0  0  0  0  0  0  0  0  0  0  0
  148.0899  137.5205  152.5170 H   0  0  0  0  0  0  0  0  0  0  0  0
  147.1287  135.8992  151.9787 H   0  0  0  0  0  0  0  0  0  0  0  0
  144.9880  134.5869  152.9113 H   0  0  0  0  0  0  0  0  0  0  0  0
  144.1986  135.8614  152.0226 H   0  0  0  0  0  0  0  0  0  0  0  0
  145.4490  135.1753  149.9323 H   0  0  0  0  0  0  0  0  0  0  0  0
  143.6382  133.1850  151.3277 H   0  0  0  0  0  0  0  0  0  0  0  0
  143.2460  134.2440  149.9833 H   0  0  0  0  0  0  0  0  0  0  0  0
  143.7308  131.7607  149.3434 H   0  0  0  0  0  0  0  0  0  0  0  0
  144.6976  132.9515  148.4843 H   0  0  0  0  0  0  0  0  0  0  0  0
  145.5470  131.2518  150.8579 H   0  0  0  0  0  0  0  0  0  0  0  0
  146.3843  131.4358  149.3179 H   0  0  0  0  0  0  0  0  0  0  0  0
  149.5142  138.4957  154.1981 H   0  0  0  0  0  0  0  0  0  0  0  0
  1  2  1  0  0  0  0
  1 19  1  0  0  0  0
  1 20  1  0  0  0  0
  1 21  1  0  0  0  0
  2 18  1  0  0  0  0
  2  3  2  0  0  0  0
  3  4  1  0  0  0  0
  3 22  1  0  0  0  0
  4  5  1  0  0  0  0
  4  6  2  0  0  0  0
  5 23  1  0  0  0  0
  5 24  1  0  0  0  0
  5 25  1  0  0  0  0
  6  7  1  0  0  0  0
  7  8  1  0  0  0  0
  7 18  2  0  0  0  0
  8  9  1  0  0  0  0
  8 26  1  0  0  0  0
  9 10  2  0  0  0  0
  9 11  1  0  0  0  0
 11 12  1  0  0  0  0
 11 27  1  0  0  0  0
 12 13  1  0  0  0  0
 12 28  1  0  0  0  0
 12 29  1  0  0  0  0
 13 17  1  0  0  0  0
 13 14  1  0  0  0  0
 13 30  1  0  0  0  0
 14 15  1  0  0  0  0
 14 31  1  0  0  0  0
 14 32  1  0  0  0  0
 15 16  1  0  0  0  0
 15 33  1  0  0  0  0
 15 34  1  0  0  0  0
 16 17  1  0  0  0  0
 16 35  1  0  0  0  0
 16 36  1  0  0  0  0
 18 37  1  0  0  0  0
M  END
> <s_m_source_file>
AV-unprocessed.smi

> <i_m_source_file_index>
2295

> <i_lp_mmshare_version>
43012

> <i_f3d_flags>
0

> <s_epik_input>
W0NIM11jMVtjSF1jKFtDSDNdKW5jKFtjSF0xKVtOSF1DKD1PKVtOSF1bQ0gyXVtDQEBIXTJbQ0gyXVtDSDJdW0NIMl1TMg==

> <s_epik_cmdline>
J2VwaWtfcHl0aG9uJywgJy1waCcsICc3LjAnLCAnLXRuJywgJzgnLCAnLW1hJywgJzIwMCcsICctbWV0YWxfYmluZGluZycsICctaW1hZScsICc8aW5maWxlLm1hZT4nLCAnLW9tYWUnLCAnPG91dGZpbGUubWFlPic=

> <r_lp_tautomer_probability>
1

> <r_epik_Ionization_Penalty>
0.000247769

> <r_epik_Ionization_Penalty_Charging>
0

> <r_epik_Ionization_Penalty_Neutral>
0.000247769

> <r_epik_State_Penalty>
-0

> <r_epik_Charging_Adjusted_Penalty>
0

> <i_epik_Tot_Q>
0

> <i_epik_Tot_abs_Q>
0

> <r_epik_Metal_State_Penalty>
-0

> <b_epik_Metal_Only>
0

> <s_lp_Force_Field>
OPLS_2005

> <r_lp_Energy>
13.4664

> <b_lp_Chiralities_Consistent>
1

> <s_lp_Variant>
AV-unprocessed.smi:2295-1

> <Gold.Version>
5.8.1

> <Gold.Id.Protein>
6NUR|6NUR_protein|mol2

> <Gold.PLP.Fitness>
42.3714

> <Gold.PLP.PLP>
-37.3291

> <Gold.PLP.part.hbond>
-2.0000

> <Gold.PLP.part.metal>
0.0000

> <Gold.PLP.part.buried>
-2.6764

> <Gold.PLP.part.nonpolar>
-32.4087

> <Gold.PLP.part.repulsive>
0.8396

> <Gold.PLP.ligand.clash>
0.0000

> <Gold.PLP.ligand.torsion>
0.4792

> <Gold.PLP.Chemscore.Hbond>
2.0000

> <Gold.PLP.Chemscore.CHOScore>
0.0000

> <Gold.PLP.Chemscore.Metal>
0.0000

> <Gold.Chemscore.Hbonds>
donor molecule, donor type, donor heavy atom, donor atom, acceptor molecule, acceptor atom, score
      L1  H     8    26       P1  7948  1.00
      L1  H    11    27       P1  7948  0.99

> <Gold.PLP.Chemscore.Internal.Correction>
0.0006

> <Gold.Rescore>
     Score         DG    S(hbond)    S(metal)    S(lipo)     H(rot)  DE(clash)    DE(int)     intcor
     17.83     -19.27       1.95        0.00      87.83       1.17       0.13       1.31       ----

> <Gold.Chemscore.Fitness>
17.8268

> <Gold.Chemscore.DG>
-19.2679

> <Gold.Chemscore.ZeroCoef>
-5.4800

> <Gold.Chemscore.Hbond>
1.9489

> <Gold.Chemscore.Metal>
0.0000

> <Gold.Chemscore.Lipo>
87.8293

> <Gold.Chemscore.Internal_Hbond>
0.0000

> <Gold.Chemscore.DEClash>
0.1265

> <Gold.Chemscore.DEInternal>
1.3146

> <Gold.Chemscore.Rot>
1.1709

> <Gold.Chemscore.Internal.Correction>
   9.000000E+99

> <Gold.Chemscore.Hbonds>
donor molecule, donor type, donor heavy atom, donor atom, acceptor molecule, acceptor atom, score
      L1  H     8    26       P1  7948  0.99
      L1  H    11    27       P1  7948  0.94

> <Gold.Chemscore.Hbond.Weighted>
-6.5094

> <Gold.Chemscore.Metal.Weighted>
-0.0000

> <Gold.Chemscore.Lipo.Weighted>
-10.2760

> <Gold.Chemscore.Internal_Hbond.Weighted>
0.0000

> <Gold.Chemscore.DEClash.Weighted>
0.1265

> <Gold.Chemscore.DEInternal.Weighted>
1.3146

> <Gold.Chemscore.Rot.Weighted>
2.9975

> <Gold.Chemscore.Internal.Correction.Weighted>
   9.000000E+99

> <Gold.Protein.RotatedTorsions>
[ 6907 6896 6895 6894 ] final  102.81 input  -60.11 | X-H torsion
[ 7974 7965 7964 7962 ] final  154.58 input  175.53 | X-H torsion
[ 8008 7997 7996 7995 ] final   56.59 input   59.86 | X-H torsion
[ 10167 10162 10161 10158 ] final  151.47 input  -65.29 | X-H torsion
[ 10718 10713 10712 10709 ] final -130.43 input   66.30 | X-H torsion
[ 10763 10752 10751 10750 ] final   55.96 input  -60.55 | X-H torsion
[ 11005 11000 10999 10996 ] final  -98.10 input  -57.11 | X-H torsion

> <Gold.Protein.ActiveResidues>
 VAL166  LYS551  ARG553  GLY616  TRP617  ASP618  TYR619  PRO620  LYS621  CYS622 
 ASP623  PHE694  ASN695  SER759  ASP760  ASP761  ALA762  ILE779  LEU786  VAL792 
 PHE793  MET794  SER795  GLU796  ALA797  LYS798  CYS799  TRP800  GLU811  SER814 

> <Gold.Protein.RotatedAtoms>
  152.5313  133.9919  159.7854 H   0  0  0  0  0  0  0  0  0  0  0  0  # atno 6907 bound_to 6896
  151.0154  133.5918  159.2684 H   0  0  0  0  0  0  0  0  0  0  0  0  # atno 6908 bound_to 6896
  151.2978  135.0767  159.9281 H   0  0  0  0  0  0  0  0  0  0  0  0  # atno 6909 bound_to 6896
  144.8079  139.6953  143.6154 H   0  0  0  0  0  0  0  0  0  0  0  0  # atno 7974 bound_to 7965
  155.5200  140.3479  155.4405 H   0  0  0  0  0  0  0  0  0  0  0  0  # atno 8008 bound_to 7997
  156.0791  140.1382  156.9762 H   0  0  0  0  0  0  0  0  0  0  0  0  # atno 8009 bound_to 7997
  154.4570  140.0950  156.6760 H   0  0  0  0  0  0  0  0  0  0  0  0  # atno 8010 bound_to 7997
  139.4840  144.5438  151.7518 H   0  0  0  0  0  0  0  0  0  0  0  0  # atno 10167 bound_to 10162
  156.2143  130.6938  151.0685 H   0  0  0  0  0  0  0  0  0  0  0  0  # atno 10718 bound_to 10713
  152.9824  135.5692  154.5152 H   0  0  0  0  0  0  0  0  0  0  0  0  # atno 10763 bound_to 10752
  154.4649  135.2783  155.1687 H   0  0  0  0  0  0  0  0  0  0  0  0  # atno 10764 bound_to 10752
  154.3260  135.6259  153.5582 H   0  0  0  0  0  0  0  0  0  0  0  0  # atno 10765 bound_to 10752
  141.1356  133.8220  157.0794 H   0  0  0  0  0  0  0  0  0  0  0  0  # atno 11005 bound_to 11000
  146.2374  139.5932  142.9514 LP  0  0  0  0  0  0  0  0  0  0  0  0  # atno 17320 bound_to 7965
  145.5393  141.0422  143.2339 LP  0  0  0  0  0  0  0  0  0  0  0  0  # atno 17321 bound_to 7965
  140.4982  144.1209  150.5965 LP  0  0  0  0  0  0  0  0  0  0  0  0  # atno 17342 bound_to 10162
  140.4093  143.2665  151.9852 LP  0  0  0  0  0  0  0  0  0  0  0  0  # atno 17343 bound_to 10162
  157.7055  131.0758  150.6681 LP  0  0  0  0  0  0  0  0  0  0  0  0  # atno 17370 bound_to 10713
  156.6741  130.4548  149.5648 LP  0  0  0  0  0  0  0  0  0  0  0  0  # atno 17371 bound_to 10713
  140.0461  134.9829  157.1051 LP  0  0  0  0  0  0  0  0  0  0  0  0  # atno 17394 bound_to 11000
  140.4061  134.2031  155.7163 LP  0  0  0  0  0  0  0  0  0  0  0  0  # atno 17395 bound_to 11000

$$$$
