AV-unprocessed.smi:3349|AV-procd|sdf|12931|dock9
  -GOLD-   2272019363D 1   1.00000     0.00000
 Structure written by MMmdl.
 40 41  0  0  0  0  0  0  0  0  1 V2000
  152.8496  139.2365  155.2192 C   0  0  0  0  0  0  0  0  0  0  0  0
  151.8964  140.3732  155.6697 C   0  0  2  0  0  0  0  0  0  0  0  0
  151.6484  140.2436  157.1979 C   0  0  0  0  0  0  0  0  0  0  0  0
  152.0143  141.4538  157.9252 N   0  0  0  0  0  0  0  0  0  0  0  0
  151.1397  142.2913  158.5018 C   0  0  0  0  0  0  0  0  0  0  0  0
  149.9203  142.1239  158.4598 O   0  0  0  0  0  0  0  0  0  0  0  0
  151.7323  143.5113  159.2269 C   0  0  2  0  0  0  0  0  0  0  0  0
  152.4876  144.4128  158.2262 C   0  0  0  0  0  0  0  0  0  0  0  0
  152.5620  143.1042  160.3650 N   0  0  0  0  0  0  0  0  0  0  0  0
  152.5746  143.5247  161.6361 C   0  0  0  0  0  0  0  0  0  0  0  0
  153.5353  142.9909  162.3769 N   0  0  0  0  0  0  0  0  0  0  0  0
  154.1434  142.2150  161.4332 C   0  0  0  0  0  0  0  0  0  0  0  0
  153.6186  142.2661  160.2094 N   0  0  0  0  0  0  0  0  0  0  0  0
  150.6473  140.4193  154.8740 N   0  0  0  0  0  0  0  0  0  0  0  0
  149.9795  139.1154  154.7851 C   0  0  0  0  0  0  0  0  0  0  0  0
  148.6663  139.1695  153.9848 C   0  0  0  0  0  0  0  0  0  0  0  0
  147.7909  140.1283  154.5621 O   0  0  0  0  0  0  0  0  0  0  0  0
  148.3693  141.4255  154.5964 C   0  0  0  0  0  0  0  0  0  0  0  0
  149.6788  141.3874  155.4027 C   0  0  0  0  0  0  0  0  0  0  0  0
  153.7435  139.1688  155.8380 H   0  0  0  0  0  0  0  0  0  0  0  0
  153.2191  139.3845  154.2057 H   0  0  0  0  0  0  0  0  0  0  0  0
  152.3518  138.2670  155.2589 H   0  0  0  0  0  0  0  0  0  0  0  0
  152.4268  141.3141  155.5140 H   0  0  0  0  0  0  0  0  0  0  0  0
  150.5960  140.0745  157.4208 H   0  0  0  0  0  0  0  0  0  0  0  0
  152.2024  139.3899  157.5926 H   0  0  0  0  0  0  0  0  0  0  0  0
  152.9994  141.6623  158.0014 H   0  0  0  0  0  0  0  0  0  0  0  0
  150.9060  144.0947  159.6369 H   0  0  0  0  0  0  0  0  0  0  0  0
  151.8786  144.6258  157.3467 H   0  0  0  0  0  0  0  0  0  0  0  0
  153.4120  143.9457  157.8836 H   0  0  0  0  0  0  0  0  0  0  0  0
  152.7453  145.3730  158.6739 H   0  0  0  0  0  0  0  0  0  0  0  0
  151.8700  144.2413  162.0327 H   0  0  0  0  0  0  0  0  0  0  0  0
  155.0087  141.6060  161.6503 H   0  0  0  0  0  0  0  0  0  0  0  0
  150.6185  138.3869  154.2903 H   0  0  0  0  0  0  0  0  0  0  0  0
  149.7779  138.7337  155.7871 H   0  0  0  0  0  0  0  0  0  0  0  0
  148.8599  139.4228  152.9410 H   0  0  0  0  0  0  0  0  0  0  0  0
  148.1791  138.1944  153.9920 H   0  0  0  0  0  0  0  0  0  0  0  0
  148.5503  141.7807  153.5806 H   0  0  0  0  0  0  0  0  0  0  0  0
  147.6626  142.1167  155.0557 H   0  0  0  0  0  0  0  0  0  0  0  0
  149.4545  141.1547  156.4449 H   0  0  0  0  0  0  0  0  0  0  0  0
  150.0918  142.3942  155.3846 H   0  0  0  0  0  0  0  0  0  0  0  0
  1  2  1  0  0  0  0
  1 20  1  0  0  0  0
  1 21  1  0  0  0  0
  1 22  1  0  0  0  0
  2  3  1  0  0  0  0
  2 14  1  0  0  0  0
  2 23  1  0  0  0  0
  3  4  1  0  0  0  0
  3 24  1  0  0  0  0
  3 25  1  0  0  0  0
  4  5  1  0  0  0  0
  4 26  1  0  0  0  0
  5  6  2  0  0  0  0
  5  7  1  0  0  0  0
  7  8  1  0  0  0  0
  7  9  1  0  0  0  0
  7 27  1  0  0  0  0
  8 28  1  0  0  0  0
  8 29  1  0  0  0  0
  8 30  1  0  0  0  0
  9 13  1  0  0  0  0
  9 10  1  0  0  0  0
 10 11  2  0  0  0  0
 10 31  1  0  0  0  0
 11 12  1  0  0  0  0
 12 13  2  0  0  0  0
 12 32  1  0  0  0  0
 14 19  1  0  0  0  0
 14 15  1  0  0  0  0
 15 16  1  0  0  0  0
 15 33  1  0  0  0  0
 15 34  1  0  0  0  0
 16 17  1  0  0  0  0
 16 35  1  0  0  0  0
 16 36  1  0  0  0  0
 17 18  1  0  0  0  0
 18 19  1  0  0  0  0
 18 37  1  0  0  0  0
 18 38  1  0  0  0  0
 19 39  1  0  0  0  0
 19 40  1  0  0  0  0
M  END
> <s_m_source_file>
AV-unprocessed.smi

> <i_m_source_file_index>
3349

> <i_lp_mmshare_version>
43012

> <i_f3d_flags>
0

> <s_epik_input>
W0NIMl0xW0NIMl1PW0NIMl1bQ0gyXU4xW0NASF0oW0NIM10pW0NIMl1bTkhdQyg9TylbQ0BIXShbQ0gzXSluMltjSF1uW2NIXW4y

> <s_epik_cmdline>
J2VwaWtfcHl0aG9uJywgJy1waCcsICc3LjAnLCAnLXRuJywgJzgnLCAnLW1hJywgJzIwMCcsICctbWV0YWxfYmluZGluZycsICctaW1hZScsICc8aW5maWxlLm1hZT4nLCAnLW9tYWUnLCAnPG91dGZpbGUubWFlPic=

> <r_lp_tautomer_probability>
1

> <r_epik_Ionization_Penalty>
0.211373

> <r_epik_Ionization_Penalty_Charging>
0

> <r_epik_Ionization_Penalty_Neutral>
0.211373

> <r_epik_State_Penalty>
0.201459

> <r_epik_Charging_Adjusted_Penalty>
0.201459

> <i_epik_Tot_Q>
0

> <i_epik_Tot_abs_Q>
0

> <r_epik_Metal_State_Penalty>
0.201458

> <b_epik_Metal_Only>
0

> <s_lp_Force_Field>
OPLS_2005

> <r_lp_Energy>
36.462

> <b_lp_Chiralities_Consistent>
1

> <s_lp_Variant>
AV-unprocessed.smi:3349-1

> <Gold.Version>
5.8.1

> <Gold.Id.Protein>
6NUR|6NUR_protein|mol2

> <Gold.PLP.Fitness>
42.6893

> <Gold.PLP.PLP>
-41.8428

> <Gold.PLP.part.hbond>
-1.0000

> <Gold.PLP.part.metal>
0.0000

> <Gold.PLP.part.buried>
-3.7774

> <Gold.PLP.part.nonpolar>
-36.7108

> <Gold.PLP.part.repulsive>
0.4579

> <Gold.PLP.ligand.clash>
0.0000

> <Gold.PLP.ligand.torsion>
1.0943

> <Gold.PLP.Chemscore.Hbond>
0.9500

> <Gold.PLP.Chemscore.CHOScore>
0.0000

> <Gold.PLP.Chemscore.Metal>
0.0000

> <Gold.Chemscore.Hbonds>
donor molecule, donor type, donor heavy atom, donor atom, acceptor molecule, acceptor atom, score
      P1  H  7989  7998       L1    14  0.40

> <Gold.PLP.Chemscore.Internal.Correction>
0.1851

> <Gold.Rescore>
     Score         DG    S(hbond)    S(metal)    S(lipo)     H(rot)  DE(clash)    DE(int)     intcor
      4.82      -8.35       0.19        0.00      75.12       2.56       1.17       2.36       ----

> <Gold.Chemscore.Fitness>
4.8187

> <Gold.Chemscore.DG>
-8.3513

> <Gold.Chemscore.ZeroCoef>
-5.4800

> <Gold.Chemscore.Hbond>
0.1881

> <Gold.Chemscore.Metal>
0.0000

> <Gold.Chemscore.Lipo>
75.1181

> <Gold.Chemscore.Internal_Hbond>
0.0000

> <Gold.Chemscore.DEClash>
1.1728

> <Gold.Chemscore.DEInternal>
2.3598

> <Gold.Chemscore.Rot>
2.5570

> <Gold.Chemscore.Internal.Correction>
   9.000000E+99

> <Gold.Chemscore.Hbonds>
donor molecule, donor type, donor heavy atom, donor atom, acceptor molecule, acceptor atom, score
      P1  H  7989  7998       L1    14  0.01

> <Gold.Chemscore.Hbond.Weighted>
-0.6283

> <Gold.Chemscore.Metal.Weighted>
-0.0000

> <Gold.Chemscore.Lipo.Weighted>
-8.7888

> <Gold.Chemscore.Internal_Hbond.Weighted>
0.0000

> <Gold.Chemscore.DEClash.Weighted>
1.1728

> <Gold.Chemscore.DEInternal.Weighted>
2.3598

> <Gold.Chemscore.Rot.Weighted>
6.5459

> <Gold.Chemscore.Internal.Correction.Weighted>
   9.000000E+99

> <Gold.Protein.RotatedTorsions>
[ 6907 6896 6895 6894 ] final -156.73 input  -60.11 | X-H torsion
[ 7974 7965 7964 7962 ] final  119.80 input  175.53 | X-H torsion
[ 8008 7997 7996 7995 ] final  -64.46 input   59.86 | X-H torsion
[ 10167 10162 10161 10158 ] final  -54.17 input  -65.29 | X-H torsion
[ 10718 10713 10712 10709 ] final  -54.65 input   66.30 | X-H torsion
[ 10763 10752 10751 10750 ] final   98.73 input  -60.55 | X-H torsion
[ 11005 11000 10999 10996 ] final -102.99 input  -57.11 | X-H torsion

> <Gold.Protein.ActiveResidues>
 VAL166  LYS551  ARG553  GLY616  TRP617  ASP618  TYR619  PRO620  LYS621  CYS622 
 ASP623  PHE694  ASN695  SER759  ASP760  ASP761  ALA762  ILE779  LEU786  VAL792 
 PHE793  MET794  SER795  GLU796  ALA797  LYS798  CYS799  TRP800  GLU811  SER814 

> <Gold.Protein.RotatedAtoms>
  151.2921  133.4160  159.2633 H   0  0  0  0  0  0  0  0  0  0  0  0  # atno 6907 bound_to 6896
  151.0268  134.9510  159.8100 H   0  0  0  0  0  0  0  0  0  0  0  0  # atno 6908 bound_to 6896
  152.5337  134.2883  159.9086 H   0  0  0  0  0  0  0  0  0  0  0  0  # atno 6909 bound_to 6896
  145.1387  139.3281  143.4627 H   0  0  0  0  0  0  0  0  0  0  0  0  # atno 7974 bound_to 7965
  154.4613  140.0953  156.6900 H   0  0  0  0  0  0  0  0  0  0  0  0  # atno 8008 bound_to 7997
  155.4987  140.3473  155.4349 H   0  0  0  0  0  0  0  0  0  0  0  0  # atno 8009 bound_to 7997
  156.0875  140.1388  156.9623 H   0  0  0  0  0  0  0  0  0  0  0  0  # atno 8010 bound_to 7997
  140.6445  143.2527  151.4898 H   0  0  0  0  0  0  0  0  0  0  0  0  # atno 10167 bound_to 10162
  156.1433  130.4153  150.0066 H   0  0  0  0  0  0  0  0  0  0  0  0  # atno 10718 bound_to 10713
  153.2927  135.4138  155.1181 H   0  0  0  0  0  0  0  0  0  0  0  0  # atno 10763 bound_to 10752
  154.8525  135.3522  154.5960 H   0  0  0  0  0  0  0  0  0  0  0  0  # atno 10764 bound_to 10752
  153.6383  135.7058  153.5309 H   0  0  0  0  0  0  0  0  0  0  0  0  # atno 10765 bound_to 10752
  141.1165  133.8604  157.1430 H   0  0  0  0  0  0  0  0  0  0  0  0  # atno 11005 bound_to 11000
  146.3507  140.1416  142.8594 LP  0  0  0  0  0  0  0  0  0  0  0  0  # atno 17320 bound_to 7965
  145.0555  140.9050  143.4969 LP  0  0  0  0  0  0  0  0  0  0  0  0  # atno 17321 bound_to 7965
  139.5655  144.2053  152.1758 LP  0  0  0  0  0  0  0  0  0  0  0  0  # atno 17342 bound_to 10162
  140.1333  144.5268  150.6789 LP  0  0  0  0  0  0  0  0  0  0  0  0  # atno 17343 bound_to 10162
  156.7945  130.9268  151.3646 LP  0  0  0  0  0  0  0  0  0  0  0  0  # atno 17370 bound_to 10713
  157.6595  130.8953  149.9799 LP  0  0  0  0  0  0  0  0  0  0  0  0  # atno 17371 bound_to 10713
  140.0091  134.9996  157.0357 LP  0  0  0  0  0  0  0  0  0  0  0  0  # atno 17394 bound_to 11000
  140.4630  134.1464  155.7193 LP  0  0  0  0  0  0  0  0  0  0  0  0  # atno 17395 bound_to 11000

$$$$
