AV-unprocessed.smi:1066|AV-procd|sdf|4671|dock10
  -GOLD-   22720 3183D 1   1.00000     0.00000
 Structure written by MMmdl.
 38 40  0  0  0  0  0  0  0  0  2 V2000
  147.9358  137.7803  155.0470 C   0  0  0  0  0  0  0  0  0  0  0  0
  149.4141  137.5190  155.0814 C   0  0  0  0  0  0  0  0  0  0  0  0
  149.8544  136.2694  155.1518 N   0  0  0  0  0  0  0  0  0  0  0  0
  151.2520  136.3437  155.1694 O   0  0  0  0  0  0  0  0  0  0  0  0
  151.5794  137.6544  155.1048 C   0  0  0  0  0  0  0  0  0  0  0  0
  153.2112  138.1960  155.1144 Cl  0  0  0  0  0  0  0  0  0  0  0  0
  150.4813  138.4638  155.0472 C   0  0  0  0  0  0  0  0  0  0  0  0
  150.3978  139.9671  154.9719 C   0  0  0  0  0  0  0  0  0  0  0  0
  151.1854  140.5812  156.1286 C   0  0  0  0  0  0  0  0  0  0  0  0
  152.3567  140.2561  156.3195 O   0  0  0  0  0  0  0  0  0  0  0  0
  150.5341  141.4762  156.8863 N   0  0  0  0  0  0  0  0  0  0  0  0
  151.1183  142.2033  158.0066 C   0  0  1  0  0  0  0  0  0  0  0  0
  152.1311  141.4055  158.8225 C   0  0  0  0  0  0  0  0  0  0  0  0
  152.9318  142.5060  159.5273 C   0  0  0  0  0  0  0  0  0  0  0  0
  152.8718  143.7044  158.6534 N   0  3  2  0  0  0  0  0  0  0  0  0
  152.5248  144.9474  159.3765 C   0  0  0  0  0  0  0  0  0  0  0  0
  151.6815  144.7141  160.6073 C   0  0  0  0  0  0  0  0  0  0  0  0
  151.0500  145.2705  159.3495 C   0  0  0  0  0  0  0  0  0  0  0  0
  151.9528  143.3937  157.5362 C   0  0  0  0  0  0  0  0  0  0  0  0
  147.6864  138.7002  155.5764 H   0  0  0  0  0  0  0  0  0  0  0  0
  147.3742  136.9705  155.5143 H   0  0  0  0  0  0  0  0  0  0  0  0
  147.5824  137.8820  154.0209 H   0  0  0  0  0  0  0  0  0  0  0  0
  150.7921  140.3447  154.0276 H   0  0  0  0  0  0  0  0  0  0  0  0
  149.3634  140.3093  155.0238 H   0  0  0  0  0  0  0  0  0  0  0  0
  149.5720  141.6794  156.6559 H   0  0  0  0  0  0  0  0  0  0  0  0
  150.3239  142.5640  158.6637 H   0  0  0  0  0  0  0  0  0  0  0  0
  151.6648  140.7101  159.5211 H   0  0  0  0  0  0  0  0  0  0  0  0
  152.7847  140.8337  158.1615 H   0  0  0  0  0  0  0  0  0  0  0  0
  152.4754  142.7224  160.4948 H   0  0  0  0  0  0  0  0  0  0  0  0
  153.9638  142.2071  159.7118 H   0  0  0  0  0  0  0  0  0  0  0  0
  153.2669  145.7441  159.3570 H   0  0  0  0  0  0  0  0  0  0  0  0
  151.4402  143.6880  160.8798 H   0  0  0  0  0  0  0  0  0  0  0  0
  151.8126  145.3982  161.4434 H   0  0  0  0  0  0  0  0  0  0  0  0
  150.7658  146.3210  159.3579 H   0  0  0  0  0  0  0  0  0  0  0  0
  150.3885  144.6145  158.7862 H   0  0  0  0  0  0  0  0  0  0  0  0
  152.5596  143.1153  156.6730 H   0  0  0  0  0  0  0  0  0  0  0  0
  151.3369  144.2454  157.2431 H   0  0  0  0  0  0  0  0  0  0  0  0
  153.7887  143.8402  158.2517 H   0  0  0  0  0  0  0  0  0  0  0  0
  1  2  1  0  0  0  0
  1 20  1  0  0  0  0
  1 21  1  0  0  0  0
  1 22  1  0  0  0  0
  2  7  1  0  0  0  0
  2  3  2  0  0  0  0
  3  4  1  0  0  0  0
  4  5  1  0  0  0  0
  5  6  1  0  0  0  0
  5  7  2  0  0  0  0
  7  8  1  0  0  0  0
  8  9  1  0  0  0  0
  8 23  1  0  0  0  0
  8 24  1  0  0  0  0
  9 10  2  0  0  0  0
  9 11  1  0  0  0  0
 11 12  1  0  0  0  0
 11 25  1  0  0  0  0
 12 19  1  0  0  0  0
 12 13  1  0  0  0  0
 12 26  1  0  0  0  0
 13 14  1  0  0  0  0
 13 27  1  0  0  0  0
 13 28  1  0  0  0  0
 14 15  1  0  0  0  0
 14 29  1  0  0  0  0
 14 30  1  0  0  0  0
 15 16  1  0  0  0  0
 15 19  1  0  0  0  0
 15 38  1  0  0  0  0
 16 18  1  0  0  0  0
 16 17  1  0  0  0  0
 16 31  1  0  0  0  0
 17 18  1  0  0  0  0
 17 32  1  0  0  0  0
 17 33  1  0  0  0  0
 18 34  1  0  0  0  0
 18 35  1  0  0  0  0
 19 36  1  0  0  0  0
 19 37  1  0  0  0  0
M  CHG  1  15   1
M  END
> <s_m_source_file>
AV-unprocessed.smi

> <i_m_source_file_index>
1066

> <i_lp_mmshare_version>
43012

> <i_f3d_flags>
0

> <s_epik_input>
W0NIM11jMW5vYyhDbCljMVtDSDJdQyg9TylbTkhdW0NAQEhdMltDSDJdW0NIMl1OKFtDSDJdMilbQ0hdM1tDSDJdW0NIMl0z

> <s_epik_cmdline>
J2VwaWtfcHl0aG9uJywgJy1waCcsICc3LjAnLCAnLXRuJywgJzgnLCAnLW1hJywgJzIwMCcsICctbWV0YWxfYmluZGluZycsICctaW1hZScsICc8aW5maWxlLm1hZT4nLCAnLW9tYWUnLCAnPG91dGZpbGUubWFlPic=

> <r_epik_Ionization_Penalty>
0.00108138

> <r_epik_Ionization_Penalty_Charging>
0.00108128

> <r_epik_Ionization_Penalty_Neutral>
9.66632e-08

> <r_epik_State_Penalty>
0.000708577

> <r_epik_Charging_Adjusted_Penalty>
0.00178986

> <i_epik_Tot_Q>
1

> <i_epik_Tot_abs_Q>
1

> <r_epik_Metal_State_Penalty>
-0

> <b_epik_Metal_Only>
0

> <s_lp_Force_Field>
OPLS_2005

> <r_lp_Energy>
31.8821

> <b_lp_Chiralities_Consistent>
1

> <s_lp_Variant>
AV-unprocessed.smi:1066-4

> <Gold.Version>
5.8.1

> <Gold.Id.Protein>
6NUR|6NUR_protein|mol2

> <Gold.PLP.Fitness>
42.6984

> <Gold.PLP.PLP>
-38.5473

> <Gold.PLP.part.hbond>
-2.0000

> <Gold.PLP.part.metal>
0.0000

> <Gold.PLP.part.buried>
-4.5771

> <Gold.PLP.part.nonpolar>
-33.4171

> <Gold.PLP.part.repulsive>
0.3597

> <Gold.PLP.ligand.clash>
0.0000

> <Gold.PLP.ligand.torsion>
1.2666

> <Gold.PLP.Chemscore.Hbond>
1.8060

> <Gold.PLP.Chemscore.CHOScore>
0.0000

> <Gold.PLP.Chemscore.Metal>
0.0000

> <Gold.Chemscore.Hbonds>
donor molecule, donor type, donor heavy atom, donor atom, acceptor molecule, acceptor atom, score
      P1  H  7997  8008       L1    10  1.00
      P1  H 10752 10763       L1     4  0.95

> <Gold.PLP.Chemscore.Internal.Correction>
1.2664

> <Gold.Rescore>
     Score         DG    S(hbond)    S(metal)    S(lipo)     H(rot)  DE(clash)    DE(int)     intcor
     14.03     -19.18       1.62        0.00     105.33       1.57       0.96       4.20       ----

> <Gold.Chemscore.Fitness>
14.0259

> <Gold.Chemscore.DG>
-19.1782

> <Gold.Chemscore.ZeroCoef>
-5.4800

> <Gold.Chemscore.Hbond>
1.6157

> <Gold.Chemscore.Metal>
0.0000

> <Gold.Chemscore.Lipo>
105.3327

> <Gold.Chemscore.Internal_Hbond>
0.0000

> <Gold.Chemscore.DEClash>
0.9553

> <Gold.Chemscore.DEInternal>
4.1970

> <Gold.Chemscore.Rot>
1.5711

> <Gold.Chemscore.Internal.Correction>
   9.000000E+99

> <Gold.Chemscore.Hbonds>
donor molecule, donor type, donor heavy atom, donor atom, acceptor molecule, acceptor atom, score
      P1  H  7997  8008       L1    10  0.95
      P1  H 10752 10763       L1     4  0.21

> <Gold.Chemscore.Hbond.Weighted>
-5.3964

> <Gold.Chemscore.Metal.Weighted>
-0.0000

> <Gold.Chemscore.Lipo.Weighted>
-12.3239

> <Gold.Chemscore.Internal_Hbond.Weighted>
0.0000

> <Gold.Chemscore.DEClash.Weighted>
0.9553

> <Gold.Chemscore.DEInternal.Weighted>
4.1970

> <Gold.Chemscore.Rot.Weighted>
4.0221

> <Gold.Chemscore.Internal.Correction.Weighted>
   9.000000E+99

> <Gold.Protein.RotatedTorsions>
[ 6907 6896 6895 6894 ] final  177.38 input  -60.11 | X-H torsion
[ 7974 7965 7964 7962 ] final  -87.28 input  175.53 | X-H torsion
[ 8008 7997 7996 7995 ] final  -38.20 input   59.86 | X-H torsion
[ 10167 10162 10161 10158 ] final  -40.88 input  -65.29 | X-H torsion
[ 10718 10713 10712 10709 ] final  147.24 input   66.30 | X-H torsion
[ 10763 10752 10751 10750 ] final   58.45 input  -60.55 | X-H torsion
[ 11005 11000 10999 10996 ] final    1.53 input  -57.11 | X-H torsion

> <Gold.Protein.ActiveResidues>
 VAL166  LYS551  ARG553  GLY616  TRP617  ASP618  TYR619  PRO620  LYS621  CYS622 
 ASP623  PHE694  ASN695  SER759  ASP760  ASP761  ALA762  ILE779  LEU786  VAL792 
 PHE793  MET794  SER795  GLU796  ALA797  LYS798  CYS799  TRP800  GLU811  SER814 

> <Gold.Protein.RotatedAtoms>
  151.7050  133.3311  159.3275 H   0  0  0  0  0  0  0  0  0  0  0  0  # atno 6907 bound_to 6896
  150.7719  134.6582  159.6335 H   0  0  0  0  0  0  0  0  0  0  0  0  # atno 6908 bound_to 6896
  152.3746  134.6685  160.0216 H   0  0  0  0  0  0  0  0  0  0  0  0  # atno 6909 bound_to 6896
  145.4687  140.9560  143.1929 H   0  0  0  0  0  0  0  0  0  0  0  0  # atno 7974 bound_to 7965
  154.4040  140.1584  156.2662 H   0  0  0  0  0  0  0  0  0  0  0  0  # atno 8008 bound_to 7997
  155.8993  140.3434  155.5992 H   0  0  0  0  0  0  0  0  0  0  0  0  # atno 8009 bound_to 7997
  155.7466  140.0799  157.2211 H   0  0  0  0  0  0  0  0  0  0  0  0  # atno 8010 bound_to 7997
  140.7020  143.3127  151.2987 H   0  0  0  0  0  0  0  0  0  0  0  0  # atno 10167 bound_to 10162
  157.3234  131.0908  151.1222 H   0  0  0  0  0  0  0  0  0  0  0  0  # atno 10718 bound_to 10713
  152.9871  135.5606  154.5554 H   0  0  0  0  0  0  0  0  0  0  0  0  # atno 10763 bound_to 10752
  154.4983  135.2796  155.1443 H   0  0  0  0  0  0  0  0  0  0  0  0  # atno 10764 bound_to 10752
  154.2884  135.6331  153.5428 H   0  0  0  0  0  0  0  0  0  0  0  0  # atno 10765 bound_to 10752
  140.6144  133.9718  155.8193 H   0  0  0  0  0  0  0  0  0  0  0  0  # atno 11005 bound_to 11000
  144.7958  139.6236  143.7093 LP  0  0  0  0  0  0  0  0  0  0  0  0  # atno 17320 bound_to 7965
  146.2409  139.6000  142.9492 LP  0  0  0  0  0  0  0  0  0  0  0  0  # atno 17321 bound_to 7965
  139.6555  144.0283  152.2657 LP  0  0  0  0  0  0  0  0  0  0  0  0  # atno 17342 bound_to 10162
  139.9834  144.6412  150.7880 LP  0  0  0  0  0  0  0  0  0  0  0  0  # atno 17343 bound_to 10162
  157.2498  130.6608  149.5926 LP  0  0  0  0  0  0  0  0  0  0  0  0  # atno 17370 bound_to 10713
  155.9688  130.4542  150.5841 LP  0  0  0  0  0  0  0  0  0  0  0  0  # atno 17371 bound_to 10713
  141.0786  134.0097  157.3421 LP  0  0  0  0  0  0  0  0  0  0  0  0  # atno 17394 bound_to 11000
  139.9179  135.0198  156.7951 LP  0  0  0  0  0  0  0  0  0  0  0  0  # atno 17395 bound_to 11000

$$$$
