AV-unprocessed.smi:1005|AV-procd|sdf|4379|dock10
  -GOLD-   22720 2303D 1   1.00000     0.00000
 Structure written by MMmdl.
 58 60  0  0  0  0  0  0  0  0  4 V2000
  152.3380  143.9793  161.6815 C   0  0  0  0  0  0  0  0  0  0  0  0
  152.1356  143.0618  160.4874 C   0  0  0  0  0  0  0  0  0  0  0  0
  151.3661  143.5309  159.3993 C   0  0  0  0  0  0  0  0  0  0  0  0
  151.2026  142.6705  158.3201 C   0  0  0  0  0  0  0  0  0  0  0  0
  150.5147  142.8352  157.1163 N   0  3  0  0  0  0  0  0  0  0  0  0
  150.6401  141.7081  156.3626 C   0  0  0  0  0  0  0  0  0  0  0  0
  151.4022  140.8259  157.0654 N   0  0  0  0  0  0  0  0  0  0  0  0
  151.8336  139.4662  156.7072 C   0  0  0  0  0  0  0  0  0  0  0  0
  150.8908  138.7825  155.6965 C   0  0  1  0  0  0  0  0  0  0  0  0
  151.0508  139.3746  154.4220 O   0  0  0  0  0  0  0  0  0  0  0  0
  151.1813  137.2724  155.5778 C   0  0  0  0  0  0  0  0  0  0  0  0
  150.2228  136.4373  156.3468 N   0  3  1  0  0  0  0  0  0  0  0  0
  150.4984  134.9878  156.2105 C   0  0  0  0  0  0  0  0  0  0  0  0
  149.4369  134.1689  156.9618 C   0  0  0  0  0  0  0  0  0  0  0  0
  149.4085  134.5680  158.3270 O   0  0  0  0  0  0  0  0  0  0  0  0
  149.0530  135.9379  158.4857 C   0  0  1  0  0  0  0  0  0  0  0  0
  148.9812  136.2385  159.9947 C   0  0  0  0  0  0  0  0  0  0  0  0
  147.8009  135.6173  160.6493 N   0  3  0  0  0  0  0  0  0  0  0  0
  147.5824  136.0873  162.0372 C   0  0  0  0  0  0  0  0  0  0  0  0
  147.8374  134.1397  160.5785 C   0  0  0  0  0  0  0  0  0  0  0  0
  150.1143  136.8072  157.7802 C   0  0  0  0  0  0  0  0  0  0  0  0
  151.7717  141.3820  158.2969 C   0  0  0  0  0  0  0  0  0  0  0  0
  152.5301  140.9033  159.3633 C   0  0  0  0  0  0  0  0  0  0  0  0
  152.7084  141.7636  160.4704 C   0  0  0  0  0  0  0  0  0  0  0  0
  153.5324  141.2687  161.6468 C   0  0  0  0  0  0  0  0  0  0  0  0
  151.8743  144.9530  161.5202 H   0  0  0  0  0  0  0  0  0  0  0  0
  153.4000  144.1443  161.8639 H   0  0  0  0  0  0  0  0  0  0  0  0
  151.8956  143.5436  162.5776 H   0  0  0  0  0  0  0  0  0  0  0  0
  150.9255  144.5172  159.4066 H   0  0  0  0  0  0  0  0  0  0  0  0
  150.2111  141.5451  155.3842 H   0  0  0  0  0  0  0  0  0  0  0  0
  152.8585  139.4996  156.3369 H   0  0  0  0  0  0  0  0  0  0  0  0
  151.8644  138.8889  157.6321 H   0  0  0  0  0  0  0  0  0  0  0  0
  149.8638  138.9481  156.0204 H   0  0  0  0  0  0  0  0  0  0  0  0
  151.3994  138.7243  153.8306 H   0  0  0  0  0  0  0  0  0  0  0  0
  151.1343  136.9956  154.5231 H   0  0  0  0  0  0  0  0  0  0  0  0
  152.1980  137.0505  155.9053 H   0  0  0  0  0  0  0  0  0  0  0  0
  150.4986  134.7054  155.1569 H   0  0  0  0  0  0  0  0  0  0  0  0
  151.4918  134.7643  156.6033 H   0  0  0  0  0  0  0  0  0  0  0  0
  148.4517  134.2983  156.5104 H   0  0  0  0  0  0  0  0  0  0  0  0
  149.6743  133.1062  156.9087 H   0  0  0  0  0  0  0  0  0  0  0  0
  148.0838  136.1207  158.0205 H   0  0  0  0  0  0  0  0  0  0  0  0
  149.8947  135.8650  160.4604 H   0  0  0  0  0  0  0  0  0  0  0  0
  148.9668  137.3151  160.1725 H   0  0  0  0  0  0  0  0  0  0  0  0
  148.4312  135.8335  162.6738 H   0  0  0  0  0  0  0  0  0  0  0  0
  146.6914  135.6242  162.4624 H   0  0  0  0  0  0  0  0  0  0  0  0
  147.4349  137.1657  162.0788 H   0  0  0  0  0  0  0  0  0  0  0  0
  148.6939  133.7429  161.1251 H   0  0  0  0  0  0  0  0  0  0  0  0
  147.9043  133.8017  159.5439 H   0  0  0  0  0  0  0  0  0  0  0  0
  146.9304  133.7098  161.0053 H   0  0  0  0  0  0  0  0  0  0  0  0
  151.0855  136.6827  158.2622 H   0  0  0  0  0  0  0  0  0  0  0  0
  149.8410  137.8569  157.8810 H   0  0  0  0  0  0  0  0  0  0  0  0
  152.9713  139.9178  159.3520 H   0  0  0  0  0  0  0  0  0  0  0  0
  153.8466  140.2339  161.5073 H   0  0  0  0  0  0  0  0  0  0  0  0
  152.9534  141.3171  162.5693 H   0  0  0  0  0  0  0  0  0  0  0  0
  154.4292  141.8770  161.7675 H   0  0  0  0  0  0  0  0  0  0  0  0
  146.9925  135.8980  160.1120 H   0  0  0  0  0  0  0  0  0  0  0  0
  149.3163  136.5930  155.9277 H   0  0  0  0  0  0  0  0  0  0  0  0
  149.9947  143.6547  156.8289 H   0  0  0  0  0  0  0  0  0  0  0  0
  1  2  1  0  0  0  0
  1 26  1  0  0  0  0
  1 27  1  0  0  0  0
  1 28  1  0  0  0  0
  2 24  1  0  0  0  0
  2  3  2  0  0  0  0
  3  4  1  0  0  0  0
  3 29  1  0  0  0  0
  4 22  2  0  0  0  0
  4  5  1  0  0  0  0
  5  6  2  0  0  0  0
  5 58  1  0  0  0  0
  6  7  1  0  0  0  0
  6 30  1  0  0  0  0
  7  8  1  0  0  0  0
  7 22  1  0  0  0  0
  8  9  1  0  0  0  0
  8 31  1  0  0  0  0
  8 32  1  0  0  0  0
  9 10  1  0  0  0  0
  9 11  1  0  0  0  0
  9 33  1  0  0  0  0
 10 34  1  0  0  0  0
 11 12  1  0  0  0  0
 11 35  1  0  0  0  0
 11 36  1  0  0  0  0
 12 21  1  0  0  0  0
 12 13  1  0  0  0  0
 12 57  1  0  0  0  0
 13 14  1  0  0  0  0
 13 37  1  0  0  0  0
 13 38  1  0  0  0  0
 14 15  1  0  0  0  0
 14 39  1  0  0  0  0
 14 40  1  0  0  0  0
 15 16  1  0  0  0  0
 16 17  1  0  0  0  0
 16 21  1  0  0  0  0
 16 41  1  0  0  0  0
 17 18  1  0  0  0  0
 17 42  1  0  0  0  0
 17 43  1  0  0  0  0
 18 19  1  0  0  0  0
 18 20  1  0  0  0  0
 18 56  1  0  0  0  0
 19 44  1  0  0  0  0
 19 45  1  0  0  0  0
 19 46  1  0  0  0  0
 20 47  1  0  0  0  0
 20 48  1  0  0  0  0
 20 49  1  0  0  0  0
 21 50  1  0  0  0  0
 21 51  1  0  0  0  0
 22 23  1  0  0  0  0
 23 24  2  0  0  0  0
 23 52  1  0  0  0  0
 24 25  1  0  0  0  0
 25 53  1  0  0  0  0
 25 54  1  0  0  0  0
 25 55  1  0  0  0  0
M  CHG  1   5   1
M  CHG  1  12   1
M  CHG  1  18   1
M  END
> <s_m_source_file>
AV-unprocessed.smi

> <i_m_source_file_index>
1005

> <i_lp_mmshare_version>
43012

> <i_f3d_flags>
0

> <s_epik_input>
W0NIM11jKFtjSF0xKWMoW0NIM10pW2NIXWMoYzEyKW4oW2NIXW4yKVtDSDJdW0NASF0oW09IXSlbQ0gyXU4zW0NIMl1bQ0gyXU9bQ0BIXShbQ0gyXTMpW0NIMl1OKFtDSDNdKVtDSDNd

> <s_epik_cmdline>
J2VwaWtfcHl0aG9uJywgJy1waCcsICc3LjAnLCAnLXRuJywgJzgnLCAnLW1hJywgJzIwMCcsICctbWV0YWxfYmluZGluZycsICctaW1hZScsICc8aW5maWxlLm1hZT4nLCAnLW9tYWUnLCAnPG91dGZpbGUubWFlPic=

> <r_epik_Ionization_Penalty>
2.30802

> <r_epik_Ionization_Penalty_Charging>
2.30798

> <r_epik_Ionization_Penalty_Neutral>
3.4851e-05

> <r_epik_State_Penalty>
2.52618

> <r_epik_Charging_Adjusted_Penalty>
4.83416

> <i_epik_Tot_Q>
3

> <i_epik_Tot_abs_Q>
3

> <r_epik_Metal_State_Penalty>
6.53149

> <b_epik_Metal_Only>
0

> <s_lp_Force_Field>
OPLS_2005

> <r_lp_Energy>
42.4596

> <b_lp_Chiralities_Consistent>
1

> <s_lp_Variant>
AV-unprocessed.smi:1005-18

> <Gold.Version>
5.8.1

> <Gold.Id.Protein>
6NUR|6NUR_protein|mol2

> <Gold.PLP.Fitness>
56.8621

> <Gold.PLP.PLP>
-46.9960

> <Gold.PLP.part.hbond>
-3.0000

> <Gold.PLP.part.metal>
0.0000

> <Gold.PLP.part.buried>
-7.5532

> <Gold.PLP.part.nonpolar>
-36.7916

> <Gold.PLP.part.repulsive>
0.2156

> <Gold.PLP.ligand.clash>
0.0000

> <Gold.PLP.ligand.torsion>
1.1167

> <Gold.PLP.Chemscore.Hbond>
4.0000

> <Gold.PLP.Chemscore.CHOScore>
0.0000

> <Gold.PLP.Chemscore.Metal>
0.0000

> <Gold.Chemscore.Hbonds>
donor molecule, donor type, donor heavy atom, donor atom, acceptor molecule, acceptor atom, score
      L1  H     5    58       P1  8028  2.00
      P1  H  6896  6909       L1    15  1.00
      P1  H  7989  7998       L1    10  0.80

> <Gold.PLP.Chemscore.Internal.Correction>
0.0995

> <Gold.Rescore>
     Score         DG    S(hbond)    S(metal)    S(lipo)     H(rot)  DE(clash)    DE(int)     intcor
     20.09     -22.69       2.60        0.00     128.89       2.56       0.06       2.54       ----

> <Gold.Chemscore.Fitness>
20.0913

> <Gold.Chemscore.DG>
-22.6874

> <Gold.Chemscore.ZeroCoef>
-5.4800

> <Gold.Chemscore.Hbond>
2.5963

> <Gold.Chemscore.Metal>
0.0000

> <Gold.Chemscore.Lipo>
128.8947

> <Gold.Chemscore.Internal_Hbond>
0.0000

> <Gold.Chemscore.DEClash>
0.0578

> <Gold.Chemscore.DEInternal>
2.5384

> <Gold.Chemscore.Rot>
2.5566

> <Gold.Chemscore.Internal.Correction>
   9.000000E+99

> <Gold.Chemscore.Hbonds>
donor molecule, donor type, donor heavy atom, donor atom, acceptor molecule, acceptor atom, score
      L1  H     5    58       P1  8028  0.98
      P1  H  6896  6909       L1    15  0.50
      P1  H  7989  7998       L1    10  0.12

> <Gold.Chemscore.Hbond.Weighted>
-8.6717

> <Gold.Chemscore.Metal.Weighted>
-0.0000

> <Gold.Chemscore.Lipo.Weighted>
-15.0807

> <Gold.Chemscore.Internal_Hbond.Weighted>
0.0000

> <Gold.Chemscore.DEClash.Weighted>
0.0578

> <Gold.Chemscore.DEInternal.Weighted>
2.5384

> <Gold.Chemscore.Rot.Weighted>
6.5450

> <Gold.Chemscore.Internal.Correction.Weighted>
   9.000000E+99

> <Gold.Protein.RotatedTorsions>
[ 6907 6896 6895 6894 ] final   33.27 input  -60.11 | X-H torsion
[ 7974 7965 7964 7962 ] final   21.87 input  175.53 | X-H torsion
[ 8008 7997 7996 7995 ] final   78.61 input   59.86 | X-H torsion
[ 10167 10162 10161 10158 ] final  143.74 input  -65.29 | X-H torsion
[ 10718 10713 10712 10709 ] final   37.63 input   66.30 | X-H torsion
[ 10763 10752 10751 10750 ] final  -26.08 input  -60.55 | X-H torsion
[ 11005 11000 10999 10996 ] final  155.17 input  -57.11 | X-H torsion

> <Gold.Protein.ActiveResidues>
 VAL166  LYS551  ARG553  GLY616  TRP617  ASP618  TYR619  PRO620  LYS621  CYS622 
 ASP623  PHE694  ASN695  SER759  ASP760  ASP761  ALA762  ILE779  LEU786  VAL792 
 PHE793  MET794  SER795  GLU796  ALA797  LYS798  CYS799  TRP800  GLU811  SER814 

> <Gold.Protein.RotatedAtoms>
  152.0862  134.9438  160.0572 H   0  0  0  0  0  0  0  0  0  0  0  0  # atno 6907 bound_to 6896
  152.0707  133.4101  159.4466 H   0  0  0  0  0  0  0  0  0  0  0  0  # atno 6908 bound_to 6896
  150.6836  134.3014  159.4751 H   0  0  0  0  0  0  0  0  0  0  0  0  # atno 6909 bound_to 6896
  146.2053  139.7966  142.8730 H   0  0  0  0  0  0  0  0  0  0  0  0  # atno 7974 bound_to 7965
  155.8581  140.3455  155.5738 H   0  0  0  0  0  0  0  0  0  0  0  0  # atno 8008 bound_to 7997
  155.7963  140.0879  157.2001 H   0  0  0  0  0  0  0  0  0  0  0  0  # atno 8009 bound_to 7997
  154.4010  140.1474  156.3209 H   0  0  0  0  0  0  0  0  0  0  0  0  # atno 8010 bound_to 7997
  139.4962  144.6020  151.6461 H   0  0  0  0  0  0  0  0  0  0  0  0  # atno 10167 bound_to 10162
  157.3492  130.7589  149.6966 H   0  0  0  0  0  0  0  0  0  0  0  0  # atno 10718 bound_to 10713
  153.7102  135.6951  153.5039 H   0  0  0  0  0  0  0  0  0  0  0  0  # atno 10763 bound_to 10752
  153.2278  135.4348  155.0560 H   0  0  0  0  0  0  0  0  0  0  0  0  # atno 10764 bound_to 10752
  154.8317  135.3476  154.6639 H   0  0  0  0  0  0  0  0  0  0  0  0  # atno 10765 bound_to 10752
  140.1556  134.8645  157.2510 H   0  0  0  0  0  0  0  0  0  0  0  0  # atno 11005 bound_to 11000
  145.3340  141.0273  143.3430 LP  0  0  0  0  0  0  0  0  0  0  0  0  # atno 17320 bound_to 7965
  144.8778  139.4946  143.6737 LP  0  0  0  0  0  0  0  0  0  0  0  0  # atno 17321 bound_to 7965
  140.5672  144.0170  150.6198 LP  0  0  0  0  0  0  0  0  0  0  0  0  # atno 17342 bound_to 10162
  140.3276  143.3098  152.0720 LP  0  0  0  0  0  0  0  0  0  0  0  0  # atno 17343 bound_to 10162
  155.9719  130.4145  150.4138 LP  0  0  0  0  0  0  0  0  0  0  0  0  # atno 17370 bound_to 10713
  157.2198  131.0479  151.2553 LP  0  0  0  0  0  0  0  0  0  0  0  0  # atno 17371 bound_to 10713
  140.2551  134.3637  155.7427 LP  0  0  0  0  0  0  0  0  0  0  0  0  # atno 17394 bound_to 11000
  141.2204  133.7338  156.8995 LP  0  0  0  0  0  0  0  0  0  0  0  0  # atno 17395 bound_to 11000

$$$$
