#       Name:                AV-unprocessed.smi:2640
#       Creating user name   scv26
#       Creation time:       Fri Mar 27 14:28:27 2020


#       File generated by GOLD software.
#

@<TRIPOS>MOLECULE
AV-unprocessed.smi:2640
    47    48     1
SMALL
NO_CHARGES


@<TRIPOS>ATOM
      1 ****        -1.9483   0.5911  -2.4574 O.2            1 S1                 0.0000
      2 ****        -1.4779  -0.1644  -1.6075 C.2            1 S1                 0.0000
      3 ****        -1.1260  -1.6047  -1.9713 C.3            1 S1                 0.0000
      4 ****         0.3230  -1.8194  -1.9371 N.3            1 S1                 0.0000
      5 ****         0.6519  -3.1989  -2.2649 C.3            1 S1                 0.0000
      6 ****         2.1717  -3.4160  -2.1672 C.3            1 S1                 0.0000
      7 ****         2.6705  -3.2393  -0.8144 N.pl3          1 S1                 0.0000
      8 ****         3.3816  -2.1777  -0.2956 C.2            1 S1                 0.0000
      9 ****         3.6173  -2.4519   1.0210 C.2            1 S1                 0.0000
     10 ****         3.0063  -3.7220   1.2164 C.2            1 S1                 0.0000
     11 ****         2.4416  -4.1914   0.1157 N.2            1 S1                 0.0000
     12 ****        -1.2407   0.2026  -0.3370 N.am           1 S1                 0.0000
     13 ****        -1.4522   1.5418   0.2160 C.3            1 S1                 0.0000
     14 ****        -1.6777   1.3901   1.7379 C.3            1 S1                 0.0000
     15 ****        -2.4231   2.5758   2.3756 C.3            1 S1                 0.0000
     16 ****        -1.6684   3.9137   2.3385 C.3            1 S1                 0.0000
     17 ****        -1.3907   4.4284   0.9157 C.3            1 S1                 0.0000
     18 ****        -0.2729   3.7336   0.2909 N.am           1 S1                 0.0000
     19 ****        -0.2097   2.4312  -0.0251 C.2            1 S1                 0.0000
     20 ****         0.8246   1.9548  -0.4932 O.2            1 S1                 0.0000
     21 ****        -1.6208  -2.2781  -1.2695 H              1 S1                 0.0000
     22 ****        -1.5105  -1.8322  -2.9670 H              1 S1                 0.0000
     23 ****         0.7028  -1.6023  -1.0266 H              1 S1                 0.0000
     24 ****         0.1325  -3.8812  -1.5902 H              1 S1                 0.0000
     25 ****         0.3119  -3.4229  -3.2768 H              1 S1                 0.0000
     26 ****         2.4255  -4.4244  -2.4966 H              1 S1                 0.0000
     27 ****         2.7004  -2.7296  -2.8303 H              1 S1                 0.0000
     28 ****         3.6526  -1.3235  -0.8985 H              1 S1                 0.0000
     29 ****         4.1449  -1.8383   1.7359 H              1 S1                 0.0000
     30 ****         2.9560  -4.3124   2.1193 H              1 S1                 0.0000
     31 ****        -0.8501  -0.4881   0.2869 H              1 S1                 0.0000
     32 ****        -2.3312   1.9879  -0.2527 H              1 S1                 0.0000
     33 ****        -2.2813   0.4995   1.9205 H              1 S1                 0.0000
     34 ****        -0.7345   1.2131   2.2581 H              1 S1                 0.0000
     35 ****        -3.3936   2.6945   1.8922 H              1 S1                 0.0000
     36 ****        -2.6392   2.3305   3.4158 H              1 S1                 0.0000
     37 ****        -2.2717   4.6561   2.8619 H              1 S1                 0.0000
     38 ****        -0.7364   3.8370   2.9002 H              1 S1                 0.0000
     39 ****        -2.2816   4.3634   0.2898 H              1 S1                 0.0000
     40 ****        -1.1254   5.4848   0.9625 H              1 S1                 0.0000
     41 ****         0.5503   4.2892   0.1078 H              1 S1                 0.0000
     42 ****        -2.1011   0.2621  -3.3893 LP             1 S1                 0.0000
     43 ****        -2.1779   1.5340  -2.2161 LP             1 S1                 0.0000
     44 ****         0.7265  -1.2080  -2.6178 LP             1 S1                 0.0000
     45 ****         1.9546  -5.0569  -0.0012 LP             1 S1                 0.0000
     46 ****         0.8682   0.9823  -0.7222 LP             1 S1                 0.0000
     47 ****         1.6210   2.5403  -0.6444 LP             1 S1                 0.0000
@<TRIPOS>BOND
    1    1    2 2     
    2    2    3 1     
    3    2   12 am    
    4    3    4 1     
    5    3   21 1     
    6    3   22 1     
    7    4    5 1     
    8    4   23 1     
    9    5    6 1     
   10    5   24 1     
   11    5   25 1     
   12    6    7 1     
   13    6   26 1     
   14    6   27 1     
   15    7   11 1     
   16    7    8 1     
   17    8    9 2     
   18    8   28 1     
   19    9   10 1     
   20    9   29 1     
   21   10   11 2     
   22   10   30 1     
   23   12   13 1     
   24   12   31 1     
   25   13   19 1     
   26   13   14 1     
   27   13   32 1     
   28   14   15 1     
   29   14   33 1     
   30   14   34 1     
   31   15   16 1     
   32   15   35 1     
   33   15   36 1     
   34   16   17 1     
   35   16   37 1     
   36   16   38 1     
   37   17   18 1     
   38   17   39 1     
   39   17   40 1     
   40   18   19 am    
   41   18   41 1     
   42   19   20 2     
   43    1   42 1     
   44    1   43 1     
   45    4   44 1     
   46   11   45 1     
   47   20   46 1     
   48   20   47 1     
@<TRIPOS>SUBSTRUCTURE
      1 S1             1
@<TRIPOS>SET
LONE_PAIRS      STATIC     ATOMS    <user>   **** ""
6 42 43 44 45 46 47
DONOR_HYDROGENS      STATIC     ATOMS    <user>   **** ""
3 23 31 41
ATOM$BLUE        STATIC     ATOMS    COLORGROUP SYSTEM
6 42 43 44 45 46 47
ATOM$RED        STATIC     ATOMS    COLORGROUP SYSTEM
3 23 31 41
