AV-unprocessed.smi:1718|AV-procd|sdf|6925|dock9
  -GOLD-   22720 8133D 1   1.00000     0.00000
 Structure written by MMmdl.
 40 41  0  0  0  0  0  0  0  0  1 V2000
  146.1680  141.1997  154.1288 C   0  0  0  0  0  0  0  0  0  0  0  0
  147.1040  140.1791  153.4657 C   0  0  1  0  0  0  0  0  0  0  0  0
  148.4064  140.3747  154.0106 O   0  0  0  0  0  0  0  0  0  0  0  0
  149.4287  139.5485  153.4644 C   0  0  0  0  0  0  0  0  0  0  0  0
  150.2877  139.0020  154.6105 C   0  0  1  0  0  0  0  0  0  0  0  0
  151.0422  137.7174  154.2651 C   0  0  0  0  0  0  0  0  0  0  0  0
  152.2362  137.8042  155.1874 C   0  0  0  0  0  0  0  0  0  0  0  0
  152.5481  139.2960  155.1403 C   0  0  0  0  0  0  0  0  0  0  0  0
  151.2920  139.9479  154.9719 O   0  0  0  0  0  0  0  0  0  0  0  0
  146.6302  138.7401  153.7258 C   0  0  0  0  0  0  0  0  0  0  0  0
  147.3450  137.9754  154.3738 O   0  0  0  0  0  0  0  0  0  0  0  0
  145.4299  138.4216  153.2027 N   0  0  0  0  0  0  0  0  0  0  0  0
  144.7660  137.1840  153.1982 C   0  0  0  0  0  0  0  0  0  0  0  0
  144.9434  136.2166  152.2612 C   0  0  0  0  0  0  0  0  0  0  0  0
  144.2110  134.9632  152.2987 C   0  0  0  0  0  0  0  0  0  0  0  0
  144.4496  133.8903  151.2486 C   0  0  0  0  0  0  0  0  0  0  0  0
  143.5918  132.8763  151.3707 F   0  0  0  0  0  0  0  0  0  0  0  0
  144.3156  134.4081  150.0282 F   0  0  0  0  0  0  0  0  0  0  0  0
  145.6873  133.4084  151.3566 F   0  0  0  0  0  0  0  0  0  0  0  0
  143.3352  134.8079  153.3093 C   0  0  0  0  0  0  0  0  0  0  0  0
  143.1369  135.8036  154.2689 N   0  0  0  0  0  0  0  0  0  0  0  0
  143.7899  136.9877  154.2827 C   0  0  0  0  0  0  0  0  0  0  0  0
  143.5549  137.8170  155.1610 O   0  0  0  0  0  0  0  0  0  0  0  0
  142.4578  135.6148  154.9922 H   0  0  0  0  0  0  0  0  0  0  0  0
  145.1456  141.0953  153.7640 H   0  0  0  0  0  0  0  0  0  0  0  0
  146.4920  142.2177  153.9114 H   0  0  0  0  0  0  0  0  0  0  0  0
  146.1515  141.0845  155.2134 H   0  0  0  0  0  0  0  0  0  0  0  0
  147.1282  140.3787  152.3924 H   0  0  0  0  0  0  0  0  0  0  0  0
  149.0149  138.7203  152.8879 H   0  0  0  0  0  0  0  0  0  0  0  0
  150.0493  140.1375  152.7876 H   0  0  0  0  0  0  0  0  0  0  0  0
  149.6690  138.8332  155.4932 H   0  0  0  0  0  0  0  0  0  0  0  0
  150.4445  136.8189  154.4207 H   0  0  0  0  0  0  0  0  0  0  0  0
  151.3739  137.7308  153.2256 H   0  0  0  0  0  0  0  0  0  0  0  0
  151.9523  137.5092  156.1984 H   0  0  0  0  0  0  0  0  0  0  0  0
  153.0729  137.1817  154.8691 H   0  0  0  0  0  0  0  0  0  0  0  0
  153.0631  139.6439  156.0359 H   0  0  0  0  0  0  0  0  0  0  0  0
  153.1755  139.5250  154.2780 H   0  0  0  0  0  0  0  0  0  0  0  0
  144.9150  139.1772  152.7735 H   0  0  0  0  0  0  0  0  0  0  0  0
  145.6240  136.3574  151.4371 H   0  0  0  0  0  0  0  0  0  0  0  0
  142.7281  133.9281  153.4631 H   0  0  0  0  0  0  0  0  0  0  0  0
  1  2  1  0  0  0  0
  1 25  1  0  0  0  0
  1 26  1  0  0  0  0
  1 27  1  0  0  0  0
  2  3  1  0  0  0  0
  2 10  1  0  0  0  0
  2 28  1  0  0  0  0
  3  4  1  0  0  0  0
  4  5  1  0  0  0  0
  4 29  1  0  0  0  0
  4 30  1  0  0  0  0
  5  9  1  0  0  0  0
  5  6  1  0  0  0  0
  5 31  1  0  0  0  0
  6  7  1  0  0  0  0
  6 32  1  0  0  0  0
  6 33  1  0  0  0  0
  7  8  1  0  0  0  0
  7 34  1  0  0  0  0
  7 35  1  0  0  0  0
  8  9  1  0  0  0  0
  8 36  1  0  0  0  0
  8 37  1  0  0  0  0
 10 11  2  0  0  0  0
 10 12  1  0  0  0  0
 12 13  1  0  0  0  0
 12 38  1  0  0  0  0
 13 22  1  0  0  0  0
 13 14  2  0  0  0  0
 14 15  1  0  0  0  0
 14 39  1  0  0  0  0
 15 16  1  0  0  0  0
 15 20  2  0  0  0  0
 16 17  1  0  0  0  0
 16 18  1  0  0  0  0
 16 19  1  0  0  0  0
 20 21  1  0  0  0  0
 20 40  1  0  0  0  0
 21 24  1  0  0  0  0
 21 22  1  0  0  0  0
 22 23  2  0  0  0  0
M  END
> <s_m_source_file>
AV-unprocessed.smi

> <i_m_source_file_index>
1718

> <i_lp_mmshare_version>
43012

> <i_f3d_flags>
0

> <s_epik_input>
TzFbQ0gyXVtDSDJdW0NIMl1bQ0BIXTFbQ0gyXU9bQ0BASF0oW0NIM10pQyg9TylbTkhdYzJbY0hdYyhDKEYpKEYpRilbY0hdW25IXWMyPU8=

> <s_epik_cmdline>
J2VwaWtfcHl0aG9uJywgJy1waCcsICc3LjAnLCAnLXRuJywgJzgnLCAnLW1hJywgJzIwMCcsICctbWV0YWxfYmluZGluZycsICctaW1hZScsICc8aW5maWxlLm1hZT4nLCAnLW9tYWUnLCAnPG91dGZpbGUubWFlPic=

> <r_lp_tautomer_probability>
0.999

> <r_epik_Ionization_Penalty>
0.00894336

> <r_epik_Ionization_Penalty_Charging>
0.00894326

> <r_epik_Ionization_Penalty_Neutral>
1.00145e-07

> <r_epik_State_Penalty>
0.00676626

> <r_epik_Charging_Adjusted_Penalty>
0.0157095

> <i_epik_Tot_Q>
0

> <i_epik_Tot_abs_Q>
0

> <r_epik_Metal_State_Penalty>
0.321145

> <b_epik_Metal_Only>
0

> <s_lp_Force_Field>
OPLS_2005

> <r_lp_Energy>
34.4612

> <b_lp_Chiralities_Consistent>
1

> <s_lp_Variant>
AV-unprocessed.smi:1718-4

> <Gold.Version>
5.8.1

> <Gold.Id.Protein>
6NUR|6NUR_protein|mol2

> <Gold.PLP.Fitness>
36.8237

> <Gold.PLP.PLP>
-30.8185

> <Gold.PLP.part.hbond>
-2.0000

> <Gold.PLP.part.metal>
0.0000

> <Gold.PLP.part.buried>
1.5292

> <Gold.PLP.part.nonpolar>
-31.6539

> <Gold.PLP.part.repulsive>
0.3445

> <Gold.PLP.ligand.clash>
0.0487

> <Gold.PLP.ligand.torsion>
1.4651

> <Gold.PLP.Chemscore.Hbond>
2.0000

> <Gold.PLP.Chemscore.CHOScore>
0.9592

> <Gold.PLP.Chemscore.Metal>
0.0000

> <Gold.Chemscore.Hbonds>
donor molecule, donor type, donor heavy atom, donor atom, acceptor molecule, acceptor atom, score
      L1  H    12    38       P1 10175  1.00
      P1  H  7989  7998       L1     9  0.95
      L1  C    20    40       P1 10957  1.00

> <Gold.PLP.Chemscore.Internal.Correction>
0.1063

> <Gold.Rescore>
     Score         DG    S(hbond)    S(metal)    S(lipo)     H(rot)  DE(clash)    DE(int)     intcor
      9.78     -15.20       1.74        0.00      74.62       1.88       2.42       3.00       ----

> <Gold.Chemscore.Fitness>
9.7790

> <Gold.Chemscore.DG>
-15.2029

> <Gold.Chemscore.ZeroCoef>
-5.4800

> <Gold.Chemscore.Hbond>
1.7374

> <Gold.Chemscore.Metal>
0.0000

> <Gold.Chemscore.Lipo>
74.6179

> <Gold.Chemscore.Internal_Hbond>
0.0000

> <Gold.Chemscore.DEClash>
2.4198

> <Gold.Chemscore.DEInternal>
3.0041

> <Gold.Chemscore.Rot>
1.8790

> <Gold.Chemscore.Internal.Correction>
   9.000000E+99

> <Gold.Chemscore.Hbonds>
donor molecule, donor type, donor heavy atom, donor atom, acceptor molecule, acceptor atom, score
      L1  H    12    38       P1 10175  1.00
      P1  H  7989  7998       L1     9  0.12

> <Gold.Chemscore.Hbond.Weighted>
-5.8028

> <Gold.Chemscore.Metal.Weighted>
-0.0000

> <Gold.Chemscore.Lipo.Weighted>
-8.7303

> <Gold.Chemscore.Internal_Hbond.Weighted>
0.0000

> <Gold.Chemscore.DEClash.Weighted>
2.4198

> <Gold.Chemscore.DEInternal.Weighted>
3.0041

> <Gold.Chemscore.Rot.Weighted>
4.8102

> <Gold.Chemscore.Internal.Correction.Weighted>
   9.000000E+99

> <Gold.Protein.RotatedTorsions>
[ 6907 6896 6895 6894 ] final -128.77 input  -60.11 | X-H torsion
[ 7974 7965 7964 7962 ] final   84.31 input  175.53 | X-H torsion
[ 8008 7997 7996 7995 ] final   24.98 input   59.86 | X-H torsion
[ 10167 10162 10161 10158 ] final -114.67 input  -65.29 | X-H torsion
[ 10718 10713 10712 10709 ] final   57.12 input   66.30 | X-H torsion
[ 10763 10752 10751 10750 ] final   97.88 input  -60.55 | X-H torsion
[ 11005 11000 10999 10996 ] final  -84.85 input  -57.11 | X-H torsion

> <Gold.Protein.ActiveResidues>
 VAL166  LYS551  ARG553  GLY616  TRP617  ASP618  TYR619  PRO620  LYS621  CYS622 
 ASP623  PHE694  ASN695  SER759  ASP760  ASP761  ALA762  ILE779  LEU786  VAL792 
 PHE793  MET794  SER795  GLU796  ALA797  LYS798  CYS799  TRP800  GLU811  SER814 

> <Gold.Protein.RotatedAtoms>
  150.9214  133.6875  159.2830 H   0  0  0  0  0  0  0  0  0  0  0  0  # atno 6907 bound_to 6896
  151.4329  135.1010  159.9657 H   0  0  0  0  0  0  0  0  0  0  0  0  # atno 6908 bound_to 6896
  152.4981  133.8640  159.7320 H   0  0  0  0  0  0  0  0  0  0  0  0  # atno 6909 bound_to 6896
  145.6005  139.2351  143.2249 H   0  0  0  0  0  0  0  0  0  0  0  0  # atno 7974 bound_to 7965
  155.0047  140.3129  155.4853 H   0  0  0  0  0  0  0  0  0  0  0  0  # atno 8008 bound_to 7997
  156.2919  140.2225  156.5099 H   0  0  0  0  0  0  0  0  0  0  0  0  # atno 8009 bound_to 7997
  154.7587  140.0460  157.0943 H   0  0  0  0  0  0  0  0  0  0  0  0  # atno 8010 bound_to 7997
  140.0984  143.4635  152.1827 H   0  0  0  0  0  0  0  0  0  0  0  0  # atno 10167 bound_to 10162
  157.5488  130.8750  149.8932 H   0  0  0  0  0  0  0  0  0  0  0  0  # atno 10718 bound_to 10713
  153.2823  135.4168  155.1090 H   0  0  0  0  0  0  0  0  0  0  0  0  # atno 10763 bound_to 10752
  154.8493  135.3498  154.6095 H   0  0  0  0  0  0  0  0  0  0  0  0  # atno 10764 bound_to 10752
  153.6516  135.7052  153.5265 H   0  0  0  0  0  0  0  0  0  0  0  0  # atno 10765 bound_to 10752
  141.1647  133.7368  156.8928 H   0  0  0  0  0  0  0  0  0  0  0  0  # atno 11005 bound_to 11000
  146.1580  140.6830  142.9291 LP  0  0  0  0  0  0  0  0  0  0  0  0  # atno 17320 bound_to 7965
  144.7312  140.4677  143.6936 LP  0  0  0  0  0  0  0  0  0  0  0  0  # atno 17321 bound_to 7965
  139.5685  144.7449  151.3956 LP  0  0  0  0  0  0  0  0  0  0  0  0  # atno 17342 bound_to 10162
  140.6991  143.7676  150.7374 LP  0  0  0  0  0  0  0  0  0  0  0  0  # atno 17343 bound_to 10162
  156.0559  130.3708  150.1093 LP  0  0  0  0  0  0  0  0  0  0  0  0  # atno 17370 bound_to 10713
  156.9267  130.9700  151.3539 LP  0  0  0  0  0  0  0  0  0  0  0  0  # atno 17371 bound_to 10713
  140.1636  134.9148  157.2746 LP  0  0  0  0  0  0  0  0  0  0  0  0  # atno 17394 bound_to 11000
  140.2582  134.3602  155.7416 LP  0  0  0  0  0  0  0  0  0  0  0  0  # atno 17395 bound_to 11000

$$$$
