#       Name:                AV-unprocessed.smi:1640
#       Creating user name   scv26
#       Creation time:       Fri Mar 27 07:23:58 2020


#       File generated by GOLD software.
#

@<TRIPOS>MOLECULE
AV-unprocessed.smi:1640
    51    52     1
SMALL
NO_CHARGES


@<TRIPOS>ATOM
      1 ****        -4.4276   0.7462   0.7516 C.3            1 S1                 0.0000
      2 ****        -4.0259   0.6490   2.2331 C.3            1 S1                 0.0000
      3 ****        -4.6629   1.7932   3.0363 C.3            1 S1                 0.0000
      4 ****        -2.4962   0.6323   2.4269 C.3            1 S1                 0.0000
      5 ****        -1.8108  -0.6268   1.8681 C.3            1 S1                 0.0000
      6 ****         0.0075  -0.6181   2.1816 S.o2           1 S1                 0.0000
      7 ****         0.1986  -0.1077   3.5490 O.2            1 S1                 0.0000
      8 ****         0.4615  -1.9907   1.9047 O.2            1 S1                 0.0000
      9 ****         0.4994   0.4338   1.0514 N.pl3          1 S1                -1.0000
     10 ****         1.9172   0.7110   0.9076 C.3            1 S1                 0.0000
     11 ****         2.2470   1.2602  -0.4889 C.ar           1 S1                 0.0000
     12 ****         2.4397   2.6560  -0.6300 C.ar           1 S1                 0.0000
     13 ****         2.7599   3.1926  -1.8898 C.ar           1 S1                 0.0000
     14 ****         2.8783   2.3124  -2.9774 C.ar           1 S1                 0.0000
     15 ****         2.6969   0.9818  -2.8713 N.ar           1 S1                 0.0000
     16 ****         2.3867   0.4481  -1.6627 C.ar           1 S1                 0.0000
     17 ****         2.1874  -0.9497  -1.6542 N.3            1 S1                 0.0000
     18 ****         0.8388  -1.3472  -2.0373 C.3            1 S1                 0.0000
     19 ****         0.6423  -2.8481  -1.7658 C.3            1 S1                 0.0000
     20 ****         1.6463  -3.5932  -2.4510 O.3            1 S1                 0.0000
     21 ****         2.9596  -3.2461  -2.0188 C.3            1 S1                 0.0000
     22 ****         3.2179  -1.7554  -2.2982 C.3            1 S1                 0.0000
     23 ****        -4.0070   1.6377   0.2856 H              1 S1                 0.0000
     24 ****        -5.5113   0.7949   0.6426 H              1 S1                 0.0000
     25 ****        -4.0881  -0.1195   0.1837 H              1 S1                 0.0000
     26 ****        -4.4268  -0.2849   2.6291 H              1 S1                 0.0000
     27 ****        -4.3127   2.7650   2.6868 H              1 S1                 0.0000
     28 ****        -4.4203   1.7136   4.0963 H              1 S1                 0.0000
     29 ****        -5.7496   1.7790   2.9483 H              1 S1                 0.0000
     30 ****        -2.0582   1.5221   1.9730 H              1 S1                 0.0000
     31 ****        -2.2787   0.7002   3.4931 H              1 S1                 0.0000
     32 ****        -2.2187  -1.5140   2.3519 H              1 S1                 0.0000
     33 ****        -1.9641  -0.7391   0.7954 H              1 S1                 0.0000
     34 ****         2.2639   1.4210   1.6591 H              1 S1                 0.0000
     35 ****         2.5255  -0.1817   1.0570 H              1 S1                 0.0000
     36 ****         2.3492   3.3316   0.2102 H              1 S1                 0.0000
     37 ****         2.9113   4.2541  -2.0171 H              1 S1                 0.0000
     38 ****         3.1239   2.6861  -3.9604 H              1 S1                 0.0000
     39 ****         0.0999  -0.7675  -1.4837 H              1 S1                 0.0000
     40 ****         0.6854  -1.1345  -3.0960 H              1 S1                 0.0000
     41 ****         0.6857  -3.0576  -0.6959 H              1 S1                 0.0000
     42 ****        -0.3400  -3.1678  -2.1136 H              1 S1                 0.0000
     43 ****         3.0742  -3.4680  -0.9565 H              1 S1                 0.0000
     44 ****         3.6845  -3.8600  -2.5534 H              1 S1                 0.0000
     45 ****         3.2119  -1.5765  -3.3743 H              1 S1                 0.0000
     46 ****         4.2007  -1.4661  -1.9244 H              1 S1                 0.0000
     47 ****        -0.1667   0.8872   0.4591 LP             1 S1                 0.0000
     48 ****         2.7898   0.3935  -3.6746 LP             1 S1                 0.0000
     49 ****         2.2930  -1.1741  -0.6855 LP             1 S1                 0.0000
     50 ****         1.5706  -3.4109  -3.4314 LP             1 S1                 0.0000
     51 ****         1.4976  -4.5674  -2.2808 LP             1 S1                 0.0000
@<TRIPOS>BOND
    1    1    2 1     
    2    1   23 1     
    3    1   24 1     
    4    1   25 1     
    5    2    3 1     
    6    2    4 1     
    7    2   26 1     
    8    3   27 1     
    9    3   28 1     
   10    3   29 1     
   11    4    5 1     
   12    4   30 1     
   13    4   31 1     
   14    5    6 1     
   15    5   32 1     
   16    5   33 1     
   17    6    7 2     
   18    6    8 2     
   19    6    9 1     
   20    9   10 1     
   21   10   11 1     
   22   10   34 1     
   23   10   35 1     
   24   11   16 ar    
   25   11   12 ar    
   26   12   13 ar    
   27   12   36 1     
   28   13   14 ar    
   29   13   37 1     
   30   14   15 ar    
   31   14   38 1     
   32   15   16 ar    
   33   16   17 1     
   34   17   22 1     
   35   17   18 1     
   36   18   19 1     
   37   18   39 1     
   38   18   40 1     
   39   19   20 1     
   40   19   41 1     
   41   19   42 1     
   42   20   21 1     
   43   21   22 1     
   44   21   43 1     
   45   21   44 1     
   46   22   45 1     
   47   22   46 1     
   48    9   47 1     
   49   15   48 1     
   50   17   49 1     
   51   20   50 1     
   52   20   51 1     
@<TRIPOS>SUBSTRUCTURE
      1 S1             1
@<TRIPOS>SET
LONE_PAIRS      STATIC     ATOMS    <user>   **** ""
7 7 8 47 48 49 50 51
ATOM$BLUE        STATIC     ATOMS    COLORGROUP SYSTEM
7 7 8 47 48 49 50 51
