#       Name:                AV-unprocessed.smi:1774
#       Creating user name   scv26
#       Creation time:       Fri Mar 27 08:40:34 2020


#       File generated by GOLD software.
#

@<TRIPOS>MOLECULE
AV-unprocessed.smi:1774
    51    52     1
SMALL
NO_CHARGES


@<TRIPOS>ATOM
      1 ****        -3.3221   4.9733  -1.1995 C.3            1 S1                 0.0000
      2 ****        -3.0120   4.8897   0.2863 C.ar           1 S1                 0.0000
      3 ****        -3.3597   5.9694   1.1258 C.ar           1 S1                 0.0000
      4 ****        -3.0751   5.8892   2.4996 C.ar           1 S1                 0.0000
      5 ****        -2.4519   4.7245   2.9790 C.ar           1 S1                 0.0000
      6 ****        -2.1162   3.6881   2.1842 N.ar           1 S1                 0.0000
      7 ****        -2.3843   3.7493   0.8556 C.ar           1 S1                 0.0000
      8 ****        -2.0536   2.6954  -0.0427 N.am           1 S1                 0.0000
      9 ****        -1.5290   1.4898   0.2402 C.2            1 S1                 0.0000
     10 ****        -1.2586   1.0738   1.3672 O.2            1 S1                 0.0000
     11 ****        -1.3350   0.7697  -0.8744 N.am           1 S1                 0.0000
     12 ****        -0.8131  -0.5919  -0.9069 C.3            1 S1                 0.0000
     13 ****         0.7074  -0.6286  -0.6554 C.3            1 S1                 0.0000
     14 ****         1.2645  -2.0012  -0.7456 N.4            1 S1                 1.0000
     15 ****         2.7287  -2.0012  -0.9752 C.3            1 S1                 0.0000
     16 ****         3.2526  -3.4417  -1.1286 C.3            1 S1                 0.0000
     17 ****         4.7755  -3.4905  -1.2914 C.3            1 S1                 0.0000
     18 ****         2.9068  -4.1877   0.0331 O.3            1 S1                 0.0000
     19 ****         1.4997  -4.2759   0.2278 C.3            1 S1                 0.0000
     20 ****         1.2397  -5.1734   1.4427 C.3            1 S1                 0.0000
     21 ****         0.9270  -2.8585   0.4178 C.3            1 S1                 0.0000
     22 ****        -3.7983   5.9209  -1.4534 H              1 S1                 0.0000
     23 ****        -3.9980   4.1695  -1.4929 H              1 S1                 0.0000
     24 ****        -2.4071   4.8902  -1.7867 H              1 S1                 0.0000
     25 ****        -3.8390   6.8505   0.7250 H              1 S1                 0.0000
     26 ****        -3.3279   6.6989   3.1679 H              1 S1                 0.0000
     27 ****        -2.2160   4.6215   4.0277 H              1 S1                 0.0000
     28 ****        -2.2448   2.8839  -1.0155 H              1 S1                 0.0000
     29 ****        -1.5848   1.1852  -1.7601 H              1 S1                 0.0000
     30 ****        -1.3542  -1.1929  -0.1759 H              1 S1                 0.0000
     31 ****        -1.0378  -1.0163  -1.8858 H              1 S1                 0.0000
     32 ****         1.1895   0.0011  -1.4048 H              1 S1                 0.0000
     33 ****         0.9586  -0.1992   0.3157 H              1 S1                 0.0000
     34 ****         2.9601  -1.4297  -1.8750 H              1 S1                 0.0000
     35 ****         3.2277  -1.5030  -0.1419 H              1 S1                 0.0000
     36 ****         2.7956  -3.9071  -2.0037 H              1 S1                 0.0000
     37 ****         5.0953  -2.9337  -2.1725 H              1 S1                 0.0000
     38 ****         5.1214  -4.5183  -1.4047 H              1 S1                 0.0000
     39 ****         5.2798  -3.0640  -0.4240 H              1 S1                 0.0000
     40 ****         1.0453  -4.7413  -0.6490 H              1 S1                 0.0000
     41 ****         0.1711  -5.2812   1.6301 H              1 S1                 0.0000
     42 ****         1.6981  -4.7631   2.3429 H              1 S1                 0.0000
     43 ****         1.6506  -6.1709   1.2849 H              1 S1                 0.0000
     44 ****         1.3262  -2.4098   1.3292 H              1 S1                 0.0000
     45 ****        -0.1532  -2.9238   0.5417 H              1 S1                 0.0000
     46 ****         0.8495  -2.4288  -1.5610 H              1 S1                 0.0000
     47 ****        -1.6726   2.8798   2.5715 LP             1 S1                 0.0000
     48 ****        -1.4281   1.6499   2.1669 LP             1 S1                 0.0000
     49 ****        -0.8695   0.1599   1.4829 LP             1 S1                 0.0000
     50 ****         3.3135  -3.7439   0.8317 LP             1 S1                 0.0000
     51 ****         3.2761  -5.1125  -0.0583 LP             1 S1                 0.0000
@<TRIPOS>BOND
    1    1    2 1     
    2    1   22 1     
    3    1   23 1     
    4    1   24 1     
    5    2    7 ar    
    6    2    3 ar    
    7    3    4 ar    
    8    3   25 1     
    9    4    5 ar    
   10    4   26 1     
   11    5    6 ar    
   12    5   27 1     
   13    6    7 ar    
   14    7    8 1     
   15    8    9 am    
   16    8   28 1     
   17    9   10 2     
   18    9   11 am    
   19   11   12 1     
   20   11   29 1     
   21   12   13 1     
   22   12   30 1     
   23   12   31 1     
   24   13   14 1     
   25   13   32 1     
   26   13   33 1     
   27   14   21 1     
   28   14   15 1     
   29   14   46 1     
   30   15   16 1     
   31   15   34 1     
   32   15   35 1     
   33   16   17 1     
   34   16   18 1     
   35   16   36 1     
   36   17   37 1     
   37   17   38 1     
   38   17   39 1     
   39   18   19 1     
   40   19   20 1     
   41   19   21 1     
   42   19   40 1     
   43   20   41 1     
   44   20   42 1     
   45   20   43 1     
   46   21   44 1     
   47   21   45 1     
   48    6   47 1     
   49   10   48 1     
   50   10   49 1     
   51   18   50 1     
   52   18   51 1     
@<TRIPOS>SUBSTRUCTURE
      1 S1             1
@<TRIPOS>SET
LONE_PAIRS      STATIC     ATOMS    <user>   **** ""
5 47 48 49 50 51
DONOR_HYDROGENS      STATIC     ATOMS    <user>   **** ""
3 28 29 46
ATOM$BLUE        STATIC     ATOMS    COLORGROUP SYSTEM
5 47 48 49 50 51
ATOM$RED        STATIC     ATOMS    COLORGROUP SYSTEM
3 28 29 46
