AV-unprocessed.smi:1239|AV-procd|sdf|5194|dock6
  -GOLD-   22720 4283D 1   1.00000     0.00000
 Structure written by MMmdl.
 48 49  0  0  0  0  0  0  0  0  4 V2000
  147.9720  135.9503  156.8366 C   0  0  0  0  0  0  0  0  0  0  0  0
  148.4329  136.3686  155.4178 C   0  0  1  0  0  0  0  0  0  0  0  0
  149.9296  136.7739  155.3225 C   0  0  0  0  0  0  0  0  0  0  0  0
  150.1385  137.8969  154.4018 N   0  5  0  0  0  0  0  0  0  0  0  0
  150.2017  139.2064  154.7653 C   0  0  0  0  0  0  0  0  0  0  0  0
  149.9017  140.1900  154.0791 O   0  0  0  0  0  0  0  0  0  0  0  0
  150.6977  139.3646  156.0051 N   0  0  0  0  0  0  0  0  0  0  0  0
  150.8844  140.5562  156.7569 C   0  0  0  0  0  0  0  0  0  0  0  0
  151.4702  140.4411  158.0340 C   0  0  0  0  0  0  0  0  0  0  0  0
  151.6576  141.5917  158.8270 C   0  0  0  0  0  0  0  0  0  0  0  0
  151.2453  142.8570  158.3413 C   0  0  0  0  0  0  0  0  0  0  0  0
  151.3970  144.0538  159.0747 N   0  0  0  0  0  0  0  0  0  0  0  0
  150.8994  145.3088  158.5220 C   0  0  0  0  0  0  0  0  0  0  0  0
  151.9220  144.0073  160.4330 C   0  0  0  0  0  0  0  0  0  0  0  0
  150.6742  142.9149  157.1134 N   0  3  0  0  0  0  0  0  0  0  0  0
  150.4763  141.8390  156.3216 C   0  0  0  0  0  0  0  0  0  0  0  0
  148.0636  135.4028  154.3342 N   0  3  0  0  0  0  0  0  0  0  0  0
  148.6539  134.0397  154.4182 C   0  0  0  0  0  0  0  0  0  0  0  0
  148.3433  133.2575  153.1333 C   0  0  0  0  0  0  0  0  0  0  0  0
  146.9339  133.1867  152.9541 O   0  0  0  0  0  0  0  0  0  0  0  0
  146.3488  134.4753  152.8074 C   0  0  0  0  0  0  0  0  0  0  0  0
  146.6071  135.3160  154.0696 C   0  0  0  0  0  0  0  0  0  0  0  0
  148.1517  136.7407  157.5677 H   0  0  0  0  0  0  0  0  0  0  0  0
  148.4768  135.0538  157.2004 H   0  0  0  0  0  0  0  0  0  0  0  0
  146.8996  135.7537  156.8521 H   0  0  0  0  0  0  0  0  0  0  0  0
  147.8929  137.2942  155.2135 H   0  0  0  0  0  0  0  0  0  0  0  0
  150.2936  136.9976  156.3267 H   0  0  0  0  0  0  0  0  0  0  0  0
  150.5042  135.9037  155.0051 H   0  0  0  0  0  0  0  0  0  0  0  0
  151.0108  138.5154  156.4532 H   0  0  0  0  0  0  0  0  0  0  0  0
  151.7808  139.4756  158.4064 H   0  0  0  0  0  0  0  0  0  0  0  0
  152.1150  141.4819  159.7985 H   0  0  0  0  0  0  0  0  0  0  0  0
  149.8218  145.2559  158.3635 H   0  0  0  0  0  0  0  0  0  0  0  0
  151.3807  145.5259  157.5677 H   0  0  0  0  0  0  0  0  0  0  0  0
  151.0988  146.1451  159.1924 H   0  0  0  0  0  0  0  0  0  0  0  0
  152.9358  143.6060  160.4394 H   0  0  0  0  0  0  0  0  0  0  0  0
  151.2931  143.3793  161.0651 H   0  0  0  0  0  0  0  0  0  0  0  0
  151.9557  145.0014  160.8788 H   0  0  0  0  0  0  0  0  0  0  0  0
  149.9873  142.0509  155.3828 H   0  0  0  0  0  0  0  0  0  0  0  0
  149.7339  134.0981  154.5523 H   0  0  0  0  0  0  0  0  0  0  0  0
  148.2485  133.5032  155.2768 H   0  0  0  0  0  0  0  0  0  0  0  0
  148.8130  133.7275  152.2675 H   0  0  0  0  0  0  0  0  0  0  0  0
  148.7423  132.2454  153.2033 H   0  0  0  0  0  0  0  0  0  0  0  0
  146.7534  134.9704  151.9232 H   0  0  0  0  0  0  0  0  0  0  0  0
  145.2771  134.3604  152.6456 H   0  0  0  0  0  0  0  0  0  0  0  0
  146.1033  134.8762  154.9317 H   0  0  0  0  0  0  0  0  0  0  0  0
  146.1927  136.3147  153.9256 H   0  0  0  0  0  0  0  0  0  0  0  0
  150.3692  143.8246  156.7672 H   0  0  0  0  0  0  0  0  0  0  0  0
  148.4600  135.8141  153.5000 H   0  0  0  0  0  0  0  0  0  0  0  0
  1  2  1  0  0  0  0
  1 23  1  0  0  0  0
  1 24  1  0  0  0  0
  1 25  1  0  0  0  0
  2  3  1  0  0  0  0
  2 17  1  0  0  0  0
  2 26  1  0  0  0  0
  3  4  1  0  0  0  0
  3 27  1  0  0  0  0
  3 28  1  0  0  0  0
  4  5  1  0  0  0  0
  5  6  2  0  0  0  0
  5  7  1  0  0  0  0
  7  8  1  0  0  0  0
  7 29  1  0  0  0  0
  8 16  1  0  0  0  0
  8  9  2  0  0  0  0
  9 10  1  0  0  0  0
  9 30  1  0  0  0  0
 10 11  2  0  0  0  0
 10 31  1  0  0  0  0
 11 12  1  0  0  0  0
 11 15  1  0  0  0  0
 12 13  1  0  0  0  0
 12 14  1  0  0  0  0
 13 32  1  0  0  0  0
 13 33  1  0  0  0  0
 13 34  1  0  0  0  0
 14 35  1  0  0  0  0
 14 36  1  0  0  0  0
 14 37  1  0  0  0  0
 15 16  2  0  0  0  0
 15 47  1  0  0  0  0
 16 38  1  0  0  0  0
 17 22  1  0  0  0  0
 17 18  1  0  0  0  0
 17 48  1  0  0  0  0
 18 19  1  0  0  0  0
 18 39  1  0  0  0  0
 18 40  1  0  0  0  0
 19 20  1  0  0  0  0
 19 41  1  0  0  0  0
 19 42  1  0  0  0  0
 20 21  1  0  0  0  0
 21 22  1  0  0  0  0
 21 43  1  0  0  0  0
 21 44  1  0  0  0  0
 22 45  1  0  0  0  0
 22 46  1  0  0  0  0
M  CHG  1   4  -1
M  CHG  1  15   1
M  CHG  1  17   1
M  END
> <s_m_source_file>
AV-unprocessed.smi

> <i_m_source_file_index>
1239

> <i_lp_mmshare_version>
43012

> <i_f3d_flags>
0

> <s_epik_input>
W0NIMl0xW0NIMl1PW0NIMl1bQ0gyXU4xW0NASF0oW0NIM10pW0NIMl1bTkhdQyg9TylbTkhdYzJbY0hdW2NIXWMoTihbQ0gzXSlbQ0gzXSluW2NIXTI=

> <s_epik_cmdline>
J2VwaWtfcHl0aG9uJywgJy1waCcsICc3LjAnLCAnLXRuJywgJzgnLCAnLW1hJywgJzIwMCcsICctbWV0YWxfYmluZGluZycsICctaW1hZScsICc8aW5maWxlLm1hZT4nLCAnLW9tYWUnLCAnPG91dGZpbGUubWFlPic=

> <r_lp_tautomer_probability>
0.999994

> <r_epik_Ionization_Penalty>
7.43905

> <r_epik_Ionization_Penalty_Charging>
7.43905

> <r_epik_Ionization_Penalty_Neutral>
3.43851e-06

> <r_epik_State_Penalty>
7.63789

> <r_epik_Charging_Adjusted_Penalty>
15.0769

> <i_epik_Tot_Q>
1

> <i_epik_Tot_abs_Q>
3

> <r_epik_Metal_State_Penalty>
3.83826

> <b_epik_Metal_Only>
1

> <s_lp_Force_Field>
OPLS_2005

> <r_lp_Energy>
25.3923

> <b_lp_Chiralities_Consistent>
1

> <s_lp_Variant>
AV-unprocessed.smi:1239-10

> <Gold.Version>
5.8.1

> <Gold.Id.Protein>
6NUR|6NUR_protein|mol2

> <Gold.PLP.Fitness>
49.3381

> <Gold.PLP.PLP>
-37.1427

> <Gold.PLP.part.hbond>
-3.0000

> <Gold.PLP.part.metal>
0.0000

> <Gold.PLP.part.buried>
-6.6973

> <Gold.PLP.part.nonpolar>
-29.4848

> <Gold.PLP.part.repulsive>
1.7114

> <Gold.PLP.ligand.clash>
0.0000

> <Gold.PLP.ligand.torsion>
0.8938

> <Gold.PLP.Chemscore.Hbond>
4.5709

> <Gold.PLP.Chemscore.CHOScore>
0.0000

> <Gold.PLP.Chemscore.Metal>
0.0000

> <Gold.Chemscore.Hbonds>
donor molecule, donor type, donor heavy atom, donor atom, acceptor molecule, acceptor atom, score
      L1  H    15    47       P1  8028  1.68
      L1  H    17    48       P1  7948  2.00
      P1  H  7989  7998       L1     6  0.85

> <Gold.PLP.Chemscore.Internal.Correction>
0.2702

> <Gold.Rescore>
     Score         DG    S(hbond)    S(metal)    S(lipo)     H(rot)  DE(clash)    DE(int)     intcor
     14.96     -17.53       1.95        0.00      79.82       1.48       0.49       2.08       ----

> <Gold.Chemscore.Fitness>
14.9554

> <Gold.Chemscore.DG>
-17.5291

> <Gold.Chemscore.ZeroCoef>
-5.4800

> <Gold.Chemscore.Hbond>
1.9481

> <Gold.Chemscore.Metal>
0.0000

> <Gold.Chemscore.Lipo>
79.8198

> <Gold.Chemscore.Internal_Hbond>
0.0000

> <Gold.Chemscore.DEClash>
0.4888

> <Gold.Chemscore.DEInternal>
2.0849

> <Gold.Chemscore.Rot>
1.4830

> <Gold.Chemscore.Internal.Correction>
   9.000000E+99

> <Gold.Chemscore.Hbonds>
donor molecule, donor type, donor heavy atom, donor atom, acceptor molecule, acceptor atom, score
      L1  H    15    47       P1  8028  0.77
      L1  H    17    48       P1  7948  1.00
      P1  H  7989  7998       L1     6  0.37

> <Gold.Chemscore.Hbond.Weighted>
-6.5065

> <Gold.Chemscore.Metal.Weighted>
-0.0000

> <Gold.Chemscore.Lipo.Weighted>
-9.3389

> <Gold.Chemscore.Internal_Hbond.Weighted>
0.0000

> <Gold.Chemscore.DEClash.Weighted>
0.4888

> <Gold.Chemscore.DEInternal.Weighted>
2.0849

> <Gold.Chemscore.Rot.Weighted>
3.7964

> <Gold.Chemscore.Internal.Correction.Weighted>
   9.000000E+99

> <Gold.Protein.RotatedTorsions>
[ 6907 6896 6895 6894 ] final   29.23 input  -60.11 | X-H torsion
[ 7974 7965 7964 7962 ] final   85.29 input  175.53 | X-H torsion
[ 8008 7997 7996 7995 ] final -147.50 input   59.86 | X-H torsion
[ 10167 10162 10161 10158 ] final   78.42 input  -65.29 | X-H torsion
[ 10718 10713 10712 10709 ] final   60.85 input   66.30 | X-H torsion
[ 10763 10752 10751 10750 ] final  141.02 input  -60.55 | X-H torsion
[ 11005 11000 10999 10996 ] final -104.35 input  -57.11 | X-H torsion

> <Gold.Protein.ActiveResidues>
 VAL166  LYS551  ARG553  GLY616  TRP617  ASP618  TYR619  PRO620  LYS621  CYS622 
 ASP623  PHE694  ASN695  SER759  ASP760  ASP761  ALA762  ILE779  LEU786  VAL792 
 PHE793  MET794  SER795  GLU796  ALA797  LYS798  CYS799  TRP800  GLU811  SER814 

> <Gold.Protein.RotatedAtoms>
  152.0284  134.9782  160.0571 H   0  0  0  0  0  0  0  0  0  0  0  0  # atno 6907 bound_to 6896
  152.1268  133.4380  159.4710 H   0  0  0  0  0  0  0  0  0  0  0  0  # atno 6908 bound_to 6896
  150.6853  134.2387  159.4507 H   0  0  0  0  0  0  0  0  0  0  0  0  # atno 6909 bound_to 6896
  145.5875  139.2333  143.2318 H   0  0  0  0  0  0  0  0  0  0  0  0  # atno 7974 bound_to 7965
  155.5765  140.0639  157.2794 H   0  0  0  0  0  0  0  0  0  0  0  0  # atno 8008 bound_to 7997
  154.4345  140.1859  156.0979 H   0  0  0  0  0  0  0  0  0  0  0  0  # atno 8009 bound_to 7997
  156.0337  140.3303  155.7171 H   0  0  0  0  0  0  0  0  0  0  0  0  # atno 8010 bound_to 7997
  139.9711  144.5894  150.7985 H   0  0  0  0  0  0  0  0  0  0  0  0  # atno 10167 bound_to 10162
  157.5784  130.8962  149.9387 H   0  0  0  0  0  0  0  0  0  0  0  0  # atno 10718 bound_to 10713
  153.9323  135.2989  155.3445 H   0  0  0  0  0  0  0  0  0  0  0  0  # atno 10763 bound_to 10752
  154.7520  135.4975  153.9310 H   0  0  0  0  0  0  0  0  0  0  0  0  # atno 10764 bound_to 10752
  153.1085  135.6753  153.9647 H   0  0  0  0  0  0  0  0  0  0  0  0  # atno 10765 bound_to 10752
  141.1104  133.8716  157.1600 H   0  0  0  0  0  0  0  0  0  0  0  0  # atno 11005 bound_to 11000
  146.1671  140.6702  142.9250 LP  0  0  0  0  0  0  0  0  0  0  0  0  # atno 17320 bound_to 7965
  144.7366  140.4825  143.6899 LP  0  0  0  0  0  0  0  0  0  0  0  0  # atno 17321 bound_to 7965
  140.7522  143.2985  151.3141 LP  0  0  0  0  0  0  0  0  0  0  0  0  # atno 17342 bound_to 10162
  139.6481  144.0414  152.2606 LP  0  0  0  0  0  0  0  0  0  0  0  0  # atno 17343 bound_to 10162
  156.0829  130.3671  150.0545 LP  0  0  0  0  0  0  0  0  0  0  0  0  # atno 17370 bound_to 10713
  156.8688  130.9517  151.3611 LP  0  0  0  0  0  0  0  0  0  0  0  0  # atno 17371 bound_to 10713
  139.9995  135.0033  157.0158 LP  0  0  0  0  0  0  0  0  0  0  0  0  # atno 17394 bound_to 11000
  140.4790  134.1309  155.7214 LP  0  0  0  0  0  0  0  0  0  0  0  0  # atno 17395 bound_to 11000

$$$$
