AV-unprocessed.smi:1522|AV-procd|sdf|6135|dock4
  -GOLD-   22720 6273D 1   1.00000     0.00000
 Structure written by MMmdl.
 35 36  0  0  0  0  0  0  0  0  2 V2000
  144.0231  135.2460  151.2234 C   0  0  0  0  0  0  0  0  0  0  0  0
  145.4456  135.8457  151.2986 C   0  0  1  0  0  0  0  0  0  0  0  0
  145.4658  137.1081  152.1938 C   0  0  0  0  0  0  0  0  0  0  0  0
  146.8253  137.5289  152.5188 N   0  0  0  0  0  0  0  0  0  0  0  0
  147.1362  138.5423  153.3393 C   0  0  0  0  0  0  0  0  0  0  0  0
  146.2930  139.2235  153.9228 O   0  0  0  0  0  0  0  0  0  0  0  0
  148.4679  138.7054  153.4310 N   0  0  0  0  0  0  0  0  0  0  0  0
  149.1850  139.6818  154.1725 C   0  0  0  0  0  0  0  0  0  0  0  0
  150.4525  139.5209  154.5841 N   0  0  0  0  0  0  0  0  0  0  0  0
  150.9131  140.6240  155.2911 N   0  0  0  0  0  0  0  0  0  0  0  0
  149.9763  141.5717  155.3853 C   0  0  0  0  0  0  0  0  0  0  0  0
  148.4390  141.2095  154.6195 S   0  0  0  0  0  0  0  0  0  0  0  0
  146.4271  134.8303  151.7825 N   0  3  0  0  0  0  0  0  0  0  0  0
  146.3323  134.4943  153.2199 C   0  0  0  0  0  0  0  0  0  0  0  0
  147.0527  133.1552  153.3926 C   0  0  0  0  0  0  0  0  0  0  0  0
  147.0836  132.5239  151.9986 C   0  0  0  0  0  0  0  0  0  0  0  0
  146.3921  133.5309  151.0763 C   0  0  0  0  0  0  0  0  0  0  0  0
  143.2917  135.9763  150.8772 H   0  0  0  0  0  0  0  0  0  0  0  0
  143.6933  134.8894  152.1998 H   0  0  0  0  0  0  0  0  0  0  0  0
  143.9680  134.4104  150.5259 H   0  0  0  0  0  0  0  0  0  0  0  0
  145.7397  136.1399  150.2897 H   0  0  0  0  0  0  0  0  0  0  0  0
  144.9231  137.9129  151.6944 H   0  0  0  0  0  0  0  0  0  0  0  0
  144.9594  136.9263  153.1418 H   0  0  0  0  0  0  0  0  0  0  0  0
  147.5801  137.0163  152.0866 H   0  0  0  0  0  0  0  0  0  0  0  0
  149.0372  138.0621  152.9012 H   0  0  0  0  0  0  0  0  0  0  0  0
  150.1924  142.4908  155.9094 H   0  0  0  0  0  0  0  0  0  0  0  0
  146.7696  135.2694  153.8500 H   0  0  0  0  0  0  0  0  0  0  0  0
  145.2833  134.3828  153.4996 H   0  0  0  0  0  0  0  0  0  0  0  0
  148.0714  133.3163  153.7477 H   0  0  0  0  0  0  0  0  0  0  0  0
  146.5478  132.5201  154.1212 H   0  0  0  0  0  0  0  0  0  0  0  0
  148.1169  132.3690  151.6852 H   0  0  0  0  0  0  0  0  0  0  0  0
  146.5848  131.5545  151.9755 H   0  0  0  0  0  0  0  0  0  0  0  0
  145.3551  133.2295  150.9194 H   0  0  0  0  0  0  0  0  0  0  0  0
  146.8800  133.5829  150.1024 H   0  0  0  0  0  0  0  0  0  0  0  0
  147.3526  135.2087  151.6382 H   0  0  0  0  0  0  0  0  0  0  0  0
  1  2  1  0  0  0  0
  1 18  1  0  0  0  0
  1 19  1  0  0  0  0
  1 20  1  0  0  0  0
  2  3  1  0  0  0  0
  2 13  1  0  0  0  0
  2 21  1  0  0  0  0
  3  4  1  0  0  0  0
  3 22  1  0  0  0  0
  3 23  1  0  0  0  0
  4  5  1  0  0  0  0
  4 24  1  0  0  0  0
  5  6  2  0  0  0  0
  5  7  1  0  0  0  0
  7  8  1  0  0  0  0
  7 25  1  0  0  0  0
  8 12  1  0  0  0  0
  8  9  2  0  0  0  0
  9 10  1  0  0  0  0
 10 11  2  0  0  0  0
 11 12  1  0  0  0  0
 11 26  1  0  0  0  0
 13 17  1  0  0  0  0
 13 14  1  0  0  0  0
 13 35  1  0  0  0  0
 14 15  1  0  0  0  0
 14 27  1  0  0  0  0
 14 28  1  0  0  0  0
 15 16  1  0  0  0  0
 15 29  1  0  0  0  0
 15 30  1  0  0  0  0
 16 17  1  0  0  0  0
 16 31  1  0  0  0  0
 16 32  1  0  0  0  0
 17 33  1  0  0  0  0
 17 34  1  0  0  0  0
M  CHG  1  13   1
M  END
> <s_m_source_file>
AV-unprocessed.smi

> <i_m_source_file_index>
1522

> <i_lp_mmshare_version>
43012

> <i_f3d_flags>
0

> <s_epik_input>
W0NIMl0xW0NIMl1bQ0gyXVtDSDJdTjFbQ0BIXShbQ0gzXSlbQ0gyXVtOSF1DKD1PKVtOSF1jMm5uW2NIXXMy

> <s_epik_cmdline>
J2VwaWtfcHl0aG9uJywgJy1waCcsICc3LjAnLCAnLXRuJywgJzgnLCAnLW1hJywgJzIwMCcsICctbWV0YWxfYmluZGluZycsICctaW1hZScsICc8aW5maWxlLm1hZT4nLCAnLW9tYWUnLCAnPG91dGZpbGUubWFlPic=

> <r_lp_tautomer_probability>
1

> <r_epik_Ionization_Penalty>
0.00457064

> <r_epik_Ionization_Penalty_Charging>
0.000848324

> <r_epik_Ionization_Penalty_Neutral>
0.00372231

> <r_epik_State_Penalty>
-0

> <r_epik_Charging_Adjusted_Penalty>
0.000848324

> <i_epik_Tot_Q>
1

> <i_epik_Tot_abs_Q>
1

> <r_epik_Metal_State_Penalty>
0.370178

> <b_epik_Metal_Only>
0

> <s_lp_Force_Field>
OPLS_2005

> <r_lp_Energy>
30.6198

> <b_lp_Chiralities_Consistent>
1

> <s_lp_Variant>
AV-unprocessed.smi:1522-2

> <Gold.Version>
5.8.1

> <Gold.Id.Protein>
6NUR|6NUR_protein|mol2

> <Gold.PLP.Fitness>
41.9656

> <Gold.PLP.PLP>
-28.4555

> <Gold.PLP.part.hbond>
-5.9015

> <Gold.PLP.part.metal>
0.0000

> <Gold.PLP.part.buried>
-0.2740

> <Gold.PLP.part.nonpolar>
-23.2094

> <Gold.PLP.part.repulsive>
0.5224

> <Gold.PLP.ligand.clash>
0.0000

> <Gold.PLP.ligand.torsion>
0.3234

> <Gold.PLP.Chemscore.Hbond>
3.7571

> <Gold.PLP.Chemscore.CHOScore>
0.9489

> <Gold.PLP.Chemscore.Metal>
0.0000

> <Gold.Chemscore.Hbonds>
donor molecule, donor type, donor heavy atom, donor atom, acceptor molecule, acceptor atom, score
      L1  H     4    24       P1  7948  1.00
      L1  H     7    25       P1  7948  0.77
      L1  H    13    35       P1  7948  2.00
      L1  C    11    26       P1  8028  0.77

> <Gold.PLP.Chemscore.Internal.Correction>
0.0389

> <Gold.Rescore>
     Score         DG    S(hbond)    S(metal)    S(lipo)     H(rot)  DE(clash)    DE(int)     intcor
     15.35     -16.48       2.79        0.00      51.67       1.70       0.07       1.06       ----

> <Gold.Chemscore.Fitness>
15.3483

> <Gold.Chemscore.DG>
-16.4763

> <Gold.Chemscore.ZeroCoef>
-5.4800

> <Gold.Chemscore.Hbond>
2.7875

> <Gold.Chemscore.Metal>
0.0000

> <Gold.Chemscore.Lipo>
51.6681

> <Gold.Chemscore.Internal_Hbond>
0.0000

> <Gold.Chemscore.DEClash>
0.0718

> <Gold.Chemscore.DEInternal>
1.0562

> <Gold.Chemscore.Rot>
1.7028

> <Gold.Chemscore.Internal.Correction>
   9.000000E+99

> <Gold.Chemscore.Hbonds>
donor molecule, donor type, donor heavy atom, donor atom, acceptor molecule, acceptor atom, score
      L1  H     4    24       P1  7948  0.97
      L1  H     7    25       P1  7948  0.74
      L1  H    13    35       P1  7948  0.91

> <Gold.Chemscore.Hbond.Weighted>
-9.3103

> <Gold.Chemscore.Metal.Weighted>
-0.0000

> <Gold.Chemscore.Lipo.Weighted>
-6.0452

> <Gold.Chemscore.Internal_Hbond.Weighted>
0.0000

> <Gold.Chemscore.DEClash.Weighted>
0.0718

> <Gold.Chemscore.DEInternal.Weighted>
1.0562

> <Gold.Chemscore.Rot.Weighted>
4.3592

> <Gold.Chemscore.Internal.Correction.Weighted>
   9.000000E+99

> <Gold.Protein.RotatedTorsions>
[ 6907 6896 6895 6894 ] final  100.65 input  -60.11 | X-H torsion
[ 7974 7965 7964 7962 ] final  -44.26 input  175.53 | X-H torsion
[ 8008 7997 7996 7995 ] final   49.44 input   59.86 | X-H torsion
[ 10167 10162 10161 10158 ] final   64.25 input  -65.29 | X-H torsion
[ 10718 10713 10712 10709 ] final  119.63 input   66.30 | X-H torsion
[ 10763 10752 10751 10750 ] final  -94.08 input  -60.55 | X-H torsion
[ 11005 11000 10999 10996 ] final  -76.75 input  -57.11 | X-H torsion

> <Gold.Protein.ActiveResidues>
 VAL166  LYS551  ARG553  GLY616  TRP617  ASP618  TYR619  PRO620  LYS621  CYS622 
 ASP623  PHE694  ASN695  SER759  ASP760  ASP761  ALA762  ILE779  LEU786  VAL792 
 PHE793  MET794  SER795  GLU796  ALA797  LYS798  CYS799  TRP800  GLU811  SER814 

> <Gold.Protein.RotatedAtoms>
  152.5367  134.0245  159.7996 H   0  0  0  0  0  0  0  0  0  0  0  0  # atno 6907 bound_to 6896
  151.0426  133.5685  159.2657 H   0  0  0  0  0  0  0  0  0  0  0  0  # atno 6908 bound_to 6896
  151.2649  135.0673  159.9166 H   0  0  0  0  0  0  0  0  0  0  0  0  # atno 6909 bound_to 6896
  145.9938  140.7151  142.9304 H   0  0  0  0  0  0  0  0  0  0  0  0  # atno 7974 bound_to 7965
  155.4022  140.3438  155.4258 H   0  0  0  0  0  0  0  0  0  0  0  0  # atno 8008 bound_to 7997
  156.1497  140.1567  156.8822 H   0  0  0  0  0  0  0  0  0  0  0  0  # atno 8009 bound_to 7997
  154.5042  140.0807  156.7840 H   0  0  0  0  0  0  0  0  0  0  0  0  # atno 8010 bound_to 7997
  140.1242  144.4703  150.6902 H   0  0  0  0  0  0  0  0  0  0  0  0  # atno 10167 bound_to 10162
  157.5948  131.1059  150.7923 H   0  0  0  0  0  0  0  0  0  0  0  0  # atno 10718 bound_to 10713
  154.7021  135.5171  153.8541 H   0  0  0  0  0  0  0  0  0  0  0  0  # atno 10763 bound_to 10752
  153.0712  135.6601  154.0253 H   0  0  0  0  0  0  0  0  0  0  0  0  # atno 10764 bound_to 10752
  154.0110  135.3002  155.3372 H   0  0  0  0  0  0  0  0  0  0  0  0  # atno 10765 bound_to 10752
  141.1656  133.6995  156.7716 H   0  0  0  0  0  0  0  0  0  0  0  0  # atno 11005 bound_to 11000
  144.6897  140.3115  143.7247 LP  0  0  0  0  0  0  0  0  0  0  0  0  # atno 17320 bound_to 7965
  145.7591  139.1818  143.2277 LP  0  0  0  0  0  0  0  0  0  0  0  0  # atno 17321 bound_to 7965
  140.6854  143.2347  151.5274 LP  0  0  0  0  0  0  0  0  0  0  0  0  # atno 17342 bound_to 10162
  139.5553  144.2292  152.1601 LP  0  0  0  0  0  0  0  0  0  0  0  0  # atno 17343 bound_to 10162
  156.8336  130.5024  149.5329 LP  0  0  0  0  0  0  0  0  0  0  0  0  # atno 17370 bound_to 10713
  156.1009  130.5968  150.9892 LP  0  0  0  0  0  0  0  0  0  0  0  0  # atno 17371 bound_to 10713
  140.2460  134.8577  157.3621 LP  0  0  0  0  0  0  0  0  0  0  0  0  # atno 17394 bound_to 11000
  140.1749  134.4562  155.7808 LP  0  0  0  0  0  0  0  0  0  0  0  0  # atno 17395 bound_to 11000

$$$$
