AV-unprocessed.smi:2083|AV-procd|sdf|8505|dock6
  -GOLD-   2272011213D 1   1.00000     0.00000
 Structure written by MMmdl.
 44 45  0  0  0  0  0  0  0  0  3 V2000
  152.2332  141.5060  158.9379 C   0  0  0  0  0  0  0  0  0  0  0  0
  151.9209  140.9740  157.5809 C   0  0  0  0  0  0  0  0  0  0  0  0
  150.8757  141.1736  156.7244 C   0  0  0  0  0  0  0  0  0  0  0  0
  151.2085  140.3566  155.6096 C   0  0  0  0  0  0  0  0  0  0  0  0
  150.4861  140.2225  154.4867 N   0  5  0  0  0  0  0  0  0  0  0  0
  149.1835  139.8667  154.5537 C   0  0  0  0  0  0  0  0  0  0  0  0
  148.5003  139.7749  155.5763 O   0  0  0  0  0  0  0  0  0  0  0  0
  148.6339  139.6081  153.3585 N   0  0  0  0  0  0  0  0  0  0  0  0
  147.2438  139.2287  153.1233 C   0  0  0  0  0  0  0  0  0  0  0  0
  146.8479  137.9116  153.8484 C   0  0  1  0  0  0  0  0  0  0  0  0
  145.5841  138.1315  154.7094 C   0  0  0  0  0  0  0  0  0  0  0  0
  146.6388  136.7386  152.9374 N   0  3  2  0  0  0  0  0  0  0  0  0
  145.6192  137.0271  151.8890 C   0  0  0  0  0  0  0  0  0  0  0  0
  145.5596  135.9125  150.8347 C   0  0  0  0  0  0  0  0  0  0  0  0
  145.2552  134.5634  151.4916 C   0  0  0  0  0  0  0  0  0  0  0  0
  146.2908  134.2699  152.5870 C   0  0  2  0  0  0  0  0  0  0  0  0
  146.0024  132.9327  153.2842 C   0  0  0  0  0  0  0  0  0  0  0  0
  146.3576  135.4313  153.6011 C   0  0  0  0  0  0  0  0  0  0  0  0
  152.3622  139.7299  155.7682 N   0  0  0  0  0  0  0  0  0  0  0  0
  152.8229  140.1159  157.0327 O   0  0  0  0  0  0  0  0  0  0  0  0
  152.4284  142.5776  158.8961 H   0  0  0  0  0  0  0  0  0  0  0  0
  153.1122  141.0179  159.3594 H   0  0  0  0  0  0  0  0  0  0  0  0
  151.3977  141.3405  159.6180 H   0  0  0  0  0  0  0  0  0  0  0  0
  150.0096  141.8010  156.8718 H   0  0  0  0  0  0  0  0  0  0  0  0
  149.2305  139.6894  152.5480 H   0  0  0  0  0  0  0  0  0  0  0  0
  146.6148  140.0513  153.4648 H   0  0  0  0  0  0  0  0  0  0  0  0
  147.1050  139.1500  152.0441 H   0  0  0  0  0  0  0  0  0  0  0  0
  147.6731  137.6570  154.5152 H   0  0  0  0  0  0  0  0  0  0  0  0
  145.7285  138.9239  155.4437 H   0  0  0  0  0  0  0  0  0  0  0  0
  145.3022  137.2437  155.2730 H   0  0  0  0  0  0  0  0  0  0  0  0
  144.7320  138.4105  154.0889 H   0  0  0  0  0  0  0  0  0  0  0  0
  144.6411  137.1455  152.3585 H   0  0  0  0  0  0  0  0  0  0  0  0
  145.8350  137.9678  151.3851 H   0  0  0  0  0  0  0  0  0  0  0  0
  144.7960  136.1439  150.0915 H   0  0  0  0  0  0  0  0  0  0  0  0
  146.5086  135.8596  150.2991 H   0  0  0  0  0  0  0  0  0  0  0  0
  144.2517  134.5801  151.9195 H   0  0  0  0  0  0  0  0  0  0  0  0
  145.2624  133.7733  150.7397 H   0  0  0  0  0  0  0  0  0  0  0  0
  147.2688  134.1857  152.1103 H   0  0  0  0  0  0  0  0  0  0  0  0
  145.0351  132.9483  153.7875 H   0  0  0  0  0  0  0  0  0  0  0  0
  146.7629  132.7071  154.0323 H   0  0  0  0  0  0  0  0  0  0  0  0
  145.9922  132.1104  152.5682 H   0  0  0  0  0  0  0  0  0  0  0  0
  147.1493  135.1867  154.3084 H   0  0  0  0  0  0  0  0  0  0  0  0
  145.4260  135.5014  154.1653 H   0  0  0  0  0  0  0  0  0  0  0  0
  147.5184  136.6089  152.4589 H   0  0  0  0  0  0  0  0  0  0  0  0
  1  2  1  0  0  0  0
  1 21  1  0  0  0  0
  1 22  1  0  0  0  0
  1 23  1  0  0  0  0
  2 20  1  0  0  0  0
  2  3  2  0  0  0  0
  3  4  1  0  0  0  0
  3 24  1  0  0  0  0
  4  5  1  0  0  0  0
  4 19  2  0  0  0  0
  5  6  1  0  0  0  0
  6  7  2  0  0  0  0
  6  8  1  0  0  0  0
  8  9  1  0  0  0  0
  8 25  1  0  0  0  0
  9 10  1  0  0  0  0
  9 26  1  0  0  0  0
  9 27  1  0  0  0  0
 10 11  1  0  0  0  0
 10 12  1  0  0  0  0
 10 28  1  0  0  0  0
 11 29  1  0  0  0  0
 11 30  1  0  0  0  0
 11 31  1  0  0  0  0
 12 18  1  0  0  0  0
 12 13  1  0  0  0  0
 12 44  1  0  0  0  0
 13 14  1  0  0  0  0
 13 32  1  0  0  0  0
 13 33  1  0  0  0  0
 14 15  1  0  0  0  0
 14 34  1  0  0  0  0
 14 35  1  0  0  0  0
 15 16  1  0  0  0  0
 15 36  1  0  0  0  0
 15 37  1  0  0  0  0
 16 17  1  0  0  0  0
 16 18  1  0  0  0  0
 16 38  1  0  0  0  0
 17 39  1  0  0  0  0
 17 40  1  0  0  0  0
 17 41  1  0  0  0  0
 18 42  1  0  0  0  0
 18 43  1  0  0  0  0
 19 20  1  0  0  0  0
M  CHG  1   5  -1
M  CHG  1  12   1
M  END
> <s_m_source_file>
AV-unprocessed.smi

> <i_m_source_file_index>
2083

> <i_lp_mmshare_version>
43012

> <i_f3d_flags>
0

> <s_epik_input>
W0NIM11jMVtjSF1jKG5vMSlbTkhdQyg9TylbTkhdW0NIMl1bQ0BIXShbQ0gzXSlOMltDSDJdW0NIMl1bQ0gyXVtDQEBIXShbQ0gzXSlbQ0gyXTI=

> <s_epik_cmdline>
J2VwaWtfcHl0aG9uJywgJy1waCcsICc3LjAnLCAnLXRuJywgJzgnLCAnLW1hJywgJzIwMCcsICctbWV0YWxfYmluZGluZycsICctaW1hZScsICc8aW5maWxlLm1hZT4nLCAnLW9tYWUnLCAnPG91dGZpbGUubWFlPic=

> <r_epik_Ionization_Penalty>
6.22434

> <r_epik_Ionization_Penalty_Charging>
6.22425

> <r_epik_Ionization_Penalty_Neutral>
9.62407e-05

> <r_epik_State_Penalty>
6.22423

> <r_epik_Charging_Adjusted_Penalty>
12.4485

> <i_epik_Tot_Q>
0

> <i_epik_Tot_abs_Q>
2

> <r_epik_Metal_State_Penalty>
2.16764

> <b_epik_Metal_Only>
1

> <s_lp_Force_Field>
OPLS_2005

> <r_lp_Energy>
9.644

> <b_lp_Chiralities_Consistent>
1

> <s_lp_Variant>
AV-unprocessed.smi:2083-16

> <Gold.Version>
5.8.1

> <Gold.Id.Protein>
6NUR|6NUR_protein|mol2

> <Gold.PLP.Fitness>
43.0296

> <Gold.PLP.PLP>
-30.3484

> <Gold.PLP.part.hbond>
-4.6940

> <Gold.PLP.part.metal>
0.0000

> <Gold.PLP.part.buried>
-3.2240

> <Gold.PLP.part.nonpolar>
-22.5707

> <Gold.PLP.part.repulsive>
0.2278

> <Gold.PLP.ligand.clash>
0.0000

> <Gold.PLP.ligand.torsion>
1.2331

> <Gold.PLP.Chemscore.Hbond>
5.0000

> <Gold.PLP.Chemscore.CHOScore>
0.0000

> <Gold.PLP.Chemscore.Metal>
0.0000

> <Gold.Chemscore.Hbonds>
donor molecule, donor type, donor heavy atom, donor atom, acceptor molecule, acceptor atom, score
      L1  H     8    25       P1  7957  0.88
      L1  H    12    44       P1  7948  2.00
      P1  H  7989  7998       L1     5  0.80
      P1  H  7997  8009       L1    20  0.90

> <Gold.PLP.Chemscore.Internal.Correction>
0.1474

> <Gold.Rescore>
     Score         DG    S(hbond)    S(metal)    S(lipo)     H(rot)  DE(clash)    DE(int)     intcor
     15.65     -17.70       2.73        0.00      59.72       1.52       0.01       2.03       ----

> <Gold.Chemscore.Fitness>
15.6518

> <Gold.Chemscore.DG>
-17.6970

> <Gold.Chemscore.ZeroCoef>
-5.4800

> <Gold.Chemscore.Hbond>
2.7299

> <Gold.Chemscore.Metal>
0.0000

> <Gold.Chemscore.Lipo>
59.7234

> <Gold.Chemscore.Internal_Hbond>
0.0000

> <Gold.Chemscore.DEClash>
0.0141

> <Gold.Chemscore.DEInternal>
2.0310

> <Gold.Chemscore.Rot>
1.5190

> <Gold.Chemscore.Internal.Correction>
   9.000000E+99

> <Gold.Chemscore.Hbonds>
donor molecule, donor type, donor heavy atom, donor atom, acceptor molecule, acceptor atom, score
      L1  H     8    25       P1  7957  0.85
      L1  H    12    44       P1  7948  0.98
      P1  H  7989  7998       L1     5  0.12
      P1  H  7997  8009       L1    20  0.34

> <Gold.Chemscore.Hbond.Weighted>
-9.1180

> <Gold.Chemscore.Metal.Weighted>
-0.0000

> <Gold.Chemscore.Lipo.Weighted>
-6.9876

> <Gold.Chemscore.Internal_Hbond.Weighted>
0.0000

> <Gold.Chemscore.DEClash.Weighted>
0.0141

> <Gold.Chemscore.DEInternal.Weighted>
2.0310

> <Gold.Chemscore.Rot.Weighted>
3.8886

> <Gold.Chemscore.Internal.Correction.Weighted>
   9.000000E+99

> <Gold.Protein.RotatedTorsions>
[ 6907 6896 6895 6894 ] final   -6.10 input  -60.11 | X-H torsion
[ 7974 7965 7964 7962 ] final  168.10 input  175.53 | X-H torsion
[ 8008 7997 7996 7995 ] final  164.88 input   59.86 | X-H torsion
[ 10167 10162 10161 10158 ] final   82.74 input  -65.29 | X-H torsion
[ 10718 10713 10712 10709 ] final    6.84 input   66.30 | X-H torsion
[ 10763 10752 10751 10750 ] final  -12.04 input  -60.55 | X-H torsion
[ 11005 11000 10999 10996 ] final  -34.88 input  -57.11 | X-H torsion

> <Gold.Protein.ActiveResidues>
 VAL166  LYS551  ARG553  GLY616  TRP617  ASP618  TYR619  PRO620  LYS621  CYS622 
 ASP623  PHE694  ASN695  SER759  ASP760  ASP761  ALA762  ILE779  LEU786  VAL792 
 PHE793  MET794  SER795  GLU796  ALA797  LYS798  CYS799  TRP800  GLU811  SER814 

> <Gold.Protein.RotatedAtoms>
  151.4710  135.1046  159.9751 H   0  0  0  0  0  0  0  0  0  0  0  0  # atno 6907 bound_to 6896
  152.4816  133.8265  159.7091 H   0  0  0  0  0  0  0  0  0  0  0  0  # atno 6908 bound_to 6896
  150.8893  133.7204  159.2936 H   0  0  0  0  0  0  0  0  0  0  0  0  # atno 6909 bound_to 6896
  144.7400  139.8858  143.6399 H   0  0  0  0  0  0  0  0  0  0  0  0  # atno 7974 bound_to 7965
  156.1845  140.1685  156.8211 H   0  0  0  0  0  0  0  0  0  0  0  0  # atno 8008 bound_to 7997
  154.5398  140.0739  156.8523 H   0  0  0  0  0  0  0  0  0  0  0  0  # atno 8009 bound_to 7997
  155.3237  140.3375  155.4243 H   0  0  0  0  0  0  0  0  0  0  0  0  # atno 8010 bound_to 7997
  139.9257  144.6184  150.8395 H   0  0  0  0  0  0  0  0  0  0  0  0  # atno 10167 bound_to 10162
  156.9280  130.5815  149.5649 H   0  0  0  0  0  0  0  0  0  0  0  0  # atno 10718 bound_to 10713
  153.4926  135.7017  153.5876 H   0  0  0  0  0  0  0  0  0  0  0  0  # atno 10763 bound_to 10752
  153.4041  135.3864  155.2007 H   0  0  0  0  0  0  0  0  0  0  0  0  # atno 10764 bound_to 10752
  154.8716  135.3888  154.4388 H   0  0  0  0  0  0  0  0  0  0  0  0  # atno 10765 bound_to 10752
  140.9751  133.7087  156.1589 H   0  0  0  0  0  0  0  0  0  0  0  0  # atno 11005 bound_to 11000
  146.1178  139.4192  143.0247 LP  0  0  0  0  0  0  0  0  0  0  0  0  # atno 17320 bound_to 7965
  145.7349  141.0029  143.1332 LP  0  0  0  0  0  0  0  0  0  0  0  0  # atno 17321 bound_to 7965
  140.7651  143.3266  151.2503 LP  0  0  0  0  0  0  0  0  0  0  0  0  # atno 17342 bound_to 10162
  139.6824  143.9831  152.2816 LP  0  0  0  0  0  0  0  0  0  0  0  0  # atno 17343 bound_to 10162
  156.0460  130.5536  150.8881 LP  0  0  0  0  0  0  0  0  0  0  0  0  # atno 17370 bound_to 10713
  157.5865  131.0945  150.9188 LP  0  0  0  0  0  0  0  0  0  0  0  0  # atno 17371 bound_to 10713
  140.7270  134.4296  157.5569 LP  0  0  0  0  0  0  0  0  0  0  0  0  # atno 17394 bound_to 11000
  139.8927  134.8747  156.2256 LP  0  0  0  0  0  0  0  0  0  0  0  0  # atno 17395 bound_to 11000

$$$$
