AV-unprocessed.smi:915|AV-procd|sdf|4157|dock9
  -GOLD-   22720 2 63D 1   1.00000     0.00000
 Structure written by MMmdl.
 33 34  0  0  0  0  0  0  0  0  2 V2000
  147.6909  140.7515  154.0380 C   0  0  0  0  0  0  0  0  0  0  0  0
  149.1200  141.0522  154.5032 C   0  0  0  0  0  0  0  0  0  0  0  0
  149.8776  139.8079  154.8543 C   0  0  0  0  0  0  0  0  0  0  0  0
  150.0112  138.6785  154.0919 C   0  0  0  0  0  0  0  0  0  0  0  0
  150.9756  137.4747  154.8962 S   0  0  0  0  0  0  0  0  0  0  0  0
  151.1781  138.5533  156.2789 C   0  0  0  0  0  0  0  0  0  0  0  0
  151.8899  138.1942  157.3705 N   0  5  0  0  0  0  0  0  0  0  0  0
  152.7634  138.9922  158.0362 C   0  0  0  0  0  0  0  0  0  0  0  0
  153.9881  138.8704  158.1075 O   0  0  0  0  0  0  0  0  0  0  0  0
  152.1684  140.0124  158.6682 N   0  0  0  0  0  0  0  0  0  0  0  0
  152.8556  141.0308  159.4527 C   0  0  0  0  0  0  0  0  0  0  0  0
  152.0393  142.3320  159.5100 C   0  0  1  0  0  0  0  0  0  0  0  0
  152.8036  143.4821  160.1798 C   0  0  0  0  0  0  0  0  0  0  0  0
  152.1642  144.7847  159.6978 C   0  0  0  0  0  0  0  0  0  0  0  0
  151.9862  144.6416  158.1864 C   0  0  0  0  0  0  0  0  0  0  0  0
  151.5476  142.9159  157.8595 S   0  0  0  0  0  0  0  0  0  0  0  0
  150.5420  139.7189  156.0790 N   0  0  0  0  0  0  0  0  0  0  0  0
  147.1613  141.6714  153.7900 H   0  0  0  0  0  0  0  0  0  0  0  0
  147.1236  140.2403  154.8165 H   0  0  0  0  0  0  0  0  0  0  0  0
  147.6914  140.1170  153.1514 H   0  0  0  0  0  0  0  0  0  0  0  0
  149.6435  141.6003  153.7193 H   0  0  0  0  0  0  0  0  0  0  0  0
  149.0849  141.7212  155.3637 H   0  0  0  0  0  0  0  0  0  0  0  0
  149.6035  138.4800  153.1124 H   0  0  0  0  0  0  0  0  0  0  0  0
  151.1652  140.0919  158.5888 H   0  0  0  0  0  0  0  0  0  0  0  0
  153.0137  140.6492  160.4626 H   0  0  0  0  0  0  0  0  0  0  0  0
  153.8406  141.2207  159.0231 H   0  0  0  0  0  0  0  0  0  0  0  0
  151.1203  142.1608  160.0726 H   0  0  0  0  0  0  0  0  0  0  0  0
  152.7837  143.3991  161.2670 H   0  0  0  0  0  0  0  0  0  0  0  0
  153.8506  143.4633  159.8740 H   0  0  0  0  0  0  0  0  0  0  0  0
  151.1904  144.9116  160.1723 H   0  0  0  0  0  0  0  0  0  0  0  0
  152.7682  145.6555  159.9538 H   0  0  0  0  0  0  0  0  0  0  0  0
  151.2303  145.3213  157.7925 H   0  0  0  0  0  0  0  0  0  0  0  0
  152.9265  144.8555  157.6773 H   0  0  0  0  0  0  0  0  0  0  0  0
  1  2  1  0  0  0  0
  1 18  1  0  0  0  0
  1 19  1  0  0  0  0
  1 20  1  0  0  0  0
  2  3  1  0  0  0  0
  2 21  1  0  0  0  0
  2 22  1  0  0  0  0
  3 17  1  0  0  0  0
  3  4  2  0  0  0  0
  4  5  1  0  0  0  0
  4 23  1  0  0  0  0
  5  6  1  0  0  0  0
  6  7  1  0  0  0  0
  6 17  2  0  0  0  0
  7  8  1  0  0  0  0
  8  9  2  0  0  0  0
  8 10  1  0  0  0  0
 10 11  1  0  0  0  0
 10 24  1  0  0  0  0
 11 12  1  0  0  0  0
 11 25  1  0  0  0  0
 11 26  1  0  0  0  0
 12 16  1  0  0  0  0
 12 13  1  0  0  0  0
 12 27  1  0  0  0  0
 13 14  1  0  0  0  0
 13 28  1  0  0  0  0
 13 29  1  0  0  0  0
 14 15  1  0  0  0  0
 14 30  1  0  0  0  0
 14 31  1  0  0  0  0
 15 16  1  0  0  0  0
 15 32  1  0  0  0  0
 15 33  1  0  0  0  0
M  CHG  1   7  -1
M  END
> <s_m_source_file>
AV-unprocessed.smi

> <i_m_source_file_index>
915

> <i_lp_mmshare_version>
43012

> <i_f3d_flags>
0

> <s_epik_input>
W0NIM11bQ0gyXWMxW2NIXXNjKG4xKVtOSF1DKD1PKVtOSF1bQ0gyXVtDQEBIXTJbQ0gyXVtDSDJdW0NIMl1TMg==

> <s_epik_cmdline>
J2VwaWtfcHl0aG9uJywgJy1waCcsICc3LjAnLCAnLXRuJywgJzgnLCAnLW1hJywgJzIwMCcsICctbWV0YWxfYmluZGluZycsICctaW1hZScsICc8aW5maWxlLm1hZT4nLCAnLW9tYWUnLCAnPG91dGZpbGUubWFlPic=

> <r_lp_tautomer_probability>
0.999

> <r_epik_Ionization_Penalty>
8.73043

> <r_epik_Ionization_Penalty_Charging>
6.79141

> <r_epik_Ionization_Penalty_Neutral>
1.93902

> <r_epik_State_Penalty>
6.79158

> <r_epik_Charging_Adjusted_Penalty>
13.583

> <i_epik_Tot_Q>
-1

> <i_epik_Tot_abs_Q>
1

> <r_epik_Metal_State_Penalty>
2.71141

> <b_epik_Metal_Only>
1

> <s_lp_Force_Field>
OPLS_2005

> <r_lp_Energy>
9.1846

> <b_lp_Chiralities_Consistent>
1

> <s_lp_Variant>
AV-unprocessed.smi:915-4

> <Gold.Version>
5.8.1

> <Gold.Id.Protein>
6NUR|6NUR_protein|mol2

> <Gold.PLP.Fitness>
42.6853

> <Gold.PLP.PLP>
-36.5484

> <Gold.PLP.part.hbond>
-1.0000

> <Gold.PLP.part.metal>
0.0000

> <Gold.PLP.part.buried>
-4.3474

> <Gold.PLP.part.nonpolar>
-31.9572

> <Gold.PLP.part.repulsive>
0.1125

> <Gold.PLP.ligand.clash>
0.0000

> <Gold.PLP.ligand.torsion>
1.2721

> <Gold.PLP.Chemscore.Hbond>
1.0000

> <Gold.PLP.Chemscore.CHOScore>
1.8931

> <Gold.PLP.Chemscore.Metal>
0.0000

> <Gold.Chemscore.Hbonds>
donor molecule, donor type, donor heavy atom, donor atom, acceptor molecule, acceptor atom, score
      P1  H  7997  8008       L1     9  1.00
      L1  C     4    23       P1  7948  0.79
      L1  C     4    23       P1  7957  0.94

> <Gold.PLP.Chemscore.Internal.Correction>
0.0018

> <Gold.Rescore>
     Score         DG    S(hbond)    S(metal)    S(lipo)     H(rot)  DE(clash)    DE(int)     intcor
     16.50     -17.74       0.96        0.00     106.46       1.33       0.03       1.21       ----

> <Gold.Chemscore.Fitness>
16.5024

> <Gold.Chemscore.DG>
-17.7420

> <Gold.Chemscore.ZeroCoef>
-5.4800

> <Gold.Chemscore.Hbond>
0.9617

> <Gold.Chemscore.Metal>
0.0000

> <Gold.Chemscore.Lipo>
106.4612

> <Gold.Chemscore.Internal_Hbond>
0.0000

> <Gold.Chemscore.DEClash>
0.0255

> <Gold.Chemscore.DEInternal>
1.2141

> <Gold.Chemscore.Rot>
1.3305

> <Gold.Chemscore.Internal.Correction>
   9.000000E+99

> <Gold.Chemscore.Hbonds>
donor molecule, donor type, donor heavy atom, donor atom, acceptor molecule, acceptor atom, score
      P1  H  7997  8008       L1     9  0.94

> <Gold.Chemscore.Hbond.Weighted>
-3.2120

> <Gold.Chemscore.Metal.Weighted>
-0.0000

> <Gold.Chemscore.Lipo.Weighted>
-12.4560

> <Gold.Chemscore.Internal_Hbond.Weighted>
0.0000

> <Gold.Chemscore.DEClash.Weighted>
0.0255

> <Gold.Chemscore.DEInternal.Weighted>
1.2141

> <Gold.Chemscore.Rot.Weighted>
3.4060

> <Gold.Chemscore.Internal.Correction.Weighted>
   9.000000E+99

> <Gold.Protein.RotatedTorsions>
[ 6907 6896 6895 6894 ] final  113.75 input  -60.11 | X-H torsion
[ 7974 7965 7964 7962 ] final   87.99 input  175.53 | X-H torsion
[ 8008 7997 7996 7995 ] final -111.78 input   59.86 | X-H torsion
[ 10167 10162 10161 10158 ] final  106.14 input  -65.29 | X-H torsion
[ 10718 10713 10712 10709 ] final  -25.82 input   66.30 | X-H torsion
[ 10763 10752 10751 10750 ] final  157.60 input  -60.55 | X-H torsion
[ 11005 11000 10999 10996 ] final  -54.02 input  -57.11 | X-H torsion

> <Gold.Protein.ActiveResidues>
 VAL166  LYS551  ARG553  GLY616  TRP617  ASP618  TYR619  PRO620  LYS621  CYS622 
 ASP623  PHE694  ASN695  SER759  ASP760  ASP761  ALA762  ILE779  LEU786  VAL792 
 PHE793  MET794  SER795  GLU796  ALA797  LYS798  CYS799  TRP800  GLU811  SER814 

> <Gold.Protein.RotatedAtoms>
  152.4843  133.8332  159.7113 H   0  0  0  0  0  0  0  0  0  0  0  0  # atno 6907 bound_to 6896
  150.8916  133.7226  159.2909 H   0  0  0  0  0  0  0  0  0  0  0  0  # atno 6908 bound_to 6896
  151.4697  135.1048  159.9800 H   0  0  0  0  0  0  0  0  0  0  0  0  # atno 6909 bound_to 6896
  145.5516  139.2296  143.2509 H   0  0  0  0  0  0  0  0  0  0  0  0  # atno 7974 bound_to 7965
  154.9951  140.0395  157.2336 H   0  0  0  0  0  0  0  0  0  0  0  0  # atno 8008 bound_to 7997
  154.7594  140.2781  155.6204 H   0  0  0  0  0  0  0  0  0  0  0  0  # atno 8009 bound_to 7997
  156.2901  140.2631  156.2368 H   0  0  0  0  0  0  0  0  0  0  0  0  # atno 8010 bound_to 7997
  139.7034  144.7090  151.1148 H   0  0  0  0  0  0  0  0  0  0  0  0  # atno 10167 bound_to 10162
  156.4593  130.4500  149.6939 H   0  0  0  0  0  0  0  0  0  0  0  0  # atno 10718 bound_to 10713
  154.2028  135.2789  155.2985 H   0  0  0  0  0  0  0  0  0  0  0  0  # atno 10763 bound_to 10752
  154.5841  135.5580  153.7217 H   0  0  0  0  0  0  0  0  0  0  0  0  # atno 10764 bound_to 10752
  153.0083  135.6352  154.2166 H   0  0  0  0  0  0  0  0  0  0  0  0  # atno 10765 bound_to 10752
  141.1005  133.6618  156.4258 H   0  0  0  0  0  0  0  0  0  0  0  0  # atno 11005 bound_to 11000
  146.1913  140.6339  142.9144 LP  0  0  0  0  0  0  0  0  0  0  0  0  # atno 17320 bound_to 7965
  144.7526  140.5230  143.6791 LP  0  0  0  0  0  0  0  0  0  0  0  0  # atno 17321 bound_to 7965
  140.7715  143.5393  150.9332 LP  0  0  0  0  0  0  0  0  0  0  0  0  # atno 17342 bound_to 10162
  139.9075  143.6760  152.3121 LP  0  0  0  0  0  0  0  0  0  0  0  0  # atno 17343 bound_to 10162
  156.3733  130.7542  151.2527 LP  0  0  0  0  0  0  0  0  0  0  0  0  # atno 17370 bound_to 10713
  157.7499  131.0317  150.4192 LP  0  0  0  0  0  0  0  0  0  0  0  0  # atno 17371 bound_to 10713
  140.5034  134.6464  157.5257 LP  0  0  0  0  0  0  0  0  0  0  0  0  # atno 17394 bound_to 11000
  139.9855  134.7068  155.9782 LP  0  0  0  0  0  0  0  0  0  0  0  0  # atno 17395 bound_to 11000

$$$$
