AV-unprocessed.smi:322|AV-procd|sdf|2335|dock5
  -GOLD-   2262022243D 1   1.00000     0.00000
 Structure written by MMmdl.
 43 45  0  0  0  0  0  0  0  0  1 V2000
  150.3964  140.3065  154.2528 O   0  0  0  0  0  0  0  0  0  0  0  0
  150.3181  139.6983  155.5262 C   0  0  0  0  0  0  0  0  0  0  0  0
  150.9524  140.5017  156.6266 C   0  0  0  0  0  0  0  0  0  0  0  0
  150.6149  141.7658  156.8922 N   0  0  0  0  0  0  0  0  0  0  0  0
  151.4470  142.0913  157.9447 C   0  0  0  0  0  0  0  0  0  0  0  0
  151.5751  143.2938  158.6757 C   0  0  0  0  0  0  0  0  0  0  0  0
  152.5110  143.3944  159.7259 C   0  0  0  0  0  0  0  0  0  0  0  0
  153.3294  142.2960  160.0600 C   0  0  0  0  0  0  0  0  0  0  0  0
  153.2175  141.0885  159.3442 C   0  0  0  0  0  0  0  0  0  0  0  0
  152.2826  140.9936  158.2956 C   0  0  0  0  0  0  0  0  0  0  0  0
  151.9274  139.9783  157.4123 N   0  0  0  0  0  0  0  0  0  0  0  0
  152.5033  138.6409  157.3541 C   0  0  0  0  0  0  0  0  0  0  0  0
  152.1910  137.7985  158.6078 C   0  0  2  0  0  0  0  0  0  0  0  0
  152.2221  136.4275  158.2625 O   0  0  0  0  0  0  0  0  0  0  0  0
  150.8029  138.1235  159.1814 C   0  0  0  0  0  0  0  0  0  0  0  0
  150.2336  136.9363  159.7148 O   0  0  0  0  0  0  0  0  0  0  0  0
  149.0027  136.5659  159.1092 C   0  0  0  0  0  0  0  0  0  0  0  0
  148.0916  135.7724  160.0308 C   0  0  0  0  0  0  0  0  0  0  0  0
  147.7215  136.2971  161.2873 C   0  0  0  0  0  0  0  0  0  0  0  0
  146.8651  135.5679  162.1349 C   0  0  0  0  0  0  0  0  0  0  0  0
  146.3699  134.3139  161.7271 C   0  0  0  0  0  0  0  0  0  0  0  0
  145.3186  133.4216  162.7640 Cl  0  0  0  0  0  0  0  0  0  0  0  0
  146.7312  133.7903  160.4702 C   0  0  0  0  0  0  0  0  0  0  0  0
  147.5882  134.5194  159.6227 C   0  0  0  0  0  0  0  0  0  0  0  0
  149.6477  140.0364  153.7439 H   0  0  0  0  0  0  0  0  0  0  0  0
  149.2665  139.5313  155.7574 H   0  0  0  0  0  0  0  0  0  0  0  0
  150.8016  138.7224  155.4765 H   0  0  0  0  0  0  0  0  0  0  0  0
  150.9527  144.1405  158.4270 H   0  0  0  0  0  0  0  0  0  0  0  0
  152.6016  144.3184  160.2777 H   0  0  0  0  0  0  0  0  0  0  0  0
  154.0433  142.3809  160.8662 H   0  0  0  0  0  0  0  0  0  0  0  0
  153.8414  140.2448  159.5999 H   0  0  0  0  0  0  0  0  0  0  0  0
  152.1323  138.1408  156.4592 H   0  0  0  0  0  0  0  0  0  0  0  0
  153.5819  138.7318  157.2194 H   0  0  0  0  0  0  0  0  0  0  0  0
  152.9504  137.9864  159.3672 H   0  0  0  0  0  0  0  0  0  0  0  0
  152.5454  136.3484  157.3780 H   0  0  0  0  0  0  0  0  0  0  0  0
  150.9019  138.8448  159.9940 H   0  0  0  0  0  0  0  0  0  0  0  0
  150.1643  138.5798  158.4231 H   0  0  0  0  0  0  0  0  0  0  0  0
  148.4786  137.4803  158.8308 H   0  0  0  0  0  0  0  0  0  0  0  0
  149.1864  136.0205  158.1821 H   0  0  0  0  0  0  0  0  0  0  0  0
  148.0960  137.2596  161.6044 H   0  0  0  0  0  0  0  0  0  0  0  0
  146.5875  135.9728  163.0970 H   0  0  0  0  0  0  0  0  0  0  0  0
  146.3505  132.8305  160.1538 H   0  0  0  0  0  0  0  0  0  0  0  0
  147.8576  134.1121  158.6592 H   0  0  0  0  0  0  0  0  0  0  0  0
  1  2  1  0  0  0  0
  1 25  1  0  0  0  0
  2  3  1  0  0  0  0
  2 26  1  0  0  0  0
  2 27  1  0  0  0  0
  3 11  1  0  0  0  0
  3  4  2  0  0  0  0
  4  5  1  0  0  0  0
  5 10  2  0  0  0  0
  5  6  1  0  0  0  0
  6  7  2  0  0  0  0
  6 28  1  0  0  0  0
  7  8  1  0  0  0  0
  7 29  1  0  0  0  0
  8  9  2  0  0  0  0
  8 30  1  0  0  0  0
  9 10  1  0  0  0  0
  9 31  1  0  0  0  0
 10 11  1  0  0  0  0
 11 12  1  0  0  0  0
 12 13  1  0  0  0  0
 12 32  1  0  0  0  0
 12 33  1  0  0  0  0
 13 14  1  0  0  0  0
 13 15  1  0  0  0  0
 13 34  1  0  0  0  0
 14 35  1  0  0  0  0
 15 16  1  0  0  0  0
 15 36  1  0  0  0  0
 15 37  1  0  0  0  0
 16 17  1  0  0  0  0
 17 18  1  0  0  0  0
 17 38  1  0  0  0  0
 17 39  1  0  0  0  0
 18 24  1  0  0  0  0
 18 19  2  0  0  0  0
 19 20  1  0  0  0  0
 19 40  1  0  0  0  0
 20 21  2  0  0  0  0
 20 41  1  0  0  0  0
 21 22  1  0  0  0  0
 21 23  1  0  0  0  0
 23 24  2  0  0  0  0
 23 42  1  0  0  0  0
 24 43  1  0  0  0  0
M  END
> <s_m_source_file>
AV-unprocessed.smi

> <i_m_source_file_index>
322

> <i_lp_mmshare_version>
43012

> <i_f3d_flags>
0

> <s_epik_input>
W2NIXTFbY0hdW2NIXVtjSF1jKGMxMiluKGMobjIpW0NIMl1bT0hdKVtDSDJdW0NASF0oW09IXSlbQ0gyXU9bQ0gyXWMzW2NIXVtjSF1jKENsKVtjSF1bY0hdMw==

> <s_epik_cmdline>
J2VwaWtfcHl0aG9uJywgJy1waCcsICc3LjAnLCAnLXRuJywgJzgnLCAnLW1hJywgJzIwMCcsICctbWV0YWxfYmluZGluZycsICctaW1hZScsICc8aW5maWxlLm1hZT4nLCAnLW9tYWUnLCAnPG91dGZpbGUubWFlPic=

> <r_epik_Ionization_Penalty>
0.0649918

> <r_epik_Ionization_Penalty_Charging>
0

> <r_epik_Ionization_Penalty_Neutral>
0.0649918

> <r_epik_State_Penalty>
0.0565791

> <r_epik_Charging_Adjusted_Penalty>
0.0565791

> <i_epik_Tot_Q>
0

> <i_epik_Tot_abs_Q>
0

> <r_epik_Metal_State_Penalty>
5.93658e-05

> <b_epik_Metal_Only>
0

> <s_lp_Force_Field>
OPLS_2005

> <r_lp_Energy>
16.0387

> <b_lp_Chiralities_Consistent>
1

> <s_lp_Variant>
AV-unprocessed.smi:322-1

> <Gold.Version>
5.8.1

> <Gold.Id.Protein>
6NUR|6NUR_protein|mol2

> <Gold.PLP.Fitness>
49.4831

> <Gold.PLP.PLP>
-46.1134

> <Gold.PLP.part.hbond>
-3.0742

> <Gold.PLP.part.metal>
0.0000

> <Gold.PLP.part.buried>
-5.1813

> <Gold.PLP.part.nonpolar>
-38.3740

> <Gold.PLP.part.repulsive>
0.0690

> <Gold.PLP.ligand.clash>
0.0000

> <Gold.PLP.ligand.torsion>
1.3906

> <Gold.PLP.Chemscore.Hbond>
2.0000

> <Gold.PLP.Chemscore.CHOScore>
0.0000

> <Gold.PLP.Chemscore.Metal>
0.0000

> <Gold.Chemscore.Hbonds>
donor molecule, donor type, donor heavy atom, donor atom, acceptor molecule, acceptor atom, score
      P1  H  6896  6907       L1    16  0.88
      P1  H  7989  7998       L1     1  1.00

> <Gold.PLP.Chemscore.Internal.Correction>
0.1508

> <Gold.Rescore>
     Score         DG    S(hbond)    S(metal)    S(lipo)     H(rot)  DE(clash)    DE(int)     intcor
     16.88     -18.41       1.87        0.00     125.83       3.13       0.01       1.53       ----

> <Gold.Chemscore.Fitness>
16.8790

> <Gold.Chemscore.DG>
-18.4139

> <Gold.Chemscore.ZeroCoef>
-5.4800

> <Gold.Chemscore.Hbond>
1.8666

> <Gold.Chemscore.Metal>
0.0000

> <Gold.Chemscore.Lipo>
125.8265

> <Gold.Chemscore.Internal_Hbond>
0.0000

> <Gold.Chemscore.DEClash>
0.0089

> <Gold.Chemscore.DEInternal>
1.5260

> <Gold.Chemscore.Rot>
3.1337

> <Gold.Chemscore.Internal.Correction>
   9.000000E+99

> <Gold.Chemscore.Hbonds>
donor molecule, donor type, donor heavy atom, donor atom, acceptor molecule, acceptor atom, score
      P1  H  6896  6907       L1    16  0.19
      P1  H  7989  7998       L1     1  0.86

> <Gold.Chemscore.Hbond.Weighted>
-6.2345

> <Gold.Chemscore.Metal.Weighted>
-0.0000

> <Gold.Chemscore.Lipo.Weighted>
-14.7217

> <Gold.Chemscore.Internal_Hbond.Weighted>
0.0000

> <Gold.Chemscore.DEClash.Weighted>
0.0089

> <Gold.Chemscore.DEInternal.Weighted>
1.5260

> <Gold.Chemscore.Rot.Weighted>
8.0224

> <Gold.Chemscore.Internal.Correction.Weighted>
   9.000000E+99

> <Gold.Protein.RotatedTorsions>
[ 6907 6896 6895 6894 ] final  -28.18 input  -60.11 | X-H torsion
[ 7974 7965 7964 7962 ] final  -69.29 input  175.53 | X-H torsion
[ 8008 7997 7996 7995 ] final    9.31 input   59.86 | X-H torsion
[ 10167 10162 10161 10158 ] final  -10.47 input  -65.29 | X-H torsion
[ 10718 10713 10712 10709 ] final   92.25 input   66.30 | X-H torsion
[ 10763 10752 10751 10750 ] final  104.49 input  -60.55 | X-H torsion
[ 11005 11000 10999 10996 ] final   29.21 input  -57.11 | X-H torsion

> <Gold.Protein.ActiveResidues>
 VAL166  LYS551  ARG553  GLY616  TRP617  ASP618  TYR619  PRO620  LYS621  CYS622 
 ASP623  PHE694  ASN695  SER759  ASP760  ASP761  ALA762  ILE779  LEU786  VAL792 
 PHE793  MET794  SER795  GLU796  ALA797  LYS798  CYS799  TRP800  GLU811  SER814 

> <Gold.Protein.RotatedAtoms>
  151.1365  135.0157  159.8606 H   0  0  0  0  0  0  0  0  0  0  0  0  # atno 6907 bound_to 6896
  152.5452  134.1549  159.8544 H   0  0  0  0  0  0  0  0  0  0  0  0  # atno 6908 bound_to 6896
  151.1620  133.4793  159.2627 H   0  0  0  0  0  0  0  0  0  0  0  0  # atno 6909 bound_to 6896
  145.7056  140.9099  143.0708 H   0  0  0  0  0  0  0  0  0  0  0  0  # atno 7974 bound_to 7965
  154.7784  140.2814  155.6083 H   0  0  0  0  0  0  0  0  0  0  0  0  # atno 8008 bound_to 7997
  156.2946  140.2628  156.2532 H   0  0  0  0  0  0  0  0  0  0  0  0  # atno 8009 bound_to 7997
  154.9814  140.0375  157.2269 H   0  0  0  0  0  0  0  0  0  0  0  0  # atno 8010 bound_to 7997
  140.7114  143.5745  150.9057 H   0  0  0  0  0  0  0  0  0  0  0  0  # atno 10167 bound_to 10162
  157.6959  131.0436  150.3853 H   0  0  0  0  0  0  0  0  0  0  0  0  # atno 10718 bound_to 10713
  153.3666  135.3941  155.1758 H   0  0  0  0  0  0  0  0  0  0  0  0  # atno 10763 bound_to 10752
  154.8688  135.3692  154.5031 H   0  0  0  0  0  0  0  0  0  0  0  0  # atno 10764 bound_to 10752
  153.5495  135.7083  153.5658 H   0  0  0  0  0  0  0  0  0  0  0  0  # atno 10765 bound_to 10752
  140.3074  134.2688  155.7741 H   0  0  0  0  0  0  0  0  0  0  0  0  # atno 11005 bound_to 11000
  144.6956  139.9006  143.7458 LP  0  0  0  0  0  0  0  0  0  0  0  0  # atno 17320 bound_to 7965
  146.0759  139.3747  143.0494 LP  0  0  0  0  0  0  0  0  0  0  0  0  # atno 17321 bound_to 7965
  139.9471  143.6315  152.3039 LP  0  0  0  0  0  0  0  0  0  0  0  0  # atno 17342 bound_to 10162
  139.6820  144.7654  151.1591 LP  0  0  0  0  0  0  0  0  0  0  0  0  # atno 17343 bound_to 10162
  156.4262  130.3963  149.6791 LP  0  0  0  0  0  0  0  0  0  0  0  0  # atno 17370 bound_to 10713
  156.4024  130.7681  151.2690 LP  0  0  0  0  0  0  0  0  0  0  0  0  # atno 17371 bound_to 10713
  141.2115  133.7686  156.9857 LP  0  0  0  0  0  0  0  0  0  0  0  0  # atno 17394 bound_to 11000
  140.1055  134.9509  157.1987 LP  0  0  0  0  0  0  0  0  0  0  0  0  # atno 17395 bound_to 11000

$$$$
