AV-unprocessed.smi:2032|AV-procd|sdf|8255|dock2
  -GOLD-   2272010523D 1   1.00000     0.00000
 Structure written by MMmdl.
 42 43  0  0  0  0  0  0  0  0  3 V2000
  146.8420  131.7642  152.7392 C   0  0  0  0  0  0  0  0  0  0  0  0
  146.9198  133.2761  152.5013 C   0  0  2  0  0  0  0  0  0  0  0  0
  146.9129  134.0733  153.8182 C   0  0  0  0  0  0  0  0  0  0  0  0
  146.9398  135.5383  153.5574 N   0  3  2  0  0  0  0  0  0  0  0  0
  147.0495  136.3527  154.8130 C   0  0  2  0  0  0  0  0  0  0  0  0
  147.1273  137.8769  154.5472 C   0  0  0  0  0  0  0  0  0  0  0  0
  148.2665  135.8766  155.6491 C   0  0  0  0  0  0  0  0  0  0  0  0
  148.3417  136.5107  156.9632 N   0  0  0  0  0  0  0  0  0  0  0  0
  147.8129  136.0409  158.1026 C   0  0  0  0  0  0  0  0  0  0  0  0
  147.2104  134.9652  158.1068 O   0  0  0  0  0  0  0  0  0  0  0  0
  148.0210  136.8463  159.1679 N   0  5  0  0  0  0  0  0  0  0  0  0
  147.6903  136.4265  160.4001 C   0  0  0  0  0  0  0  0  0  0  0  0
  147.4708  137.2640  161.4201 N   0  0  0  0  0  0  0  0  0  0  0  0
  147.1419  136.6142  162.6111 C   0  0  0  0  0  0  0  0  0  0  0  0
  147.1178  135.2495  162.4971 C   0  0  0  0  0  0  0  0  0  0  0  0
  147.5120  134.7367  160.8811 S   0  0  0  0  0  0  0  0  0  0  0  0
  145.8141  135.8973  152.6511 C   0  0  0  0  0  0  0  0  0  0  0  0
  145.8320  135.0375  151.3723 C   0  0  2  0  0  0  0  0  0  0  0  0
  144.6329  135.3298  150.4632 C   0  0  0  0  0  0  0  0  0  0  0  0
  145.7932  133.6614  151.7258 O   0  0  0  0  0  0  0  0  0  0  0  0
  147.6927  131.4146  153.3249 H   0  0  0  0  0  0  0  0  0  0  0  0
  146.8455  131.2207  151.7939 H   0  0  0  0  0  0  0  0  0  0  0  0
  145.9320  131.4933  153.2756 H   0  0  0  0  0  0  0  0  0  0  0  0
  147.8341  133.4910  151.9451 H   0  0  0  0  0  0  0  0  0  0  0  0
  146.0242  133.8255  154.4010 H   0  0  0  0  0  0  0  0  0  0  0  0
  147.7722  133.7618  154.4080 H   0  0  0  0  0  0  0  0  0  0  0  0
  146.1431  136.1849  155.3971 H   0  0  0  0  0  0  0  0  0  0  0  0
  147.2166  138.4459  155.4718 H   0  0  0  0  0  0  0  0  0  0  0  0
  146.2272  138.2572  154.0646 H   0  0  0  0  0  0  0  0  0  0  0  0
  147.9857  138.1294  153.9240 H   0  0  0  0  0  0  0  0  0  0  0  0
  148.2139  134.8086  155.8497 H   0  0  0  0  0  0  0  0  0  0  0  0
  149.1873  136.0266  155.0835 H   0  0  0  0  0  0  0  0  0  0  0  0
  148.8277  137.3943  157.0155 H   0  0  0  0  0  0  0  0  0  0  0  0
  146.9401  137.2035  163.4932 H   0  0  0  0  0  0  0  0  0  0  0  0
  146.8956  134.5184  163.2596 H   0  0  0  0  0  0  0  0  0  0  0  0
  144.8672  135.7751  153.1799 H   0  0  0  0  0  0  0  0  0  0  0  0
  145.8856  136.9390  152.3397 H   0  0  0  0  0  0  0  0  0  0  0  0
  146.7464  135.2369  150.8102 H   0  0  0  0  0  0  0  0  0  0  0  0
  144.6196  136.3751  150.1534 H   0  0  0  0  0  0  0  0  0  0  0  0
  143.6910  135.1192  150.9709 H   0  0  0  0  0  0  0  0  0  0  0  0
  144.6687  134.7177  149.5616 H   0  0  0  0  0  0  0  0  0  0  0  0
  147.7825  135.7265  153.0331 H   0  0  0  0  0  0  0  0  0  0  0  0
  1  2  1  0  0  0  0
  1 21  1  0  0  0  0
  1 22  1  0  0  0  0
  1 23  1  0  0  0  0
  2 20  1  0  0  0  0
  2  3  1  0  0  0  0
  2 24  1  0  0  0  0
  3  4  1  0  0  0  0
  3 25  1  0  0  0  0
  3 26  1  0  0  0  0
  4  5  1  0  0  0  0
  4 17  1  0  0  0  0
  4 42  1  0  0  0  0
  5  6  1  0  0  0  0
  5  7  1  0  0  0  0
  5 27  1  0  0  0  0
  6 28  1  0  0  0  0
  6 29  1  0  0  0  0
  6 30  1  0  0  0  0
  7  8  1  0  0  0  0
  7 31  1  0  0  0  0
  7 32  1  0  0  0  0
  8  9  1  0  0  0  0
  8 33  1  0  0  0  0
  9 10  2  0  0  0  0
  9 11  1  0  0  0  0
 11 12  1  0  0  0  0
 12 16  1  0  0  0  0
 12 13  2  0  0  0  0
 13 14  1  0  0  0  0
 14 15  2  0  0  0  0
 14 34  1  0  0  0  0
 15 16  1  0  0  0  0
 15 35  1  0  0  0  0
 17 18  1  0  0  0  0
 17 36  1  0  0  0  0
 17 37  1  0  0  0  0
 18 19  1  0  0  0  0
 18 20  1  0  0  0  0
 18 38  1  0  0  0  0
 19 39  1  0  0  0  0
 19 40  1  0  0  0  0
 19 41  1  0  0  0  0
M  CHG  1   4   1
M  CHG  1  11  -1
M  END
> <s_m_source_file>
AV-unprocessed.smi

> <i_m_source_file_index>
2032

> <i_lp_mmshare_version>
43012

> <i_f3d_flags>
0

> <s_epik_input>
W0NIM11bQ0BASF0xW0NIMl1OKFtDSDJdW0NASF0oTzEpW0NIM10pW0NASF0oW0NIM10pW0NIMl1bTkhdQyg9TylbTkhdYzJuW2NIXVtjSF1zMg==

> <s_epik_cmdline>
J2VwaWtfcHl0aG9uJywgJy1waCcsICc3LjAnLCAnLXRuJywgJzgnLCAnLW1hJywgJzIwMCcsICctbWV0YWxfYmluZGluZycsICctaW1hZScsICc8aW5maWxlLm1hZT4nLCAnLW9tYWUnLCAnPG91dGZpbGUubWFlPic=

> <r_lp_tautomer_probability>
0.999

> <r_epik_Ionization_Penalty>
6.71699

> <r_epik_Ionization_Penalty_Charging>
5.88592

> <r_epik_Ionization_Penalty_Neutral>
0.831074

> <r_epik_State_Penalty>
6.08365

> <r_epik_Charging_Adjusted_Penalty>
11.9696

> <i_epik_Tot_Q>
0

> <i_epik_Tot_abs_Q>
2

> <r_epik_Metal_State_Penalty>
2.0947

> <b_epik_Metal_Only>
1

> <s_lp_Force_Field>
OPLS_2005

> <r_lp_Energy>
9.66165

> <b_lp_Chiralities_Consistent>
1

> <s_lp_Variant>
AV-unprocessed.smi:2032-25

> <Gold.Version>
5.8.1

> <Gold.Id.Protein>
6NUR|6NUR_protein|mol2

> <Gold.PLP.Fitness>
40.0079

> <Gold.PLP.PLP>
-29.2029

> <Gold.PLP.part.hbond>
-3.0000

> <Gold.PLP.part.metal>
0.0000

> <Gold.PLP.part.buried>
-3.2115

> <Gold.PLP.part.nonpolar>
-22.0959

> <Gold.PLP.part.repulsive>
0.1304

> <Gold.PLP.ligand.clash>
0.0000

> <Gold.PLP.ligand.torsion>
0.3335

> <Gold.PLP.Chemscore.Hbond>
3.8000

> <Gold.PLP.Chemscore.CHOScore>
0.0000

> <Gold.PLP.Chemscore.Metal>
0.0000

> <Gold.Chemscore.Hbonds>
donor molecule, donor type, donor heavy atom, donor atom, acceptor molecule, acceptor atom, score
      L1  H     4    42       P1  7948  2.00
      P1  H  6931  6943       L1    13  0.88
      P1  H  6934  6947       L1    13  0.88

> <Gold.PLP.Chemscore.Internal.Correction>
0.0720

> <Gold.Rescore>
     Score         DG    S(hbond)    S(metal)    S(lipo)     H(rot)  DE(clash)    DE(int)     intcor
     14.71     -16.47       2.44        0.00      58.79       1.58       0.01       1.75       ----

> <Gold.Chemscore.Fitness>
14.7076

> <Gold.Chemscore.DG>
-16.4662

> <Gold.Chemscore.ZeroCoef>
-5.4800

> <Gold.Chemscore.Hbond>
2.4402

> <Gold.Chemscore.Metal>
0.0000

> <Gold.Chemscore.Lipo>
58.7890

> <Gold.Chemscore.Internal_Hbond>
0.0000

> <Gold.Chemscore.DEClash>
0.0089

> <Gold.Chemscore.DEInternal>
1.7497

> <Gold.Chemscore.Rot>
1.5791

> <Gold.Chemscore.Internal.Correction>
   9.000000E+99

> <Gold.Chemscore.Hbonds>
donor molecule, donor type, donor heavy atom, donor atom, acceptor molecule, acceptor atom, score
      L1  H     4    42       P1  7948  1.00
      P1  H  6931  6943       L1    13  0.26
      P1  H  6934  6947       L1    13  0.78

> <Gold.Chemscore.Hbond.Weighted>
-8.1503

> <Gold.Chemscore.Metal.Weighted>
-0.0000

> <Gold.Chemscore.Lipo.Weighted>
-6.8783

> <Gold.Chemscore.Internal_Hbond.Weighted>
0.0000

> <Gold.Chemscore.DEClash.Weighted>
0.0089

> <Gold.Chemscore.DEInternal.Weighted>
1.7497

> <Gold.Chemscore.Rot.Weighted>
4.0425

> <Gold.Chemscore.Internal.Correction.Weighted>
   9.000000E+99

> <Gold.Protein.RotatedTorsions>
[ 6907 6896 6895 6894 ] final   88.12 input  -60.11 | X-H torsion
[ 7974 7965 7964 7962 ] final -125.09 input  175.53 | X-H torsion
[ 8008 7997 7996 7995 ] final   65.82 input   59.86 | X-H torsion
[ 10167 10162 10161 10158 ] final  173.21 input  -65.29 | X-H torsion
[ 10718 10713 10712 10709 ] final  156.70 input   66.30 | X-H torsion
[ 10763 10752 10751 10750 ] final  -72.57 input  -60.55 | X-H torsion
[ 11005 11000 10999 10996 ] final   78.64 input  -57.11 | X-H torsion

> <Gold.Protein.ActiveResidues>
 VAL166  LYS551  ARG553  GLY616  TRP617  ASP618  TYR619  PRO620  LYS621  CYS622 
 ASP623  PHE694  ASN695  SER759  ASP760  ASP761  ALA762  ILE779  LEU786  VAL792 
 PHE793  MET794  SER795  GLU796  ALA797  LYS798  CYS799  TRP800  GLU811  SER814 

> <Gold.Protein.RotatedAtoms>
  152.5421  134.2170  159.8772 H   0  0  0  0  0  0  0  0  0  0  0  0  # atno 6907 bound_to 6896
  151.2149  133.4528  159.2606 H   0  0  0  0  0  0  0  0  0  0  0  0  # atno 6908 bound_to 6896
  151.0861  134.9901  159.8435 H   0  0  0  0  0  0  0  0  0  0  0  0  # atno 6909 bound_to 6896
  145.0012  140.7822  143.4495 H   0  0  0  0  0  0  0  0  0  0  0  0  # atno 7974 bound_to 7965
  155.6677  140.3497  155.4806 H   0  0  0  0  0  0  0  0  0  0  0  0  # atno 8008 bound_to 7997
  155.9715  140.1156  157.0831 H   0  0  0  0  0  0  0  0  0  0  0  0  # atno 8009 bound_to 7997
  154.4167  140.1156  156.5298 H   0  0  0  0  0  0  0  0  0  0  0  0  # atno 8010 bound_to 7997
  139.5101  144.3287  152.0133 H   0  0  0  0  0  0  0  0  0  0  0  0  # atno 10167 bound_to 10162
  157.2015  131.0677  151.2022 H   0  0  0  0  0  0  0  0  0  0  0  0  # atno 10718 bound_to 10713
  154.4475  135.5925  153.6169 H   0  0  0  0  0  0  0  0  0  0  0  0  # atno 10763 bound_to 10752
  152.9810  135.6013  154.3646 H   0  0  0  0  0  0  0  0  0  0  0  0  # atno 10764 bound_to 10752
  154.3503  135.2841  155.2354 H   0  0  0  0  0  0  0  0  0  0  0  0  # atno 10765 bound_to 10752
  139.9204  134.7779  156.1675 H   0  0  0  0  0  0  0  0  0  0  0  0  # atno 11005 bound_to 11000
  145.2150  139.2186  143.5123 LP  0  0  0  0  0  0  0  0  0  0  0  0  # atno 17320 bound_to 7965
  146.3452  140.1996  142.8589 LP  0  0  0  0  0  0  0  0  0  0  0  0  # atno 17321 bound_to 7965
  140.2727  144.3947  150.6146 LP  0  0  0  0  0  0  0  0  0  0  0  0  # atno 17342 bound_to 10162
  140.6077  143.2168  151.6949 LP  0  0  0  0  0  0  0  0  0  0  0  0  # atno 17343 bound_to 10162
  157.3762  130.7207  149.6599 LP  0  0  0  0  0  0  0  0  0  0  0  0  # atno 17370 bound_to 10713
  155.9700  130.4185  150.4330 LP  0  0  0  0  0  0  0  0  0  0  0  0  # atno 17371 bound_to 10713
  141.0720  133.6792  156.2160 LP  0  0  0  0  0  0  0  0  0  0  0  0  # atno 17394 bound_to 11000
  140.6490  134.5086  157.5576 LP  0  0  0  0  0  0  0  0  0  0  0  0  # atno 17395 bound_to 11000

$$$$
