#       Name:                AV-unprocessed.smi:972
#       Creating user name   scv26
#       Creation time:       Fri Mar 27 02:20:31 2020


#       File generated by GOLD software.
#

@<TRIPOS>MOLECULE
AV-unprocessed.smi:972
    55    57     1
SMALL
NO_CHARGES


@<TRIPOS>ATOM
      1 ****        -6.9522  -2.4857  -1.1624 C.3            1 S1                 0.0000
      2 ****        -6.4686  -1.2018  -0.4475 C.3            1 S1                 0.0000
      3 ****        -7.1723  -0.0246  -1.1628 C.3            1 S1                 0.0000
      4 ****        -6.9007  -1.2430   1.0298 C.3            1 S1                 0.0000
      5 ****        -4.9385  -1.0626  -0.5298 C.ar           1 S1                 0.0000
      6 ****        -4.2193  -2.1919  -0.4866 N.ar           1 S1                 0.0000
      7 ****        -2.8764  -2.0771  -0.4251 C.ar           1 S1                 0.0000
      8 ****        -2.2356  -0.8237  -0.3635 C.ar           1 S1                 0.0000
      9 ****        -0.8164  -0.7815  -0.3097 N.am           1 S1                 0.0000
     10 ****        -0.0196   0.2478   0.0244 C.2            1 S1                 0.0000
     11 ****        -0.4056   1.3652   0.3659 O.2            1 S1                 0.0000
     12 ****         1.2720  -0.1045  -0.0450 N.am           1 S1                 0.0000
     13 ****         2.4116   0.7541   0.2662 C.3            1 S1                 0.0000
     14 ****         3.2830   0.9493  -0.9847 C.3            1 S1                 0.0000
     15 ****         4.5761   1.7111  -0.6441 C.3            1 S1                 0.0000
     16 ****         5.3308   0.9918   0.3826 N.3            1 S1                 0.0000
     17 ****         6.5653   1.7113   0.6500 C.3            1 S1                 0.0000
     18 ****         7.7561   1.4093  -0.2310 C.3            1 S1                 0.0000
     19 ****         7.7311   0.9193   1.1968 C.3            1 S1                 0.0000
     20 ****         4.5488   0.9219   1.6171 C.3            1 S1                 0.0000
     21 ****         3.2571   0.1201   1.3817 C.3            1 S1                 0.0000
     22 ****        -3.0900   0.3046  -0.3836 C.ar           1 S1                 0.0000
     23 ****        -4.4323   0.1748  -0.4479 N.ar           1 S1                 0.0000
     24 ****        -8.0399  -2.5626  -1.1474 H              1 S1                 0.0000
     25 ****        -6.5674  -3.3885  -0.6865 H              1 S1                 0.0000
     26 ****        -6.6373  -2.5019  -2.2065 H              1 S1                 0.0000
     27 ****        -6.8635   0.0472  -2.2065 H              1 S1                 0.0000
     28 ****        -6.9549   0.9326  -0.6874 H              1 S1                 0.0000
     29 ****        -8.2564  -0.1423  -1.1499 H              1 S1                 0.0000
     30 ****        -7.9826  -1.3388   1.1259 H              1 S1                 0.0000
     31 ****        -6.6025  -0.3350   1.5552 H              1 S1                 0.0000
     32 ****        -6.4478  -2.0875   1.5507 H              1 S1                 0.0000
     33 ****        -2.3106  -2.9971  -0.4148 H              1 S1                 0.0000
     34 ****        -0.3512  -1.6552  -0.5085 H              1 S1                 0.0000
     35 ****         1.4870  -1.0477  -0.3334 H              1 S1                 0.0000
     36 ****         2.0765   1.7352   0.6078 H              1 S1                 0.0000
     37 ****         3.5384  -0.0190  -1.4183 H              1 S1                 0.0000
     38 ****         2.7244   1.4924  -1.7478 H              1 S1                 0.0000
     39 ****         5.1864   1.8096  -1.5425 H              1 S1                 0.0000
     40 ****         4.3426   2.7212  -0.3031 H              1 S1                 0.0000
     41 ****         6.4994   2.7394   1.0028 H              1 S1                 0.0000
     42 ****         7.6346   0.6668  -1.0177 H              1 S1                 0.0000
     43 ****         8.4254   2.2337  -0.4682 H              1 S1                 0.0000
     44 ****         8.3828   1.4172   1.9119 H              1 S1                 0.0000
     45 ****         7.5928  -0.1483   1.3576 H              1 S1                 0.0000
     46 ****         5.1396   0.4377   2.3956 H              1 S1                 0.0000
     47 ****         4.3128   1.9265   1.9723 H              1 S1                 0.0000
     48 ****         2.6800   0.0704   2.3057 H              1 S1                 0.0000
     49 ****         3.5130  -0.9082   1.1206 H              1 S1                 0.0000
     50 ****        -2.7242   1.3189  -0.3604 H              1 S1                 0.0000
     51 ****        -4.6622  -3.0884  -0.4994 LP             1 S1                 0.0000
     52 ****        -1.3847   1.5638   0.4112 LP             1 S1                 0.0000
     53 ****         0.2597   2.0747   0.5982 LP             1 S1                 0.0000
     54 ****         5.5291   0.0659   0.0610 LP             1 S1                 0.0000
     55 ****        -5.0295   0.9768  -0.4348 LP             1 S1                 0.0000
@<TRIPOS>BOND
    1    1    2 1     
    2    1   24 1     
    3    1   25 1     
    4    1   26 1     
    5    2    3 1     
    6    2    4 1     
    7    2    5 1     
    8    3   27 1     
    9    3   28 1     
   10    3   29 1     
   11    4   30 1     
   12    4   31 1     
   13    4   32 1     
   14    5   23 ar    
   15    5    6 ar    
   16    6    7 ar    
   17    7    8 ar    
   18    7   33 1     
   19    8    9 1     
   20    8   22 ar    
   21    9   10 am    
   22    9   34 1     
   23   10   11 2     
   24   10   12 am    
   25   12   13 1     
   26   12   35 1     
   27   13   21 1     
   28   13   14 1     
   29   13   36 1     
   30   14   15 1     
   31   14   37 1     
   32   14   38 1     
   33   15   16 1     
   34   15   39 1     
   35   15   40 1     
   36   16   17 1     
   37   16   20 1     
   38   17   19 1     
   39   17   18 1     
   40   17   41 1     
   41   18   19 1     
   42   18   42 1     
   43   18   43 1     
   44   19   44 1     
   45   19   45 1     
   46   20   21 1     
   47   20   46 1     
   48   20   47 1     
   49   21   48 1     
   50   21   49 1     
   51   22   23 ar    
   52   22   50 1     
   53    6   51 1     
   54   11   52 1     
   55   11   53 1     
   56   16   54 1     
   57   23   55 1     
@<TRIPOS>SUBSTRUCTURE
      1 S1             1
@<TRIPOS>SET
LONE_PAIRS      STATIC     ATOMS    <user>   **** ""
5 51 52 53 54 55
DONOR_HYDROGENS      STATIC     ATOMS    <user>   **** ""
2 34 35
ATOM$BLUE        STATIC     ATOMS    COLORGROUP SYSTEM
5 51 52 53 54 55
ATOM$RED        STATIC     ATOMS    COLORGROUP SYSTEM
2 34 35
