#       Name:                AV-unprocessed.smi:1805
#       Creating user name   scv26
#       Creation time:       Fri Mar 27 08:55:28 2020


#       File generated by GOLD software.
#

@<TRIPOS>MOLECULE
AV-unprocessed.smi:1805
    34    35     1
SMALL
NO_CHARGES


@<TRIPOS>ATOM
      1 ****        -0.4405   1.3357   0.8949 O.2            1 S1                 0.0000
      2 ****        -0.8565   0.1803   0.9833 C.2            1 S1                 0.0000
      3 ****        -0.0583  -0.8950   1.0390 N.am           1 S1                 0.0000
      4 ****         1.3991  -0.8617   0.9901 C.3            1 S1                 0.0000
      5 ****         1.9168  -0.9777  -0.4528 C.3            1 S1                 0.0000
      6 ****         3.4391  -1.0609  -0.5563 C.3            1 S1                 0.0000
      7 ****         3.7388  -0.5083  -1.9420 C.3            1 S1                 0.0000
      8 ****         2.4253   0.1478  -2.3761 C.3            1 S1                 0.0000
      9 ****         1.6315   0.1942  -1.1998 O.3            1 S1                 0.0000
     10 ****        -2.1516  -0.1715   1.0371 N.am           1 S1                 0.0000
     11 ****        -3.2790   0.6880   1.0147 C.2            1 S1                 0.0000
     12 ****        -4.6304   0.2523   1.0779 C.2            1 S1                 0.0000
     13 ****        -5.4711   1.2762   1.0396 N.2            1 S1                 0.0000
     14 ****        -4.6691   2.3614   0.9526 N.pl3          1 S1                 0.0000
     15 ****        -3.3270   2.0515   0.9340 C.2            1 S1                 0.0000
     16 ****        -5.0481   3.2966   0.9074 H              1 S1                 0.0000
     17 ****        -0.4897  -1.8046   1.1117 H              1 S1                 0.0000
     18 ****         1.7862   0.0387   1.4703 H              1 S1                 0.0000
     19 ****         1.7655  -1.7049   1.5761 H              1 S1                 0.0000
     20 ****         1.4661  -1.8377  -0.9523 H              1 S1                 0.0000
     21 ****         3.9043  -0.4228   0.1965 H              1 S1                 0.0000
     22 ****         3.8135  -2.0749  -0.4134 H              1 S1                 0.0000
     23 ****         4.5533   0.2155  -1.9006 H              1 S1                 0.0000
     24 ****         4.0254  -1.2972  -2.6383 H              1 S1                 0.0000
     25 ****         2.5712   1.1446  -2.7929 H              1 S1                 0.0000
     26 ****         1.9200  -0.4642  -3.1246 H              1 S1                 0.0000
     27 ****        -2.3526  -1.1584   1.1058 H              1 S1                 0.0000
     28 ****        -5.0214  -0.7521   1.1492 H              1 S1                 0.0000
     29 ****        -2.5595   2.8083   0.8676 H              1 S1                 0.0000
     30 ****         0.5433   1.5117   0.8608 LP             1 S1                 0.0000
     31 ****        -1.0865   2.0982   0.8572 LP             1 S1                 0.0000
     32 ****         1.8612   1.0064  -0.6635 LP             1 S1                 0.0000
     33 ****         0.6615   0.2181  -1.4420 LP             1 S1                 0.0000
     34 ****        -6.4704   1.2518   1.0685 LP             1 S1                 0.0000
@<TRIPOS>BOND
    1    1    2 2     
    2    2    3 am    
    3    2   10 am    
    4    3    4 1     
    5    3   17 1     
    6    4    5 1     
    7    4   18 1     
    8    4   19 1     
    9    5    9 1     
   10    5    6 1     
   11    5   20 1     
   12    6    7 1     
   13    6   21 1     
   14    6   22 1     
   15    7    8 1     
   16    7   23 1     
   17    7   24 1     
   18    8    9 1     
   19    8   25 1     
   20    8   26 1     
   21   10   11 1     
   22   10   27 1     
   23   11   15 2     
   24   11   12 1     
   25   12   13 2     
   26   12   28 1     
   27   13   14 1     
   28   14   16 1     
   29   14   15 1     
   30   15   29 1     
   31    1   30 1     
   32    1   31 1     
   33    9   32 1     
   34    9   33 1     
   35   13   34 1     
@<TRIPOS>SUBSTRUCTURE
      1 S1             1
@<TRIPOS>SET
LONE_PAIRS      STATIC     ATOMS    <user>   **** ""
5 30 31 32 33 34
DONOR_HYDROGENS      STATIC     ATOMS    <user>   **** ""
3 17 27 16
ATOM$BLUE        STATIC     ATOMS    COLORGROUP SYSTEM
5 30 31 32 33 34
ATOM$RED        STATIC     ATOMS    COLORGROUP SYSTEM
3 17 27 16
