#       Name:                AV-unprocessed.smi:2229
#       Creating user name   scv26
#       Creation time:       Fri Mar 27 12:23:11 2020


#       File generated by GOLD software.
#

@<TRIPOS>MOLECULE
AV-unprocessed.smi:2229
    49    50     1
SMALL
NO_CHARGES


@<TRIPOS>ATOM
      1 ****        -4.2502   2.0448   1.1748 C.3            1 S1                 0.0000
      2 ****        -2.7184   2.0710   1.0582 C.3            1 S1                 0.0000
      3 ****        -2.2909   2.8918  -0.1712 C.3            1 S1                 0.0000
      4 ****        -2.1491   0.6376   1.0391 C.3            1 S1                 0.0000
      5 ****        -0.6199   0.5686   1.1966 C.3            1 S1                 0.0000
      6 ****        -0.0694  -0.8686   1.1658 C.3            1 S1                 0.0000
      7 ****        -0.4254  -1.7313   2.3779 C.3            1 S1                 0.0000
      8 ****         0.5705  -2.8881   2.3088 C.3            1 S1                 0.0000
      9 ****         1.8572  -2.2864   1.7294 C.3            1 S1                 0.0000
     10 ****         1.4653  -0.9316   1.1067 C.3            1 S1                 0.0000
     11 ****         1.9194  -0.7910  -0.2708 N.am           1 S1                 0.0000
     12 ****         3.1599  -0.4527  -0.6565 C.2            1 S1                 0.0000
     13 ****         4.0890  -0.3103   0.1369 O.2            1 S1                 0.0000
     14 ****         3.4085  -0.2148  -2.1556 C.3            1 S1                 0.0000
     15 ****         2.1948  -0.1339  -2.9771 N.am           1 S1                 0.0000
     16 ****         1.8088  -1.1215  -3.8584 C.2            1 S1                 0.0000
     17 ****         0.7096  -0.8241  -4.4633 N.2            1 S1                 0.0000
     18 ****         0.4058   0.3892  -3.9437 N.am           1 S1                 0.0000
     19 ****         1.2847   0.8356  -3.0454 C.2            1 S1                 0.0000
     20 ****         1.2498   1.8935  -2.4199 O.2            1 S1                 0.0000
     21 ****        -0.4300   0.8640  -4.2534 H              1 S1                 0.0000
     22 ****        -4.7047   1.5530   0.3141 H              1 S1                 0.0000
     23 ****        -4.6579   3.0543   1.2345 H              1 S1                 0.0000
     24 ****        -4.5694   1.5109   2.0704 H              1 S1                 0.0000
     25 ****        -2.3363   2.5750   1.9469 H              1 S1                 0.0000
     26 ****        -2.6010   2.4085  -1.0980 H              1 S1                 0.0000
     27 ****        -1.2109   3.0301  -0.2121 H              1 S1                 0.0000
     28 ****        -2.7375   3.8864  -0.1515 H              1 S1                 0.0000
     29 ****        -2.6053   0.0675   1.8491 H              1 S1                 0.0000
     30 ****        -2.4470   0.1393   0.1154 H              1 S1                 0.0000
     31 ****        -0.1502   1.1270   0.3872 H              1 S1                 0.0000
     32 ****        -0.3180   1.0613   2.1214 H              1 S1                 0.0000
     33 ****        -0.4668  -1.3725   0.2821 H              1 S1                 0.0000
     34 ****        -0.2728  -1.1672   3.2991 H              1 S1                 0.0000
     35 ****        -1.4601  -2.0749   2.3627 H              1 S1                 0.0000
     36 ****         0.7300  -3.3569   3.2802 H              1 S1                 0.0000
     37 ****         0.1900  -3.6544   1.6324 H              1 S1                 0.0000
     38 ****         2.5967  -2.1314   2.5159 H              1 S1                 0.0000
     39 ****         2.3018  -2.9679   1.0027 H              1 S1                 0.0000
     40 ****         1.8807  -0.1281   1.7187 H              1 S1                 0.0000
     41 ****         1.2174  -0.8950  -0.9890 H              1 S1                 0.0000
     42 ****         3.9645   0.7170  -2.2688 H              1 S1                 0.0000
     43 ****         4.0648  -1.0053  -2.5226 H              1 S1                 0.0000
     44 ****         2.4207  -2.0186  -3.9678 H              1 S1                 0.0000
     45 ****         3.9362  -0.4474   1.1156 LP             1 S1                 0.0000
     46 ****         4.9972  -0.0574  -0.1968 LP             1 S1                 0.0000
     47 ****         0.2074  -1.3559  -5.1452 LP             1 S1                 0.0000
     48 ****         1.9705   2.1087  -1.7610 LP             1 S1                 0.0000
     49 ****         0.5007   2.5387  -2.5702 LP             1 S1                 0.0000
@<TRIPOS>BOND
    1    1    2 1     
    2    1   22 1     
    3    1   23 1     
    4    1   24 1     
    5    2    3 1     
    6    2    4 1     
    7    2   25 1     
    8    3   26 1     
    9    3   27 1     
   10    3   28 1     
   11    4    5 1     
   12    4   29 1     
   13    4   30 1     
   14    5    6 1     
   15    5   31 1     
   16    5   32 1     
   17    6   10 1     
   18    6    7 1     
   19    6   33 1     
   20    7    8 1     
   21    7   34 1     
   22    7   35 1     
   23    8    9 1     
   24    8   36 1     
   25    8   37 1     
   26    9   10 1     
   27    9   38 1     
   28    9   39 1     
   29   10   11 1     
   30   10   40 1     
   31   11   12 am    
   32   11   41 1     
   33   12   13 2     
   34   12   14 1     
   35   14   15 1     
   36   14   42 1     
   37   14   43 1     
   38   15   19 am    
   39   15   16 1     
   40   16   17 2     
   41   16   44 1     
   42   17   18 1     
   43   18   21 1     
   44   18   19 am    
   45   19   20 2     
   46   13   45 1     
   47   13   46 1     
   48   17   47 1     
   49   20   48 1     
   50   20   49 1     
@<TRIPOS>SUBSTRUCTURE
      1 S1             1
@<TRIPOS>SET
LONE_PAIRS      STATIC     ATOMS    <user>   **** ""
5 45 46 47 48 49
DONOR_HYDROGENS      STATIC     ATOMS    <user>   **** ""
2 41 21
ATOM$BLUE        STATIC     ATOMS    COLORGROUP SYSTEM
5 45 46 47 48 49
ATOM$RED        STATIC     ATOMS    COLORGROUP SYSTEM
2 41 21
