AV-unprocessed.smi:1971|AV-procd|sdf|7968|dock3
  -GOLD-   2272010143D 1   1.00000     0.00000
 Structure written by MMmdl.
 43 44  0  0  0  0  0  0  0  0  3 V2000
  150.6504  144.6134  159.2630 C   0  0  0  0  0  0  0  0  0  0  0  0
  151.3421  143.6141  158.3250 C   0  0  0  0  0  0  0  0  0  0  0  0
  150.3819  142.8896  157.4557 N   0  3  0  0  0  0  0  0  0  0  0  0
  149.5445  141.9306  158.2167 C   0  0  0  0  0  0  0  0  0  0  0  0
  148.5328  141.2391  157.2795 C   0  0  0  0  0  0  0  0  0  0  0  0
  149.2083  140.4927  156.2086 N   0  0  0  0  0  0  0  0  0  0  0  0
  149.9937  139.3129  156.6382 C   0  0  2  0  0  0  0  0  0  0  0  0
  151.0819  138.9849  155.5874 C   0  0  0  0  0  0  0  0  0  0  0  0
  149.0887  138.0777  156.8824 C   0  0  0  0  0  0  0  0  0  0  0  0
  148.5220  138.0790  158.2260 N   0  0  0  0  0  0  0  0  0  0  0  0
  148.7178  137.1287  159.1491 C   0  0  0  0  0  0  0  0  0  0  0  0
  149.4359  136.1602  158.8900 O   0  0  0  0  0  0  0  0  0  0  0  0
  148.0681  137.3591  160.3123 N   0  5  0  0  0  0  0  0  0  0  0  0
  147.5674  136.3314  161.0171 C   0  0  0  0  0  0  0  0  0  0  0  0
  147.1149  135.2086  160.4471 N   0  0  0  0  0  0  0  0  0  0  0  0
  146.6339  134.2739  161.3657 C   0  0  0  0  0  0  0  0  0  0  0  0
  146.7136  134.6983  162.6654 C   0  0  0  0  0  0  0  0  0  0  0  0
  147.3984  136.2948  162.7749 S   0  0  0  0  0  0  0  0  0  0  0  0
  149.9622  141.4905  155.4348 C   0  0  0  0  0  0  0  0  0  0  0  0
  151.0200  142.2158  156.2958 C   0  0  0  0  0  0  0  0  0  0  0  0
  151.3747  145.0651  159.9412 H   0  0  0  0  0  0  0  0  0  0  0  0
  149.8912  144.1220  159.8723 H   0  0  0  0  0  0  0  0  0  0  0  0
  150.1716  145.4254  158.7163 H   0  0  0  0  0  0  0  0  0  0  0  0
  152.0945  144.1159  157.7148 H   0  0  0  0  0  0  0  0  0  0  0  0
  151.8773  142.8916  158.9426 H   0  0  0  0  0  0  0  0  0  0  0  0
  150.1732  141.2010  158.7290 H   0  0  0  0  0  0  0  0  0  0  0  0
  148.9984  142.4688  158.9923 H   0  0  0  0  0  0  0  0  0  0  0  0
  147.8509  140.6040  157.8416 H   0  0  0  0  0  0  0  0  0  0  0  0
  147.8906  141.9953  156.8253 H   0  0  0  0  0  0  0  0  0  0  0  0
  150.4956  139.5331  157.5793 H   0  0  0  0  0  0  0  0  0  0  0  0
  151.6259  138.0741  155.8361 H   0  0  0  0  0  0  0  0  0  0  0  0
  151.8411  139.7620  155.5162 H   0  0  0  0  0  0  0  0  0  0  0  0
  150.6469  138.8425  154.5976 H   0  0  0  0  0  0  0  0  0  0  0  0
  148.2420  138.0678  156.1971 H   0  0  0  0  0  0  0  0  0  0  0  0
  149.6495  137.1547  156.7262 H   0  0  0  0  0  0  0  0  0  0  0  0
  147.9312  138.8580  158.4767 H   0  0  0  0  0  0  0  0  0  0  0  0
  146.2506  133.3308  161.0052 H   0  0  0  0  0  0  0  0  0  0  0  0
  146.4119  134.1743  163.5595 H   0  0  0  0  0  0  0  0  0  0  0  0
  150.4248  141.0463  154.5556 H   0  0  0  0  0  0  0  0  0  0  0  0
  149.2591  142.2243  155.0383 H   0  0  0  0  0  0  0  0  0  0  0  0
  151.5230  142.9557  155.6743 H   0  0  0  0  0  0  0  0  0  0  0  0
  151.7923  141.5256  156.6364 H   0  0  0  0  0  0  0  0  0  0  0  0
  149.7460  143.5792  157.0816 H   0  0  0  0  0  0  0  0  0  0  0  0
  1  2  1  0  0  0  0
  1 21  1  0  0  0  0
  1 22  1  0  0  0  0
  1 23  1  0  0  0  0
  2  3  1  0  0  0  0
  2 24  1  0  0  0  0
  2 25  1  0  0  0  0
  3 20  1  0  0  0  0
  3  4  1  0  0  0  0
  3 43  1  0  0  0  0
  4  5  1  0  0  0  0
  4 26  1  0  0  0  0
  4 27  1  0  0  0  0
  5  6  1  0  0  0  0
  5 28  1  0  0  0  0
  5 29  1  0  0  0  0
  6  7  1  0  0  0  0
  6 19  1  0  0  0  0
  7  8  1  0  0  0  0
  7  9  1  0  0  0  0
  7 30  1  0  0  0  0
  8 31  1  0  0  0  0
  8 32  1  0  0  0  0
  8 33  1  0  0  0  0
  9 10  1  0  0  0  0
  9 34  1  0  0  0  0
  9 35  1  0  0  0  0
 10 11  1  0  0  0  0
 10 36  1  0  0  0  0
 11 12  2  0  0  0  0
 11 13  1  0  0  0  0
 13 14  1  0  0  0  0
 14 18  1  0  0  0  0
 14 15  2  0  0  0  0
 15 16  1  0  0  0  0
 16 17  2  0  0  0  0
 16 37  1  0  0  0  0
 17 18  1  0  0  0  0
 17 38  1  0  0  0  0
 19 20  1  0  0  0  0
 19 39  1  0  0  0  0
 19 40  1  0  0  0  0
 20 41  1  0  0  0  0
 20 42  1  0  0  0  0
M  CHG  1   3   1
M  CHG  1  13  -1
M  END
> <s_m_source_file>
AV-unprocessed.smi

> <i_m_source_file_index>
1971

> <i_lp_mmshare_version>
43012

> <i_f3d_flags>
0

> <s_epik_input>
W0NIM11bQ0gyXU4xW0NIMl1bQ0gyXU4oW0NIMl1bQ0gyXTEpW0NASF0oW0NIM10pW0NIMl1bTkhdQyg9TylbTkhdYzJuW2NIXVtjSF1zMg==

> <s_epik_cmdline>
J2VwaWtfcHl0aG9uJywgJy1waCcsICc3LjAnLCAnLXRuJywgJzgnLCAnLW1hJywgJzIwMCcsICctbWV0YWxfYmluZGluZycsICctaW1hZScsICc8aW5maWxlLm1hZT4nLCAnLW9tYWUnLCAnPG91dGZpbGUubWFlPic=

> <r_lp_tautomer_probability>
0.999

> <r_epik_Ionization_Penalty>
7.06996

> <r_epik_Ionization_Penalty_Charging>
5.92347

> <r_epik_Ionization_Penalty_Neutral>
1.14649

> <r_epik_State_Penalty>
6.04391

> <r_epik_Charging_Adjusted_Penalty>
11.9674

> <i_epik_Tot_Q>
0

> <i_epik_Tot_abs_Q>
2

> <r_epik_Metal_State_Penalty>
2.01291

> <b_epik_Metal_Only>
1

> <s_lp_Force_Field>
OPLS_2005

> <r_lp_Energy>
13.2012

> <b_lp_Chiralities_Consistent>
1

> <s_lp_Variant>
AV-unprocessed.smi:1971-7

> <Gold.Version>
5.8.1

> <Gold.Id.Protein>
6NUR|6NUR_protein|mol2

> <Gold.PLP.Fitness>
49.0016

> <Gold.PLP.PLP>
-35.8682

> <Gold.PLP.part.hbond>
-4.0000

> <Gold.PLP.part.metal>
0.0000

> <Gold.PLP.part.buried>
-5.4884

> <Gold.PLP.part.nonpolar>
-27.3561

> <Gold.PLP.part.repulsive>
0.1926

> <Gold.PLP.ligand.clash>
0.0517

> <Gold.PLP.ligand.torsion>
1.3601

> <Gold.PLP.Chemscore.Hbond>
5.2490

> <Gold.PLP.Chemscore.CHOScore>
0.0000

> <Gold.PLP.Chemscore.Metal>
0.0000

> <Gold.Chemscore.Hbonds>
donor molecule, donor type, donor heavy atom, donor atom, acceptor molecule, acceptor atom, score
      L1  H     3    43       P1  8028  2.00
      P1  H  6896  6908       L1    12  0.91
      P1  H  6931  6943       L1    13  1.00
      P1  H  6934  6947       L1    13  1.38

> <Gold.PLP.Chemscore.Internal.Correction>
0.1585

> <Gold.Rescore>
     Score         DG    S(hbond)    S(metal)    S(lipo)     H(rot)  DE(clash)    DE(int)     intcor
     17.81     -19.52       2.87        0.00      76.32       1.75       0.02       1.69       ----

> <Gold.Chemscore.Fitness>
17.8080

> <Gold.Chemscore.DG>
-19.5204

> <Gold.Chemscore.ZeroCoef>
-5.4800

> <Gold.Chemscore.Hbond>
2.8721

> <Gold.Chemscore.Metal>
0.0000

> <Gold.Chemscore.Lipo>
76.3155

> <Gold.Chemscore.Internal_Hbond>
0.0000

> <Gold.Chemscore.DEClash>
0.0202

> <Gold.Chemscore.DEInternal>
1.6922

> <Gold.Chemscore.Rot>
1.7505

> <Gold.Chemscore.Internal.Correction>
   9.000000E+99

> <Gold.Chemscore.Hbonds>
donor molecule, donor type, donor heavy atom, donor atom, acceptor molecule, acceptor atom, score
      L1  H     3    43       P1  8028  0.91
      P1  H  6896  6908       L1    12  0.87
      P1  H  6931  6943       L1    13  0.08
      P1  H  6934  6947       L1    13  0.47

> <Gold.Chemscore.Hbond.Weighted>
-9.5928

> <Gold.Chemscore.Metal.Weighted>
-0.0000

> <Gold.Chemscore.Lipo.Weighted>
-8.9289

> <Gold.Chemscore.Internal_Hbond.Weighted>
0.0000

> <Gold.Chemscore.DEClash.Weighted>
0.0202

> <Gold.Chemscore.DEInternal.Weighted>
1.6922

> <Gold.Chemscore.Rot.Weighted>
4.4813

> <Gold.Chemscore.Internal.Correction.Weighted>
   9.000000E+99

> <Gold.Protein.RotatedTorsions>
[ 6907 6896 6895 6894 ] final -171.58 input  -60.11 | X-H torsion
[ 7974 7965 7964 7962 ] final   57.03 input  175.53 | X-H torsion
[ 8008 7997 7996 7995 ] final  121.27 input   59.86 | X-H torsion
[ 10167 10162 10161 10158 ] final  -10.98 input  -65.29 | X-H torsion
[ 10718 10713 10712 10709 ] final  -82.91 input   66.30 | X-H torsion
[ 10763 10752 10751 10750 ] final   21.66 input  -60.55 | X-H torsion
[ 11005 11000 10999 10996 ] final    7.41 input  -57.11 | X-H torsion

> <Gold.Protein.ActiveResidues>
 VAL166  LYS551  ARG553  GLY616  TRP617  ASP618  TYR619  PRO620  LYS621  CYS622 
 ASP623  PHE694  ASN695  SER759  ASP760  ASP761  ALA762  ILE779  LEU786  VAL792 
 PHE793  MET794  SER795  GLU796  ALA797  LYS798  CYS799  TRP800  GLU811  SER814 

> <Gold.Protein.RotatedAtoms>
  151.5261  133.3457  159.2909 H   0  0  0  0  0  0  0  0  0  0  0  0  # atno 6907 bound_to 6896
  150.8622  134.7979  159.7102 H   0  0  0  0  0  0  0  0  0  0  0  0  # atno 6908 bound_to 6896
  152.4638  134.5132  159.9812 H   0  0  0  0  0  0  0  0  0  0  0  0  # atno 6909 bound_to 6896
  145.9335  139.3827  143.0407 H   0  0  0  0  0  0  0  0  0  0  0  0  # atno 7974 bound_to 7965
  156.2679  140.2812  156.1281 H   0  0  0  0  0  0  0  0  0  0  0  0  # atno 8008 bound_to 7997
  155.1083  140.0390  157.2734 H   0  0  0  0  0  0  0  0  0  0  0  0  # atno 8009 bound_to 7997
  154.6762  140.2598  155.6961 H   0  0  0  0  0  0  0  0  0  0  0  0  # atno 8010 bound_to 7997
  140.7127  143.5689  150.9114 H   0  0  0  0  0  0  0  0  0  0  0  0  # atno 10167 bound_to 10162
  156.0026  130.4649  150.4176 H   0  0  0  0  0  0  0  0  0  0  0  0  # atno 10718 bound_to 10713
  153.0977  135.6664  153.9731 H   0  0  0  0  0  0  0  0  0  0  0  0  # atno 10763 bound_to 10752
  153.9311  135.3004  155.3447 H   0  0  0  0  0  0  0  0  0  0  0  0  # atno 10764 bound_to 10752
  154.7397  135.5085  153.9176 H   0  0  0  0  0  0  0  0  0  0  0  0  # atno 10765 bound_to 10752
  140.5485  134.0306  155.7928 H   0  0  0  0  0  0  0  0  0  0  0  0  # atno 11005 bound_to 11000
  145.8395  140.9588  143.0807 LP  0  0  0  0  0  0  0  0  0  0  0  0  # atno 17320 bound_to 7965
  144.6768  140.0266  143.7483 LP  0  0  0  0  0  0  0  0  0  0  0  0  # atno 17321 bound_to 7965
  139.9415  143.6376  152.3052 LP  0  0  0  0  0  0  0  0  0  0  0  0  # atno 17342 bound_to 10162
  139.6863  144.7651  151.1518 LP  0  0  0  0  0  0  0  0  0  0  0  0  # atno 17343 bound_to 10162
  157.2234  131.0488  151.2533 LP  0  0  0  0  0  0  0  0  0  0  0  0  # atno 17370 bound_to 10713
  157.3779  130.7215  149.6609 LP  0  0  0  0  0  0  0  0  0  0  0  0  # atno 17371 bound_to 10713
  141.1185  133.9500  157.2775 LP  0  0  0  0  0  0  0  0  0  0  0  0  # atno 17394 bound_to 11000
  139.9467  135.0183  156.8873 LP  0  0  0  0  0  0  0  0  0  0  0  0  # atno 17395 bound_to 11000

$$$$
