AV-unprocessed.smi:1196|AV-procd|sdf|5004|dock2
  -GOLD-   22720 4 13D 1   1.00000     0.00000
 Structure written by MMmdl.
 36 37  0  0  0  0  0  0  0  0  2 V2000
  149.7326  141.1358  157.2016 C   0  0  0  0  0  0  0  0  0  0  0  0
  150.7456  140.1615  157.8176 C   0  0  2  0  0  0  0  0  0  0  0  0
  152.1614  140.7744  157.8661 C   0  0  0  0  0  0  0  0  0  0  0  0
  152.2758  141.8389  158.8489 N   0  0  0  0  0  0  0  0  0  0  0  0
  152.4434  141.7308  160.2132 C   0  0  0  0  0  0  0  0  0  0  0  0
  152.5254  142.9984  160.7140 C   0  0  0  0  0  0  0  0  0  0  0  0
  152.3923  143.8260  159.5641 C   0  0  0  0  0  0  0  0  0  0  0  0
  152.2364  143.1291  158.4501 N   0  0  0  0  0  0  0  0  0  0  0  0
  150.7469  138.9192  157.0457 N   0  0  0  0  0  0  0  0  0  0  0  0
  150.8924  138.8268  155.7140 C   0  0  0  0  0  0  0  0  0  0  0  0
  151.1164  139.7946  154.9865 O   0  0  0  0  0  0  0  0  0  0  0  0
  150.7414  137.4309  155.1080 C   0  0  0  0  0  0  0  0  0  0  0  0
  149.9441  136.4905  156.0306 C   0  0  0  0  0  0  0  0  0  0  0  0
  149.7751  135.0748  155.4462 C   0  0  2  0  0  0  0  0  0  0  0  0
  148.7498  135.0494  154.4255 N   0  0  0  0  0  0  0  0  0  0  0  0
  147.7825  134.1867  154.7303 C   0  0  0  0  0  0  0  0  0  0  0  0
  146.8240  134.0001  153.9840 O   0  0  0  0  0  0  0  0  0  0  0  0
  148.0344  133.6082  155.9206 N   0  5  0  0  0  0  0  0  0  0  0  0
  149.1923  134.0703  156.4400 C   0  0  0  0  0  0  0  0  0  0  0  0
  149.7578  133.7914  157.4961 O   0  0  0  0  0  0  0  0  0  0  0  0
  149.6843  142.0632  157.7727 H   0  0  0  0  0  0  0  0  0  0  0  0
  148.7306  140.7055  157.1898 H   0  0  0  0  0  0  0  0  0  0  0  0
  149.9988  141.3910  156.1752 H   0  0  0  0  0  0  0  0  0  0  0  0
  150.4192  139.9646  158.8404 H   0  0  0  0  0  0  0  0  0  0  0  0
  152.9053  140.0054  158.0820 H   0  0  0  0  0  0  0  0  0  0  0  0
  152.4210  141.1915  156.8924 H   0  0  0  0  0  0  0  0  0  0  0  0
  152.4980  140.7716  160.7065 H   0  0  0  0  0  0  0  0  0  0  0  0
  152.6633  143.2903  161.7444 H   0  0  0  0  0  0  0  0  0  0  0  0
  152.4033  144.9044  159.5064 H   0  0  0  0  0  0  0  0  0  0  0  0
  150.5640  138.0678  157.5568 H   0  0  0  0  0  0  0  0  0  0  0  0
  150.2428  137.5262  154.1431 H   0  0  0  0  0  0  0  0  0  0  0  0
  151.7264  137.0049  154.9111 H   0  0  0  0  0  0  0  0  0  0  0  0
  150.4631  136.4166  156.9880 H   0  0  0  0  0  0  0  0  0  0  0  0
  148.9651  136.9206  156.2502 H   0  0  0  0  0  0  0  0  0  0  0  0
  150.7157  134.6927  155.0473 H   0  0  0  0  0  0  0  0  0  0  0  0
  148.7853  135.6054  153.5841 H   0  0  0  0  0  0  0  0  0  0  0  0
  1  2  1  0  0  0  0
  1 21  1  0  0  0  0
  1 22  1  0  0  0  0
  1 23  1  0  0  0  0
  2  3  1  0  0  0  0
  2  9  1  0  0  0  0
  2 24  1  0  0  0  0
  3  4  1  0  0  0  0
  3 25  1  0  0  0  0
  3 26  1  0  0  0  0
  4  8  1  0  0  0  0
  4  5  1  0  0  0  0
  5  6  2  0  0  0  0
  5 27  1  0  0  0  0
  6  7  1  0  0  0  0
  6 28  1  0  0  0  0
  7  8  2  0  0  0  0
  7 29  1  0  0  0  0
  9 10  1  0  0  0  0
  9 30  1  0  0  0  0
 10 11  2  0  0  0  0
 10 12  1  0  0  0  0
 12 13  1  0  0  0  0
 12 31  1  0  0  0  0
 12 32  1  0  0  0  0
 13 14  1  0  0  0  0
 13 33  1  0  0  0  0
 13 34  1  0  0  0  0
 14 19  1  0  0  0  0
 14 15  1  0  0  0  0
 14 35  1  0  0  0  0
 15 16  1  0  0  0  0
 15 36  1  0  0  0  0
 16 17  2  0  0  0  0
 16 18  1  0  0  0  0
 18 19  1  0  0  0  0
 19 20  2  0  0  0  0
M  CHG  1  18  -1
M  END
> <s_m_source_file>
AV-unprocessed.smi

> <i_m_source_file_index>
1196

> <i_lp_mmshare_version>
43012

> <i_f3d_flags>
0

> <s_epik_input>
bjFbY0hdW2NIXVtjSF1uMVtDSDJdW0NAQEhdKFtDSDNdKVtOSF1DKD1PKVtDSDJdW0NIMl1bQ0BASF0yW05IXUMoPU8pW05IXUMyPU8=

> <s_epik_cmdline>
J2VwaWtfcHl0aG9uJywgJy1waCcsICc3LjAnLCAnLXRuJywgJzgnLCAnLW1hJywgJzIwMCcsICctbWV0YWxfYmluZGluZycsICctaW1hZScsICc8aW5maWxlLm1hZT4nLCAnLW9tYWUnLCAnPG91dGZpbGUubWFlPic=

> <r_lp_tautomer_probability>
1

> <r_epik_Ionization_Penalty>
2.57056

> <r_epik_Ionization_Penalty_Charging>
2.57023

> <r_epik_Ionization_Penalty_Neutral>
0.000331301

> <r_epik_State_Penalty>
2.56828

> <r_epik_Charging_Adjusted_Penalty>
5.13851

> <i_epik_Tot_Q>
-1

> <i_epik_Tot_abs_Q>
1

> <r_epik_Metal_State_Penalty>
0.444883

> <b_epik_Metal_Only>
1

> <s_lp_Force_Field>
OPLS_2005

> <r_lp_Energy>
6.89561

> <b_lp_Chiralities_Consistent>
1

> <s_lp_Variant>
AV-unprocessed.smi:1196-9

> <Gold.Version>
5.8.1

> <Gold.Id.Protein>
6NUR|6NUR_protein|mol2

> <Gold.PLP.Fitness>
39.1505

> <Gold.PLP.PLP>
-32.7402

> <Gold.PLP.part.hbond>
-3.0000

> <Gold.PLP.part.metal>
0.0000

> <Gold.PLP.part.buried>
-6.5262

> <Gold.PLP.part.nonpolar>
-23.9570

> <Gold.PLP.part.repulsive>
0.2588

> <Gold.PLP.ligand.clash>
0.0000

> <Gold.PLP.ligand.torsion>
0.8351

> <Gold.PLP.Chemscore.Hbond>
2.6560

> <Gold.PLP.Chemscore.CHOScore>
0.0000

> <Gold.PLP.Chemscore.Metal>
0.0000

> <Gold.Chemscore.Hbonds>
donor molecule, donor type, donor heavy atom, donor atom, acceptor molecule, acceptor atom, score
      L1  H    15    36       P1  7948  1.00
      P1  H  6896  6909       L1    20  0.74
      P1  H  7989  7998       L1    11  1.00

> <Gold.PLP.Chemscore.Internal.Correction>
0.1125

> <Gold.Rescore>
     Score         DG    S(hbond)    S(metal)    S(lipo)     H(rot)  DE(clash)    DE(int)     intcor
     12.48     -14.81       2.80        0.00      63.25       2.89       0.01       2.32       ----

> <Gold.Chemscore.Fitness>
12.4792

> <Gold.Chemscore.DG>
-14.8092

> <Gold.Chemscore.ZeroCoef>
-5.4800

> <Gold.Chemscore.Hbond>
2.7960

> <Gold.Chemscore.Metal>
0.0000

> <Gold.Chemscore.Lipo>
63.2535

> <Gold.Chemscore.Internal_Hbond>
0.0000

> <Gold.Chemscore.DEClash>
0.0073

> <Gold.Chemscore.DEInternal>
2.3226

> <Gold.Chemscore.Rot>
2.8946

> <Gold.Chemscore.Internal.Correction>
   9.000000E+99

> <Gold.Chemscore.Hbonds>
donor molecule, donor type, donor heavy atom, donor atom, acceptor molecule, acceptor atom, score
      L1  H    15    36       P1  7948  0.94
      P1  H  6896  6909       L1    20  0.72
      P1  H  7989  7998       L1    11  1.00

> <Gold.Chemscore.Hbond.Weighted>
-9.3387

> <Gold.Chemscore.Metal.Weighted>
-0.0000

> <Gold.Chemscore.Lipo.Weighted>
-7.4007

> <Gold.Chemscore.Internal_Hbond.Weighted>
0.0000

> <Gold.Chemscore.DEClash.Weighted>
0.0073

> <Gold.Chemscore.DEInternal.Weighted>
2.3226

> <Gold.Chemscore.Rot.Weighted>
7.4101

> <Gold.Chemscore.Internal.Correction.Weighted>
   9.000000E+99

> <Gold.Protein.RotatedTorsions>
[ 6907 6896 6895 6894 ] final  -15.50 input  -60.11 | X-H torsion
[ 7974 7965 7964 7962 ] final  -10.08 input  175.53 | X-H torsion
[ 8008 7997 7996 7995 ] final   28.43 input   59.86 | X-H torsion
[ 10167 10162 10161 10158 ] final    2.18 input  -65.29 | X-H torsion
[ 10718 10713 10712 10709 ] final  -38.49 input   66.30 | X-H torsion
[ 10763 10752 10751 10750 ] final  149.88 input  -60.55 | X-H torsion
[ 11005 11000 10999 10996 ] final  -60.71 input  -57.11 | X-H torsion

> <Gold.Protein.ActiveResidues>
 VAL166  LYS551  ARG553  GLY616  TRP617  ASP618  TYR619  PRO620  LYS621  CYS622 
 ASP623  PHE694  ASN695  SER759  ASP760  ASP761  ALA762  ILE779  LEU786  VAL792 
 PHE793  MET794  SER795  GLU796  ALA797  LYS798  CYS799  TRP800  GLU811  SER814 

> <Gold.Protein.RotatedAtoms>
  151.3230  135.0823  159.9312 H   0  0  0  0  0  0  0  0  0  0  0  0  # atno 6907 bound_to 6896
  152.5252  133.9620  159.7732 H   0  0  0  0  0  0  0  0  0  0  0  0  # atno 6908 bound_to 6896
  150.9944  133.6065  159.2734 H   0  0  0  0  0  0  0  0  0  0  0  0  # atno 6909 bound_to 6896
  146.2232  140.2711  142.8357 H   0  0  0  0  0  0  0  0  0  0  0  0  # atno 7974 bound_to 7965
  155.0586  140.3187  155.4668 H   0  0  0  0  0  0  0  0  0  0  0  0  # atno 8008 bound_to 7997
  156.2818  140.2133  156.5657 H   0  0  0  0  0  0  0  0  0  0  0  0  # atno 8009 bound_to 7997
  154.7151  140.0494  157.0574 H   0  0  0  0  0  0  0  0  0  0  0  0  # atno 8010 bound_to 7997
  140.6647  143.7211  150.7805 H   0  0  0  0  0  0  0  0  0  0  0  0  # atno 10167 bound_to 10162
  156.3032  130.4243  149.8123 H   0  0  0  0  0  0  0  0  0  0  0  0  # atno 10718 bound_to 10713
  154.0783  135.2861  155.3295 H   0  0  0  0  0  0  0  0  0  0  0  0  # atno 10763 bound_to 10752
  154.6700  135.5303  153.8130 H   0  0  0  0  0  0  0  0  0  0  0  0  # atno 10764 bound_to 10752
  153.0458  135.6555  154.0960 H   0  0  0  0  0  0  0  0  0  0  0  0  # atno 10765 bound_to 10752
  141.1297  133.6624  156.5264 H   0  0  0  0  0  0  0  0  0  0  0  0  # atno 11005 bound_to 11000
  144.9267  140.7930  143.5714 LP  0  0  0  0  0  0  0  0  0  0  0  0  # atno 17320 bound_to 7965
  145.2651  139.1977  143.4871 LP  0  0  0  0  0  0  0  0  0  0  0  0  # atno 17321 bound_to 7965
  140.0886  143.4900  152.2491 LP  0  0  0  0  0  0  0  0  0  0  0  0  # atno 17342 bound_to 10162
  139.5892  144.7543  151.3443 LP  0  0  0  0  0  0  0  0  0  0  0  0  # atno 17343 bound_to 10162
  156.5493  130.8335  151.3294 LP  0  0  0  0  0  0  0  0  0  0  0  0  # atno 17370 bound_to 10713
  157.7373  130.9793  150.2185 LP  0  0  0  0  0  0  0  0  0  0  0  0  # atno 17371 bound_to 10713
  140.4251  134.7152  157.4911 LP  0  0  0  0  0  0  0  0  0  0  0  0  # atno 17394 bound_to 11000
  140.0333  134.6374  155.9077 LP  0  0  0  0  0  0  0  0  0  0  0  0  # atno 17395 bound_to 11000

$$$$
