AV-unprocessed.smi:3283|AV-procd|sdf|12568|dock4
  -GOLD-   2272018483D 1   1.00000     0.00000
 Structure written by MMmdl.
 44 45  0  0  0  0  0  0  0  0  2 V2000
  152.2306  144.7220  158.1446 C   0  0  0  0  0  0  0  0  0  0  0  0
  152.4486  143.9928  159.4596 C   0  0  0  0  0  0  0  0  0  0  0  0
  152.1952  144.5913  160.6400 C   0  0  0  0  0  0  0  0  0  0  0  0
  152.4236  143.9536  161.9979 C   0  0  0  0  0  0  0  0  0  0  0  0
  152.7648  142.4584  161.9058 C   0  0  0  0  0  0  0  0  0  0  0  0
  153.6824  142.1623  160.7060 C   0  0  1  0  0  0  0  0  0  0  0  0
  154.2351  140.7277  160.7544 C   0  0  0  0  0  0  0  0  0  0  0  0
  153.0080  142.5706  159.3601 C   0  0  1  0  0  0  0  0  0  0  0  0
  151.9062  141.5968  158.8674 C   0  0  0  0  0  0  0  0  0  0  0  0
  151.4944  141.8746  157.4767 N   0  3  0  0  0  0  0  0  0  0  0  0
  150.0974  141.5102  157.1724 C   0  0  0  0  0  0  0  0  0  0  0  0
  149.9102  141.2661  155.6679 C   0  0  0  0  0  0  0  0  0  0  0  0
  150.6630  140.0854  155.1345 C   0  0  0  0  0  0  0  0  0  0  0  0
  151.9906  139.7590  155.1922 C   0  0  0  0  0  0  0  0  0  0  0  0
  152.0754  138.5201  154.4993 C   0  0  0  0  0  0  0  0  0  0  0  0
  150.9027  138.1099  154.0496 N   0  0  0  0  0  0  0  0  0  0  0  0
  150.0354  139.0678  154.4388 N   0  0  0  0  0  0  0  0  0  0  0  0
  148.6313  138.9321  154.1015 C   0  0  0  0  0  0  0  0  0  0  0  0
  153.1588  144.7581  157.5740 H   0  0  0  0  0  0  0  0  0  0  0  0
  151.9025  145.7486  158.3110 H   0  0  0  0  0  0  0  0  0  0  0  0
  151.4735  144.2286  157.5369 H   0  0  0  0  0  0  0  0  0  0  0  0
  151.8268  145.6067  160.6564 H   0  0  0  0  0  0  0  0  0  0  0  0
  153.2421  144.4899  162.4790 H   0  0  0  0  0  0  0  0  0  0  0  0
  151.5416  144.0994  162.6218 H   0  0  0  0  0  0  0  0  0  0  0  0
  153.2378  142.1418  162.8362 H   0  0  0  0  0  0  0  0  0  0  0  0
  151.8461  141.8774  161.8235 H   0  0  0  0  0  0  0  0  0  0  0  0
  154.5539  142.8101  160.8181 H   0  0  0  0  0  0  0  0  0  0  0  0
  153.4361  139.9864  160.7831 H   0  0  0  0  0  0  0  0  0  0  0  0
  154.8421  140.5780  161.6478 H   0  0  0  0  0  0  0  0  0  0  0  0
  154.8693  140.5179  159.8928 H   0  0  0  0  0  0  0  0  0  0  0  0
  153.7920  142.6050  158.6020 H   0  0  0  0  0  0  0  0  0  0  0  0
  152.2400  140.5629  158.9554 H   0  0  0  0  0  0  0  0  0  0  0  0
  151.0113  141.6811  159.4828 H   0  0  0  0  0  0  0  0  0  0  0  0
  151.6206  142.8602  157.2948 H   0  0  0  0  0  0  0  0  0  0  0  0
  149.8335  140.6112  157.7311 H   0  0  0  0  0  0  0  0  0  0  0  0
  149.4370  142.3102  157.5095 H   0  0  0  0  0  0  0  0  0  0  0  0
  148.8485  141.1335  155.4564 H   0  0  0  0  0  0  0  0  0  0  0  0
  150.2194  142.1576  155.1208 H   0  0  0  0  0  0  0  0  0  0  0  0
  152.7874  140.3193  155.6583 H   0  0  0  0  0  0  0  0  0  0  0  0
  152.9474  137.9114  154.3106 H   0  0  0  0  0  0  0  0  0  0  0  0
  148.3397  139.7323  153.4211 H   0  0  0  0  0  0  0  0  0  0  0  0
  148.0273  138.9942  155.0069 H   0  0  0  0  0  0  0  0  0  0  0  0
  148.4415  137.9722  153.6192 H   0  0  0  0  0  0  0  0  0  0  0  0
  152.0999  141.3523  156.8594 H   0  0  0  0  0  0  0  0  0  0  0  0
  1  2  1  0  0  0  0
  1 19  1  0  0  0  0
  1 20  1  0  0  0  0
  1 21  1  0  0  0  0
  2  8  1  0  0  0  0
  2  3  2  0  0  0  0
  3  4  1  0  0  0  0
  3 22  1  0  0  0  0
  4  5  1  0  0  0  0
  4 23  1  0  0  0  0
  4 24  1  0  0  0  0
  5  6  1  0  0  0  0
  5 25  1  0  0  0  0
  5 26  1  0  0  0  0
  6  7  1  0  0  0  0
  6  8  1  0  0  0  0
  6 27  1  0  0  0  0
  7 28  1  0  0  0  0
  7 29  1  0  0  0  0
  7 30  1  0  0  0  0
  8  9  1  0  0  0  0
  8 31  1  0  0  0  0
  9 10  1  0  0  0  0
  9 32  1  0  0  0  0
  9 33  1  0  0  0  0
 10 11  1  0  0  0  0
 10 34  1  0  0  0  0
 10 44  1  0  0  0  0
 11 12  1  0  0  0  0
 11 35  1  0  0  0  0
 11 36  1  0  0  0  0
 12 13  1  0  0  0  0
 12 37  1  0  0  0  0
 12 38  1  0  0  0  0
 13 17  1  0  0  0  0
 13 14  2  0  0  0  0
 14 15  1  0  0  0  0
 14 39  1  0  0  0  0
 15 16  2  0  0  0  0
 15 40  1  0  0  0  0
 16 17  1  0  0  0  0
 17 18  1  0  0  0  0
 18 41  1  0  0  0  0
 18 42  1  0  0  0  0
 18 43  1  0  0  0  0
M  CHG  1  10   1
M  END
> <s_m_source_file>
AV-unprocessed.smi

> <i_m_source_file_index>
3283

> <i_lp_mmshare_version>
43012

> <i_f3d_flags>
0

> <s_epik_input>
W0NIM11DMT1bQ0hdW0NIMl1bQ0gyXVtDQEBIXShbQ0gzXSlbQ0BIXTFbQ0gyXVtOSF1bQ0gyXVtDSDJdYzJbY0hdW2NIXW5uMltDSDNd

> <s_epik_cmdline>
J2VwaWtfcHl0aG9uJywgJy1waCcsICc3LjAnLCAnLXRuJywgJzgnLCAnLW1hJywgJzIwMCcsICctbWV0YWxfYmluZGluZycsICctaW1hZScsICc8aW5maWxlLm1hZT4nLCAnLW9tYWUnLCAnPG91dGZpbGUubWFlPic=

> <r_lp_tautomer_probability>
1

> <r_epik_Ionization_Penalty>
0.000866911

> <r_epik_Ionization_Penalty_Charging>
0.000836385

> <r_epik_Ionization_Penalty_Neutral>
3.05258e-05

> <r_epik_State_Penalty>
-0

> <r_epik_Charging_Adjusted_Penalty>
0.000836385

> <i_epik_Tot_Q>
1

> <i_epik_Tot_abs_Q>
1

> <r_epik_Metal_State_Penalty>
-0

> <b_epik_Metal_Only>
0

> <s_lp_Force_Field>
OPLS_2005

> <r_lp_Energy>
14.2558

> <b_lp_Chiralities_Consistent>
1

> <s_lp_Variant>
AV-unprocessed.smi:3283-1

> <Gold.Version>
5.8.1

> <Gold.Id.Protein>
6NUR|6NUR_protein|mol2

> <Gold.PLP.Fitness>
51.1290

> <Gold.PLP.PLP>
-51.7469

> <Gold.PLP.part.hbond>
0.0000

> <Gold.PLP.part.metal>
0.0000

> <Gold.PLP.part.buried>
-2.8444

> <Gold.PLP.part.nonpolar>
-47.6432

> <Gold.PLP.part.repulsive>
0.2917

> <Gold.PLP.ligand.clash>
0.0000

> <Gold.PLP.ligand.torsion>
0.3813

> <Gold.PLP.Chemscore.Hbond>
0.0000

> <Gold.PLP.Chemscore.CHOScore>
0.0000

> <Gold.PLP.Chemscore.Metal>
0.0000

> <Gold.PLP.Chemscore.Internal.Correction>
0.1448

> <Gold.Rescore>
     Score         DG    S(hbond)    S(metal)    S(lipo)     H(rot)  DE(clash)    DE(int)     intcor
     18.32     -19.00       0.00        0.00     148.03       1.48       0.17       0.51       ----

> <Gold.Chemscore.Fitness>
18.3187

> <Gold.Chemscore.DG>
-18.9981

> <Gold.Chemscore.ZeroCoef>
-5.4800

> <Gold.Chemscore.Hbond>
0.0000

> <Gold.Chemscore.Metal>
0.0000

> <Gold.Chemscore.Lipo>
148.0251

> <Gold.Chemscore.Internal_Hbond>
0.0000

> <Gold.Chemscore.DEClash>
0.1663

> <Gold.Chemscore.DEInternal>
0.5131

> <Gold.Chemscore.Rot>
1.4847

> <Gold.Chemscore.Internal.Correction>
   9.000000E+99

> <Gold.Chemscore.Hbond.Weighted>
-0.0000

> <Gold.Chemscore.Metal.Weighted>
-0.0000

> <Gold.Chemscore.Lipo.Weighted>
-17.3189

> <Gold.Chemscore.Internal_Hbond.Weighted>
0.0000

> <Gold.Chemscore.DEClash.Weighted>
0.1663

> <Gold.Chemscore.DEInternal.Weighted>
0.5131

> <Gold.Chemscore.Rot.Weighted>
3.8008

> <Gold.Chemscore.Internal.Correction.Weighted>
   9.000000E+99

> <Gold.Protein.RotatedTorsions>
[ 6907 6896 6895 6894 ] final -109.83 input  -60.11 | X-H torsion
[ 7974 7965 7964 7962 ] final  -91.79 input  175.53 | X-H torsion
[ 8008 7997 7996 7995 ] final  -41.62 input   59.86 | X-H torsion
[ 10167 10162 10161 10158 ] final -116.87 input  -65.29 | X-H torsion
[ 10718 10713 10712 10709 ] final   83.90 input   66.30 | X-H torsion
[ 10763 10752 10751 10750 ] final -151.48 input  -60.55 | X-H torsion
[ 11005 11000 10999 10996 ] final   83.25 input  -57.11 | X-H torsion

> <Gold.Protein.ActiveResidues>
 VAL166  LYS551  ARG553  GLY616  TRP617  ASP618  TYR619  PRO620  LYS621  CYS622 
 ASP623  PHE694  ASN695  SER759  ASP760  ASP761  ALA762  ILE779  LEU786  VAL792 
 PHE793  MET794  SER795  GLU796  ALA797  LYS798  CYS799  TRP800  GLU811  SER814 

> <Gold.Protein.RotatedAtoms>
  150.7586  133.9471  159.3474 H   0  0  0  0  0  0  0  0  0  0  0  0  # atno 6907 bound_to 6896
  151.7385  135.0857  160.0321 H   0  0  0  0  0  0  0  0  0  0  0  0  # atno 6908 bound_to 6896
  152.3544  133.6181  159.6004 H   0  0  0  0  0  0  0  0  0  0  0  0  # atno 6909 bound_to 6896
  145.4085  140.9543  143.2247 H   0  0  0  0  0  0  0  0  0  0  0  0  # atno 7974 bound_to 7965
  154.4003  140.1494  156.3221 H   0  0  0  0  0  0  0  0  0  0  0  0  # atno 8008 bound_to 7997
  155.8520  140.3457  155.5678 H   0  0  0  0  0  0  0  0  0  0  0  0  # atno 8009 bound_to 7997
  155.7974  140.0865  157.1966 H   0  0  0  0  0  0  0  0  0  0  0  0  # atno 8010 bound_to 7997
  140.0745  143.4846  152.1961 H   0  0  0  0  0  0  0  0  0  0  0  0  # atno 10167 bound_to 10162
  157.6888  131.0110  150.2592 H   0  0  0  0  0  0  0  0  0  0  0  0  # atno 10718 bound_to 10713
  154.8055  135.3259  154.7442 H   0  0  0  0  0  0  0  0  0  0  0  0  # atno 10763 bound_to 10752
  153.8102  135.6896  153.4846 H   0  0  0  0  0  0  0  0  0  0  0  0  # atno 10764 bound_to 10752
  153.1797  135.4591  154.9957 H   0  0  0  0  0  0  0  0  0  0  0  0  # atno 10765 bound_to 10752
  139.9037  134.8131  156.2285 H   0  0  0  0  0  0  0  0  0  0  0  0  # atno 11005 bound_to 11000
  144.8325  139.5605  143.6937 LP  0  0  0  0  0  0  0  0  0  0  0  0  # atno 17320 bound_to 7965
  146.2717  139.6651  142.9292 LP  0  0  0  0  0  0  0  0  0  0  0  0  # atno 17321 bound_to 7965
  139.5816  144.7513  151.3625 LP  0  0  0  0  0  0  0  0  0  0  0  0  # atno 17342 bound_to 10162
  140.7109  143.7393  150.7565 LP  0  0  0  0  0  0  0  0  0  0  0  0  # atno 17343 bound_to 10162
  156.3175  130.3781  149.7605 LP  0  0  0  0  0  0  0  0  0  0  0  0  # atno 17370 bound_to 10713
  156.5186  130.8205  151.3195 LP  0  0  0  0  0  0  0  0  0  0  0  0  # atno 17371 bound_to 10713
  141.0361  133.6963  156.1514 LP  0  0  0  0  0  0  0  0  0  0  0  0  # atno 17394 bound_to 11000
  140.7025  134.4548  157.5585 LP  0  0  0  0  0  0  0  0  0  0  0  0  # atno 17395 bound_to 11000

$$$$
