#       Name:                AV-unprocessed.smi:16
#       Creating user name   scv26
#       Creation time:       Thu Mar 26 15:23:51 2020


#       File generated by GOLD software.
#

@<TRIPOS>MOLECULE
AV-unprocessed.smi:16
    70    74     1
SMALL
NO_CHARGES


@<TRIPOS>ATOM
      1 ****        -2.2037  -2.2340   3.0875 C.3            1 S1                 0.0000
      2 ****        -2.3023  -1.1635   1.9922 C.3            1 S1                 0.0000
      3 ****        -3.3937  -0.1868   2.2486 N.4            1 S1                 1.0000
      4 ****        -4.7683  -0.7118   2.0341 C.3            1 S1                 0.0000
      5 ****        -5.1241  -0.8023   0.5418 C.3            1 S1                 0.0000
      6 ****        -4.9520   0.5671  -0.1445 C.3            1 S1                 0.0000
      7 ****        -5.2801   0.5270  -1.5336 O.3            1 S1                 0.0000
      8 ****        -4.3419  -0.1753  -2.3432 C.3            1 S1                 0.0000
      9 ****        -2.9485   0.4457  -2.1831 C.3            1 S1                 0.0000
     10 ****        -2.5564   0.4807  -0.7787 N.3            1 S1                 0.0000
     11 ****        -1.2587   0.8516  -0.6667 C.ar           1 S1                 0.0000
     12 ****        -0.9272   2.1586  -0.4956 N.ar           1 S1                 0.0000
     13 ****         0.3576   2.5137  -0.3994 C.ar           1 S1                 0.0000
     14 ****         1.4433   1.7391  -0.4504 N.ar           1 S1                 0.0000
     15 ****         1.1141   0.4272  -0.6315 C.ar           1 S1                 0.0000
     16 ****        -0.2038  -0.0948  -0.7512 C.ar           1 S1                 0.0000
     17 ****        -0.1613  -1.4716  -0.9220 N.2            1 S1                 0.0000
     18 ****         1.1137  -1.7504  -0.9094 C.2            1 S1                 0.0000
     19 ****         1.9531  -0.6711  -0.7386 N.pl3          1 S1                 0.0000
     20 ****         3.3884  -0.7093  -0.6935 C.3            1 S1                 0.0000
     21 ****         4.1736  -0.0750   0.4564 C.3            1 S1                 0.0000
     22 ****         5.3223   0.2566  -0.5248 C.3            1 S1                 0.0000
     23 ****         5.9520   1.6454  -0.3166 C.3            1 S1                 0.0000
     24 ****         6.6083   2.1123  -1.4774 O.3            1 S1                 0.0000
     25 ****         6.4374  -0.8099  -0.5599 C.3            1 S1                 0.0000
     26 ****         7.1564  -0.7939  -1.7762 O.3            1 S1                 0.0000
     27 ****         4.2385   0.1559  -1.6242 C.3            1 S1                 0.0000
     28 ****        -3.5386   1.1558   0.0798 C.3            1 S1                 0.0000
     29 ****        -3.1908   1.1364   1.5966 C.3            1 S1                 0.0000
     30 ****        -5.6714   1.2481   0.3124 H              1 S1                 0.0000
     31 ****        -3.5673   2.1984  -0.2412 H              1 S1                 0.0000
     32 ****        -1.3340  -2.8699   2.9211 H              1 S1                 0.0000
     33 ****        -3.0784  -2.8833   3.1061 H              1 S1                 0.0000
     34 ****        -2.0973  -1.7812   4.0738 H              1 S1                 0.0000
     35 ****        -1.3502  -0.6322   1.9681 H              1 S1                 0.0000
     36 ****        -2.4170  -1.6325   1.0155 H              1 S1                 0.0000
     37 ****        -4.8944  -1.6815   2.5139 H              1 S1                 0.0000
     38 ****        -5.4696  -0.0398   2.5306 H              1 S1                 0.0000
     39 ****        -4.5024  -1.5627   0.0722 H              1 S1                 0.0000
     40 ****        -6.1544  -1.1413   0.4297 H              1 S1                 0.0000
     41 ****        -4.3273  -1.2370  -2.0987 H              1 S1                 0.0000
     42 ****        -4.6602  -0.1054  -3.3834 H              1 S1                 0.0000
     43 ****        -2.2261  -0.1267  -2.7671 H              1 S1                 0.0000
     44 ****        -2.9493   1.4612  -2.5826 H              1 S1                 0.0000
     45 ****         0.5431   3.5692  -0.2641 H              1 S1                 0.0000
     46 ****         1.4779  -2.7610  -1.0265 H              1 S1                 0.0000
     47 ****         3.6732  -1.7574  -0.8031 H              1 S1                 0.0000
     48 ****         3.6881   0.8128   0.8639 H              1 S1                 0.0000
     49 ****         4.4383  -0.7683   1.2553 H              1 S1                 0.0000
     50 ****         5.1889   2.3806  -0.0596 H              1 S1                 0.0000
     51 ****         6.6608   1.6383   0.5121 H              1 S1                 0.0000
     52 ****         6.9668   2.9677  -1.2969 H              1 S1                 0.0000
     53 ****         7.1399  -0.6720   0.2626 H              1 S1                 0.0000
     54 ****         6.0258  -1.8121  -0.4380 H              1 S1                 0.0000
     55 ****         7.8269  -1.4586  -1.7391 H              1 S1                 0.0000
     56 ****         4.5525  -0.3461  -2.5396 H              1 S1                 0.0000
     57 ****         3.7781   1.1187  -1.8511 H              1 S1                 0.0000
     58 ****        -3.8543   1.8395   2.1015 H              1 S1                 0.0000
     59 ****        -2.1860   1.5066   1.7986 H              1 S1                 0.0000
     60 ****        -3.3271   0.0028   3.2385 H              1 S1                 0.0000
     61 ****        -5.3383   1.4677  -1.8679 LP             1 S1                 0.0000
     62 ****        -6.1707   0.0829  -1.6313 LP             1 S1                 0.0000
     63 ****        -2.5833  -0.4420  -0.3941 LP             1 S1                 0.0000
     64 ****        -1.6440   2.8538  -0.4418 LP             1 S1                 0.0000
     65 ****         2.3805   2.0777  -0.3665 LP             1 S1                 0.0000
     66 ****        -0.9291  -2.1031  -1.0297 LP             1 S1                 0.0000
     67 ****         5.9554   2.1730  -2.2324 LP             1 S1                 0.0000
     68 ****         7.3454   1.4831  -1.7240 LP             1 S1                 0.0000
     69 ****         7.5784   0.1033  -1.9063 LP             1 S1                 0.0000
     70 ****         6.5357  -0.9837  -2.5369 LP             1 S1                 0.0000
@<TRIPOS>BOND
    1    1    2 1     
    2    1   32 1     
    3    1   33 1     
    4    1   34 1     
    5    2    3 1     
    6    2   35 1     
    7    2   36 1     
    8    3   29 1     
    9    3    4 1     
   10    3   60 1     
   11    4    5 1     
   12    4   37 1     
   13    4   38 1     
   14    5    6 1     
   15    5   39 1     
   16    5   40 1     
   17    6   30 1     
   18    6   28 1     
   19    6    7 1     
   20    7    8 1     
   21    8    9 1     
   22    8   41 1     
   23    8   42 1     
   24    9   10 1     
   25    9   43 1     
   26    9   44 1     
   27   10   11 1     
   28   10   28 1     
   29   11   16 ar    
   30   11   12 ar    
   31   12   13 ar    
   32   13   14 ar    
   33   13   45 1     
   34   14   15 ar    
   35   15   19 1     
   36   15   16 ar    
   37   16   17 1     
   38   17   18 2     
   39   18   19 1     
   40   18   46 1     
   41   19   20 1     
   42   20   27 1     
   43   20   21 1     
   44   20   47 1     
   45   21   22 1     
   46   21   48 1     
   47   21   49 1     
   48   22   23 1     
   49   22   25 1     
   50   22   27 1     
   51   23   24 1     
   52   23   50 1     
   53   23   51 1     
   54   24   52 1     
   55   25   26 1     
   56   25   53 1     
   57   25   54 1     
   58   26   55 1     
   59   27   56 1     
   60   27   57 1     
   61   28   31 1     
   62   28   29 1     
   63   29   58 1     
   64   29   59 1     
   65    7   61 1     
   66    7   62 1     
   67   10   63 1     
   68   12   64 1     
   69   14   65 1     
   70   17   66 1     
   71   24   67 1     
   72   24   68 1     
   73   26   69 1     
   74   26   70 1     
@<TRIPOS>SUBSTRUCTURE
      1 S1             1
@<TRIPOS>SET
LONE_PAIRS      STATIC     ATOMS    <user>   **** ""
10 61 62 63 64 65 66 67 68 69 70
DONOR_HYDROGENS      STATIC     ATOMS    <user>   **** ""
3 60 52 55
ATOM$BLUE        STATIC     ATOMS    COLORGROUP SYSTEM
10 61 62 63 64 65 66 67 68 69 70
ATOM$RED        STATIC     ATOMS    COLORGROUP SYSTEM
3 60 52 55
