AV-unprocessed.smi:1517|AV-procd|sdf|6123|dock2
  -GOLD-   22720 6263D 1   1.00000     0.00000
 Structure written by MMmdl.
 41 43  0  0  0  0  0  0  0  0  1 V2000
  151.5375  137.4794  153.8118 O   0  0  0  0  0  0  0  0  0  0  0  0
  152.5758  137.4743  154.7665 C   0  0  0  0  0  0  0  0  0  0  0  0
  153.0725  138.9073  154.9936 C   0  0  0  0  0  0  0  0  0  0  0  0
  152.1611  139.6684  155.8272 N   0  0  0  0  0  0  0  0  0  0  0  0
  150.9133  140.2279  155.5786 C   0  0  0  0  0  0  0  0  0  0  0  0
  150.2833  140.1464  154.4079 N   0  0  0  0  0  0  0  0  0  0  0  0
  149.1101  140.8329  154.6574 C   0  0  0  0  0  0  0  0  0  0  0  0
  148.0090  141.1056  153.8142 C   0  0  0  0  0  0  0  0  0  0  0  0
  146.9042  141.8376  154.2966 C   0  0  0  0  0  0  0  0  0  0  0  0
  146.8833  142.3057  155.6266 C   0  0  0  0  0  0  0  0  0  0  0  0
  147.9695  142.0458  156.4842 C   0  0  0  0  0  0  0  0  0  0  0  0
  149.0709  141.3163  155.9978 C   0  0  0  0  0  0  0  0  0  0  0  0
  150.2725  140.9016  156.5638 N   0  0  0  0  0  0  0  0  0  0  0  0
  150.7146  141.1586  157.9288 C   0  0  0  0  0  0  0  0  0  0  0  0
  151.6654  142.3672  158.0291 C   0  0  1  0  0  0  0  0  0  0  0  0
  151.0356  143.5223  157.5072 O   0  0  0  0  0  0  0  0  0  0  0  0
  152.1502  142.5640  159.4597 C   0  0  0  0  0  0  0  0  0  0  0  0
  151.7925  143.7231  160.1853 C   0  0  0  0  0  0  0  0  0  0  0  0
  152.2334  143.8977  161.5114 C   0  0  0  0  0  0  0  0  0  0  0  0
  153.0311  142.9129  162.1237 C   0  0  0  0  0  0  0  0  0  0  0  0
  153.4542  143.0801  163.3991 F   0  0  0  0  0  0  0  0  0  0  0  0
  153.3851  141.7523  161.4100 C   0  0  0  0  0  0  0  0  0  0  0  0
  152.9447  141.5754  160.0835 C   0  0  0  0  0  0  0  0  0  0  0  0
  153.2851  140.4469  159.4153 F   0  0  0  0  0  0  0  0  0  0  0  0
  150.9881  136.7255  153.9627 H   0  0  0  0  0  0  0  0  0  0  0  0
  152.2014  137.0434  155.6954 H   0  0  0  0  0  0  0  0  0  0  0  0
  153.3835  136.8345  154.4095 H   0  0  0  0  0  0  0  0  0  0  0  0
  154.0558  138.8974  155.4651 H   0  0  0  0  0  0  0  0  0  0  0  0
  153.1810  139.4244  154.0401 H   0  0  0  0  0  0  0  0  0  0  0  0
  152.5007  139.8114  156.7674 H   0  0  0  0  0  0  0  0  0  0  0  0
  148.0146  140.7509  152.7941 H   0  0  0  0  0  0  0  0  0  0  0  0
  146.0687  142.0406  153.6429 H   0  0  0  0  0  0  0  0  0  0  0  0
  146.0326  142.8651  155.9877 H   0  0  0  0  0  0  0  0  0  0  0  0
  147.9565  142.4029  157.5033 H   0  0  0  0  0  0  0  0  0  0  0  0
  149.8466  141.2938  158.5748 H   0  0  0  0  0  0  0  0  0  0  0  0
  151.2197  140.2619  158.2900 H   0  0  0  0  0  0  0  0  0  0  0  0
  152.5326  142.1840  157.3935 H   0  0  0  0  0  0  0  0  0  0  0  0
  150.9902  143.4404  156.5667 H   0  0  0  0  0  0  0  0  0  0  0  0
  151.1745  144.4834  159.7301 H   0  0  0  0  0  0  0  0  0  0  0  0
  151.9569  144.7865  162.0596 H   0  0  0  0  0  0  0  0  0  0  0  0
  153.9934  140.9945  161.8814 H   0  0  0  0  0  0  0  0  0  0  0  0
  1  2  1  0  0  0  0
  1 25  1  0  0  0  0
  2  3  1  0  0  0  0
  2 26  1  0  0  0  0
  2 27  1  0  0  0  0
  3  4  1  0  0  0  0
  3 28  1  0  0  0  0
  3 29  1  0  0  0  0
  4  5  1  0  0  0  0
  4 30  1  0  0  0  0
  5 13  1  0  0  0  0
  5  6  2  0  0  0  0
  6  7  1  0  0  0  0
  7 12  2  0  0  0  0
  7  8  1  0  0  0  0
  8  9  2  0  0  0  0
  8 31  1  0  0  0  0
  9 10  1  0  0  0  0
  9 32  1  0  0  0  0
 10 11  2  0  0  0  0
 10 33  1  0  0  0  0
 11 12  1  0  0  0  0
 11 34  1  0  0  0  0
 12 13  1  0  0  0  0
 13 14  1  0  0  0  0
 14 15  1  0  0  0  0
 14 35  1  0  0  0  0
 14 36  1  0  0  0  0
 15 16  1  0  0  0  0
 15 17  1  0  0  0  0
 15 37  1  0  0  0  0
 16 38  1  0  0  0  0
 17 23  1  0  0  0  0
 17 18  2  0  0  0  0
 18 19  1  0  0  0  0
 18 39  1  0  0  0  0
 19 20  2  0  0  0  0
 19 40  1  0  0  0  0
 20 21  1  0  0  0  0
 20 22  1  0  0  0  0
 22 23  2  0  0  0  0
 22 41  1  0  0  0  0
 23 24  1  0  0  0  0
M  END
> <s_m_source_file>
AV-unprocessed.smi

> <i_m_source_file_index>
1517

> <i_lp_mmshare_version>
43012

> <i_f3d_flags>
0

> <s_epik_input>
W09IXVtDSDJdW0NIMl1bTkhdYyhuMSluKGMoYzEyKVtjSF1bY0hdW2NIXVtjSF0yKVtDSDJdW0NASF0oW09IXSljM1tjSF1bY0hdYyhGKVtjSF1jM0Y=

> <s_epik_cmdline>
J2VwaWtfcHl0aG9uJywgJy1waCcsICc3LjAnLCAnLXRuJywgJzgnLCAnLW1hJywgJzIwMCcsICctbWV0YWxfYmluZGluZycsICctaW1hZScsICc8aW5maWxlLm1hZT4nLCAnLW9tYWUnLCAnPG91dGZpbGUubWFlPic=

> <r_epik_Ionization_Penalty>
1.30972

> <r_epik_Ionization_Penalty_Charging>
0

> <r_epik_Ionization_Penalty_Neutral>
1.30972

> <r_epik_State_Penalty>
1.38438

> <r_epik_Charging_Adjusted_Penalty>
1.38438

> <i_epik_Tot_Q>
0

> <i_epik_Tot_abs_Q>
0

> <r_epik_Metal_State_Penalty>
0.00551145

> <b_epik_Metal_Only>
0

> <s_lp_Force_Field>
OPLS_2005

> <r_lp_Energy>
6.47828

> <b_lp_Chiralities_Consistent>
1

> <s_lp_Variant>
AV-unprocessed.smi:1517-4

> <Gold.Version>
5.8.1

> <Gold.Id.Protein>
6NUR|6NUR_protein|mol2

> <Gold.PLP.Fitness>
55.4636

> <Gold.PLP.PLP>
-54.1853

> <Gold.PLP.part.hbond>
-3.1530

> <Gold.PLP.part.metal>
0.0000

> <Gold.PLP.part.buried>
0.4837

> <Gold.PLP.part.nonpolar>
-50.0414

> <Gold.PLP.part.repulsive>
0.2778

> <Gold.PLP.ligand.clash>
0.0000

> <Gold.PLP.ligand.torsion>
0.5567

> <Gold.PLP.Chemscore.Hbond>
0.7500

> <Gold.PLP.Chemscore.CHOScore>
0.0000

> <Gold.PLP.Chemscore.Metal>
0.0000

> <Gold.Chemscore.Hbonds>
donor molecule, donor type, donor heavy atom, donor atom, acceptor molecule, acceptor atom, score
      P1  H  7989  7998       L1     6  0.75

> <Gold.PLP.Chemscore.Internal.Correction>
0.1417

> <Gold.Rescore>
     Score         DG    S(hbond)    S(metal)    S(lipo)     H(rot)  DE(clash)    DE(int)     intcor
     10.14     -13.14       0.14        0.00     131.92       3.22       2.35       0.65       ----

> <Gold.Chemscore.Fitness>
10.1352

> <Gold.Chemscore.DG>
-13.1391

> <Gold.Chemscore.ZeroCoef>
-5.4800

> <Gold.Chemscore.Hbond>
0.1396

> <Gold.Chemscore.Metal>
0.0000

> <Gold.Chemscore.Lipo>
131.9171

> <Gold.Chemscore.Internal_Hbond>
0.0000

> <Gold.Chemscore.DEClash>
2.3524

> <Gold.Chemscore.DEInternal>
0.6515

> <Gold.Chemscore.Rot>
3.2194

> <Gold.Chemscore.Internal.Correction>
   9.000000E+99

> <Gold.Chemscore.Hbonds>
donor molecule, donor type, donor heavy atom, donor atom, acceptor molecule, acceptor atom, score
      P1  H  7989  7998       L1     6  0.09

> <Gold.Chemscore.Hbond.Weighted>
-0.4664

> <Gold.Chemscore.Metal.Weighted>
-0.0000

> <Gold.Chemscore.Lipo.Weighted>
-15.4343

> <Gold.Chemscore.Internal_Hbond.Weighted>
0.0000

> <Gold.Chemscore.DEClash.Weighted>
2.3524

> <Gold.Chemscore.DEInternal.Weighted>
0.6515

> <Gold.Chemscore.Rot.Weighted>
8.2416

> <Gold.Chemscore.Internal.Correction.Weighted>
   9.000000E+99

> <Gold.Protein.RotatedTorsions>
[ 6907 6896 6895 6894 ] final  -37.48 input  -60.11 | X-H torsion
[ 7974 7965 7964 7962 ] final -110.27 input  175.53 | X-H torsion
[ 8008 7997 7996 7995 ] final   97.18 input   59.86 | X-H torsion
[ 10167 10162 10161 10158 ] final   53.00 input  -65.29 | X-H torsion
[ 10718 10713 10712 10709 ] final  -47.78 input   66.30 | X-H torsion
[ 10763 10752 10751 10750 ] final   30.32 input  -60.55 | X-H torsion
[ 11005 11000 10999 10996 ] final  176.95 input  -57.11 | X-H torsion

> <Gold.Protein.ActiveResidues>
 VAL166  LYS551  ARG553  GLY616  TRP617  ASP618  TYR619  PRO620  LYS621  CYS622 
 ASP623  PHE694  ASN695  SER759  ASP760  ASP761  ALA762  ILE779  LEU786  VAL792 
 PHE793  MET794  SER795  GLU796  ALA797  LYS798  CYS799  TRP800  GLU811  SER814 

> <Gold.Protein.RotatedAtoms>
  151.0141  134.9420  159.8023 H   0  0  0  0  0  0  0  0  0  0  0  0  # atno 6907 bound_to 6896
  152.5310  134.2989  159.9081 H   0  0  0  0  0  0  0  0  0  0  0  0  # atno 6908 bound_to 6896
  151.2995  133.4087  159.2673 H   0  0  0  0  0  0  0  0  0  0  0  0  # atno 6909 bound_to 6896
  145.1703  140.8922  143.3539 H   0  0  0  0  0  0  0  0  0  0  0  0  # atno 7974 bound_to 7965
  156.0874  140.3262  155.7772 H   0  0  0  0  0  0  0  0  0  0  0  0  # atno 8008 bound_to 7997
  155.5053  140.0572  157.2950 H   0  0  0  0  0  0  0  0  0  0  0  0  # atno 8009 bound_to 7997
  154.4617  140.1970  156.0242 H   0  0  0  0  0  0  0  0  0  0  0  0  # atno 8010 bound_to 7997
  140.2454  144.3538  150.6366 H   0  0  0  0  0  0  0  0  0  0  0  0  # atno 10167 bound_to 10162
  156.2051  130.4158  149.9189 H   0  0  0  0  0  0  0  0  0  0  0  0  # atno 10718 bound_to 10713
  153.0378  135.6467  154.1027 H   0  0  0  0  0  0  0  0  0  0  0  0  # atno 10763 bound_to 10752
  154.0738  135.2878  155.3304 H   0  0  0  0  0  0  0  0  0  0  0  0  # atno 10764 bound_to 10752
  154.6576  135.5403  153.8042 H   0  0  0  0  0  0  0  0  0  0  0  0  # atno 10765 bound_to 10752
  140.3788  134.6965  157.4438 H   0  0  0  0  0  0  0  0  0  0  0  0  # atno 11005 bound_to 11000
  145.0240  139.3399  143.6058 LP  0  0  0  0  0  0  0  0  0  0  0  0  # atno 17320 bound_to 7965
  146.3469  139.9551  142.8724 LP  0  0  0  0  0  0  0  0  0  0  0  0  # atno 17321 bound_to 7965
  140.6081  143.2168  151.6940 LP  0  0  0  0  0  0  0  0  0  0  0  0  # atno 17342 bound_to 10162
  139.5063  144.3685  152.0493 LP  0  0  0  0  0  0  0  0  0  0  0  0  # atno 17343 bound_to 10162
  156.6885  130.8886  151.3585 LP  0  0  0  0  0  0  0  0  0  0  0  0  # atno 17370 bound_to 10713
  157.7008  130.9331  150.0779 LP  0  0  0  0  0  0  0  0  0  0  0  0  # atno 17371 bound_to 10713
  140.0495  134.6151  155.8880 LP  0  0  0  0  0  0  0  0  0  0  0  0  # atno 17394 bound_to 11000
  141.1930  133.6577  156.5530 LP  0  0  0  0  0  0  0  0  0  0  0  0  # atno 17395 bound_to 11000

$$$$
