#       Name:                AV-unprocessed.smi:769
#       Creating user name   scv26
#       Creation time:       Fri Mar 27 01:08:44 2020


#       File generated by GOLD software.
#

@<TRIPOS>MOLECULE
AV-unprocessed.smi:769
    55    57     1
SMALL
NO_CHARGES


@<TRIPOS>ATOM
      1 ****        -2.7971   1.5926  -0.6987 O.2            1 S1                 0.0000
      2 ****        -2.9104   1.4211  -1.9122 C.2            1 S1                 0.0000
      3 ****        -2.3039   0.4223  -2.5702 N.am           1 S1                 0.0000
      4 ****        -1.4636  -0.5946  -1.9479 C.3            1 S1                 0.0000
      5 ****        -0.0658  -0.0439  -1.6031 C.3            1 S1                 0.0000
      6 ****         0.8198  -1.0731  -1.0034 N.4            1 S1                 1.0000
      7 ****         2.2602  -0.7336  -1.1643 C.3            1 S1                 0.0000
      8 ****         3.1707  -1.8052  -0.5363 C.3            1 S1                 0.0000
      9 ****         2.7943  -1.9815   0.8690 N.am           1 S1                 0.0000
     10 ****         3.6020  -1.6265   1.8981 C.2            1 S1                 0.0000
     11 ****         4.7504  -1.2212   1.7145 O.2            1 S1                 0.0000
     12 ****         3.0491  -1.6891   3.3385 C.3            1 S1                 0.0000
     13 ****         3.9654  -1.1432   4.4519 C.3            1 S1                 0.0000
     14 ****         4.3439  -2.5801   4.8232 C.3            1 S1                 0.0000
     15 ****         3.1582  -3.0779   3.9906 C.3            1 S1                 0.0000
     16 ****         1.4171  -2.4691   0.9865 C.3            1 S1                 0.0000
     17 ****         0.4620  -1.4122   0.4031 C.3            1 S1                 0.0000
     18 ****        -3.6236   2.1937  -2.7503 N.am           1 S1                 0.0000
     19 ****        -4.4126   3.3408  -2.4596 C.ar           1 S1                 0.0000
     20 ****        -4.7861   4.1654  -3.5411 C.ar           1 S1                 0.0000
     21 ****        -5.5792   5.3024  -3.2879 C.ar           1 S1                 0.0000
     22 ****        -6.0113   5.6457  -2.0566 N.ar           1 S1                 0.0000
     23 ****        -5.6638   4.8493  -1.0238 C.ar           1 S1                 0.0000
     24 ****        -4.8749   3.6901  -1.1674 C.ar           1 S1                 0.0000
     25 ****        -2.4458   0.3524  -3.5677 H              1 S1                 0.0000
     26 ****        -1.9727  -0.9798  -1.0640 H              1 S1                 0.0000
     27 ****        -1.3728  -1.4301  -2.6424 H              1 S1                 0.0000
     28 ****         0.3880   0.3247  -2.5244 H              1 S1                 0.0000
     29 ****        -0.1326   0.8126  -0.9304 H              1 S1                 0.0000
     30 ****         2.4967  -0.6309  -2.2241 H              1 S1                 0.0000
     31 ****         2.4561   0.2344  -0.6996 H              1 S1                 0.0000
     32 ****         3.0543  -2.7539  -1.0623 H              1 S1                 0.0000
     33 ****         4.2156  -1.5207  -0.6666 H              1 S1                 0.0000
     34 ****         2.0525  -1.2524   3.4123 H              1 S1                 0.0000
     35 ****         4.8106  -0.5318   4.1341 H              1 S1                 0.0000
     36 ****         3.4023  -0.6416   5.2401 H              1 S1                 0.0000
     37 ****         5.3059  -2.8819   4.4069 H              1 S1                 0.0000
     38 ****         4.2756  -2.8047   5.8880 H              1 S1                 0.0000
     39 ****         2.2850  -3.3239   4.5963 H              1 S1                 0.0000
     40 ****         3.4111  -3.8941   3.3122 H              1 S1                 0.0000
     41 ****         1.3231  -3.4009   0.4267 H              1 S1                 0.0000
     42 ****         1.1232  -2.7188   2.0047 H              1 S1                 0.0000
     43 ****         0.4960  -0.5090   1.0146 H              1 S1                 0.0000
     44 ****        -0.5580  -1.7906   0.4542 H              1 S1                 0.0000
     45 ****        -3.5618   1.9555  -3.7292 H              1 S1                 0.0000
     46 ****        -4.4700   3.9381  -4.5488 H              1 S1                 0.0000
     47 ****        -5.8751   5.9526  -4.0977 H              1 S1                 0.0000
     48 ****        -6.0306   5.1418  -0.0510 H              1 S1                 0.0000
     49 ****        -4.6565   3.0979  -0.2928 H              1 S1                 0.0000
     50 ****         0.6807  -1.9159  -1.5423 H              1 S1                 0.0000
     51 ****        -2.2317   0.9710  -0.1565 LP             1 S1                 0.0000
     52 ****        -3.2705   2.3535  -0.2549 LP             1 S1                 0.0000
     53 ****         5.1116  -1.1464   0.7850 LP             1 S1                 0.0000
     54 ****         5.3216  -0.9670   2.4949 LP             1 S1                 0.0000
     55 ****        -6.5702   6.4626  -1.9141 LP             1 S1                 0.0000
@<TRIPOS>BOND
    1    1    2 2     
    2    2    3 am    
    3    2   18 am    
    4    3    4 1     
    5    3   25 1     
    6    4    5 1     
    7    4   26 1     
    8    4   27 1     
    9    5    6 1     
   10    5   28 1     
   11    5   29 1     
   12    6   17 1     
   13    6    7 1     
   14    6   50 1     
   15    7    8 1     
   16    7   30 1     
   17    7   31 1     
   18    8    9 1     
   19    8   32 1     
   20    8   33 1     
   21    9   10 am    
   22    9   16 1     
   23   10   11 2     
   24   10   12 1     
   25   12   15 1     
   26   12   13 1     
   27   12   34 1     
   28   13   14 1     
   29   13   35 1     
   30   13   36 1     
   31   14   15 1     
   32   14   37 1     
   33   14   38 1     
   34   15   39 1     
   35   15   40 1     
   36   16   17 1     
   37   16   41 1     
   38   16   42 1     
   39   17   43 1     
   40   17   44 1     
   41   18   19 1     
   42   18   45 1     
   43   19   24 ar    
   44   19   20 ar    
   45   20   21 ar    
   46   20   46 1     
   47   21   22 ar    
   48   21   47 1     
   49   22   23 ar    
   50   23   24 ar    
   51   23   48 1     
   52   24   49 1     
   53    1   51 1     
   54    1   52 1     
   55   11   53 1     
   56   11   54 1     
   57   22   55 1     
@<TRIPOS>SUBSTRUCTURE
      1 S1             1
@<TRIPOS>SET
LONE_PAIRS      STATIC     ATOMS    <user>   **** ""
5 51 52 53 54 55
DONOR_HYDROGENS      STATIC     ATOMS    <user>   **** ""
3 25 50 45
ATOM$BLUE        STATIC     ATOMS    COLORGROUP SYSTEM
5 51 52 53 54 55
ATOM$RED        STATIC     ATOMS    COLORGROUP SYSTEM
3 25 50 45
