AV-unprocessed.smi:224|AV-procd|sdf|1720|dock7
  -GOLD-   2262020193D 1   1.00000     0.00000
 Structure written by MMmdl.
 56 59  0  0  0  0  0  0  0  0  2 V2000
  152.0842  145.2851  158.9621 C   0  0  0  0  0  0  0  0  0  0  0  0
  151.0287  144.2820  158.4790 C   0  0  1  0  0  0  0  0  0  0  0  0
  149.9354  145.0181  157.9681 O   0  0  0  0  0  0  0  0  0  0  0  0
  151.5839  143.3551  157.3786 C   0  0  0  0  0  0  0  0  0  0  0  0
  150.5667  142.4059  156.8542 N   0  3  2  0  0  0  0  0  0  0  0  0
  149.5143  142.0434  157.8419 C   0  0  0  0  0  0  0  0  0  0  0  0
  148.4202  141.1803  157.1881 C   0  0  0  0  0  0  0  0  0  0  0  0
  148.9952  140.0205  156.5096 N   0  0  0  0  0  0  0  0  0  0  0  0
  149.1189  138.8445  157.1823 C   0  0  0  0  0  0  0  0  0  0  0  0
  150.2642  138.1205  157.0644 N   0  0  0  0  0  0  0  0  0  0  0  0
  150.3977  136.9525  157.6986 C   0  0  0  0  0  0  0  0  0  0  0  0
  149.5265  136.3336  158.4958 N   0  0  0  0  0  0  0  0  0  0  0  0
  148.3820  137.0607  158.6377 C   0  0  0  0  0  0  0  0  0  0  0  0
  148.0966  138.3121  158.0203 C   0  0  0  0  0  0  0  0  0  0  0  0
  146.8333  138.7473  158.4049 N   0  0  0  0  0  0  0  0  0  0  0  0
  146.3939  137.8035  159.1916 C   0  0  0  0  0  0  0  0  0  0  0  0
  147.2649  136.7580  159.3967 N   0  0  0  0  0  0  0  0  0  0  0  0
  147.0364  135.5841  160.2251 C   0  0  0  0  0  0  0  0  0  0  0  0
  146.7697  135.9091  161.7175 C   0  0  2  0  0  0  0  0  0  0  0  0
  147.7256  136.8430  162.1822 O   0  0  0  0  0  0  0  0  0  0  0  0
  146.8112  134.6655  162.5905 C   0  0  0  0  0  0  0  0  0  0  0  0
  145.3910  134.1169  162.4690 C   0  0  0  0  0  0  0  0  0  0  0  0
  144.5569  135.2394  162.1968 O   0  0  0  0  0  0  0  0  0  0  0  0
  145.3494  136.4081  162.0129 C   0  0  0  0  0  0  0  0  0  0  0  0
  150.0365  140.3484  155.5370 C   0  0  0  0  0  0  0  0  0  0  0  0
  151.1508  141.2201  156.1584 C   0  0  2  0  0  0  0  0  0  0  0  0
  152.1072  140.3973  157.0491 C   0  0  0  0  0  0  0  0  0  0  0  0
  152.9463  144.7713  159.3883 H   0  0  0  0  0  0  0  0  0  0  0  0
  151.6797  145.9416  159.7334 H   0  0  0  0  0  0  0  0  0  0  0  0
  152.4419  145.9131  158.1451 H   0  0  0  0  0  0  0  0  0  0  0  0
  150.6860  143.7080  159.3391 H   0  0  0  0  0  0  0  0  0  0  0  0
  149.9026  144.9119  157.0301 H   0  0  0  0  0  0  0  0  0  0  0  0
  151.9630  143.9762  156.5653 H   0  0  0  0  0  0  0  0  0  0  0  0
  152.4384  142.7900  157.7546 H   0  0  0  0  0  0  0  0  0  0  0  0
  149.9637  141.5161  158.6837 H   0  0  0  0  0  0  0  0  0  0  0  0
  149.0522  142.9397  158.2529 H   0  0  0  0  0  0  0  0  0  0  0  0
  147.6715  140.8804  157.9223 H   0  0  0  0  0  0  0  0  0  0  0  0
  147.8867  141.7728  156.4439 H   0  0  0  0  0  0  0  0  0  0  0  0
  151.3361  136.4402  157.5455 H   0  0  0  0  0  0  0  0  0  0  0  0
  145.4186  137.8485  159.6548 H   0  0  0  0  0  0  0  0  0  0  0  0
  146.1970  135.0330  159.7998 H   0  0  0  0  0  0  0  0  0  0  0  0
  147.9044  134.9299  160.1337 H   0  0  0  0  0  0  0  0  0  0  0  0
  148.0446  136.5537  163.0233 H   0  0  0  0  0  0  0  0  0  0  0  0
  147.5748  133.9460  162.2928 H   0  0  0  0  0  0  0  0  0  0  0  0
  146.9985  134.9365  163.6311 H   0  0  0  0  0  0  0  0  0  0  0  0
  145.3176  133.4185  161.6348 H   0  0  0  0  0  0  0  0  0  0  0  0
  145.0717  133.5963  163.3721 H   0  0  0  0  0  0  0  0  0  0  0  0
  145.3291  136.9628  162.9524 H   0  0  0  0  0  0  0  0  0  0  0  0
  144.9353  137.0614  161.2460 H   0  0  0  0  0  0  0  0  0  0  0  0
  150.4753  139.4621  155.0823 H   0  0  0  0  0  0  0  0  0  0  0  0
  149.5620  140.8961  154.7221 H   0  0  0  0  0  0  0  0  0  0  0  0
  151.7465  141.6012  155.3279 H   0  0  0  0  0  0  0  0  0  0  0  0
  152.4902  139.5327  156.5064 H   0  0  0  0  0  0  0  0  0  0  0  0
  151.6185  140.0243  157.9482 H   0  0  0  0  0  0  0  0  0  0  0  0
  152.9714  140.9822  157.3636 H   0  0  0  0  0  0  0  0  0  0  0  0
  150.0866  142.9121  156.1240 H   0  0  0  0  0  0  0  0  0  0  0  0
  1  2  1  0  0  0  0
  1 28  1  0  0  0  0
  1 29  1  0  0  0  0
  1 30  1  0  0  0  0
  2  3  1  0  0  0  0
  2  4  1  0  0  0  0
  2 31  1  0  0  0  0
  3 32  1  0  0  0  0
  4  5  1  0  0  0  0
  4 33  1  0  0  0  0
  4 34  1  0  0  0  0
  5 26  1  0  0  0  0
  5  6  1  0  0  0  0
  5 56  1  0  0  0  0
  6  7  1  0  0  0  0
  6 35  1  0  0  0  0
  6 36  1  0  0  0  0
  7  8  1  0  0  0  0
  7 37  1  0  0  0  0
  7 38  1  0  0  0  0
  8  9  1  0  0  0  0
  8 25  1  0  0  0  0
  9 14  1  0  0  0  0
  9 10  2  0  0  0  0
 10 11  1  0  0  0  0
 11 12  2  0  0  0  0
 11 39  1  0  0  0  0
 12 13  1  0  0  0  0
 13 17  1  0  0  0  0
 13 14  2  0  0  0  0
 14 15  1  0  0  0  0
 15 16  2  0  0  0  0
 16 17  1  0  0  0  0
 16 40  1  0  0  0  0
 17 18  1  0  0  0  0
 18 19  1  0  0  0  0
 18 41  1  0  0  0  0
 18 42  1  0  0  0  0
 19 24  1  0  0  0  0
 19 20  1  0  0  0  0
 19 21  1  0  0  0  0
 20 43  1  0  0  0  0
 21 22  1  0  0  0  0
 21 44  1  0  0  0  0
 21 45  1  0  0  0  0
 22 23  1  0  0  0  0
 22 46  1  0  0  0  0
 22 47  1  0  0  0  0
 23 24  1  0  0  0  0
 24 48  1  0  0  0  0
 24 49  1  0  0  0  0
 25 26  1  0  0  0  0
 25 50  1  0  0  0  0
 25 51  1  0  0  0  0
 26 27  1  0  0  0  0
 26 52  1  0  0  0  0
 27 53  1  0  0  0  0
 27 54  1  0  0  0  0
 27 55  1  0  0  0  0
M  CHG  1   5   1
M  END
> <s_m_source_file>
AV-unprocessed.smi

> <i_m_source_file_index>
224

> <i_lp_mmshare_version>
43012

> <i_f3d_flags>
0

> <s_epik_input>
W0NIM11bQ0BIXShbT0hdKVtDSDJdTjFbQ0gyXVtDSDJdTihbQ0gyXVtDQEhdMVtDSDNdKWMobltjSF1uMiljKGMyMyluW2NIXW4zW0NIMl1bQ0BAXTQoW09IXSlbQ0gyXVtDSDJdT1tDSDJdNA==

> <s_epik_cmdline>
J2VwaWtfcHl0aG9uJywgJy1waCcsICc3LjAnLCAnLXRuJywgJzgnLCAnLW1hJywgJzIwMCcsICctbWV0YWxfYmluZGluZycsICctaW1hZScsICc8aW5maWxlLm1hZT4nLCAnLW9tYWUnLCAnPG91dGZpbGUubWFlPic=

> <r_lp_tautomer_probability>
1

> <r_epik_Ionization_Penalty>
0.00516958

> <r_epik_Ionization_Penalty_Charging>
0.00509693

> <r_epik_Ionization_Penalty_Neutral>
7.26542e-05

> <r_epik_State_Penalty>
-0

> <r_epik_Charging_Adjusted_Penalty>
0.00509693

> <i_epik_Tot_Q>
1

> <i_epik_Tot_abs_Q>
1

> <r_epik_Metal_State_Penalty>
-0

> <b_epik_Metal_Only>
0

> <s_lp_Force_Field>
OPLS_2005

> <r_lp_Energy>
52.1704

> <b_lp_Chiralities_Consistent>
1

> <s_lp_Variant>
AV-unprocessed.smi:224-14

> <Gold.Version>
5.8.1

> <Gold.Id.Protein>
6NUR|6NUR_protein|mol2

> <Gold.PLP.Fitness>
47.2198

> <Gold.PLP.PLP>
-37.8781

> <Gold.PLP.part.hbond>
-5.0000

> <Gold.PLP.part.metal>
0.0000

> <Gold.PLP.part.buried>
-4.2379

> <Gold.PLP.part.nonpolar>
-28.3659

> <Gold.PLP.part.repulsive>
0.0471

> <Gold.PLP.ligand.clash>
0.0000

> <Gold.PLP.ligand.torsion>
0.8187

> <Gold.PLP.Chemscore.Hbond>
3.5500

> <Gold.PLP.Chemscore.CHOScore>
0.0000

> <Gold.PLP.Chemscore.Metal>
0.0000

> <Gold.Chemscore.Hbonds>
donor molecule, donor type, donor heavy atom, donor atom, acceptor molecule, acceptor atom, score
      L1  H     3    32       P1  8028  0.68
      L1  H     5    56       P1  8028  0.96
      P1  H  6896  6907       L1    12  0.26
      P1  H  6931  6943       L1    20  0.80

> <Gold.PLP.Chemscore.Internal.Correction>
0.3290

> <Gold.Rescore>
     Score         DG    S(hbond)    S(metal)    S(lipo)     H(rot)  DE(clash)    DE(int)     intcor
     11.42     -15.32       1.79        0.00      99.27       3.02       2.21       1.69       ----

> <Gold.Chemscore.Fitness>
11.4247

> <Gold.Chemscore.DG>
-15.3245

> <Gold.Chemscore.ZeroCoef>
-5.4800

> <Gold.Chemscore.Hbond>
1.7870

> <Gold.Chemscore.Metal>
0.0000

> <Gold.Chemscore.Lipo>
99.2727

> <Gold.Chemscore.Internal_Hbond>
0.0000

> <Gold.Chemscore.DEClash>
2.2107

> <Gold.Chemscore.DEInternal>
1.6891

> <Gold.Chemscore.Rot>
3.0231

> <Gold.Chemscore.Internal.Correction>
   9.000000E+99

> <Gold.Chemscore.Hbonds>
donor molecule, donor type, donor heavy atom, donor atom, acceptor molecule, acceptor atom, score
      L1  H     3    32       P1  8028  0.08
      L1  H     5    56       P1  8028  0.48
      P1  H  6896  6907       L1    12  0.09
      P1  H  6931  6943       L1    20  0.12

> <Gold.Chemscore.Hbond.Weighted>
-5.9687

> <Gold.Chemscore.Metal.Weighted>
-0.0000

> <Gold.Chemscore.Lipo.Weighted>
-11.6149

> <Gold.Chemscore.Internal_Hbond.Weighted>
0.0000

> <Gold.Chemscore.DEClash.Weighted>
2.2107

> <Gold.Chemscore.DEInternal.Weighted>
1.6891

> <Gold.Chemscore.Rot.Weighted>
7.7391

> <Gold.Chemscore.Internal.Correction.Weighted>
   9.000000E+99

> <Gold.Protein.RotatedTorsions>
[ 6907 6896 6895 6894 ] final  -42.55 input  -60.11 | X-H torsion
[ 7974 7965 7964 7962 ] final  134.76 input  175.53 | X-H torsion
[ 8008 7997 7996 7995 ] final -111.71 input   59.86 | X-H torsion
[ 10167 10162 10161 10158 ] final   98.98 input  -65.29 | X-H torsion
[ 10718 10713 10712 10709 ] final  -30.85 input   66.30 | X-H torsion
[ 10763 10752 10751 10750 ] final   74.86 input  -60.55 | X-H torsion
[ 11005 11000 10999 10996 ] final -163.37 input  -57.11 | X-H torsion

> <Gold.Protein.ActiveResidues>
 VAL166  LYS551  ARG553  GLY616  TRP617  ASP618  TYR619  PRO620  LYS621  CYS622 
 ASP623  PHE694  ASN695  SER759  ASP760  ASP761  ALA762  ILE779  LEU786  VAL792 
 PHE793  MET794  SER795  GLU796  ALA797  LYS798  CYS799  TRP800  GLU811  SER814 

> <Gold.Protein.RotatedAtoms>
  150.9540  134.8937  159.7689 H   0  0  0  0  0  0  0  0  0  0  0  0  # atno 6907 bound_to 6896
  152.5131  134.3766  159.9346 H   0  0  0  0  0  0  0  0  0  0  0  0  # atno 6908 bound_to 6896
  151.3781  133.3790  159.2742 H   0  0  0  0  0  0  0  0  0  0  0  0  # atno 6909 bound_to 6896
  144.9731  139.4584  143.5423 H   0  0  0  0  0  0  0  0  0  0  0  0  # atno 7974 bound_to 7965
  154.9940  140.0395  157.2331 H   0  0  0  0  0  0  0  0  0  0  0  0  # atno 8008 bound_to 7997
  154.7603  140.2783  155.6197 H   0  0  0  0  0  0  0  0  0  0  0  0  # atno 8009 bound_to 7997
  156.2902  140.2629  156.2380 H   0  0  0  0  0  0  0  0  0  0  0  0  # atno 8010 bound_to 7997
  139.7659  144.6939  151.0225 H   0  0  0  0  0  0  0  0  0  0  0  0  # atno 10167 bound_to 10162
  156.3947  130.4379  149.7368 H   0  0  0  0  0  0  0  0  0  0  0  0  # atno 10718 bound_to 10713
  153.0615  135.5010  154.8105 H   0  0  0  0  0  0  0  0  0  0  0  0  # atno 10763 bound_to 10752
  154.6890  135.2981  154.9508 H   0  0  0  0  0  0  0  0  0  0  0  0  # atno 10764 bound_to 10752
  154.0269  135.6734  153.4830 H   0  0  0  0  0  0  0  0  0  0  0  0  # atno 10765 bound_to 10752
  140.5988  134.4969  157.5202 H   0  0  0  0  0  0  0  0  0  0  0  0  # atno 11005 bound_to 11000
  146.3388  139.8956  142.8802 LP  0  0  0  0  0  0  0  0  0  0  0  0  # atno 17320 bound_to 7965
  145.2529  141.0050  143.3870 LP  0  0  0  0  0  0  0  0  0  0  0  0  # atno 17321 bound_to 7965
  140.7811  143.4643  151.0233 LP  0  0  0  0  0  0  0  0  0  0  0  0  # atno 17342 bound_to 10162
  139.8328  143.7667  152.3180 LP  0  0  0  0  0  0  0  0  0  0  0  0  # atno 17343 bound_to 10162
  156.4408  130.7860  151.2881 LP  0  0  0  0  0  0  0  0  0  0  0  0  # atno 17370 bound_to 10713
  157.7501  131.0125  150.3389 LP  0  0  0  0  0  0  0  0  0  0  0  0  # atno 17371 bound_to 10713
  139.9241  134.8090  156.1120 LP  0  0  0  0  0  0  0  0  0  0  0  0  # atno 17394 bound_to 11000
  141.0886  133.6724  156.2491 LP  0  0  0  0  0  0  0  0  0  0  0  0  # atno 17395 bound_to 11000

$$$$
