AV-unprocessed.smi:2681|AV-procd|sdf|10373|dock2
  -GOLD-   2272014403D 1   1.00000     0.00000
 Structure written by MMmdl.
 42 43  0  0  0  0  0  0  0  0  1 V2000
  149.1384  131.3077  156.7302 N   0  0  0  0  0  0  0  0  0  0  0  0
  149.1487  132.4610  156.8219 C   0  0  0  0  0  0  0  0  0  0  0  0
  149.1622  133.9134  156.9370 C   0  0  0  0  0  0  0  0  0  0  0  0
  148.9241  134.5067  158.1945 C   0  0  0  0  0  0  0  0  0  0  0  0
  148.9525  135.9109  158.3133 C   0  0  0  0  0  0  0  0  0  0  0  0
  148.7310  136.5275  159.6131 C   0  0  0  0  0  0  0  0  0  0  0  0
  148.5547  137.0185  160.6459 N   0  0  0  0  0  0  0  0  0  0  0  0
  149.2167  136.6655  157.1458 C   0  0  0  0  0  0  0  0  0  0  0  0
  149.3071  138.4352  157.1573 S   0  0  0  0  0  0  0  0  0  0  0  0
  150.7455  138.8755  158.1791 C   0  0  0  0  0  0  0  0  0  0  0  0
  151.3142  140.2569  157.8259 C   0  0  0  0  0  0  0  0  0  0  0  0
  152.2932  140.6254  158.7869 O   0  0  0  0  0  0  0  0  0  0  0  0
  152.0115  141.8114  159.5187 C   0  0  0  0  0  0  0  0  0  0  0  0
  151.9932  143.0146  158.5486 C   0  0  0  0  0  0  0  0  0  0  0  0
  152.2481  144.4058  159.1560 C   0  0  0  0  0  0  0  0  0  0  0  0
  151.6037  144.6583  160.5282 C   0  0  0  0  0  0  0  0  0  0  0  0
  152.4934  144.1953  161.6940 C   0  0  0  0  0  0  0  0  0  0  0  0
  152.5793  142.6726  161.8717 C   0  0  0  0  0  0  0  0  0  0  0  0
  153.0692  141.9006  160.6345 C   0  0  0  0  0  0  0  0  0  0  0  0
  149.4328  136.1098  155.9340 N   0  0  0  0  0  0  0  0  0  0  0  0
  149.4128  134.7644  155.8301 C   0  0  0  0  0  0  0  0  0  0  0  0
  149.6592  134.2624  154.5508 N   0  0  0  0  0  0  0  0  0  0  0  0
  148.7328  133.8899  159.0617 H   0  0  0  0  0  0  0  0  0  0  0  0
  150.4786  138.8263  159.2350 H   0  0  0  0  0  0  0  0  0  0  0  0
  151.5109  138.1172  158.0140 H   0  0  0  0  0  0  0  0  0  0  0  0
  151.7627  140.2216  156.8330 H   0  0  0  0  0  0  0  0  0  0  0  0
  150.5078  140.9911  157.7944 H   0  0  0  0  0  0  0  0  0  0  0  0
  151.0331  141.7057  159.9905 H   0  0  0  0  0  0  0  0  0  0  0  0
  152.7358  142.8559  157.7654 H   0  0  0  0  0  0  0  0  0  0  0  0
  151.0294  143.0293  158.0388 H   0  0  0  0  0  0  0  0  0  0  0  0
  153.3220  144.5843  159.2217 H   0  0  0  0  0  0  0  0  0  0  0  0
  151.8789  145.1505  158.4499 H   0  0  0  0  0  0  0  0  0  0  0  0
  151.4522  145.7329  160.6359 H   0  0  0  0  0  0  0  0  0  0  0  0
  150.6109  144.2101  160.5851 H   0  0  0  0  0  0  0  0  0  0  0  0
  153.4964  144.6077  161.5782 H   0  0  0  0  0  0  0  0  0  0  0  0
  152.1056  144.6230  162.6191 H   0  0  0  0  0  0  0  0  0  0  0  0
  153.2584  142.4664  162.6995 H   0  0  0  0  0  0  0  0  0  0  0  0
  151.6097  142.2847  162.1864 H   0  0  0  0  0  0  0  0  0  0  0  0
  153.2965  140.8882  160.9676 H   0  0  0  0  0  0  0  0  0  0  0  0
  154.0096  142.3043  160.2573 H   0  0  0  0  0  0  0  0  0  0  0  0
  149.6686  133.2699  154.3633 H   0  0  0  0  0  0  0  0  0  0  0  0
  149.8351  134.8787  153.7702 H   0  0  0  0  0  0  0  0  0  0  0  0
  1  2  3  0  0  0  0
  2  3  1  0  0  0  0
  3 21  1  0  0  0  0
  3  4  2  0  0  0  0
  4  5  1  0  0  0  0
  4 23  1  0  0  0  0
  5  6  1  0  0  0  0
  5  8  2  0  0  0  0
  6  7  3  0  0  0  0
  8  9  1  0  0  0  0
  8 20  1  0  0  0  0
  9 10  1  0  0  0  0
 10 11  1  0  0  0  0
 10 24  1  0  0  0  0
 10 25  1  0  0  0  0
 11 12  1  0  0  0  0
 11 26  1  0  0  0  0
 11 27  1  0  0  0  0
 12 13  1  0  0  0  0
 13 19  1  0  0  0  0
 13 14  1  0  0  0  0
 13 28  1  0  0  0  0
 14 15  1  0  0  0  0
 14 29  1  0  0  0  0
 14 30  1  0  0  0  0
 15 16  1  0  0  0  0
 15 31  1  0  0  0  0
 15 32  1  0  0  0  0
 16 17  1  0  0  0  0
 16 33  1  0  0  0  0
 16 34  1  0  0  0  0
 17 18  1  0  0  0  0
 17 35  1  0  0  0  0
 17 36  1  0  0  0  0
 18 19  1  0  0  0  0
 18 37  1  0  0  0  0
 18 38  1  0  0  0  0
 19 39  1  0  0  0  0
 19 40  1  0  0  0  0
 20 21  2  0  0  0  0
 21 22  1  0  0  0  0
 22 41  1  0  0  0  0
 22 42  1  0  0  0  0
M  END
> <s_m_source_file>
AV-unprocessed.smi

> <i_m_source_file_index>
2681

> <i_lp_mmshare_version>
43012

> <i_f3d_flags>
0

> <s_epik_input>
TiNDYzFbY0hdYyhDI04pYyhuYzFbTkgyXSlTW0NIMl1bQ0gyXU9bQ0hdMltDSDJdW0NIMl1bQ0gyXVtDSDJdW0NIMl1bQ0gyXTI=

> <s_epik_cmdline>
J2VwaWtfcHl0aG9uJywgJy1waCcsICc3LjAnLCAnLXRuJywgJzgnLCAnLW1hJywgJzIwMCcsICctbWV0YWxfYmluZGluZycsICctaW1hZScsICc8aW5maWxlLm1hZT4nLCAnLW9tYWUnLCAnPG91dGZpbGUubWFlPic=

> <r_epik_Ionization_Penalty>
0.00177186

> <r_epik_Ionization_Penalty_Charging>
0

> <r_epik_Ionization_Penalty_Neutral>
0.00177186

> <r_epik_State_Penalty>
0.00120048

> <r_epik_Charging_Adjusted_Penalty>
0.00120048

> <i_epik_Tot_Q>
0

> <i_epik_Tot_abs_Q>
0

> <r_epik_Metal_State_Penalty>
-0

> <b_epik_Metal_Only>
0

> <s_lp_Force_Field>
OPLS_2005

> <r_lp_Energy>
17.568

> <b_lp_Chiralities_Consistent>
1

> <s_lp_Variant>
AV-unprocessed.smi:2681-1

> <Gold.Version>
5.8.1

> <Gold.Id.Protein>
6NUR|6NUR_protein|mol2

> <Gold.PLP.Fitness>
41.4363

> <Gold.PLP.PLP>
-35.4060

> <Gold.PLP.part.hbond>
-3.0000

> <Gold.PLP.part.metal>
0.0000

> <Gold.PLP.part.buried>
-5.6167

> <Gold.PLP.part.nonpolar>
-27.2745

> <Gold.PLP.part.repulsive>
0.0725

> <Gold.PLP.ligand.clash>
0.0000

> <Gold.PLP.ligand.torsion>
0.5799

> <Gold.PLP.Chemscore.Hbond>
2.3669

> <Gold.PLP.Chemscore.CHOScore>
0.0000

> <Gold.PLP.Chemscore.Metal>
0.0000

> <Gold.Chemscore.Hbonds>
donor molecule, donor type, donor heavy atom, donor atom, acceptor molecule, acceptor atom, score
      P1  H  6931  6943       L1     7  0.85

> <Gold.PLP.Chemscore.Internal.Correction>
0.0894

> <Gold.Rescore>
     Score         DG    S(hbond)    S(metal)    S(lipo)     H(rot)  DE(clash)    DE(int)     intcor
     18.07     -18.58       2.46        0.00      87.96       2.12       0.00       0.51       ----

> <Gold.Chemscore.Fitness>
18.0660

> <Gold.Chemscore.DG>
-18.5780

> <Gold.Chemscore.ZeroCoef>
-5.4800

> <Gold.Chemscore.Hbond>
2.4614

> <Gold.Chemscore.Metal>
0.0000

> <Gold.Chemscore.Lipo>
87.9630

> <Gold.Chemscore.Internal_Hbond>
0.0000

> <Gold.Chemscore.DEClash>
0.0038

> <Gold.Chemscore.DEInternal>
0.5082

> <Gold.Chemscore.Rot>
2.1152

> <Gold.Chemscore.Internal.Correction>
   9.000000E+99

> <Gold.Chemscore.Hbonds>
donor molecule, donor type, donor heavy atom, donor atom, acceptor molecule, acceptor atom, score
      P1  H  6931  6943       L1     7  0.85
      P1  H  6934  6947       L1     7  0.04

> <Gold.Chemscore.Hbond.Weighted>
-8.2212

> <Gold.Chemscore.Metal.Weighted>
-0.0000

> <Gold.Chemscore.Lipo.Weighted>
-10.2917

> <Gold.Chemscore.Internal_Hbond.Weighted>
0.0000

> <Gold.Chemscore.DEClash.Weighted>
0.0038

> <Gold.Chemscore.DEInternal.Weighted>
0.5082

> <Gold.Chemscore.Rot.Weighted>
5.4149

> <Gold.Chemscore.Internal.Correction.Weighted>
   9.000000E+99

> <Gold.Protein.RotatedTorsions>
[ 6907 6896 6895 6894 ] final   55.51 input  -60.11 | X-H torsion
[ 7974 7965 7964 7962 ] final  133.69 input  175.53 | X-H torsion
[ 8008 7997 7996 7995 ] final  -90.34 input   59.86 | X-H torsion
[ 10167 10162 10161 10158 ] final  112.19 input  -65.29 | X-H torsion
[ 10718 10713 10712 10709 ] final -138.99 input   66.30 | X-H torsion
[ 10763 10752 10751 10750 ] final    1.23 input  -60.55 | X-H torsion
[ 11005 11000 10999 10996 ] final  -90.38 input  -57.11 | X-H torsion

> <Gold.Protein.ActiveResidues>
 VAL166  LYS551  ARG553  GLY616  TRP617  ASP618  TYR619  PRO620  LYS621  CYS622 
 ASP623  PHE694  ASN695  SER759  ASP760  ASP761  ALA762  ILE779  LEU786  VAL792 
 PHE793  MET794  SER795  GLU796  ALA797  LYS798  CYS799  TRP800  GLU811  SER814 

> <Gold.Protein.RotatedAtoms>
  152.3545  134.6959  160.0225 H   0  0  0  0  0  0  0  0  0  0  0  0  # atno 6907 bound_to 6896
  151.7302  133.3312  159.3346 H   0  0  0  0  0  0  0  0  0  0  0  0  # atno 6908 bound_to 6896
  150.7562  134.6304  159.6227 H   0  0  0  0  0  0  0  0  0  0  0  0  # atno 6909 bound_to 6896
  144.9839  139.4476  143.5372 H   0  0  0  0  0  0  0  0  0  0  0  0  # atno 7974 bound_to 7965
  154.6974  140.0531  157.0424 H   0  0  0  0  0  0  0  0  0  0  0  0  # atno 8008 bound_to 7997
  155.0732  140.3202  155.4605 H   0  0  0  0  0  0  0  0  0  0  0  0  # atno 8009 bound_to 7997
  156.2749  140.2078  156.5859 H   0  0  0  0  0  0  0  0  0  0  0  0  # atno 8010 bound_to 7997
  139.6554  144.7129  151.1966 H   0  0  0  0  0  0  0  0  0  0  0  0  # atno 10167 bound_to 10162
  156.3056  130.7453  151.1516 H   0  0  0  0  0  0  0  0  0  0  0  0  # atno 10718 bound_to 10713
  153.3107  135.6962  153.7118 H   0  0  0  0  0  0  0  0  0  0  0  0  # atno 10763 bound_to 10752
  153.5997  135.3464  155.2941 H   0  0  0  0  0  0  0  0  0  0  0  0  # atno 10764 bound_to 10752
  154.8574  135.4337  154.2244 H   0  0  0  0  0  0  0  0  0  0  0  0  # atno 10765 bound_to 10752
  141.1567  133.7689  156.9730 H   0  0  0  0  0  0  0  0  0  0  0  0  # atno 11005 bound_to 11000
  146.3415  139.9129  142.8777 LP  0  0  0  0  0  0  0  0  0  0  0  0  # atno 17320 bound_to 7965
  145.2381  140.9999  143.3951 LP  0  0  0  0  0  0  0  0  0  0  0  0  # atno 17321 bound_to 7965
  140.7557  143.6080  150.8633 LP  0  0  0  0  0  0  0  0  0  0  0  0  # atno 17342 bound_to 10162
  139.9733  143.6033  152.2967 LP  0  0  0  0  0  0  0  0  0  0  0  0  # atno 17343 bound_to 10162
  157.7379  131.0547  150.5329 LP  0  0  0  0  0  0  0  0  0  0  0  0  # atno 17370 bound_to 10713
  156.5462  130.4220  149.6130 LP  0  0  0  0  0  0  0  0  0  0  0  0  # atno 17371 bound_to 10713
  140.1117  134.9473  157.2074 LP  0  0  0  0  0  0  0  0  0  0  0  0  # atno 17394 bound_to 11000
  140.3186  134.2942  155.7251 LP  0  0  0  0  0  0  0  0  0  0  0  0  # atno 17395 bound_to 11000

$$$$
