AV-unprocessed.smi:2061|AV-procd|sdf|8380|dock7
  -GOLD-   2272011 53D 1   1.00000     0.00000
 Structure written by MMmdl.
 45 46  0  0  0  0  0  0  0  0  3 V2000
  147.1729  135.8620  163.1890 C   0  0  0  0  0  0  0  0  0  0  0  0
  147.7199  135.8176  161.8031 C   0  0  0  0  0  0  0  0  0  0  0  0
  148.0413  134.7876  160.9653 C   0  0  0  0  0  0  0  0  0  0  0  0
  148.4994  135.4519  159.7949 C   0  0  0  0  0  0  0  0  0  0  0  0
  148.9408  134.8582  158.6750 N   0  5  0  0  0  0  0  0  0  0  0  0
  148.4672  135.2447  157.4686 C   0  0  0  0  0  0  0  0  0  0  0  0
  147.5171  136.0038  157.2632 O   0  0  0  0  0  0  0  0  0  0  0  0
  149.1306  134.7112  156.4329 N   0  0  0  0  0  0  0  0  0  0  0  0
  148.8221  134.9276  155.0221 C   0  0  0  0  0  0  0  0  0  0  0  0
  148.3294  133.6422  154.3027 C   0  0  2  0  0  0  0  0  0  0  0  0
  149.5231  132.6902  154.0432 C   0  0  0  0  0  0  0  0  0  0  0  0
  147.5684  133.9909  153.0578 N   0  3  1  0  0  0  0  0  0  0  0  0
  147.0904  132.8273  152.2602 C   0  0  0  0  0  0  0  0  0  0  0  0
  146.3476  133.2836  150.9897 C   0  0  1  0  0  0  0  0  0  0  0  0
  145.7678  132.1011  150.2051 C   0  0  0  0  0  0  0  0  0  0  0  0
  145.2727  134.1397  151.3510 O   0  0  0  0  0  0  0  0  0  0  0  0
  145.7229  135.3137  152.0124 C   0  0  1  0  0  0  0  0  0  0  0  0
  144.5076  136.2140  152.2622 C   0  0  0  0  0  0  0  0  0  0  0  0
  146.4261  134.9088  153.3209 C   0  0  0  0  0  0  0  0  0  0  0  0
  148.4774  136.7685  159.9188 N   0  0  0  0  0  0  0  0  0  0  0  0
  147.9719  137.0115  161.2016 O   0  0  0  0  0  0  0  0  0  0  0  0
  147.9512  135.6350  163.9174 H   0  0  0  0  0  0  0  0  0  0  0  0
  146.3713  135.1335  163.3111 H   0  0  0  0  0  0  0  0  0  0  0  0
  146.7695  136.8481  163.4206 H   0  0  0  0  0  0  0  0  0  0  0  0
  147.9573  133.7281  161.1561 H   0  0  0  0  0  0  0  0  0  0  0  0
  149.9055  134.0996  156.6450 H   0  0  0  0  0  0  0  0  0  0  0  0
  148.0975  135.7385  154.9664 H   0  0  0  0  0  0  0  0  0  0  0  0
  149.7256  135.2976  154.5370 H   0  0  0  0  0  0  0  0  0  0  0  0
  147.6420  133.1098  154.9618 H   0  0  0  0  0  0  0  0  0  0  0  0
  150.0841  132.4851  154.9546 H   0  0  0  0  0  0  0  0  0  0  0  0
  150.2208  133.1134  153.3197 H   0  0  0  0  0  0  0  0  0  0  0  0
  149.1982  131.7160  153.6784 H   0  0  0  0  0  0  0  0  0  0  0  0
  147.9276  132.2081  151.9401 H   0  0  0  0  0  0  0  0  0  0  0  0
  146.4397  132.2067  152.8789 H   0  0  0  0  0  0  0  0  0  0  0  0
  147.0348  133.8264  150.3380 H   0  0  0  0  0  0  0  0  0  0  0  0
  146.5544  131.4157  149.8887 H   0  0  0  0  0  0  0  0  0  0  0  0
  145.2472  132.4447  149.3108 H   0  0  0  0  0  0  0  0  0  0  0  0
  145.0555  131.5374  150.8086 H   0  0  0  0  0  0  0  0  0  0  0  0
  146.4221  135.8484  151.3670 H   0  0  0  0  0  0  0  0  0  0  0  0
  144.7992  137.1394  152.7596 H   0  0  0  0  0  0  0  0  0  0  0  0
  143.7685  135.7150  152.8897 H   0  0  0  0  0  0  0  0  0  0  0  0
  144.0211  136.4814  151.3239 H   0  0  0  0  0  0  0  0  0  0  0  0
  145.7161  134.4196  153.9901 H   0  0  0  0  0  0  0  0  0  0  0  0
  146.7565  135.8152  153.8236 H   0  0  0  0  0  0  0  0  0  0  0  0
  148.2152  134.4880  152.4626 H   0  0  0  0  0  0  0  0  0  0  0  0
  1  2  1  0  0  0  0
  1 22  1  0  0  0  0
  1 23  1  0  0  0  0
  1 24  1  0  0  0  0
  2 21  1  0  0  0  0
  2  3  2  0  0  0  0
  3  4  1  0  0  0  0
  3 25  1  0  0  0  0
  4  5  1  0  0  0  0
  4 20  2  0  0  0  0
  5  6  1  0  0  0  0
  6  7  2  0  0  0  0
  6  8  1  0  0  0  0
  8  9  1  0  0  0  0
  8 26  1  0  0  0  0
  9 10  1  0  0  0  0
  9 27  1  0  0  0  0
  9 28  1  0  0  0  0
 10 11  1  0  0  0  0
 10 12  1  0  0  0  0
 10 29  1  0  0  0  0
 11 30  1  0  0  0  0
 11 31  1  0  0  0  0
 11 32  1  0  0  0  0
 12 19  1  0  0  0  0
 12 13  1  0  0  0  0
 12 45  1  0  0  0  0
 13 14  1  0  0  0  0
 13 33  1  0  0  0  0
 13 34  1  0  0  0  0
 14 15  1  0  0  0  0
 14 16  1  0  0  0  0
 14 35  1  0  0  0  0
 15 36  1  0  0  0  0
 15 37  1  0  0  0  0
 15 38  1  0  0  0  0
 16 17  1  0  0  0  0
 17 18  1  0  0  0  0
 17 19  1  0  0  0  0
 17 39  1  0  0  0  0
 18 40  1  0  0  0  0
 18 41  1  0  0  0  0
 18 42  1  0  0  0  0
 19 43  1  0  0  0  0
 19 44  1  0  0  0  0
 20 21  1  0  0  0  0
M  CHG  1   5  -1
M  CHG  1  12   1
M  END
> <s_m_source_file>
AV-unprocessed.smi

> <i_m_source_file_index>
2061

> <i_lp_mmshare_version>
43012

> <i_f3d_flags>
0

> <s_epik_input>
W0NIM11jMVtjSF1jKG5vMSlbTkhdQyg9TylbTkhdW0NIMl1bQ0BIXShbQ0gzXSlOMltDSDJdW0NAQEhdKFtDSDNdKU9bQ0BASF0oW0NIM10pW0NIMl0y

> <s_epik_cmdline>
J2VwaWtfcHl0aG9uJywgJy1waCcsICc3LjAnLCAnLXRuJywgJzgnLCAnLW1hJywgJzIwMCcsICctbWV0YWxfYmluZGluZycsICctaW1hZScsICc8aW5maWxlLm1hZT4nLCAnLW9tYWUnLCAnPG91dGZpbGUubWFlPic=

> <r_epik_Ionization_Penalty>
6.73511

> <r_epik_Ionization_Penalty_Charging>
6.73502

> <r_epik_Ionization_Penalty_Neutral>
9.50841e-05

> <r_epik_State_Penalty>
6.93549

> <r_epik_Charging_Adjusted_Penalty>
13.6705

> <i_epik_Tot_Q>
0

> <i_epik_Tot_abs_Q>
2

> <r_epik_Metal_State_Penalty>
2.87211

> <b_epik_Metal_Only>
1

> <s_lp_Force_Field>
OPLS_2005

> <r_lp_Energy>
7.84015

> <b_lp_Chiralities_Consistent>
1

> <s_lp_Variant>
AV-unprocessed.smi:2061-21

> <Gold.Version>
5.8.1

> <Gold.Id.Protein>
6NUR|6NUR_protein|mol2

> <Gold.PLP.Fitness>
48.3185

> <Gold.PLP.PLP>
-32.2567

> <Gold.PLP.part.hbond>
-4.3571

> <Gold.PLP.part.metal>
0.0000

> <Gold.PLP.part.buried>
-4.0244

> <Gold.PLP.part.nonpolar>
-24.3616

> <Gold.PLP.part.repulsive>
0.1537

> <Gold.PLP.ligand.clash>
0.0000

> <Gold.PLP.ligand.torsion>
0.6431

> <Gold.PLP.Chemscore.Hbond>
5.7440

> <Gold.PLP.Chemscore.CHOScore>
0.0000

> <Gold.PLP.Chemscore.Metal>
0.0000

> <Gold.Chemscore.Hbonds>
donor molecule, donor type, donor heavy atom, donor atom, acceptor molecule, acceptor atom, score
      L1  H    12    45       P1  7948  1.88
      P1  H  6896  6909       L1     5  1.70
      P1  H  6931  6943       L1    21  1.00
      P1  H  6934  6947       L1    21  0.49

> <Gold.PLP.Chemscore.Internal.Correction>
0.1160

> <Gold.Rescore>
     Score         DG    S(hbond)    S(metal)    S(lipo)     H(rot)  DE(clash)    DE(int)     intcor
     14.78     -16.81       2.06        0.00      71.99       1.56       0.11       1.92       ----

> <Gold.Chemscore.Fitness>
14.7834

> <Gold.Chemscore.DG>
-16.8087

> <Gold.Chemscore.ZeroCoef>
-5.4800

> <Gold.Chemscore.Hbond>
2.0620

> <Gold.Chemscore.Metal>
0.0000

> <Gold.Chemscore.Lipo>
71.9884

> <Gold.Chemscore.Internal_Hbond>
0.0000

> <Gold.Chemscore.DEClash>
0.1052

> <Gold.Chemscore.DEInternal>
1.9202

> <Gold.Chemscore.Rot>
1.5550

> <Gold.Chemscore.Internal.Correction>
   9.000000E+99

> <Gold.Chemscore.Hbonds>
donor molecule, donor type, donor heavy atom, donor atom, acceptor molecule, acceptor atom, score
      L1  H    12    45       P1  7948  0.20
      P1  H  6896  6909       L1     5  0.14
      P1  H  6931  6943       L1    21  0.49
      P1  H  6934  6947       L1    21  0.13

> <Gold.Chemscore.Hbond.Weighted>
-6.8870

> <Gold.Chemscore.Metal.Weighted>
-0.0000

> <Gold.Chemscore.Lipo.Weighted>
-8.4226

> <Gold.Chemscore.Internal_Hbond.Weighted>
0.0000

> <Gold.Chemscore.DEClash.Weighted>
0.1052

> <Gold.Chemscore.DEInternal.Weighted>
1.9202

> <Gold.Chemscore.Rot.Weighted>
3.9809

> <Gold.Chemscore.Internal.Correction.Weighted>
   9.000000E+99

> <Gold.Protein.RotatedTorsions>
[ 6907 6896 6895 6894 ] final   25.60 input  -60.11 | X-H torsion
[ 7974 7965 7964 7962 ] final    2.58 input  175.53 | X-H torsion
[ 8008 7997 7996 7995 ] final   96.88 input   59.86 | X-H torsion
[ 10167 10162 10161 10158 ] final   93.54 input  -65.29 | X-H torsion
[ 10718 10713 10712 10709 ] final   57.51 input   66.30 | X-H torsion
[ 10763 10752 10751 10750 ] final  -55.91 input  -60.55 | X-H torsion
[ 11005 11000 10999 10996 ] final  -62.83 input  -57.11 | X-H torsion

> <Gold.Protein.ActiveResidues>
 VAL166  LYS551  ARG553  GLY616  TRP617  ASP618  TYR619  PRO620  LYS621  CYS622 
 ASP623  PHE694  ASN695  SER759  ASP760  ASP761  ALA762  ILE779  LEU786  VAL792 
 PHE793  MET794  SER795  GLU796  ALA797  LYS798  CYS799  TRP800  GLU811  SER814 

> <Gold.Protein.RotatedAtoms>
  151.9749  135.0058  160.0554 H   0  0  0  0  0  0  0  0  0  0  0  0  # atno 6907 bound_to 6896
  152.1749  133.4664  159.4936 H   0  0  0  0  0  0  0  0  0  0  0  0  # atno 6908 bound_to 6896
  150.6907  134.1824  159.4296 H   0  0  0  0  0  0  0  0  0  0  0  0  # atno 6909 bound_to 6896
  146.2444  140.0814  142.8357 H   0  0  0  0  0  0  0  0  0  0  0  0  # atno 7974 bound_to 7965
  156.0843  140.3266  155.7733 H   0  0  0  0  0  0  0  0  0  0  0  0  # atno 8008 bound_to 7997
  155.5102  140.0576  157.2942 H   0  0  0  0  0  0  0  0  0  0  0  0  # atno 8009 bound_to 7997
  154.4600  140.1962  156.0288 H   0  0  0  0  0  0  0  0  0  0  0  0  # atno 8010 bound_to 7997
  139.8169  144.6748  150.9568 H   0  0  0  0  0  0  0  0  0  0  0  0  # atno 10167 bound_to 10162
  157.5521  130.8773  149.8979 H   0  0  0  0  0  0  0  0  0  0  0  0  # atno 10718 bound_to 10713
  154.1982  135.6415  153.5079 H   0  0  0  0  0  0  0  0  0  0  0  0  # atno 10763 bound_to 10752
  153.0018  135.5445  154.6343 H   0  0  0  0  0  0  0  0  0  0  0  0  # atno 10764 bound_to 10752
  154.5749  135.2920  155.0764 H   0  0  0  0  0  0  0  0  0  0  0  0  # atno 10765 bound_to 10752
  141.1373  133.6644  156.5587 H   0  0  0  0  0  0  0  0  0  0  0  0  # atno 11005 bound_to 11000
  145.0729  140.9168  143.4871 LP  0  0  0  0  0  0  0  0  0  0  0  0  # atno 17320 bound_to 7965
  145.0952  139.2862  143.5714 LP  0  0  0  0  0  0  0  0  0  0  0  0  # atno 17321 bound_to 7965
  140.7815  143.4129  151.0963 LP  0  0  0  0  0  0  0  0  0  0  0  0  # atno 17342 bound_to 10162
  139.7792  143.8380  152.3134 LP  0  0  0  0  0  0  0  0  0  0  0  0  # atno 17343 bound_to 10162
  156.0585  130.3704  150.1035 LP  0  0  0  0  0  0  0  0  0  0  0  0  # atno 17370 bound_to 10713
  156.9207  130.9682  151.3549 LP  0  0  0  0  0  0  0  0  0  0  0  0  # atno 17371 bound_to 10713
  140.4005  134.7360  157.4777 LP  0  0  0  0  0  0  0  0  0  0  0  0  # atno 17394 bound_to 11000
  140.0499  134.6145  155.8874 LP  0  0  0  0  0  0  0  0  0  0  0  0  # atno 17395 bound_to 11000

$$$$
