AV-unprocessed.smi:2504|AV-procd|sdf|9849|dock5
  -GOLD-   2272013473D 1   1.00000     0.00000
 Structure written by MMmdl.
 46 48  0  0  0  0  0  0  0  0  1 V2000
  152.5091  139.7795  155.1241 O   0  0  0  0  0  0  0  0  0  0  0  0
  151.4751  139.4840  155.7245 C   0  0  0  0  0  0  0  0  0  0  0  0
  151.0307  140.2660  156.9794 C   0  0  0  0  0  0  0  0  0  0  0  0
  150.8376  141.7789  156.7414 C   0  0  0  0  0  0  0  0  0  0  0  0
  151.2119  142.4413  158.0650 C   0  0  0  0  0  0  0  0  0  0  0  0
  152.3743  141.5961  158.5749 C   0  0  0  0  0  0  0  0  0  0  0  0
  152.0313  140.1626  158.1561 C   0  0  0  0  0  0  0  0  0  0  0  0
  150.6081  138.5039  155.2310 N   0  0  0  0  0  0  0  0  0  0  0  0
  151.1005  137.2629  154.6515 C   0  0  0  0  0  0  0  0  0  0  0  0
  149.7719  136.6555  155.1219 C   0  0  0  0  0  0  0  0  0  0  0  0
  149.9261  135.0228  155.9721 S   0  0  0  0  0  0  0  0  0  0  0  0
  151.3421  134.7519  156.2657 O   0  0  0  0  0  0  0  0  0  0  0  0
  148.9272  134.9494  157.0491 O   0  0  0  0  0  0  0  0  0  0  0  0
  149.4326  133.9261  154.7394 N   0  0  0  0  0  0  0  0  0  0  0  0
  148.0363  133.9595  154.3064 C   0  0  0  0  0  0  0  0  0  0  0  0
  147.7873  132.9264  153.1967 C   0  0  0  0  0  0  0  0  0  0  0  0
  146.5061  133.1852  152.4238 C   0  0  0  0  0  0  0  0  0  0  0  0
  145.7680  134.3699  152.6244 C   0  0  0  0  0  0  0  0  0  0  0  0
  144.5907  134.5705  151.8783 C   0  0  0  0  0  0  0  0  0  0  0  0
  144.2007  133.5750  150.9604 C   0  0  0  0  0  0  0  0  0  0  0  0
  144.8986  132.4360  150.7608 N   0  0  0  0  0  0  0  0  0  0  0  0
  146.0250  132.2505  151.4820 C   0  0  0  0  0  0  0  0  0  0  0  0
  149.6544  137.8301  156.0999 C   0  0  0  0  0  0  0  0  0  0  0  0
  150.0728  139.8604  157.3073 H   0  0  0  0  0  0  0  0  0  0  0  0
  151.5071  142.1533  155.9653 H   0  0  0  0  0  0  0  0  0  0  0  0
  149.8180  142.0222  156.4405 H   0  0  0  0  0  0  0  0  0  0  0  0
  151.4753  143.4931  157.9499 H   0  0  0  0  0  0  0  0  0  0  0  0
  150.3746  142.3787  158.7617 H   0  0  0  0  0  0  0  0  0  0  0  0
  153.2959  141.9105  158.0831 H   0  0  0  0  0  0  0  0  0  0  0  0
  152.5229  141.6939  159.6509 H   0  0  0  0  0  0  0  0  0  0  0  0
  151.5598  139.6369  158.9873 H   0  0  0  0  0  0  0  0  0  0  0  0
  152.9406  139.6124  157.9093 H   0  0  0  0  0  0  0  0  0  0  0  0
  151.2207  137.2946  153.5684 H   0  0  0  0  0  0  0  0  0  0  0  0
  151.9830  136.8704  155.1589 H   0  0  0  0  0  0  0  0  0  0  0  0
  148.9863  136.6473  154.3644 H   0  0  0  0  0  0  0  0  0  0  0  0
  150.0593  133.9785  153.9363 H   0  0  0  0  0  0  0  0  0  0  0  0
  147.3923  133.7522  155.1614 H   0  0  0  0  0  0  0  0  0  0  0  0
  147.7935  134.9633  153.9560 H   0  0  0  0  0  0  0  0  0  0  0  0
  148.6314  132.9108  152.5057 H   0  0  0  0  0  0  0  0  0  0  0  0
  147.7346  131.9283  153.6331 H   0  0  0  0  0  0  0  0  0  0  0  0
  146.0986  135.1129  153.3353 H   0  0  0  0  0  0  0  0  0  0  0  0
  144.0006  135.4660  152.0056 H   0  0  0  0  0  0  0  0  0  0  0  0
  143.3040  133.6968  150.3708 H   0  0  0  0  0  0  0  0  0  0  0  0
  146.5621  131.3320  151.2954 H   0  0  0  0  0  0  0  0  0  0  0  0
  150.0494  137.6129  157.0946 H   0  0  0  0  0  0  0  0  0  0  0  0
  148.6709  138.2995  156.1303 H   0  0  0  0  0  0  0  0  0  0  0  0
  1  2  2  0  0  0  0
  2  3  1  0  0  0  0
  2  8  1  0  0  0  0
  3  7  1  0  0  0  0
  3  4  1  0  0  0  0
  3 24  1  0  0  0  0
  4  5  1  0  0  0  0
  4 25  1  0  0  0  0
  4 26  1  0  0  0  0
  5  6  1  0  0  0  0
  5 27  1  0  0  0  0
  5 28  1  0  0  0  0
  6  7  1  0  0  0  0
  6 29  1  0  0  0  0
  6 30  1  0  0  0  0
  7 31  1  0  0  0  0
  7 32  1  0  0  0  0
  8 23  1  0  0  0  0
  8  9  1  0  0  0  0
  9 10  1  0  0  0  0
  9 33  1  0  0  0  0
  9 34  1  0  0  0  0
 10 11  1  0  0  0  0
 10 23  1  0  0  0  0
 10 35  1  0  0  0  0
 11 12  2  0  0  0  0
 11 13  2  0  0  0  0
 11 14  1  0  0  0  0
 14 15  1  0  0  0  0
 14 36  1  0  0  0  0
 15 16  1  0  0  0  0
 15 37  1  0  0  0  0
 15 38  1  0  0  0  0
 16 17  1  0  0  0  0
 16 39  1  0  0  0  0
 16 40  1  0  0  0  0
 17 22  1  0  0  0  0
 17 18  2  0  0  0  0
 18 19  1  0  0  0  0
 18 41  1  0  0  0  0
 19 20  2  0  0  0  0
 19 42  1  0  0  0  0
 20 21  1  0  0  0  0
 20 43  1  0  0  0  0
 21 22  2  0  0  0  0
 22 44  1  0  0  0  0
 23 45  1  0  0  0  0
 23 46  1  0  0  0  0
M  END
> <s_m_source_file>
AV-unprocessed.smi

> <i_m_source_file_index>
2504

> <i_lp_mmshare_version>
43012

> <i_f3d_flags>
0

> <s_epik_input>
W0NIMl0xW0NIMl1bQ0gyXVtDSDJdW0NIXTFDKD1PKU4yW0NIMl1bQ0hdKFtDSDJdMilTKD1PKSg9TylbTkhdW0NIMl1bQ0gyXWMzW2NIXVtjSF1bY0hdbltjSF0z

> <s_epik_cmdline>
J2VwaWtfcHl0aG9uJywgJy1waCcsICc3LjAnLCAnLXRuJywgJzgnLCAnLW1hJywgJzIwMCcsICctbWV0YWxfYmluZGluZycsICctaW1hZScsICc8aW5maWxlLm1hZT4nLCAnLW9tYWUnLCAnPG91dGZpbGUubWFlPic=

> <r_epik_Ionization_Penalty>
0.0107611

> <r_epik_Ionization_Penalty_Charging>
0

> <r_epik_Ionization_Penalty_Neutral>
0.0107611

> <r_epik_State_Penalty>
0.00821942

> <r_epik_Charging_Adjusted_Penalty>
0.00821942

> <i_epik_Tot_Q>
0

> <i_epik_Tot_abs_Q>
0

> <r_epik_Metal_State_Penalty>
0.0376733

> <b_epik_Metal_Only>
0

> <s_lp_Force_Field>
OPLS_2005

> <r_lp_Energy>
34.3459

> <b_lp_Chiralities_Consistent>
1

> <s_lp_Variant>
AV-unprocessed.smi:2504-1

> <Gold.Version>
5.8.1

> <Gold.Id.Protein>
6NUR|6NUR_protein|mol2

> <Gold.PLP.Fitness>
49.3383

> <Gold.PLP.PLP>
-37.3326

> <Gold.PLP.part.hbond>
-2.9662

> <Gold.PLP.part.metal>
0.0000

> <Gold.PLP.part.buried>
-3.5426

> <Gold.PLP.part.nonpolar>
-31.7503

> <Gold.PLP.part.repulsive>
0.1653

> <Gold.PLP.ligand.clash>
0.0000

> <Gold.PLP.ligand.torsion>
1.4252

> <Gold.PLP.Chemscore.Hbond>
2.3788

> <Gold.PLP.Chemscore.CHOScore>
1.9925

> <Gold.PLP.Chemscore.Metal>
0.0000

> <Gold.Chemscore.Hbonds>
donor molecule, donor type, donor heavy atom, donor atom, acceptor molecule, acceptor atom, score
      P1  H  7989  7998       L1     1  0.50
      P1  H  7997  8010       L1     1  0.78
      P1  H 10752 10764       L1    12  0.35
      L1  C    20    43       P1 10186  0.97
      L1  C    22    44       P1 10747  0.67

> <Gold.PLP.Chemscore.Internal.Correction>
1.7424

> <Gold.Rescore>
     Score         DG    S(hbond)    S(metal)    S(lipo)     H(rot)  DE(clash)    DE(int)     intcor
     15.80     -17.51       1.90        0.00      89.03       1.85       0.07       1.64       ----

> <Gold.Chemscore.Fitness>
15.7994

> <Gold.Chemscore.DG>
-17.5132

> <Gold.Chemscore.ZeroCoef>
-5.4800

> <Gold.Chemscore.Hbond>
1.9016

> <Gold.Chemscore.Metal>
0.0000

> <Gold.Chemscore.Lipo>
89.0304

> <Gold.Chemscore.Internal_Hbond>
0.0000

> <Gold.Chemscore.DEClash>
0.0701

> <Gold.Chemscore.DEInternal>
1.6437

> <Gold.Chemscore.Rot>
1.8494

> <Gold.Chemscore.Internal.Correction>
   9.000000E+99

> <Gold.Chemscore.Hbonds>
donor molecule, donor type, donor heavy atom, donor atom, acceptor molecule, acceptor atom, score
      P1  H  7989  7998       L1     1  0.13
      P1  H  7997  8010       L1     1  0.77
      P1  H 10752 10764       L1    12  0.35

> <Gold.Chemscore.Hbond.Weighted>
-6.3512

> <Gold.Chemscore.Metal.Weighted>
-0.0000

> <Gold.Chemscore.Lipo.Weighted>
-10.4166

> <Gold.Chemscore.Internal_Hbond.Weighted>
0.0000

> <Gold.Chemscore.DEClash.Weighted>
0.0701

> <Gold.Chemscore.DEInternal.Weighted>
1.6437

> <Gold.Chemscore.Rot.Weighted>
4.7346

> <Gold.Chemscore.Internal.Correction.Weighted>
   9.000000E+99

> <Gold.Protein.RotatedTorsions>
[ 6907 6896 6895 6894 ] final  113.11 input  -60.11 | X-H torsion
[ 7974 7965 7964 7962 ] final   36.06 input  175.53 | X-H torsion
[ 8008 7997 7996 7995 ] final   98.26 input   59.86 | X-H torsion
[ 10167 10162 10161 10158 ] final -153.34 input  -65.29 | X-H torsion
[ 10718 10713 10712 10709 ] final  105.04 input   66.30 | X-H torsion
[ 10763 10752 10751 10750 ] final  -35.15 input  -60.55 | X-H torsion
[ 11005 11000 10999 10996 ] final -142.49 input  -57.11 | X-H torsion

> <Gold.Protein.ActiveResidues>
 VAL166  LYS551  ARG553  GLY616  TRP617  ASP618  TYR619  PRO620  LYS621  CYS622 
 ASP623  PHE694  ASN695  SER759  ASP760  ASP761  ALA762  ILE779  LEU786  VAL792 
 PHE793  MET794  SER795  GLU796  ALA797  LYS798  CYS799  TRP800  GLU811  SER814 

> <Gold.Protein.RotatedAtoms>
  152.4879  133.8422  159.7158 H   0  0  0  0  0  0  0  0  0  0  0  0  # atno 6907 bound_to 6896
  150.8982  133.7143  159.2892 H   0  0  0  0  0  0  0  0  0  0  0  0  # atno 6908 bound_to 6896
  151.4593  135.1041  159.9772 H   0  0  0  0  0  0  0  0  0  0  0  0  # atno 6909 bound_to 6896
  146.1239  139.6065  142.9272 H   0  0  0  0  0  0  0  0  0  0  0  0  # atno 7974 bound_to 7965
  156.0986  140.3246  155.7911 H   0  0  0  0  0  0  0  0  0  0  0  0  # atno 8008 bound_to 7997
  155.4875  140.0559  157.2975 H   0  0  0  0  0  0  0  0  0  0  0  0  # atno 8009 bound_to 7997
  154.4682  140.1999  156.0078 H   0  0  0  0  0  0  0  0  0  0  0  0  # atno 8010 bound_to 7997
  139.7105  143.9116  152.2466 H   0  0  0  0  0  0  0  0  0  0  0  0  # atno 10167 bound_to 10162
  157.6719  131.0818  150.5797 H   0  0  0  0  0  0  0  0  0  0  0  0  # atno 10718 bound_to 10713
  153.8584  135.6842  153.4785 H   0  0  0  0  0  0  0  0  0  0  0  0  # atno 10763 bound_to 10752
  153.1356  135.4679  154.9415 H   0  0  0  0  0  0  0  0  0  0  0  0  # atno 10764 bound_to 10752
  154.7770  135.3256  154.8020 H   0  0  0  0  0  0  0  0  0  0  0  0  # atno 10765 bound_to 10752
  140.8220  134.2620  157.4896 H   0  0  0  0  0  0  0  0  0  0  0  0  # atno 11005 bound_to 11000
  145.5408  141.0421  143.2332 LP  0  0  0  0  0  0  0  0  0  0  0  0  # atno 17320 bound_to 7965
  144.7623  139.6927  143.7229 LP  0  0  0  0  0  0  0  0  0  0  0  0  # atno 17321 bound_to 7965
  139.8984  144.6926  150.8692 LP  0  0  0  0  0  0  0  0  0  0  0  0  # atno 17342 bound_to 10162
  140.7732  143.3532  151.1972 LP  0  0  0  0  0  0  0  0  0  0  0  0  # atno 17343 bound_to 10162
  156.6097  130.4377  149.5864 LP  0  0  0  0  0  0  0  0  0  0  0  0  # atno 17370 bound_to 10713
  156.2440  130.6868  151.1582 LP  0  0  0  0  0  0  0  0  0  0  0  0  # atno 17371 bound_to 10713
  139.8708  134.9540  156.4163 LP  0  0  0  0  0  0  0  0  0  0  0  0  # atno 17394 bound_to 11000
  140.9089  133.7726  155.9768 LP  0  0  0  0  0  0  0  0  0  0  0  0  # atno 17395 bound_to 11000

$$$$
