#       Name:                AV-unprocessed.smi:1864
#       Creating user name   scv26
#       Creation time:       Fri Mar 27 09:27:01 2020


#       File generated by GOLD software.
#

@<TRIPOS>MOLECULE
AV-unprocessed.smi:1864
    43    44     1
SMALL
NO_CHARGES


@<TRIPOS>ATOM
      1 ****        -3.5626   6.0406  -1.0365 C.3            1 S1                 0.0000
      2 ****        -3.0922   4.8448  -0.2809 C.2            1 S1                 0.0000
      3 ****        -3.0857   4.8234   1.0460 N.2            1 S1                 0.0000
      4 ****        -2.5763   3.5518   1.3462 O.3            1 S1                 0.0000
      5 ****        -2.3409   2.9522   0.1515 C.2            1 S1                 0.0000
      6 ****        -1.7638   1.5688   0.1311 C.3            1 S1                 0.0000
      7 ****        -0.2257   1.5318   0.2150 C.3            1 S1                 0.0000
      8 ****         0.2402   0.1446   0.1977 N.pl3          1 S1                -1.0000
      9 ****         1.5453  -0.2405   0.0614 C.2            1 S1                 0.0000
     10 ****         2.5170   0.5128  -0.0778 O.2            1 S1                 0.0000
     11 ****         1.8692  -1.6992   0.0681 C.2            1 S1                 0.0000
     12 ****         0.9101  -2.5696   0.1325 N.2            1 S1                 0.0000
     13 ****         1.1414  -3.9296   0.1151 N.am           1 S1                 0.0000
     14 ****        -0.0697  -4.7242  -0.0863 C.3            1 S1                 0.0000
     15 ****         2.3589  -4.5036   0.2913 C.2            1 S1                 0.0000
     16 ****         2.5633  -5.7170   0.2553 O.2            1 S1                 0.0000
     17 ****         3.5241  -3.5539   0.5816 C.3            1 S1                 0.0000
     18 ****         3.3117  -2.1602  -0.0399 C.3            1 S1                 0.0000
     19 ****        -2.6446   3.7176  -0.8976 N.2            1 S1                 0.0000
     20 ****        -3.8595   6.8406  -0.3573 H              1 S1                 0.0000
     21 ****        -4.4196   5.7796  -1.6577 H              1 S1                 0.0000
     22 ****        -2.7670   6.4141  -1.6815 H              1 S1                 0.0000
     23 ****        -2.1960   1.0070   0.9601 H              1 S1                 0.0000
     24 ****        -2.0968   1.0745  -0.7825 H              1 S1                 0.0000
     25 ****         0.1864   2.1065  -0.6158 H              1 S1                 0.0000
     26 ****         0.0942   2.0457   1.1222 H              1 S1                 0.0000
     27 ****         0.1011  -5.8013  -0.0785 H              1 S1                 0.0000
     28 ****        -0.5258  -4.4724  -1.0445 H              1 S1                 0.0000
     29 ****        -0.7955  -4.5036   0.6972 H              1 S1                 0.0000
     30 ****         3.6100  -3.4630   1.6651 H              1 S1                 0.0000
     31 ****         4.4598  -3.9871   0.2264 H              1 S1                 0.0000
     32 ****         3.6069  -2.1703  -1.0896 H              1 S1                 0.0000
     33 ****         3.9824  -1.4624   0.4623 H              1 S1                 0.0000
     34 ****        -3.3746   5.5413   1.6794 LP             1 S1                 0.0000
     35 ****        -3.2434   3.0258   1.8737 LP             1 S1                 0.0000
     36 ****        -1.7271   3.6319   1.8682 LP             1 S1                 0.0000
     37 ****        -0.4472  -0.5755   0.2926 LP             1 S1                 0.0000
     38 ****         2.3827   1.5036  -0.0983 LP             1 S1                 0.0000
     39 ****         3.4366   0.1309  -0.1698 LP             1 S1                 0.0000
     40 ****        -0.0328  -2.2427   0.1972 LP             1 S1                 0.0000
     41 ****         1.8050  -6.3470   0.0876 LP             1 S1                 0.0000
     42 ****         3.4876  -6.0726   0.3938 LP             1 S1                 0.0000
     43 ****        -2.5649   3.5172  -1.8740 LP             1 S1                 0.0000
@<TRIPOS>BOND
    1    1    2 1     
    2    1   20 1     
    3    1   21 1     
    4    1   22 1     
    5    2   19 1     
    6    2    3 2     
    7    3    4 1     
    8    4    5 1     
    9    5    6 1     
   10    5   19 2     
   11    6    7 1     
   12    6   23 1     
   13    6   24 1     
   14    7    8 1     
   15    7   25 1     
   16    7   26 1     
   17    8    9 1     
   18    9   10 2     
   19    9   11 1     
   20   11   18 1     
   21   11   12 2     
   22   12   13 1     
   23   13   14 1     
   24   13   15 am    
   25   14   27 1     
   26   14   28 1     
   27   14   29 1     
   28   15   16 2     
   29   15   17 1     
   30   17   18 1     
   31   17   30 1     
   32   17   31 1     
   33   18   32 1     
   34   18   33 1     
   35    3   34 1     
   36    4   35 1     
   37    4   36 1     
   38    8   37 1     
   39   10   38 1     
   40   10   39 1     
   41   12   40 1     
   42   16   41 1     
   43   16   42 1     
   44   19   43 1     
@<TRIPOS>SUBSTRUCTURE
      1 S1             1
@<TRIPOS>SET
LONE_PAIRS      STATIC     ATOMS    <user>   **** ""
10 34 35 36 37 38 39 40 41 42 43
ATOM$BLUE        STATIC     ATOMS    COLORGROUP SYSTEM
10 34 35 36 37 38 39 40 41 42 43
