#       Name:                AV-unprocessed.smi:2346
#       Creating user name   scv26
#       Creation time:       Fri Mar 27 12:59:18 2020


#       File generated by GOLD software.
#

@<TRIPOS>MOLECULE
AV-unprocessed.smi:2346
    52    54     1
SMALL
NO_CHARGES


@<TRIPOS>ATOM
      1 ****        -5.7751   0.1673  -0.1587 C.3            1 S1                 0.0000
      2 ****        -4.3556   0.1939  -0.1836 O.3            1 S1                 0.0000
      3 ****        -3.7224   1.4199  -0.1756 C.ar           1 S1                 0.0000
      4 ****        -4.4112   2.6592  -0.1418 C.ar           1 S1                 0.0000
      5 ****        -3.6991   3.8743  -0.1351 C.ar           1 S1                 0.0000
      6 ****        -4.4148   5.1388  -0.1024 C.1            1 S1                 0.0000
      7 ****        -4.9847   6.1454  -0.0768 N.1            1 S1                 0.0000
      8 ****        -2.2926   3.8613  -0.1618 C.ar           1 S1                 0.0000
      9 ****        -1.6007   2.6373  -0.1941 C.ar           1 S1                 0.0000
     10 ****        -2.3086   1.4090  -0.2005 C.ar           1 S1                 0.0000
     11 ****        -1.6956   0.1734  -0.2309 O.3            1 S1                 0.0000
     12 ****        -0.2778   0.1185  -0.1784 C.3            1 S1                 0.0000
     13 ****         0.1474  -1.3541  -0.1524 C.3            1 S1                 0.0000
     14 ****         1.6025  -1.4987  -0.0116 N.pl3          1 S1                 0.0000
     15 ****         2.3749  -1.6152   1.1080 C.2            1 S1                 0.0000
     16 ****         1.8999  -1.6484   2.5288 C.3            1 S1                 0.0000
     17 ****         2.8292  -0.8559   3.4603 C.3            1 S1                 0.0000
     18 ****         1.7977  -2.9704   3.0110 O.3            1 S1                 0.0000
     19 ****         3.6666  -1.7473   0.6899 N.pl3          1 S1                 1.0000
     20 ****         3.7247  -1.6820  -0.7022 C.ar           1 S1                 0.0000
     21 ****         4.8074  -1.7537  -1.5731 C.ar           1 S1                 0.0000
     22 ****         4.5200  -1.6469  -2.9497 C.ar           1 S1                 0.0000
     23 ****         3.1990  -1.4766  -3.4127 C.ar           1 S1                 0.0000
     24 ****         2.1088  -1.4088  -2.5196 C.ar           1 S1                 0.0000
     25 ****         2.4018  -1.5168  -1.1602 C.ar           1 S1                 0.0000
     26 ****        -6.1145  -0.8684  -0.1680 H              1 S1                 0.0000
     27 ****        -6.1988   0.6604  -1.0346 H              1 S1                 0.0000
     28 ****        -6.1676   0.6345   0.7455 H              1 S1                 0.0000
     29 ****        -5.4902   2.6977  -0.1209 H              1 S1                 0.0000
     30 ****        -1.7362   4.7878  -0.1582 H              1 S1                 0.0000
     31 ****        -0.5221   2.6694  -0.2150 H              1 S1                 0.0000
     32 ****         0.1541   0.6156  -1.0483 H              1 S1                 0.0000
     33 ****         0.0855   0.6210   0.7197 H              1 S1                 0.0000
     34 ****        -0.3222  -1.8678   0.6869 H              1 S1                 0.0000
     35 ****        -0.1815  -1.8760  -1.0514 H              1 S1                 0.0000
     36 ****         0.9069  -1.2016   2.5786 H              1 S1                 0.0000
     37 ****         2.9129   0.1826   3.1381 H              1 S1                 0.0000
     38 ****         3.8335  -1.2801   3.4855 H              1 S1                 0.0000
     39 ****         2.4481  -0.8519   4.4820 H              1 S1                 0.0000
     40 ****         1.1338  -3.4217   2.5118 H              1 S1                 0.0000
     41 ****         5.8202  -1.8831  -1.2203 H              1 S1                 0.0000
     42 ****         5.3290  -1.6960  -3.6643 H              1 S1                 0.0000
     43 ****         3.0174  -1.3973  -4.4748 H              1 S1                 0.0000
     44 ****         1.1013  -1.2777  -2.8857 H              1 S1                 0.0000
     45 ****         4.4502  -1.8694   1.3184 H              1 S1                 0.0000
     46 ****        -4.0654  -0.2835  -1.0130 LP             1 S1                 0.0000
     47 ****        -4.0363  -0.3092   0.6195 LP             1 S1                 0.0000
     48 ****        -5.4773   7.0154  -0.0547 LP             1 S1                 0.0000
     49 ****        -1.9771  -0.2749  -1.0794 LP             1 S1                 0.0000
     50 ****        -2.0402  -0.3463   0.5508 LP             1 S1                 0.0000
     51 ****         1.5424  -2.9580   3.9778 LP             1 S1                 0.0000
     52 ****         2.6756  -3.4372   2.9040 LP             1 S1                 0.0000
@<TRIPOS>BOND
    1    1    2 1     
    2    1   26 1     
    3    1   27 1     
    4    1   28 1     
    5    2    3 1     
    6    3   10 ar    
    7    3    4 ar    
    8    4    5 ar    
    9    4   29 1     
   10    5    6 1     
   11    5    8 ar    
   12    6    7 3     
   13    8    9 ar    
   14    8   30 1     
   15    9   10 ar    
   16    9   31 1     
   17   10   11 1     
   18   11   12 1     
   19   12   13 1     
   20   12   32 1     
   21   12   33 1     
   22   13   14 1     
   23   13   34 1     
   24   13   35 1     
   25   14   25 1     
   26   14   15 1     
   27   15   16 1     
   28   15   19 2     
   29   16   17 1     
   30   16   18 1     
   31   16   36 1     
   32   17   37 1     
   33   17   38 1     
   34   17   39 1     
   35   18   40 1     
   36   19   20 1     
   37   19   45 1     
   38   20   25 ar    
   39   20   21 ar    
   40   21   22 ar    
   41   21   41 1     
   42   22   23 ar    
   43   22   42 1     
   44   23   24 ar    
   45   23   43 1     
   46   24   25 ar    
   47   24   44 1     
   48    2   46 1     
   49    2   47 1     
   50    7   48 1     
   51   11   49 1     
   52   11   50 1     
   53   18   51 1     
   54   18   52 1     
@<TRIPOS>SUBSTRUCTURE
      1 S1             1
@<TRIPOS>SET
LONE_PAIRS      STATIC     ATOMS    <user>   **** ""
7 46 47 48 49 50 51 52
DONOR_HYDROGENS      STATIC     ATOMS    <user>   **** ""
2 40 45
ATOM$BLUE        STATIC     ATOMS    COLORGROUP SYSTEM
7 46 47 48 49 50 51 52
ATOM$RED        STATIC     ATOMS    COLORGROUP SYSTEM
2 40 45
