AV-unprocessed.smi:3059|AV-procd|sdf|11677|dock6
  -GOLD-   2272017 83D 1   1.00000     0.00000
 Structure written by MMmdl.
 42 43  0  0  0  0  0  0  0  0  1 V2000
  150.2116  135.2303  154.8659 C   0  0  0  0  0  0  0  0  0  0  0  0
  149.7537  136.2570  155.9075 C   0  0  0  0  0  0  0  0  0  0  0  0
  149.9423  137.6691  155.4612 C   0  0  0  0  0  0  0  0  0  0  0  0
  150.4887  138.1077  154.2807 C   0  0  0  0  0  0  0  0  0  0  0  0
  150.5271  139.4979  154.1595 N   0  0  0  0  0  0  0  0  0  0  0  0
  150.0099  140.1186  155.2220 C   0  0  0  0  0  0  0  0  0  0  0  0
  149.9660  141.6057  155.3697 C   0  0  0  0  0  0  0  0  0  0  0  0
  149.5097  142.0824  156.7623 C   0  0  0  0  0  0  0  0  0  0  0  0
  150.5514  142.7987  157.4917 N   0  0  0  0  0  0  0  0  0  0  0  0
  151.6722  142.2510  157.9916 C   0  0  0  0  0  0  0  0  0  0  0  0
  151.9336  141.0545  157.8600 O   0  0  0  0  0  0  0  0  0  0  0  0
  152.4878  143.1262  158.6335 N   0  0  0  0  0  0  0  0  0  0  0  0
  152.3867  144.5928  158.5507 C   0  0  0  0  0  0  0  0  0  0  0  0
  151.2854  145.1540  159.4731 C   0  0  0  0  0  0  0  0  0  0  0  0
  151.1081  144.4301  160.8261 C   0  0  0  0  0  0  0  0  0  0  0  0
  152.4129  144.0001  161.5240 C   0  0  0  0  0  0  0  0  0  0  0  0
  152.9641  142.6467  161.0256 C   0  0  0  0  0  0  0  0  0  0  0  0
  153.5086  142.6689  159.5860 C   0  0  0  0  0  0  0  0  0  0  0  0
  149.4493  139.0086  156.4659 S   0  0  0  0  0  0  0  0  0  0  0  0
  150.0651  134.2138  155.2313 H   0  0  0  0  0  0  0  0  0  0  0  0
  151.2702  135.3518  154.6342 H   0  0  0  0  0  0  0  0  0  0  0  0
  149.6511  135.3334  153.9363 H   0  0  0  0  0  0  0  0  0  0  0  0
  148.7018  136.0897  156.1412 H   0  0  0  0  0  0  0  0  0  0  0  0
  150.2985  136.0934  156.8379 H   0  0  0  0  0  0  0  0  0  0  0  0
  150.8790  137.5026  153.4758 H   0  0  0  0  0  0  0  0  0  0  0  0
  150.9585  142.0033  155.1532 H   0  0  0  0  0  0  0  0  0  0  0  0
  149.3026  142.0115  154.6055 H   0  0  0  0  0  0  0  0  0  0  0  0
  148.6114  142.6958  156.6799 H   0  0  0  0  0  0  0  0  0  0  0  0
  149.2348  141.2167  157.3654 H   0  0  0  0  0  0  0  0  0  0  0  0
  150.4069  143.7870  157.6381 H   0  0  0  0  0  0  0  0  0  0  0  0
  153.3356  145.0487  158.8347 H   0  0  0  0  0  0  0  0  0  0  0  0
  152.2290  144.9265  157.5241 H   0  0  0  0  0  0  0  0  0  0  0  0
  151.4970  146.2081  159.6548 H   0  0  0  0  0  0  0  0  0  0  0  0
  150.3305  145.1351  158.9470 H   0  0  0  0  0  0  0  0  0  0  0  0
  150.5486  145.0901  161.4896 H   0  0  0  0  0  0  0  0  0  0  0  0
  150.4755  143.5526  160.6942 H   0  0  0  0  0  0  0  0  0  0  0  0
  153.1687  144.7817  161.4411 H   0  0  0  0  0  0  0  0  0  0  0  0
  152.2064  143.8985  162.5898 H   0  0  0  0  0  0  0  0  0  0  0  0
  153.7675  142.3299  161.6913 H   0  0  0  0  0  0  0  0  0  0  0  0
  152.1903  141.8829  161.1130 H   0  0  0  0  0  0  0  0  0  0  0  0
  153.8734  141.6757  159.3197 H   0  0  0  0  0  0  0  0  0  0  0  0
  154.3921  143.3059  159.5374 H   0  0  0  0  0  0  0  0  0  0  0  0
  1  2  1  0  0  0  0
  1 20  1  0  0  0  0
  1 21  1  0  0  0  0
  1 22  1  0  0  0  0
  2  3  1  0  0  0  0
  2 23  1  0  0  0  0
  2 24  1  0  0  0  0
  3 19  1  0  0  0  0
  3  4  2  0  0  0  0
  4  5  1  0  0  0  0
  4 25  1  0  0  0  0
  5  6  2  0  0  0  0
  6  7  1  0  0  0  0
  6 19  1  0  0  0  0
  7  8  1  0  0  0  0
  7 26  1  0  0  0  0
  7 27  1  0  0  0  0
  8  9  1  0  0  0  0
  8 28  1  0  0  0  0
  8 29  1  0  0  0  0
  9 10  1  0  0  0  0
  9 30  1  0  0  0  0
 10 11  2  0  0  0  0
 10 12  1  0  0  0  0
 12 18  1  0  0  0  0
 12 13  1  0  0  0  0
 13 14  1  0  0  0  0
 13 31  1  0  0  0  0
 13 32  1  0  0  0  0
 14 15  1  0  0  0  0
 14 33  1  0  0  0  0
 14 34  1  0  0  0  0
 15 16  1  0  0  0  0
 15 35  1  0  0  0  0
 15 36  1  0  0  0  0
 16 17  1  0  0  0  0
 16 37  1  0  0  0  0
 16 38  1  0  0  0  0
 17 18  1  0  0  0  0
 17 39  1  0  0  0  0
 17 40  1  0  0  0  0
 18 41  1  0  0  0  0
 18 42  1  0  0  0  0
M  END
> <s_m_source_file>
AV-unprocessed.smi

> <i_m_source_file_index>
3059

> <i_lp_mmshare_version>
43012

> <i_f3d_flags>
0

> <s_epik_input>
W0NIM11bQ0gyXWMxW2NIXW5jKHMxKVtDSDJdW0NIMl1bTkhdQyg9TylOMltDSDJdW0NIMl1bQ0gyXVtDSDJdW0NIMl1bQ0gyXTI=

> <s_epik_cmdline>
J2VwaWtfcHl0aG9uJywgJy1waCcsICc3LjAnLCAnLXRuJywgJzgnLCAnLW1hJywgJzIwMCcsICctbWV0YWxfYmluZGluZycsICctaW1hZScsICc8aW5maWxlLm1hZT4nLCAnLW9tYWUnLCAnPG91dGZpbGUubWFlPic=

> <r_epik_Ionization_Penalty>
0.000969859

> <r_epik_Ionization_Penalty_Charging>
0

> <r_epik_Ionization_Penalty_Neutral>
0.000969859

> <r_epik_State_Penalty>
0.000588571

> <r_epik_Charging_Adjusted_Penalty>
0.000588571

> <i_epik_Tot_Q>
0

> <i_epik_Tot_abs_Q>
0

> <r_epik_Metal_State_Penalty>
-0

> <b_epik_Metal_Only>
0

> <s_lp_Force_Field>
OPLS_2005

> <r_lp_Energy>
18.9175

> <b_lp_Chiralities_Consistent>
1

> <s_lp_Variant>
AV-unprocessed.smi:3059-1

> <Gold.Version>
5.8.1

> <Gold.Id.Protein>
6NUR|6NUR_protein|mol2

> <Gold.PLP.Fitness>
47.3827

> <Gold.PLP.PLP>
-42.5541

> <Gold.PLP.part.hbond>
-1.7825

> <Gold.PLP.part.metal>
0.0000

> <Gold.PLP.part.buried>
-2.8941

> <Gold.PLP.part.nonpolar>
-37.8724

> <Gold.PLP.part.repulsive>
0.1880

> <Gold.PLP.ligand.clash>
0.0000

> <Gold.PLP.ligand.torsion>
0.5977

> <Gold.PLP.Chemscore.Hbond>
1.0000

> <Gold.PLP.Chemscore.CHOScore>
1.0000

> <Gold.PLP.Chemscore.Metal>
0.0000

> <Gold.Chemscore.Hbonds>
donor molecule, donor type, donor heavy atom, donor atom, acceptor molecule, acceptor atom, score
      P1  H  7989  7998       L1     5  1.00
      L1  C     4    25       P1  7948  0.12
      L1  C     4    25       P1  7949  0.95

> <Gold.PLP.Chemscore.Internal.Correction>
0.0240

> <Gold.Rescore>
     Score         DG    S(hbond)    S(metal)    S(lipo)     H(rot)  DE(clash)    DE(int)     intcor
     17.09     -18.24       0.88        0.00     113.57       1.35       0.38       0.77       ----

> <Gold.Chemscore.Fitness>
17.0948

> <Gold.Chemscore.DG>
-18.2421

> <Gold.Chemscore.ZeroCoef>
-5.4800

> <Gold.Chemscore.Hbond>
0.8809

> <Gold.Chemscore.Metal>
0.0000

> <Gold.Chemscore.Lipo>
113.5689

> <Gold.Chemscore.Internal_Hbond>
0.0000

> <Gold.Chemscore.DEClash>
0.3773

> <Gold.Chemscore.DEInternal>
0.7699

> <Gold.Chemscore.Rot>
1.3546

> <Gold.Chemscore.Internal.Correction>
   9.000000E+99

> <Gold.Chemscore.Hbonds>
donor molecule, donor type, donor heavy atom, donor atom, acceptor molecule, acceptor atom, score
      P1  H  7989  7998       L1     5  0.25

> <Gold.Chemscore.Hbond.Weighted>
-2.9423

> <Gold.Chemscore.Metal.Weighted>
-0.0000

> <Gold.Chemscore.Lipo.Weighted>
-13.2876

> <Gold.Chemscore.Internal_Hbond.Weighted>
0.0000

> <Gold.Chemscore.DEClash.Weighted>
0.3773

> <Gold.Chemscore.DEInternal.Weighted>
0.7699

> <Gold.Chemscore.Rot.Weighted>
3.4678

> <Gold.Chemscore.Internal.Correction.Weighted>
   9.000000E+99

> <Gold.Protein.RotatedTorsions>
[ 6907 6896 6895 6894 ] final   83.24 input  -60.11 | X-H torsion
[ 7974 7965 7964 7962 ] final  120.14 input  175.53 | X-H torsion
[ 8008 7997 7996 7995 ] final  -12.81 input   59.86 | X-H torsion
[ 10167 10162 10161 10158 ] final   73.16 input  -65.29 | X-H torsion
[ 10718 10713 10712 10709 ] final   -0.53 input   66.30 | X-H torsion
[ 10763 10752 10751 10750 ] final -137.49 input  -60.55 | X-H torsion
[ 11005 11000 10999 10996 ] final  -72.33 input  -57.11 | X-H torsion

> <Gold.Protein.ActiveResidues>
 VAL166  LYS551  ARG553  GLY616  TRP617  ASP618  TYR619  PRO620  LYS621  CYS622 
 ASP623  PHE694  ASN695  SER759  ASP760  ASP761  ALA762  ILE779  LEU786  VAL792 
 PHE793  MET794  SER795  GLU796  ALA797  LYS798  CYS799  TRP800  GLU811  SER814 

> <Gold.Protein.RotatedAtoms>
  152.5321  134.2927  159.9048 H   0  0  0  0  0  0  0  0  0  0  0  0  # atno 6907 bound_to 6896
  151.2878  133.4173  159.2639 H   0  0  0  0  0  0  0  0  0  0  0  0  # atno 6908 bound_to 6896
  151.0227  134.9496  159.8125 H   0  0  0  0  0  0  0  0  0  0  0  0  # atno 6909 bound_to 6896
  145.1347  139.3305  143.4647 H   0  0  0  0  0  0  0  0  0  0  0  0  # atno 7974 bound_to 7965
  154.5345  140.2266  155.8746 H   0  0  0  0  0  0  0  0  0  0  0  0  # atno 8008 bound_to 7997
  156.1797  140.3103  155.9089 H   0  0  0  0  0  0  0  0  0  0  0  0  # atno 8009 bound_to 7997
  155.3383  140.0449  157.3035 H   0  0  0  0  0  0  0  0  0  0  0  0  # atno 8010 bound_to 7997
  140.0275  144.5492  150.7533 H   0  0  0  0  0  0  0  0  0  0  0  0  # atno 10167 bound_to 10162
  156.8191  130.5450  149.5699 H   0  0  0  0  0  0  0  0  0  0  0  0  # atno 10718 bound_to 10713
  154.8660  135.3640  154.5232 H   0  0  0  0  0  0  0  0  0  0  0  0  # atno 10763 bound_to 10752
  153.5861  135.7017  153.5447 H   0  0  0  0  0  0  0  0  0  0  0  0  # atno 10764 bound_to 10752
  153.3414  135.4097  155.1537 H   0  0  0  0  0  0  0  0  0  0  0  0  # atno 10765 bound_to 10752
  141.1607  133.6844  156.7043 H   0  0  0  0  0  0  0  0  0  0  0  0  # atno 11005 bound_to 11000
  146.3511  140.1359  142.8596 LP  0  0  0  0  0  0  0  0  0  0  0  0  # atno 17320 bound_to 7965
  145.0597  140.9079  143.4946 LP  0  0  0  0  0  0  0  0  0  0  0  0  # atno 17321 bound_to 7965
  140.7316  143.2696  151.3930 LP  0  0  0  0  0  0  0  0  0  0  0  0  # atno 17342 bound_to 10162
  139.6098  144.1121  152.2287 LP  0  0  0  0  0  0  0  0  0  0  0  0  # atno 17343 bound_to 10162
  156.0999  130.5961  150.9877 LP  0  0  0  0  0  0  0  0  0  0  0  0  # atno 17370 bound_to 10713
  157.6466  131.0903  150.8140 LP  0  0  0  0  0  0  0  0  0  0  0  0  # atno 17371 bound_to 10713
  140.2935  134.8221  157.4037 LP  0  0  0  0  0  0  0  0  0  0  0  0  # atno 17394 bound_to 11000
  140.1325  134.5076  155.8094 LP  0  0  0  0  0  0  0  0  0  0  0  0  # atno 17395 bound_to 11000

$$$$
