#       Name:                AV-unprocessed.smi:1662
#       Creating user name   scv26
#       Creation time:       Fri Mar 27 07:37:36 2020


#       File generated by GOLD software.
#

@<TRIPOS>MOLECULE
AV-unprocessed.smi:1662
    53    54     1
SMALL
NO_CHARGES


@<TRIPOS>ATOM
      1 ****        -4.7711   2.7735   2.2825 C.3            1 S1                 0.0000
      2 ****        -4.0298   1.4816   2.0680 C.2            1 S1                 0.0000
      3 ****        -2.7389   1.5416   2.0940 N.2            1 S1                 0.0000
      4 ****        -1.9626   0.4153   1.9011 N.am           1 S1                 0.0000
      5 ****        -0.5150   0.6676   1.9388 C.3            1 S1                 0.0000
      6 ****         0.1127   0.7356   0.5398 C.2            1 S1                 0.0000
      7 ****        -0.4985   1.2551  -0.3947 O.2            1 S1                 0.0000
      8 ****         1.3459   0.2208   0.4213 N.am           1 S1                 0.0000
      9 ****         2.1278   0.1579  -0.8116 C.3            1 S1                 0.0000
     10 ****         3.0598   1.3838  -0.8855 C.3            1 S1                 0.0000
     11 ****         3.9765   1.3334  -2.1156 C.3            1 S1                 0.0000
     12 ****         4.7755   0.0214  -2.1592 C.3            1 S1                 0.0000
     13 ****         3.8616  -1.2203  -2.1146 C.3            1 S1                 0.0000
     14 ****         3.1178  -1.4254  -3.4504 C.3            1 S1                 0.0000
     15 ****         2.9339  -1.1652  -0.8710 C.3            1 S1                 0.0000
     16 ****         2.0424  -2.4170  -0.7456 C.3            1 S1                 0.0000
     17 ****        -2.4538  -0.8389   1.6831 C.2            1 S1                 0.0000
     18 ****        -1.7228  -1.8180   1.5235 O.2            1 S1                 0.0000
     19 ****        -3.9168  -0.8995   1.6570 C.2            1 S1                 0.0000
     20 ****        -4.4725  -2.1939   1.4267 C.1            1 S1                 0.0000
     21 ****        -4.9408  -3.2368   1.2450 N.1            1 S1                 0.0000
     22 ****        -4.6900   0.2004   1.8378 C.2            1 S1                 0.0000
     23 ****        -6.2125   0.1914   1.8172 C.3            1 S1                 0.0000
     24 ****        -5.4221   2.7068   3.1544 H              1 S1                 0.0000
     25 ****        -5.3881   3.0132   1.4164 H              1 S1                 0.0000
     26 ****        -4.0908   3.6113   2.4437 H              1 S1                 0.0000
     27 ****        -0.3067   1.6110   2.4465 H              1 S1                 0.0000
     28 ****        -0.0188  -0.1008   2.5353 H              1 S1                 0.0000
     29 ****         1.7701  -0.1798   1.2453 H              1 S1                 0.0000
     30 ****         1.4512   0.1824  -1.6673 H              1 S1                 0.0000
     31 ****         2.4709   2.3017  -0.9065 H              1 S1                 0.0000
     32 ****         3.6736   1.4335   0.0151 H              1 S1                 0.0000
     33 ****         3.3812   1.4406  -3.0227 H              1 S1                 0.0000
     34 ****         4.6612   2.1817  -2.0993 H              1 S1                 0.0000
     35 ****         5.4037  -0.0027  -3.0501 H              1 S1                 0.0000
     36 ****         5.4586  -0.0059  -1.3092 H              1 S1                 0.0000
     37 ****         4.5143  -2.0862  -1.9948 H              1 S1                 0.0000
     38 ****         2.3932  -0.6354  -3.6449 H              1 S1                 0.0000
     39 ****         2.5843  -2.3754  -3.4704 H              1 S1                 0.0000
     40 ****         3.8182  -1.4392  -4.2858 H              1 S1                 0.0000
     41 ****         3.5913  -1.1752   0.0002 H              1 S1                 0.0000
     42 ****         1.2644  -2.4344  -1.5091 H              1 S1                 0.0000
     43 ****         1.5460  -2.4595   0.2241 H              1 S1                 0.0000
     44 ****         2.6308  -3.3294  -0.8447 H              1 S1                 0.0000
     45 ****        -6.6176  -0.8053   1.6452 H              1 S1                 0.0000
     46 ****        -6.5880   0.8383   1.0237 H              1 S1                 0.0000
     47 ****        -6.6109   0.5461   2.7682 H              1 S1                 0.0000
     48 ****        -2.2928   2.4216   2.2571 LP             1 S1                 0.0000
     49 ****        -1.4107   1.6365  -0.2450 LP             1 S1                 0.0000
     50 ****        -0.0826   1.2954  -1.3032 LP             1 S1                 0.0000
     51 ****        -0.7290  -1.7099   1.5513 LP             1 S1                 0.0000
     52 ****        -2.1233  -2.7207   1.3661 LP             1 S1                 0.0000
     53 ****        -5.3453  -4.1378   1.0880 LP             1 S1                 0.0000
@<TRIPOS>BOND
    1    1    2 1     
    2    1   24 1     
    3    1   25 1     
    4    1   26 1     
    5    2   22 1     
    6    2    3 2     
    7    3    4 1     
    8    4    5 1     
    9    4   17 am    
   10    5    6 1     
   11    5   27 1     
   12    5   28 1     
   13    6    7 2     
   14    6    8 am    
   15    8    9 1     
   16    8   29 1     
   17    9   15 1     
   18    9   10 1     
   19    9   30 1     
   20   10   11 1     
   21   10   31 1     
   22   10   32 1     
   23   11   12 1     
   24   11   33 1     
   25   11   34 1     
   26   12   13 1     
   27   12   35 1     
   28   12   36 1     
   29   13   14 1     
   30   13   15 1     
   31   13   37 1     
   32   14   38 1     
   33   14   39 1     
   34   14   40 1     
   35   15   16 1     
   36   15   41 1     
   37   16   42 1     
   38   16   43 1     
   39   16   44 1     
   40   17   18 2     
   41   17   19 1     
   42   19   20 1     
   43   19   22 2     
   44   20   21 3     
   45   22   23 1     
   46   23   45 1     
   47   23   46 1     
   48   23   47 1     
   49    3   48 1     
   50    7   49 1     
   51    7   50 1     
   52   18   51 1     
   53   18   52 1     
   54   21   53 1     
@<TRIPOS>SUBSTRUCTURE
      1 S1             1
@<TRIPOS>SET
LONE_PAIRS      STATIC     ATOMS    <user>   **** ""
6 48 49 50 51 52 53
DONOR_HYDROGENS      STATIC     ATOMS    <user>   **** ""
1 29
ATOM$BLUE        STATIC     ATOMS    COLORGROUP SYSTEM
6 48 49 50 51 52 53
ATOM$RED        STATIC     ATOMS    COLORGROUP SYSTEM
1 29
