AV-unprocessed.smi:1669|AV-procd|sdf|6689|dock10
  -GOLD-   22720 7413D 1   1.00000     0.00000
 Structure written by MMmdl.
 49 51  0  0  0  0  0  0  0  0  3 V2000
  147.7332  135.3030  158.4530 C   0  0  0  0  0  0  0  0  0  0  0  0
  148.2476  136.6307  158.8626 N   0  3  1  0  0  0  0  0  0  0  0  0
  148.6287  136.6790  160.2976 C   0  0  0  0  0  0  0  0  0  0  0  0
  147.4777  136.2785  161.2017 C   0  0  0  0  0  0  0  0  0  0  0  0
  147.5402  135.0688  161.9253 C   0  0  0  0  0  0  0  0  0  0  0  0
  146.4755  134.6919  162.7668 C   0  0  0  0  0  0  0  0  0  0  0  0
  145.3444  135.5223  162.8868 C   0  0  0  0  0  0  0  0  0  0  0  0
  145.2774  136.7293  162.1642 C   0  0  0  0  0  0  0  0  0  0  0  0
  146.3414  137.1066  161.3219 C   0  0  0  0  0  0  0  0  0  0  0  0
  149.3247  137.1153  157.9631 C   0  0  0  0  0  0  0  0  0  0  0  0
  149.4647  138.6533  158.0023 C   0  0  2  0  0  0  0  0  0  0  0  0
  148.3007  139.2246  157.4425 O   0  0  0  0  0  0  0  0  0  0  0  0
  150.6772  139.1853  157.2111 C   0  0  0  0  0  0  0  0  0  0  0  0
  150.6171  140.6359  156.9737 N   0  0  0  0  0  0  0  0  0  0  0  0
  149.9175  141.3598  156.0506 C   0  0  0  0  0  0  0  0  0  0  0  0
  148.9933  140.8308  155.0001 C   0  0  0  0  0  0  0  0  0  0  0  0
  149.4559  141.0776  153.6897 O   0  0  0  0  0  0  0  0  0  0  0  0
  150.2181  142.6735  156.2602 N   0  3  0  0  0  0  0  0  0  0  0  0
  151.1129  142.7927  157.3234 C   0  0  0  0  0  0  0  0  0  0  0  0
  151.7025  143.9144  157.8978 C   0  0  0  0  0  0  0  0  0  0  0  0
  152.5766  143.6854  158.9807 C   0  0  0  0  0  0  0  0  0  0  0  0
  152.8333  142.3822  159.4542 C   0  0  0  0  0  0  0  0  0  0  0  0
  152.2288  141.2526  158.8640 C   0  0  0  0  0  0  0  0  0  0  0  0
  151.3694  141.4878  157.7908 C   0  0  0  0  0  0  0  0  0  0  0  0
  148.5083  134.5404  158.5388 H   0  0  0  0  0  0  0  0  0  0  0  0
  147.3887  135.3249  157.4186 H   0  0  0  0  0  0  0  0  0  0  0  0
  146.8851  135.0005  159.0671 H   0  0  0  0  0  0  0  0  0  0  0  0
  149.4963  136.0415  160.4762 H   0  0  0  0  0  0  0  0  0  0  0  0
  148.9320  137.6865  160.5821 H   0  0  0  0  0  0  0  0  0  0  0  0
  148.4054  134.4276  161.8387 H   0  0  0  0  0  0  0  0  0  0  0  0
  146.5259  133.7656  163.3203 H   0  0  0  0  0  0  0  0  0  0  0  0
  144.5279  135.2333  163.5322 H   0  0  0  0  0  0  0  0  0  0  0  0
  144.4093  137.3654  162.2555 H   0  0  0  0  0  0  0  0  0  0  0  0
  146.2824  138.0342  160.7713 H   0  0  0  0  0  0  0  0  0  0  0  0
  150.2566  136.6228  158.2432 H   0  0  0  0  0  0  0  0  0  0  0  0
  149.1227  136.8133  156.9339 H   0  0  0  0  0  0  0  0  0  0  0  0
  149.5389  139.0009  159.0319 H   0  0  0  0  0  0  0  0  0  0  0  0
  147.8656  138.5725  156.9136 H   0  0  0  0  0  0  0  0  0  0  0  0
  151.6043  138.9719  157.7442 H   0  0  0  0  0  0  0  0  0  0  0  0
  150.7619  138.6860  156.2447 H   0  0  0  0  0  0  0  0  0  0  0  0
  148.8685  139.7551  155.1226 H   0  0  0  0  0  0  0  0  0  0  0  0
  148.0120  141.2889  155.1260 H   0  0  0  0  0  0  0  0  0  0  0  0
  149.2860  140.3123  153.1611 H   0  0  0  0  0  0  0  0  0  0  0  0
  151.5056  144.9143  157.5387 H   0  0  0  0  0  0  0  0  0  0  0  0
  153.0584  144.5263  159.4587 H   0  0  0  0  0  0  0  0  0  0  0  0
  153.5074  142.2465  160.2878 H   0  0  0  0  0  0  0  0  0  0  0  0
  152.4310  140.2593  159.2369 H   0  0  0  0  0  0  0  0  0  0  0  0
  147.4806  137.2775  158.7424 H   0  0  0  0  0  0  0  0  0  0  0  0
  149.8358  143.4311  155.7085 H   0  0  0  0  0  0  0  0  0  0  0  0
  1  2  1  0  0  0  0
  1 25  1  0  0  0  0
  1 26  1  0  0  0  0
  1 27  1  0  0  0  0
  2  3  1  0  0  0  0
  2 10  1  0  0  0  0
  2 48  1  0  0  0  0
  3  4  1  0  0  0  0
  3 28  1  0  0  0  0
  3 29  1  0  0  0  0
  4  9  1  0  0  0  0
  4  5  2  0  0  0  0
  5  6  1  0  0  0  0
  5 30  1  0  0  0  0
  6  7  2  0  0  0  0
  6 31  1  0  0  0  0
  7  8  1  0  0  0  0
  7 32  1  0  0  0  0
  8  9  2  0  0  0  0
  8 33  1  0  0  0  0
  9 34  1  0  0  0  0
 10 11  1  0  0  0  0
 10 35  1  0  0  0  0
 10 36  1  0  0  0  0
 11 12  1  0  0  0  0
 11 13  1  0  0  0  0
 11 37  1  0  0  0  0
 12 38  1  0  0  0  0
 13 14  1  0  0  0  0
 13 39  1  0  0  0  0
 13 40  1  0  0  0  0
 14 24  1  0  0  0  0
 14 15  1  0  0  0  0
 15 16  1  0  0  0  0
 15 18  2  0  0  0  0
 16 17  1  0  0  0  0
 16 41  1  0  0  0  0
 16 42  1  0  0  0  0
 17 43  1  0  0  0  0
 18 19  1  0  0  0  0
 18 49  1  0  0  0  0
 19 24  2  0  0  0  0
 19 20  1  0  0  0  0
 20 21  2  0  0  0  0
 20 44  1  0  0  0  0
 21 22  1  0  0  0  0
 21 45  1  0  0  0  0
 22 23  2  0  0  0  0
 22 46  1  0  0  0  0
 23 24  1  0  0  0  0
 23 47  1  0  0  0  0
M  CHG  1   2   1
M  CHG  1  18   1
M  END
> <s_m_source_file>
AV-unprocessed.smi

> <i_m_source_file_index>
1669

> <i_lp_mmshare_version>
43012

> <i_f3d_flags>
0

> <s_epik_input>
W2NIXTFbY0hdW2NIXVtjSF1bY0hdYzFbQ0gyXU4oW0NIM10pW0NIMl1bQ0BIXShbT0hdKVtDSDJdbihjKG4yKVtDSDJdW09IXSljKGMyMylbY0hdW2NIXVtjSF1bY0hdMw==

> <s_epik_cmdline>
J2VwaWtfcHl0aG9uJywgJy1waCcsICc3LjAnLCAnLXRuJywgJzgnLCAnLW1hJywgJzIwMCcsICctbWV0YWxfYmluZGluZycsICctaW1hZScsICc8aW5maWxlLm1hZT4nLCAnLW9tYWUnLCAnPG91dGZpbGUubWFlPic=

> <r_epik_Ionization_Penalty>
1.57484

> <r_epik_Ionization_Penalty_Charging>
1.57398

> <r_epik_Ionization_Penalty_Neutral>
0.000858917

> <r_epik_State_Penalty>
1.64997

> <r_epik_Charging_Adjusted_Penalty>
3.22395

> <i_epik_Tot_Q>
2

> <i_epik_Tot_abs_Q>
2

> <r_epik_Metal_State_Penalty>
5.70481

> <b_epik_Metal_Only>
0

> <s_lp_Force_Field>
OPLS_2005

> <r_lp_Energy>
24.1241

> <b_lp_Chiralities_Consistent>
1

> <s_lp_Variant>
AV-unprocessed.smi:1669-7

> <Gold.Version>
5.8.1

> <Gold.Id.Protein>
6NUR|6NUR_protein|mol2

> <Gold.PLP.Fitness>
58.5963

> <Gold.PLP.PLP>
-48.4596

> <Gold.PLP.part.hbond>
-4.0000

> <Gold.PLP.part.metal>
0.0000

> <Gold.PLP.part.buried>
-6.5307

> <Gold.PLP.part.nonpolar>
-38.5718

> <Gold.PLP.part.repulsive>
0.2142

> <Gold.PLP.ligand.clash>
0.0000

> <Gold.PLP.ligand.torsion>
0.6731

> <Gold.PLP.Chemscore.Hbond>
3.7833

> <Gold.PLP.Chemscore.CHOScore>
0.0000

> <Gold.PLP.Chemscore.Metal>
0.0000

> <Gold.Chemscore.Hbonds>
donor molecule, donor type, donor heavy atom, donor atom, acceptor molecule, acceptor atom, score
      L1  H    17    43       P1  7957  0.55
      L1  H    18    49       P1  8028  1.92
      P1  H  7989  7998       L1    17  0.13
      P1  H  8011  8017       L1    17  0.98

> <Gold.PLP.Chemscore.Internal.Correction>
0.1330

> <Gold.Rescore>
     Score         DG    S(hbond)    S(metal)    S(lipo)     H(rot)  DE(clash)    DE(int)     intcor
     17.80     -19.13       2.22        0.00     124.88       3.27       0.01       1.32       ----

> <Gold.Chemscore.Fitness>
17.8005

> <Gold.Chemscore.DG>
-19.1270

> <Gold.Chemscore.ZeroCoef>
-5.4800

> <Gold.Chemscore.Hbond>
2.2191

> <Gold.Chemscore.Metal>
0.0000

> <Gold.Chemscore.Lipo>
124.8823

> <Gold.Chemscore.Internal_Hbond>
0.0000

> <Gold.Chemscore.DEClash>
0.0081

> <Gold.Chemscore.DEInternal>
1.3184

> <Gold.Chemscore.Rot>
3.2718

> <Gold.Chemscore.Internal.Correction>
   9.000000E+99

> <Gold.Chemscore.Hbonds>
donor molecule, donor type, donor heavy atom, donor atom, acceptor molecule, acceptor atom, score
      L1  H    17    43       P1  7957  0.51
      L1  H    18    49       P1  8028  0.91
      P1  H  7989  7998       L1    17  0.01
      P1  H  8011  8017       L1    17  0.28

> <Gold.Chemscore.Hbond.Weighted>
-7.4117

> <Gold.Chemscore.Metal.Weighted>
-0.0000

> <Gold.Chemscore.Lipo.Weighted>
-14.6112

> <Gold.Chemscore.Internal_Hbond.Weighted>
0.0000

> <Gold.Chemscore.DEClash.Weighted>
0.0081

> <Gold.Chemscore.DEInternal.Weighted>
1.3184

> <Gold.Chemscore.Rot.Weighted>
8.3759

> <Gold.Chemscore.Internal.Correction.Weighted>
   9.000000E+99

> <Gold.Protein.RotatedTorsions>
[ 6907 6896 6895 6894 ] final  148.08 input  -60.11 | X-H torsion
[ 7974 7965 7964 7962 ] final  -15.42 input  175.53 | X-H torsion
[ 8008 7997 7996 7995 ] final -125.17 input   59.86 | X-H torsion
[ 10167 10162 10161 10158 ] final  163.19 input  -65.29 | X-H torsion
[ 10718 10713 10712 10709 ] final   65.85 input   66.30 | X-H torsion
[ 10763 10752 10751 10750 ] final   20.99 input  -60.55 | X-H torsion
[ 11005 11000 10999 10996 ] final   98.52 input  -57.11 | X-H torsion

> <Gold.Protein.ActiveResidues>
 VAL166  LYS551  ARG553  GLY616  TRP617  ASP618  TYR619  PRO620  LYS621  CYS622 
 ASP623  PHE694  ASN695  SER759  ASP760  ASP761  ALA762  ILE779  LEU786  VAL792 
 PHE793  MET794  SER795  GLU796  ALA797  LYS798  CYS799  TRP800  GLU811  SER814 

> <Gold.Protein.RotatedAtoms>
  152.1462  133.4494  159.4790 H   0  0  0  0  0  0  0  0  0  0  0  0  # atno 6907 bound_to 6896
  150.6891  134.2245  159.4419 H   0  0  0  0  0  0  0  0  0  0  0  0  # atno 6908 bound_to 6896
  152.0139  134.9860  160.0619 H   0  0  0  0  0  0  0  0  0  0  0  0  # atno 6909 bound_to 6896
  146.2033  140.3490  142.8416 H   0  0  0  0  0  0  0  0  0  0  0  0  # atno 7974 bound_to 7965
  155.2088  140.0418  157.2930 H   0  0  0  0  0  0  0  0  0  0  0  0  # atno 8008 bound_to 7997
  154.6025  140.2456  155.7745 H   0  0  0  0  0  0  0  0  0  0  0  0  # atno 8009 bound_to 7997
  156.2330  140.2931  156.0247 H   0  0  0  0  0  0  0  0  0  0  0  0  # atno 8010 bound_to 7997
  139.4870  144.4362  151.9009 H   0  0  0  0  0  0  0  0  0  0  0  0  # atno 10167 bound_to 10162
  157.6132  130.9236  150.0031 H   0  0  0  0  0  0  0  0  0  0  0  0  # atno 10718 bound_to 10713
  153.1032  135.6678  153.9635 H   0  0  0  0  0  0  0  0  0  0  0  0  # atno 10763 bound_to 10752
  153.9200  135.3015  155.3449 H   0  0  0  0  0  0  0  0  0  0  0  0  # atno 10764 bound_to 10752
  154.7453  135.5060  153.9268 H   0  0  0  0  0  0  0  0  0  0  0  0  # atno 10765 bound_to 10752
  139.8772  134.9053  156.4469 H   0  0  0  0  0  0  0  0  0  0  0  0  # atno 11005 bound_to 11000
  144.8732  140.7301  143.6033 LP  0  0  0  0  0  0  0  0  0  0  0  0  # atno 17320 bound_to 7965
  145.3409  139.1732  143.4486 LP  0  0  0  0  0  0  0  0  0  0  0  0  # atno 17321 bound_to 7965
  140.3812  144.2734  150.5908 LP  0  0  0  0  0  0  0  0  0  0  0  0  # atno 17342 bound_to 10162
  140.5231  143.2261  151.8357 LP  0  0  0  0  0  0  0  0  0  0  0  0  # atno 17343 bound_to 10162
  156.1243  130.3645  149.9835 LP  0  0  0  0  0  0  0  0  0  0  0  0  # atno 17370 bound_to 10713
  156.7909  130.9256  151.3646 LP  0  0  0  0  0  0  0  0  0  0  0  0  # atno 17371 bound_to 10713
  140.8960  133.7814  155.9625 LP  0  0  0  0  0  0  0  0  0  0  0  0  # atno 17394 bound_to 11000
  140.8703  134.2735  157.5194 LP  0  0  0  0  0  0  0  0  0  0  0  0  # atno 17395 bound_to 11000

$$$$
