AV-unprocessed.smi:2975|AV-procd|sdf|11358|dock3
  -GOLD-   2272016273D 1   1.00000     0.00000
 Structure written by MMmdl.
 40 42  0  0  0  0  0  0  0  0  2 V2000
  146.0784  136.0325  155.5276 C   0  0  0  0  0  0  0  0  0  0  0  0
  147.5406  135.5918  155.3796 C   0  0  1  0  0  0  0  0  0  0  0  0
  147.7136  135.0329  154.0941 O   0  0  0  0  0  0  0  0  0  0  0  0
  148.4688  136.7426  155.6196 C   0  0  0  0  0  0  0  0  0  0  0  0
  149.3511  137.2485  154.7110 N   0  3  0  0  0  0  0  0  0  0  0  0
  150.0264  138.3382  155.2595 C   0  0  0  0  0  0  0  0  0  0  0  0
  151.0049  139.1680  154.7210 C   0  0  0  0  0  0  0  0  0  0  0  0
  151.4828  140.2035  155.5505 C   0  0  0  0  0  0  0  0  0  0  0  0
  150.9877  140.3834  156.8584 C   0  0  0  0  0  0  0  0  0  0  0  0
  149.9960  139.5345  157.3935 C   0  0  0  0  0  0  0  0  0  0  0  0
  149.5312  138.5106  156.5680 C   0  0  0  0  0  0  0  0  0  0  0  0
  148.5783  137.5009  156.7506 N   0  0  0  0  0  0  0  0  0  0  0  0
  147.8680  137.4146  158.0350 C   0  0  0  0  0  0  0  0  0  0  0  0
  148.8374  137.3053  159.2176 C   0  0  0  0  0  0  0  0  0  0  0  0
  148.0894  137.3775  160.4226 O   0  0  0  0  0  0  0  0  0  0  0  0
  147.6403  136.2008  160.9843 C   0  0  0  0  0  0  0  0  0  0  0  0
  147.8013  134.9234  160.3890 C   0  0  0  0  0  0  0  0  0  0  0  0
  147.3157  133.7690  161.0339 C   0  0  0  0  0  0  0  0  0  0  0  0
  146.6629  133.8745  162.2756 C   0  0  0  0  0  0  0  0  0  0  0  0
  146.4951  135.1375  162.8724 C   0  0  0  0  0  0  0  0  0  0  0  0
  146.9814  136.2923  162.2294 C   0  0  0  0  0  0  0  0  0  0  0  0
  146.8141  137.5020  162.8156 F   0  0  0  0  0  0  0  0  0  0  0  0
  145.8873  136.4326  156.5234 H   0  0  0  0  0  0  0  0  0  0  0  0
  145.3973  135.1948  155.3745 H   0  0  0  0  0  0  0  0  0  0  0  0
  145.8205  136.8072  154.8046 H   0  0  0  0  0  0  0  0  0  0  0  0
  147.7475  134.8039  156.1030 H   0  0  0  0  0  0  0  0  0  0  0  0
  148.0549  135.7009  153.5191 H   0  0  0  0  0  0  0  0  0  0  0  0
  151.3829  139.0335  153.7179 H   0  0  0  0  0  0  0  0  0  0  0  0
  152.2428  140.8738  155.1756 H   0  0  0  0  0  0  0  0  0  0  0  0
  151.3759  141.1895  157.4640 H   0  0  0  0  0  0  0  0  0  0  0  0
  149.6230  139.6847  158.3956 H   0  0  0  0  0  0  0  0  0  0  0  0
  147.2437  138.3018  158.1385 H   0  0  0  0  0  0  0  0  0  0  0  0
  147.1838  136.5663  158.0098 H   0  0  0  0  0  0  0  0  0  0  0  0
  149.3807  136.3603  159.1675 H   0  0  0  0  0  0  0  0  0  0  0  0
  149.5616  138.1198  159.1744 H   0  0  0  0  0  0  0  0  0  0  0  0
  148.2947  134.8008  159.4369 H   0  0  0  0  0  0  0  0  0  0  0  0
  147.4449  132.8001  160.5742 H   0  0  0  0  0  0  0  0  0  0  0  0
  146.2908  132.9887  162.7691 H   0  0  0  0  0  0  0  0  0  0  0  0
  145.9937  135.2214  163.8251 H   0  0  0  0  0  0  0  0  0  0  0  0
  149.4744  136.8713  153.7800 H   0  0  0  0  0  0  0  0  0  0  0  0
  1  2  1  0  0  0  0
  1 23  1  0  0  0  0
  1 24  1  0  0  0  0
  1 25  1  0  0  0  0
  2  3  1  0  0  0  0
  2  4  1  0  0  0  0
  2 26  1  0  0  0  0
  3 27  1  0  0  0  0
  4 12  1  0  0  0  0
  4  5  2  0  0  0  0
  5  6  1  0  0  0  0
  5 40  1  0  0  0  0
  6 11  2  0  0  0  0
  6  7  1  0  0  0  0
  7  8  2  0  0  0  0
  7 28  1  0  0  0  0
  8  9  1  0  0  0  0
  8 29  1  0  0  0  0
  9 10  2  0  0  0  0
  9 30  1  0  0  0  0
 10 11  1  0  0  0  0
 10 31  1  0  0  0  0
 11 12  1  0  0  0  0
 12 13  1  0  0  0  0
 13 14  1  0  0  0  0
 13 32  1  0  0  0  0
 13 33  1  0  0  0  0
 14 15  1  0  0  0  0
 14 34  1  0  0  0  0
 14 35  1  0  0  0  0
 15 16  1  0  0  0  0
 16 21  1  0  0  0  0
 16 17  2  0  0  0  0
 17 18  1  0  0  0  0
 17 36  1  0  0  0  0
 18 19  2  0  0  0  0
 18 37  1  0  0  0  0
 19 20  1  0  0  0  0
 19 38  1  0  0  0  0
 20 21  2  0  0  0  0
 20 39  1  0  0  0  0
 21 22  1  0  0  0  0
M  CHG  1   5   1
M  END
> <s_m_source_file>
AV-unprocessed.smi

> <i_m_source_file_index>
2975

> <i_lp_mmshare_version>
43012

> <i_f3d_flags>
0

> <s_epik_input>
W2NIXTFbY0hdW2NIXVtjSF1jKGMxMiluKGMobjIpW0NASF0oW0NIM10pW09IXSlbQ0gyXVtDSDJdT2MzW2NIXVtjSF1bY0hdW2NIXWMzRg==

> <s_epik_cmdline>
J2VwaWtfcHl0aG9uJywgJy1waCcsICc3LjAnLCAnLXRuJywgJzgnLCAnLW1hJywgJzIwMCcsICctbWV0YWxfYmluZGluZycsICctaW1hZScsICc8aW5maWxlLm1hZT4nLCAnLW9tYWUnLCAnPG91dGZpbGUubWFlPic=

> <r_lp_tautomer_probability>
1

> <r_epik_Ionization_Penalty>
1.61121

> <r_epik_Ionization_Penalty_Charging>
1.61119

> <r_epik_Ionization_Penalty_Neutral>
2.92192e-05

> <r_epik_State_Penalty>
1.71016

> <r_epik_Charging_Adjusted_Penalty>
3.32134

> <i_epik_Tot_Q>
1

> <i_epik_Tot_abs_Q>
1

> <r_epik_Metal_State_Penalty>
5.76893

> <b_epik_Metal_Only>
0

> <s_lp_Force_Field>
OPLS_2005

> <r_lp_Energy>
20.882

> <b_lp_Chiralities_Consistent>
1

> <s_lp_Variant>
AV-unprocessed.smi:2975-4

> <Gold.Version>
5.8.1

> <Gold.Id.Protein>
6NUR|6NUR_protein|mol2

> <Gold.PLP.Fitness>
49.4725

> <Gold.PLP.PLP>
-37.4401

> <Gold.PLP.part.hbond>
-4.0000

> <Gold.PLP.part.metal>
0.0000

> <Gold.PLP.part.buried>
-2.1755

> <Gold.PLP.part.nonpolar>
-31.1592

> <Gold.PLP.part.repulsive>
0.0033

> <Gold.PLP.ligand.clash>
0.0000

> <Gold.PLP.ligand.torsion>
0.2563

> <Gold.PLP.Chemscore.Hbond>
4.1728

> <Gold.PLP.Chemscore.CHOScore>
0.0000

> <Gold.PLP.Chemscore.Metal>
0.0000

> <Gold.Chemscore.Hbonds>
donor molecule, donor type, donor heavy atom, donor atom, acceptor molecule, acceptor atom, score
      L1  H     3    27       P1  7948  0.99
      L1  H     5    40       P1  7948  1.85
      P1  H  6931  6943       L1    15  0.66
      P1  H  6934  6947       L1    15  0.67

> <Gold.PLP.Chemscore.Internal.Correction>
0.0266

> <Gold.Rescore>
     Score         DG    S(hbond)    S(metal)    S(lipo)     H(rot)  DE(clash)    DE(int)     intcor
     17.86     -18.13       2.65        0.00      82.32       2.28       0.02       0.25       ----

> <Gold.Chemscore.Fitness>
17.8617

> <Gold.Chemscore.DG>
-18.1257

> <Gold.Chemscore.ZeroCoef>
-5.4800

> <Gold.Chemscore.Hbond>
2.6479

> <Gold.Chemscore.Metal>
0.0000

> <Gold.Chemscore.Lipo>
82.3248

> <Gold.Chemscore.Internal_Hbond>
0.0000

> <Gold.Chemscore.DEClash>
0.0183

> <Gold.Chemscore.DEInternal>
0.2457

> <Gold.Chemscore.Rot>
2.2774

> <Gold.Chemscore.Internal.Correction>
   9.000000E+99

> <Gold.Chemscore.Hbonds>
donor molecule, donor type, donor heavy atom, donor atom, acceptor molecule, acceptor atom, score
      L1  H     3    27       P1  7948  0.93
      L1  H     5    40       P1  7948  0.80
      P1  H  6931  6943       L1    15  0.24
      P1  H  6934  6947       L1    15  0.64

> <Gold.Chemscore.Hbond.Weighted>
-8.8439

> <Gold.Chemscore.Metal.Weighted>
-0.0000

> <Gold.Chemscore.Lipo.Weighted>
-9.6320

> <Gold.Chemscore.Internal_Hbond.Weighted>
0.0000

> <Gold.Chemscore.DEClash.Weighted>
0.0183

> <Gold.Chemscore.DEInternal.Weighted>
0.2457

> <Gold.Chemscore.Rot.Weighted>
5.8302

> <Gold.Chemscore.Internal.Correction.Weighted>
   9.000000E+99

> <Gold.Protein.RotatedTorsions>
[ 6907 6896 6895 6894 ] final  123.43 input  -60.11 | X-H torsion
[ 7974 7965 7964 7962 ] final  176.20 input  175.53 | X-H torsion
[ 8008 7997 7996 7995 ] final -118.10 input   59.86 | X-H torsion
[ 10167 10162 10161 10158 ] final -128.32 input  -65.29 | X-H torsion
[ 10718 10713 10712 10709 ] final  139.66 input   66.30 | X-H torsion
[ 10763 10752 10751 10750 ] final -139.18 input  -60.55 | X-H torsion
[ 11005 11000 10999 10996 ] final -129.32 input  -57.11 | X-H torsion

> <Gold.Protein.ActiveResidues>
 VAL166  LYS551  ARG553  GLY616  TRP617  ASP618  TYR619  PRO620  LYS621  CYS622 
 ASP623  PHE694  ASN695  SER759  ASP760  ASP761  ALA762  ILE779  LEU786  VAL792 
 PHE793  MET794  SER795  GLU796  ALA797  LYS798  CYS799  TRP800  GLU811  SER814 

> <Gold.Protein.RotatedAtoms>
  152.4162  133.7042  159.6441 H   0  0  0  0  0  0  0  0  0  0  0  0  # atno 6907 bound_to 6896
  150.8039  133.8535  159.3220 H   0  0  0  0  0  0  0  0  0  0  0  0  # atno 6908 bound_to 6896
  151.6264  135.1029  160.0164 H   0  0  0  0  0  0  0  0  0  0  0  0  # atno 6909 bound_to 6896
  144.7188  140.0060  143.6440 H   0  0  0  0  0  0  0  0  0  0  0  0  # atno 7974 bound_to 7965
  155.0943  140.0395  157.2678 H   0  0  0  0  0  0  0  0  0  0  0  0  # atno 8008 bound_to 7997
  154.6807  140.2632  155.6886 H   0  0  0  0  0  0  0  0  0  0  0  0  # atno 8009 bound_to 7997
  156.2694  140.2779  156.1350 H   0  0  0  0  0  0  0  0  0  0  0  0  # atno 8010 bound_to 7997
  139.9515  143.6051  152.2474 H   0  0  0  0  0  0  0  0  0  0  0  0  # atno 10167 bound_to 10162
  157.4119  131.1029  151.0445 H   0  0  0  0  0  0  0  0  0  0  0  0  # atno 10718 bound_to 10713
  154.8616  135.3590  154.5505 H   0  0  0  0  0  0  0  0  0  0  0  0  # atno 10763 bound_to 10752
  153.6124  135.7009  153.5347 H   0  0  0  0  0  0  0  0  0  0  0  0  # atno 10764 bound_to 10752
  153.3198  135.4154  155.1368 H   0  0  0  0  0  0  0  0  0  0  0  0  # atno 10765 bound_to 10752
  140.9442  134.1153  157.4123 H   0  0  0  0  0  0  0  0  0  0  0  0  # atno 11005 bound_to 11000
  146.0297  139.3323  143.0763 LP  0  0  0  0  0  0  0  0  0  0  0  0  # atno 17320 bound_to 7965
  145.8468  140.9551  143.0770 LP  0  0  0  0  0  0  0  0  0  0  0  0  # atno 17321 bound_to 7965
  139.6625  144.7662  151.1936 LP  0  0  0  0  0  0  0  0  0  0  0  0  # atno 17342 bound_to 10162
  140.7581  143.5989  150.8720 LP  0  0  0  0  0  0  0  0  0  0  0  0  # atno 17343 bound_to 10162
  157.1406  130.6141  149.5554 LP  0  0  0  0  0  0  0  0  0  0  0  0  # atno 17370 bound_to 10713
  155.9853  130.4882  150.7026 LP  0  0  0  0  0  0  0  0  0  0  0  0  # atno 17371 bound_to 10713
  139.8828  135.0046  156.6260 LP  0  0  0  0  0  0  0  0  0  0  0  0  # atno 17394 bound_to 11000
  140.7692  133.8752  155.8479 LP  0  0  0  0  0  0  0  0  0  0  0  0  # atno 17395 bound_to 11000

$$$$
