#       Name:                AV-unprocessed.smi:2760
#       Creating user name   scv26
#       Creation time:       Fri Mar 27 15:08:10 2020


#       File generated by GOLD software.
#

@<TRIPOS>MOLECULE
AV-unprocessed.smi:2760
    38    39     1
SMALL
NO_CHARGES


@<TRIPOS>ATOM
      1 ****        -3.5256   1.9520   1.7046 O.3            1 S1                 0.0000
      2 ****        -2.7569   1.3264   0.7684 C.ar           1 S1                 0.0000
      3 ****        -2.0504   2.0925  -0.1830 C.ar           1 S1                 0.0000
      4 ****        -1.2735   1.3779  -1.1214 C.ar           1 S1                 0.0000
      5 ****        -0.4676   2.0544  -2.1853 C.3            1 S1                 0.0000
      6 ****        -1.0243   3.2254  -2.9644 C.3            1 S1                 0.0000
      7 ****        -0.8242   1.8940  -3.6453 C.3            1 S1                 0.0000
      8 ****        -1.2028   0.0287  -1.0969 N.ar           1 S1                 0.0000
      9 ****        -1.9134  -0.5871  -0.1494 C.ar           1 S1                 0.0000
     10 ****        -1.8172  -2.3622  -0.1034 S.3            1 S1                 0.0000
     11 ****        -0.0186  -2.6098  -0.0233 C.3            1 S1                 0.0000
     12 ****         0.5850  -2.0310   1.2625 C.3            1 S1                 0.0000
     13 ****         1.9745  -2.3085   1.2885 O.3            1 S1                 0.0000
     14 ****         2.6111  -1.7954   2.4488 C.3            1 S1                 0.0000
     15 ****         4.1034  -2.1463   2.4173 C.3            1 S1                 0.0000
     16 ****         4.6904  -1.6643   3.5122 F              1 S1                 0.0000
     17 ****         4.2654  -3.4689   2.3924 F              1 S1                 0.0000
     18 ****         4.6833  -1.6033   1.3471 F              1 S1                 0.0000
     19 ****        -2.6874  -0.0224   0.7788 N.ar           1 S1                 0.0000
     20 ****        -3.5132   2.8930   1.6231 H              1 S1                 0.0000
     21 ****        -2.1007   3.1715  -0.1944 H              1 S1                 0.0000
     22 ****         0.5880   2.0790  -1.9212 H              1 S1                 0.0000
     23 ****        -2.0500   3.5332  -2.7710 H              1 S1                 0.0000
     24 ****        -0.3394   4.0249  -3.2392 H              1 S1                 0.0000
     25 ****        -0.0094   1.8264  -4.3633 H              1 S1                 0.0000
     26 ****        -1.7153   1.3199  -3.8918 H              1 S1                 0.0000
     27 ****         0.1771  -3.6810  -0.0721 H              1 S1                 0.0000
     28 ****         0.4510  -2.1649  -0.9009 H              1 S1                 0.0000
     29 ****         0.4252  -0.9529   1.3075 H              1 S1                 0.0000
     30 ****         0.1000  -2.4734   2.1341 H              1 S1                 0.0000
     31 ****         2.4854  -0.7123   2.4952 H              1 S1                 0.0000
     32 ****         2.1505  -2.2159   3.3444 H              1 S1                 0.0000
     33 ****        -3.1855   1.7062   2.6123 LP             1 S1                 0.0000
     34 ****        -4.4691   1.6359   1.6053 LP             1 S1                 0.0000
     35 ****        -0.6476  -0.4814  -1.7537 LP             1 S1                 0.0000
     36 ****         2.3986  -1.8969   0.4819 LP             1 S1                 0.0000
     37 ****         2.1038  -3.2998   1.2640 LP             1 S1                 0.0000
     38 ****        -3.1903  -0.5696   1.4479 LP             1 S1                 0.0000
@<TRIPOS>BOND
    1    1    2 1     
    2    1   20 1     
    3    2   19 ar    
    4    2    3 ar    
    5    3    4 ar    
    6    3   21 1     
    7    4    5 1     
    8    4    8 ar    
    9    5    7 1     
   10    5    6 1     
   11    5   22 1     
   12    6    7 1     
   13    6   23 1     
   14    6   24 1     
   15    7   25 1     
   16    7   26 1     
   17    8    9 ar    
   18    9   10 1     
   19    9   19 ar    
   20   10   11 1     
   21   11   12 1     
   22   11   27 1     
   23   11   28 1     
   24   12   13 1     
   25   12   29 1     
   26   12   30 1     
   27   13   14 1     
   28   14   15 1     
   29   14   31 1     
   30   14   32 1     
   31   15   16 1     
   32   15   17 1     
   33   15   18 1     
   34    1   33 1     
   35    1   34 1     
   36    8   35 1     
   37   13   36 1     
   38   13   37 1     
   39   19   38 1     
@<TRIPOS>SUBSTRUCTURE
      1 S1             1
@<TRIPOS>SET
LONE_PAIRS      STATIC     ATOMS    <user>   **** ""
6 33 34 35 36 37 38
DONOR_HYDROGENS      STATIC     ATOMS    <user>   **** ""
1 20
ATOM$BLUE        STATIC     ATOMS    COLORGROUP SYSTEM
6 33 34 35 36 37 38
ATOM$RED        STATIC     ATOMS    COLORGROUP SYSTEM
1 20
