AV-unprocessed.smi:35|AV-procd|sdf|252|dock1
  -GOLD-   2262016 13D 1   1.00000     0.00000
 Structure written by MMmdl.
 29 30  0  0  0  0  0  0  0  0  1 V2000
  151.3375  136.9475  159.7414 O   0  0  0  0  0  0  0  0  0  0  0  0
  151.0764  137.6103  158.7397 C   0  0  0  0  0  0  0  0  0  0  0  0
  152.1059  138.1290  157.9485 N   0  0  0  0  0  0  0  0  0  0  0  0
  151.9352  138.8945  156.7927 C   0  0  0  0  0  0  0  0  0  0  0  0
  152.9181  139.3151  156.1845 O   0  0  0  0  0  0  0  0  0  0  0  0
  150.6080  139.1580  156.3867 N   0  0  0  0  0  0  0  0  0  0  0  0
  150.3438  139.9743  155.1400 C   0  0  1  0  0  0  0  0  0  0  0  0
  149.4423  139.2667  154.3483 O   0  0  0  0  0  0  0  0  0  0  0  0
  148.5809  140.1852  153.6928 C   0  0  1  0  0  0  0  0  0  0  0  0
  147.2849  139.4756  153.2721 C   0  0  0  0  0  0  0  0  0  0  0  0
  147.5778  138.4297  152.3705 O   0  0  0  0  0  0  0  0  0  0  0  0
  148.3689  141.2693  154.7545 C   0  0  2  0  0  0  0  0  0  0  0  0
  148.0261  142.4970  154.1426 O   0  0  0  0  0  0  0  0  0  0  0  0
  149.7299  141.3625  155.4358 C   0  0  1  0  0  0  0  0  0  0  0  0
  149.5829  141.6622  156.8127 O   0  0  0  0  0  0  0  0  0  0  0  0
  149.5525  138.6707  157.1453 C   0  0  0  0  0  0  0  0  0  0  0  0
  149.7350  137.9340  158.2658 C   0  0  0  0  0  0  0  0  0  0  0  0
  148.0988  137.3392  159.2106 Br  0  0  0  0  0  0  0  0  0  0  0  0
  153.0531  137.9364  158.2402 H   0  0  0  0  0  0  0  0  0  0  0  0
  151.2809  140.0433  154.5851 H   0  0  0  0  0  0  0  0  0  0  0  0
  149.1013  140.6069  152.8300 H   0  0  0  0  0  0  0  0  0  0  0  0
  146.7420  139.0935  154.1373 H   0  0  0  0  0  0  0  0  0  0  0  0
  146.6244  140.1740  152.7575 H   0  0  0  0  0  0  0  0  0  0  0  0
  148.2150  138.7411  151.7458 H   0  0  0  0  0  0  0  0  0  0  0  0
  147.5979  140.9603  155.4628 H   0  0  0  0  0  0  0  0  0  0  0  0
  148.3077  143.2033  154.7034 H   0  0  0  0  0  0  0  0  0  0  0  0
  150.3636  142.1139  154.9621 H   0  0  0  0  0  0  0  0  0  0  0  0
  149.6054  142.6011  156.9180 H   0  0  0  0  0  0  0  0  0  0  0  0
  148.5405  138.8932  156.8384 H   0  0  0  0  0  0  0  0  0  0  0  0
  1  2  2  0  0  0  0
  2 17  1  0  0  0  0
  2  3  1  0  0  0  0
  3 19  1  0  0  0  0
  3  4  1  0  0  0  0
  4  5  2  0  0  0  0
  4  6  1  0  0  0  0
  6  7  1  0  0  0  0
  6 16  1  0  0  0  0
  7 14  1  0  0  0  0
  7  8  1  0  0  0  0
  7 20  1  0  0  0  0
  8  9  1  0  0  0  0
  9 10  1  0  0  0  0
  9 12  1  0  0  0  0
  9 21  1  0  0  0  0
 10 11  1  0  0  0  0
 10 22  1  0  0  0  0
 10 23  1  0  0  0  0
 11 24  1  0  0  0  0
 12 13  1  0  0  0  0
 12 14  1  0  0  0  0
 12 25  1  0  0  0  0
 13 26  1  0  0  0  0
 14 15  1  0  0  0  0
 14 27  1  0  0  0  0
 15 28  1  0  0  0  0
 16 17  2  0  0  0  0
 16 29  1  0  0  0  0
 17 18  1  0  0  0  0
M  END
> <s_m_source_file>
AV-unprocessed.smi

> <i_m_source_file_index>
35

> <i_lp_mmshare_version>
43012

> <i_f3d_flags>
0

> <s_epik_input>
Tz1jMVtuSF1jKD1PKW4oW2NIXWMxQnIpW0NAQEhdMk9bQ0BASF0oW0NIMl1bT0hdKVtDQEBIXShbT0hdKVtDQEhdMltPSF0=

> <s_epik_cmdline>
J2VwaWtfcHl0aG9uJywgJy1waCcsICc3LjAnLCAnLXRuJywgJzgnLCAnLW1hJywgJzIwMCcsICctbWV0YWxfYmluZGluZycsICctaW1hZScsICc8aW5maWxlLm1hZT4nLCAnLW9tYWUnLCAnPG91dGZpbGUubWFlPic=

> <r_lp_tautomer_probability>
0.999537

> <r_epik_Ionization_Penalty>
0.10812

> <r_epik_Ionization_Penalty_Charging>
0.108119

> <r_epik_Ionization_Penalty_Neutral>
4.93006e-07

> <r_epik_State_Penalty>
0.0979238

> <r_epik_Charging_Adjusted_Penalty>
0.206043

> <i_epik_Tot_Q>
0

> <i_epik_Tot_abs_Q>
0

> <r_epik_Metal_State_Penalty>
3.07911

> <b_epik_Metal_Only>
0

> <s_epik_Chemistry_Notes>
This compound contains an acetal/aminal-like group ( X-CH(R)-Y where X, Y are N, S, or O) that may be acid/base labile, releasing an aldehyde.

> <s_lp_Force_Field>
OPLS_2005

> <r_lp_Energy>
32.4321

> <b_lp_Chiralities_Consistent>
1

> <s_lp_Variant>
AV-unprocessed.smi:35-6

> <Gold.Version>
5.8.1

> <Gold.Id.Protein>
6NUR|6NUR_protein|mol2

> <Gold.PLP.Fitness>
37.0831

> <Gold.PLP.PLP>
-25.0941

> <Gold.PLP.part.hbond>
-5.9864

> <Gold.PLP.part.metal>
0.0000

> <Gold.PLP.part.buried>
-0.1168

> <Gold.PLP.part.nonpolar>
-19.2687

> <Gold.PLP.part.repulsive>
0.3037

> <Gold.PLP.ligand.clash>
0.0000

> <Gold.PLP.ligand.torsion>
0.1562

> <Gold.PLP.Chemscore.Hbond>
4.0000

> <Gold.PLP.Chemscore.CHOScore>
0.0000

> <Gold.PLP.Chemscore.Metal>
0.0000

> <Gold.Chemscore.Hbonds>
donor molecule, donor type, donor heavy atom, donor atom, acceptor molecule, acceptor atom, score
      L1  H    11    24       P1  7957  1.00
      L1  H    13    26       P1  8028  1.00
      P1  H  6896  6907       L1     1  1.00
      P1  H  7997  8010       L1     5  1.00

> <Gold.PLP.Chemscore.Internal.Correction>
0.3014

> <Gold.Rescore>
     Score         DG    S(hbond)    S(metal)    S(lipo)     H(rot)  DE(clash)    DE(int)     intcor
     11.71     -13.41       3.90        0.00      36.61       3.67       0.47       1.23       ----

> <Gold.Chemscore.Fitness>
11.7095

> <Gold.Chemscore.DG>
-13.4088

> <Gold.Chemscore.ZeroCoef>
-5.4800

> <Gold.Chemscore.Hbond>
3.9043

> <Gold.Chemscore.Metal>
0.0000

> <Gold.Chemscore.Lipo>
36.6147

> <Gold.Chemscore.Internal_Hbond>
0.0000

> <Gold.Chemscore.DEClash>
0.4660

> <Gold.Chemscore.DEInternal>
1.2332

> <Gold.Chemscore.Rot>
3.6701

> <Gold.Chemscore.Internal.Correction>
   9.000000E+99

> <Gold.Chemscore.Hbonds>
donor molecule, donor type, donor heavy atom, donor atom, acceptor molecule, acceptor atom, score
      L1  H    11    24       P1  7957  0.71
      L1  H    13    26       P1  8028  0.99
      P1  H  6896  6907       L1     1  1.00
      P1  H  7997  8010       L1     5  1.00

> <Gold.Chemscore.Hbond.Weighted>
-13.0403

> <Gold.Chemscore.Metal.Weighted>
-0.0000

> <Gold.Chemscore.Lipo.Weighted>
-4.2839

> <Gold.Chemscore.Internal_Hbond.Weighted>
0.0000

> <Gold.Chemscore.DEClash.Weighted>
0.4660

> <Gold.Chemscore.DEInternal.Weighted>
1.2332

> <Gold.Chemscore.Rot.Weighted>
9.3955

> <Gold.Chemscore.Internal.Correction.Weighted>
   9.000000E+99

> <Gold.Protein.RotatedTorsions>
[ 6907 6896 6895 6894 ] final  -10.55 input  -60.11 | X-H torsion
[ 7974 7965 7964 7962 ] final   24.27 input  175.53 | X-H torsion
[ 8008 7997 7996 7995 ] final   67.48 input   59.86 | X-H torsion
[ 10167 10162 10161 10158 ] final   64.75 input  -65.29 | X-H torsion
[ 10718 10713 10712 10709 ] final   43.42 input   66.30 | X-H torsion
[ 10763 10752 10751 10750 ] final  -21.81 input  -60.55 | X-H torsion
[ 11005 11000 10999 10996 ] final  173.24 input  -57.11 | X-H torsion

> <Gold.Protein.ActiveResidues>
 VAL166  LYS551  ARG553  GLY616  TRP617  ASP618  TYR619  PRO620  LYS621  CYS622 
 ASP623  PHE694  ASN695  SER759  ASP760  ASP761  ALA762  ILE779  LEU786  VAL792 
 PHE793  MET794  SER795  GLU796  ALA797  LYS798  CYS799  TRP800  GLU811  SER814 

> <Gold.Protein.RotatedAtoms>
  151.4002  135.0970  159.9553 H   0  0  0  0  0  0  0  0  0  0  0  0  # atno 6907 bound_to 6896
  152.5052  133.8895  159.7397 H   0  0  0  0  0  0  0  0  0  0  0  0  # atno 6908 bound_to 6896
  150.9368  133.6647  159.2827 H   0  0  0  0  0  0  0  0  0  0  0  0  # atno 6909 bound_to 6896
  146.1945  139.7627  142.8807 H   0  0  0  0  0  0  0  0  0  0  0  0  # atno 7974 bound_to 7965
  155.6935  140.3496  155.4903 H   0  0  0  0  0  0  0  0  0  0  0  0  # atno 8008 bound_to 7997
  155.9503  140.1118  157.1005 H   0  0  0  0  0  0  0  0  0  0  0  0  # atno 8009 bound_to 7997
  154.4120  140.1195  156.5030 H   0  0  0  0  0  0  0  0  0  0  0  0  # atno 8010 bound_to 7997
  140.1187  144.4751  150.6933 H   0  0  0  0  0  0  0  0  0  0  0  0  # atno 10167 bound_to 10162
  157.4157  130.7940  149.7470 H   0  0  0  0  0  0  0  0  0  0  0  0  # atno 10718 bound_to 10713
  153.6420  135.6984  153.5238 H   0  0  0  0  0  0  0  0  0  0  0  0  # atno 10763 bound_to 10752
  153.2775  135.4196  155.1046 H   0  0  0  0  0  0  0  0  0  0  0  0  # atno 10764 bound_to 10752
  154.8497  135.3593  154.5964 H   0  0  0  0  0  0  0  0  0  0  0  0  # atno 10765 bound_to 10752
  140.3384  134.7298  157.4184 H   0  0  0  0  0  0  0  0  0  0  0  0  # atno 11005 bound_to 11000
  145.3687  141.0339  143.3243 LP  0  0  0  0  0  0  0  0  0  0  0  0  # atno 17320 bound_to 7965
  144.8553  139.5259  143.6837 LP  0  0  0  0  0  0  0  0  0  0  0  0  # atno 17321 bound_to 7965
  140.6884  143.2362  151.5198 LP  0  0  0  0  0  0  0  0  0  0  0  0  # atno 17342 bound_to 10162
  139.5580  144.2227  152.1644 LP  0  0  0  0  0  0  0  0  0  0  0  0  # atno 17343 bound_to 10162
  155.9864  130.3975  150.3212 LP  0  0  0  0  0  0  0  0  0  0  0  0  # atno 17370 bound_to 10713
  157.1355  131.0283  151.2951 LP  0  0  0  0  0  0  0  0  0  0  0  0  # atno 17371 bound_to 10713
  140.0802  134.5742  155.8549 LP  0  0  0  0  0  0  0  0  0  0  0  0  # atno 17394 bound_to 11000
  141.2045  133.6640  156.6125 LP  0  0  0  0  0  0  0  0  0  0  0  0  # atno 17395 bound_to 11000

$$$$
