AV-unprocessed.smi:109|AV-procd|sdf|1048|dock8
  -GOLD-   2262018 93D 1   1.00000     0.00000
 Structure written by MMmdl.
 58 61  0  0  0  0  0  0  0  0  1 V2000
  149.4922  141.0840  153.5480 O   0  0  0  0  0  0  0  0  0  0  0  0
  149.3743  140.9143  154.9440 C   0  0  0  0  0  0  0  0  0  0  0  0
  150.7680  140.7331  155.5711 C   0  0  0  0  0  0  0  0  0  0  0  0
  150.7605  140.6406  157.1170 C   0  0  1  0  0  0  0  0  0  0  0  0
  151.0573  139.2649  157.5238 N   0  0  0  0  0  0  0  0  0  0  0  0
  150.2517  138.2300  157.1963 C   0  0  0  0  0  0  0  0  0  0  0  0
  150.1092  137.8199  155.9090 N   0  0  0  0  0  0  0  0  0  0  0  0
  149.3110  136.7881  155.6183 C   0  0  0  0  0  0  0  0  0  0  0  0
  148.5797  136.0393  156.4471 N   0  0  0  0  0  0  0  0  0  0  0  0
  148.7199  136.4493  157.7410 C   0  0  0  0  0  0  0  0  0  0  0  0
  149.5287  137.5275  158.1941 C   0  0  0  0  0  0  0  0  0  0  0  0
  149.4282  137.6425  159.5742 N   0  0  0  0  0  0  0  0  0  0  0  0
  148.6126  136.6798  159.9126 C   0  0  0  0  0  0  0  0  0  0  0  0
  148.1403  135.9117  158.8693 N   0  0  0  0  0  0  0  0  0  0  0  0
  147.2128  134.7342  158.9008 C   0  0  2  0  0  0  0  0  0  0  0  0
  146.4923  134.8042  160.0944 O   0  0  0  0  0  0  0  0  0  0  0  0
  146.7984  133.6983  160.9400 C   0  0  2  0  0  0  0  0  0  0  0  0
  146.8559  134.1634  162.4044 C   0  0  0  0  0  0  0  0  0  0  0  0
  147.6716  135.3081  162.5317 O   0  0  0  0  0  0  0  0  0  0  0  0
  148.1073  133.1161  160.3933 C   0  0  1  0  0  0  0  0  0  0  0  0
  148.1729  131.7222  160.6192 O   0  0  0  0  0  0  0  0  0  0  0  0
  147.9891  133.4031  158.9061 C   0  0  2  0  0  0  0  0  0  0  0  0
  149.2689  133.4696  158.3018 O   0  0  0  0  0  0  0  0  0  0  0  0
  151.7617  141.6105  157.8076 C   0  0  0  0  0  0  0  0  0  0  0  0
  151.9362  141.2503  159.3054 C   0  0  0  0  0  0  0  0  0  0  0  0
  152.9158  142.1882  160.0279 C   0  0  0  0  0  0  0  0  0  0  0  0
  152.4785  143.6518  159.8971 C   0  0  0  0  0  0  0  0  0  0  0  0
  152.3275  144.0381  158.4211 C   0  0  0  0  0  0  0  0  0  0  0  0
  151.3517  143.1003  157.6912 C   0  0  0  0  0  0  0  0  0  0  0  0
  146.5638  134.8659  158.0342 H   0  0  0  0  0  0  0  0  0  0  0  0
  145.9856  132.9816  160.8050 H   0  0  0  0  0  0  0  0  0  0  0  0
  148.9704  133.6250  160.8257 H   0  0  0  0  0  0  0  0  0  0  0  0
  147.3705  132.6537  158.4096 H   0  0  0  0  0  0  0  0  0  0  0  0
  149.3115  140.2572  153.1274 H   0  0  0  0  0  0  0  0  0  0  0  0
  148.8742  141.7868  155.3650 H   0  0  0  0  0  0  0  0  0  0  0  0
  148.7389  140.0492  155.1334 H   0  0  0  0  0  0  0  0  0  0  0  0
  151.2494  139.8487  155.1510 H   0  0  0  0  0  0  0  0  0  0  0  0
  151.3655  141.5875  155.2573 H   0  0  0  0  0  0  0  0  0  0  0  0
  149.7668  140.9363  157.4523 H   0  0  0  0  0  0  0  0  0  0  0  0
  151.9678  139.1274  157.9387 H   0  0  0  0  0  0  0  0  0  0  0  0
  149.2518  136.5244  154.5725 H   0  0  0  0  0  0  0  0  0  0  0  0
  148.3381  136.5039  160.9413 H   0  0  0  0  0  0  0  0  0  0  0  0
  145.8609  134.3797  162.7928 H   0  0  0  0  0  0  0  0  0  0  0  0
  147.2808  133.3770  163.0285 H   0  0  0  0  0  0  0  0  0  0  0  0
  148.5658  135.0281  162.6554 H   0  0  0  0  0  0  0  0  0  0  0  0
  147.3346  131.4346  160.9474 H   0  0  0  0  0  0  0  0  0  0  0  0
  149.1575  133.6809  157.3873 H   0  0  0  0  0  0  0  0  0  0  0  0
  152.7312  141.4979  157.3193 H   0  0  0  0  0  0  0  0  0  0  0  0
  150.9670  141.2869  159.8048 H   0  0  0  0  0  0  0  0  0  0  0  0
  152.2962  140.2274  159.4172 H   0  0  0  0  0  0  0  0  0  0  0  0
  152.9826  141.9142  161.0811 H   0  0  0  0  0  0  0  0  0  0  0  0
  153.9162  142.0645  159.6113 H   0  0  0  0  0  0  0  0  0  0  0  0
  151.5305  143.8012  160.4155 H   0  0  0  0  0  0  0  0  0  0  0  0
  153.2047  144.3047  160.3822 H   0  0  0  0  0  0  0  0  0  0  0  0
  151.9802  145.0687  158.3416 H   0  0  0  0  0  0  0  0  0  0  0  0
  153.3021  144.0028  157.9326 H   0  0  0  0  0  0  0  0  0  0  0  0
  151.3196  143.4130  156.6488 H   0  0  0  0  0  0  0  0  0  0  0  0
  150.3459  143.2381  158.0902 H   0  0  0  0  0  0  0  0  0  0  0  0
  1  2  1  0  0  0  0
  1 34  1  0  0  0  0
  2  3  1  0  0  0  0
  2 35  1  0  0  0  0
  2 36  1  0  0  0  0
  3  4  1  0  0  0  0
  3 37  1  0  0  0  0
  3 38  1  0  0  0  0
  4  5  1  0  0  0  0
  4 24  1  0  0  0  0
  4 39  1  0  0  0  0
  5  6  1  0  0  0  0
  5 40  1  0  0  0  0
  6 11  1  0  0  0  0
  6  7  2  0  0  0  0
  7  8  1  0  0  0  0
  8  9  2  0  0  0  0
  8 41  1  0  0  0  0
  9 10  1  0  0  0  0
 10 14  1  0  0  0  0
 10 11  2  0  0  0  0
 11 12  1  0  0  0  0
 12 13  2  0  0  0  0
 13 14  1  0  0  0  0
 13 42  1  0  0  0  0
 14 15  1  0  0  0  0
 15 30  1  0  0  0  0
 15 22  1  0  0  0  0
 15 16  1  0  0  0  0
 16 17  1  0  0  0  0
 17 31  1  0  0  0  0
 17 18  1  0  0  0  0
 17 20  1  0  0  0  0
 18 19  1  0  0  0  0
 18 43  1  0  0  0  0
 18 44  1  0  0  0  0
 19 45  1  0  0  0  0
 20 32  1  0  0  0  0
 20 21  1  0  0  0  0
 20 22  1  0  0  0  0
 21 46  1  0  0  0  0
 22 33  1  0  0  0  0
 22 23  1  0  0  0  0
 23 47  1  0  0  0  0
 24 29  1  0  0  0  0
 24 25  1  0  0  0  0
 24 48  1  0  0  0  0
 25 26  1  0  0  0  0
 25 49  1  0  0  0  0
 25 50  1  0  0  0  0
 26 27  1  0  0  0  0
 26 51  1  0  0  0  0
 26 52  1  0  0  0  0
 27 28  1  0  0  0  0
 27 53  1  0  0  0  0
 27 54  1  0  0  0  0
 28 29  1  0  0  0  0
 28 55  1  0  0  0  0
 28 56  1  0  0  0  0
 29 57  1  0  0  0  0
 29 58  1  0  0  0  0
M  END
> <s_m_source_file>
AV-unprocessed.smi

> <i_m_source_file_index>
109

> <i_lp_mmshare_version>
43012

> <i_f3d_flags>
0

> <s_epik_input>
W0NIMl0xW0NIMl1bQ0gyXVtDSDJdW0NIMl1bQ0hdMVtDQEhdKFtDSDJdW0NIMl1bT0hdKVtOSF1jKG5bY0hdbjIpYyhjMjMpbltjSF1uM1tDQEBIXTRPW0NASF0oW0NIMl1bT0hdKVtDQEBIXShbT0hdKVtDQEhdNFtPSF0=

> <s_epik_cmdline>
J2VwaWtfcHl0aG9uJywgJy1waCcsICc3LjAnLCAnLXRuJywgJzgnLCAnLW1hJywgJzIwMCcsICctbWV0YWxfYmluZGluZycsICctaW1hZScsICc8aW5maWxlLm1hZT4nLCAnLW9tYWUnLCAnPG91dGZpbGUubWFlPic=

> <r_lp_tautomer_probability>
1

> <r_epik_Ionization_Penalty>
0.000793976

> <r_epik_Ionization_Penalty_Charging>
0

> <r_epik_Ionization_Penalty_Neutral>
0.000793976

> <r_epik_State_Penalty>
-0

> <r_epik_Charging_Adjusted_Penalty>
0

> <i_epik_Tot_Q>
0

> <i_epik_Tot_abs_Q>
0

> <r_epik_Metal_State_Penalty>
-0

> <b_epik_Metal_Only>
0

> <s_epik_Chemistry_Notes>
This compound contains an acetal/aminal-like group ( X-CH(R)-Y where X, Y are N, S, or O) that may be acid/base labile, releasing an aldehyde.

> <s_lp_Force_Field>
OPLS_2005

> <r_lp_Energy>
53.2153

> <b_lp_Chiralities_Consistent>
1

> <s_lp_Variant>
AV-unprocessed.smi:109-18

> <Gold.Version>
5.8.1

> <Gold.Id.Protein>
6NUR|6NUR_protein|mol2

> <Gold.PLP.Fitness>
51.9940

> <Gold.PLP.PLP>
-47.0530

> <Gold.PLP.part.hbond>
-5.0492

> <Gold.PLP.part.metal>
0.0000

> <Gold.PLP.part.buried>
-5.8105

> <Gold.PLP.part.nonpolar>
-34.9875

> <Gold.PLP.part.repulsive>
0.0805

> <Gold.PLP.ligand.clash>
0.0000

> <Gold.PLP.ligand.torsion>
2.2115

> <Gold.PLP.Chemscore.Hbond>
2.5416

> <Gold.PLP.Chemscore.CHOScore>
0.5243

> <Gold.PLP.Chemscore.Metal>
0.0000

> <Gold.Chemscore.Hbonds>
donor molecule, donor type, donor heavy atom, donor atom, acceptor molecule, acceptor atom, score
      L1  H     1    34       P1  7957  0.40
      P1  H  6896  6908       L1    23  1.00
      P1  H  7989  7998       L1     1  0.13
      P1  H  8011  8017       L1     1  1.00
      L1  C     8    41       P1  7948  0.52

> <Gold.PLP.Chemscore.Internal.Correction>
0.1663

> <Gold.Rescore>
     Score         DG    S(hbond)    S(metal)    S(lipo)     H(rot)  DE(clash)    DE(int)     intcor
      8.24     -11.46       2.21        0.00     107.78       5.47       0.04       3.18       ----

> <Gold.Chemscore.Fitness>
8.2429

> <Gold.Chemscore.DG>
-11.4640

> <Gold.Chemscore.ZeroCoef>
-5.4800

> <Gold.Chemscore.Hbond>
2.2059

> <Gold.Chemscore.Metal>
0.0000

> <Gold.Chemscore.Lipo>
107.7762

> <Gold.Chemscore.Internal_Hbond>
0.0000

> <Gold.Chemscore.DEClash>
0.0440

> <Gold.Chemscore.DEInternal>
3.1771

> <Gold.Chemscore.Rot>
5.4662

> <Gold.Chemscore.Internal.Correction>
   9.000000E+99

> <Gold.Chemscore.Hbonds>
donor molecule, donor type, donor heavy atom, donor atom, acceptor molecule, acceptor atom, score
      L1  H     1    34       P1  7957  0.38
      P1  H  6896  6908       L1    23  0.99
      P1  H  8011  8017       L1     1  0.79

> <Gold.Chemscore.Hbond.Weighted>
-7.3677

> <Gold.Chemscore.Metal.Weighted>
-0.0000

> <Gold.Chemscore.Lipo.Weighted>
-12.6098

> <Gold.Chemscore.Internal_Hbond.Weighted>
0.0000

> <Gold.Chemscore.DEClash.Weighted>
0.0440

> <Gold.Chemscore.DEInternal.Weighted>
3.1771

> <Gold.Chemscore.Rot.Weighted>
13.9935

> <Gold.Chemscore.Internal.Correction.Weighted>
   9.000000E+99

> <Gold.Protein.RotatedTorsions>
[ 6907 6896 6895 6894 ] final  121.06 input  -60.11 | X-H torsion
[ 7974 7965 7964 7962 ] final  150.37 input  175.53 | X-H torsion
[ 8008 7997 7996 7995 ] final  152.88 input   59.86 | X-H torsion
[ 10167 10162 10161 10158 ] final  107.82 input  -65.29 | X-H torsion
[ 10718 10713 10712 10709 ] final  -46.24 input   66.30 | X-H torsion
[ 10763 10752 10751 10750 ] final   13.92 input  -60.55 | X-H torsion
[ 11005 11000 10999 10996 ] final -123.61 input  -57.11 | X-H torsion

> <Gold.Protein.ActiveResidues>
 VAL166  LYS551  ARG553  GLY616  TRP617  ASP618  TYR619  PRO620  LYS621  CYS622 
 ASP623  PHE694  ASN695  SER759  ASP760  ASP761  ALA762  ILE779  LEU786  VAL792 
 PHE793  MET794  SER795  GLU796  ALA797  LYS798  CYS799  TRP800  GLU811  SER814 

> <Gold.Protein.RotatedAtoms>
  152.4351  133.7346  159.6606 H   0  0  0  0  0  0  0  0  0  0  0  0  # atno 6907 bound_to 6896
  150.8233  133.8204  159.3135 H   0  0  0  0  0  0  0  0  0  0  0  0  # atno 6908 bound_to 6896
  151.5879  135.1057  160.0084 H   0  0  0  0  0  0  0  0  0  0  0  0  # atno 6909 bound_to 6896
  144.8369  139.6400  143.6034 H   0  0  0  0  0  0  0  0  0  0  0  0  # atno 7974 bound_to 7965
  156.2608  140.2009  156.6402 H   0  0  0  0  0  0  0  0  0  0  0  0  # atno 8008 bound_to 7997
  154.6615  140.0560  157.0092 H   0  0  0  0  0  0  0  0  0  0  0  0  # atno 8009 bound_to 7997
  155.1269  140.3230  155.4486 H   0  0  0  0  0  0  0  0  0  0  0  0  # atno 8010 bound_to 7997
  139.6896  144.7109  151.1371 H   0  0  0  0  0  0  0  0  0  0  0  0  # atno 10167 bound_to 10162
  156.2202  130.4166  149.9002 H   0  0  0  0  0  0  0  0  0  0  0  0  # atno 10718 bound_to 10713
  153.1673  135.6806  153.8657 H   0  0  0  0  0  0  0  0  0  0  0  0  # atno 10763 bound_to 10752
  153.8033  135.3153  155.3394 H   0  0  0  0  0  0  0  0  0  0  0  0  # atno 10764 bound_to 10752
  154.7974  135.4799  154.0284 H   0  0  0  0  0  0  0  0  0  0  0  0  # atno 10765 bound_to 10752
  140.9905  134.0545  157.3660 H   0  0  0  0  0  0  0  0  0  0  0  0  # atno 11005 bound_to 11000
  146.2666  139.6535  142.9325 LP  0  0  0  0  0  0  0  0  0  0  0  0  # atno 17320 bound_to 7965
  145.4776  141.0437  143.2664 LP  0  0  0  0  0  0  0  0  0  0  0  0  # atno 17321 bound_to 7965
  140.7678  143.5579  150.9132 LP  0  0  0  0  0  0  0  0  0  0  0  0  # atno 17342 bound_to 10162
  139.9255  143.6555  152.3088 LP  0  0  0  0  0  0  0  0  0  0  0  0  # atno 17343 bound_to 10162
  156.6651  130.8797  151.3553 LP  0  0  0  0  0  0  0  0  0  0  0  0  # atno 17370 bound_to 10713
  157.7084  130.9411  150.1006 LP  0  0  0  0  0  0  0  0  0  0  0  0  # atno 17371 bound_to 10713
  139.8990  135.0157  156.7176 LP  0  0  0  0  0  0  0  0  0  0  0  0  # atno 17394 bound_to 11000
  140.7047  133.9275  155.8046 LP  0  0  0  0  0  0  0  0  0  0  0  0  # atno 17395 bound_to 11000

$$$$
