AV-unprocessed.smi:2830|AV-procd|sdf|10906|dock6
  -GOLD-   2272015353D 1   1.00000     0.00000
 Structure written by MMmdl.
 28 28  0  0  0  0  0  0  0  0  1 V2000
  152.8429  142.4455  159.3469 C   0  0  0  0  0  0  0  0  0  0  0  0
  152.5846  143.6112  158.5842 O   0  0  0  0  0  0  0  0  0  0  0  0
  151.2835  144.1333  158.8088 C   0  0  0  0  0  0  0  0  0  0  0  0
  150.2215  143.1139  158.3555 C   0  0  2  0  0  0  0  0  0  0  0  0
  150.2716  142.9722  156.9012 N   0  0  0  0  0  0  0  0  0  0  0  0
  150.5062  141.7345  156.2820 C   0  0  0  0  0  0  0  0  0  0  0  0
  151.3368  140.8026  156.9396 C   0  0  0  0  0  0  0  0  0  0  0  0
  151.5753  139.5548  156.3313 C   0  0  0  0  0  0  0  0  0  0  0  0
  150.9735  139.2808  155.0876 C   0  0  0  0  0  0  0  0  0  0  0  0
  151.1871  138.0080  154.4208 C   0  0  0  0  0  0  0  0  0  0  0  0
  151.3571  136.9943  153.8896 N   0  0  0  0  0  0  0  0  0  0  0  0
  150.1576  140.2728  154.5073 C   0  0  0  0  0  0  0  0  0  0  0  0
  149.9253  141.4703  155.0866 N   0  0  0  0  0  0  0  0  0  0  0  0
  148.8332  143.5301  158.8701 C   0  0  0  0  0  0  0  0  0  0  0  0
  147.8582  143.6432  157.9647 N   0  0  0  0  0  0  0  0  0  0  0  0
  148.6394  143.7344  160.0676 O   0  0  0  0  0  0  0  0  0  0  0  0
  153.8529  142.0906  159.1425 H   0  0  0  0  0  0  0  0  0  0  0  0
  152.1471  141.6453  159.0917 H   0  0  0  0  0  0  0  0  0  0  0  0
  152.7681  142.6485  160.4160 H   0  0  0  0  0  0  0  0  0  0  0  0
  151.1499  144.3895  159.8618 H   0  0  0  0  0  0  0  0  0  0  0  0
  151.1743  145.0573  158.2383 H   0  0  0  0  0  0  0  0  0  0  0  0
  150.4899  142.1527  158.7974 H   0  0  0  0  0  0  0  0  0  0  0  0
  149.8727  143.7163  156.3477 H   0  0  0  0  0  0  0  0  0  0  0  0
  151.7869  141.0369  157.8935 H   0  0  0  0  0  0  0  0  0  0  0  0
  152.2089  138.8260  156.8159 H   0  0  0  0  0  0  0  0  0  0  0  0
  149.6752  140.1069  153.5546 H   0  0  0  0  0  0  0  0  0  0  0  0
  146.9307  143.9167  158.2554 H   0  0  0  0  0  0  0  0  0  0  0  0
  148.0535  143.4573  156.9917 H   0  0  0  0  0  0  0  0  0  0  0  0
  1  2  1  0  0  0  0
  1 17  1  0  0  0  0
  1 18  1  0  0  0  0
  1 19  1  0  0  0  0
  2  3  1  0  0  0  0
  3  4  1  0  0  0  0
  3 20  1  0  0  0  0
  3 21  1  0  0  0  0
  4  5  1  0  0  0  0
  4 14  1  0  0  0  0
  4 22  1  0  0  0  0
  5  6  1  0  0  0  0
  5 23  1  0  0  0  0
  6 13  1  0  0  0  0
  6  7  2  0  0  0  0
  7  8  1  0  0  0  0
  7 24  1  0  0  0  0
  8  9  2  0  0  0  0
  8 25  1  0  0  0  0
  9 10  1  0  0  0  0
  9 12  1  0  0  0  0
 10 11  3  0  0  0  0
 12 13  2  0  0  0  0
 12 26  1  0  0  0  0
 14 15  1  0  0  0  0
 14 16  2  0  0  0  0
 15 27  1  0  0  0  0
 15 28  1  0  0  0  0
M  END
> <s_m_source_file>
AV-unprocessed.smi

> <i_m_source_file_index>
2830

> <i_lp_mmshare_version>
43012

> <i_f3d_flags>
0

> <s_epik_input>
W0NIM11PW0NIMl1bQ0BASF0oQyg9TylbTkgyXSlbTkhdYzFbY0hdW2NIXWMoQyNOKVtjSF1uMQ==

> <s_epik_cmdline>
J2VwaWtfcHl0aG9uJywgJy1waCcsICc3LjAnLCAnLXRuJywgJzgnLCAnLW1hJywgJzIwMCcsICctbWV0YWxfYmluZGluZycsICctaW1hZScsICc8aW5maWxlLm1hZT4nLCAnLW9tYWUnLCAnPG91dGZpbGUubWFlPic=

> <r_lp_tautomer_probability>
1

> <r_epik_Ionization_Penalty>
4.37908e-06

> <r_epik_Ionization_Penalty_Charging>
0

> <r_epik_Ionization_Penalty_Neutral>
4.37908e-06

> <r_epik_State_Penalty>
-0

> <r_epik_Charging_Adjusted_Penalty>
0

> <i_epik_Tot_Q>
0

> <i_epik_Tot_abs_Q>
0

> <r_epik_Metal_State_Penalty>
-0

> <b_epik_Metal_Only>
0

> <s_lp_Force_Field>
OPLS_2005

> <r_lp_Energy>
0.179783

> <b_lp_Chiralities_Consistent>
1

> <s_lp_Variant>
AV-unprocessed.smi:2830-1

> <Gold.Version>
5.8.1

> <Gold.Id.Protein>
6NUR|6NUR_protein|mol2

> <Gold.PLP.Fitness>
39.3118

> <Gold.PLP.PLP>
-28.1488

> <Gold.PLP.part.hbond>
-6.0000

> <Gold.PLP.part.metal>
0.0000

> <Gold.PLP.part.buried>
1.5172

> <Gold.PLP.part.nonpolar>
-24.6632

> <Gold.PLP.part.repulsive>
1.7350

> <Gold.PLP.ligand.clash>
0.0000

> <Gold.PLP.ligand.torsion>
0.3225

> <Gold.PLP.Chemscore.Hbond>
2.9609

> <Gold.PLP.Chemscore.CHOScore>
0.9625

> <Gold.PLP.Chemscore.Metal>
0.0000

> <Gold.Chemscore.Hbonds>
donor molecule, donor type, donor heavy atom, donor atom, acceptor molecule, acceptor atom, score
      L1  H     5    23       P1  8028  1.00
      L1  H    15    28       P1  8028  0.26
      P1  H  6933  6944       L1    16  0.75
      P1  H 10752 10764       L1    11  0.83
      L1  C    12    26       P1  7957  1.00

> <Gold.PLP.Chemscore.Internal.Correction>
0.0375

> <Gold.Rescore>
     Score         DG    S(hbond)    S(metal)    S(lipo)     H(rot)  DE(clash)    DE(int)     intcor
     14.54     -14.99       2.88        0.00      49.91       2.32       0.14       0.30       ----

> <Gold.Chemscore.Fitness>
14.5445

> <Gold.Chemscore.DG>
-14.9899

> <Gold.Chemscore.ZeroCoef>
-5.4800

> <Gold.Chemscore.Hbond>
2.8767

> <Gold.Chemscore.Metal>
0.0000

> <Gold.Chemscore.Lipo>
49.9144

> <Gold.Chemscore.Internal_Hbond>
0.0000

> <Gold.Chemscore.DEClash>
0.1422

> <Gold.Chemscore.DEInternal>
0.3032

> <Gold.Chemscore.Rot>
2.3197

> <Gold.Chemscore.Internal.Correction>
   9.000000E+99

> <Gold.Chemscore.Hbonds>
donor molecule, donor type, donor heavy atom, donor atom, acceptor molecule, acceptor atom, score
      L1  H     5    23       P1  8028  0.96
      L1  H    15    28       P1  8028  0.01
      P1  H  6933  6944       L1    16  0.73
      P1  H 10752 10764       L1    11  0.82

> <Gold.Chemscore.Hbond.Weighted>
-9.6083

> <Gold.Chemscore.Metal.Weighted>
-0.0000

> <Gold.Chemscore.Lipo.Weighted>
-5.8400

> <Gold.Chemscore.Internal_Hbond.Weighted>
0.0000

> <Gold.Chemscore.DEClash.Weighted>
0.1422

> <Gold.Chemscore.DEInternal.Weighted>
0.3032

> <Gold.Chemscore.Rot.Weighted>
5.9384

> <Gold.Chemscore.Internal.Correction.Weighted>
   9.000000E+99

> <Gold.Protein.RotatedTorsions>
[ 6907 6896 6895 6894 ] final  140.36 input  -60.11 | X-H torsion
[ 7974 7965 7964 7962 ] final   38.53 input  175.53 | X-H torsion
[ 8008 7997 7996 7995 ] final  -29.02 input   59.86 | X-H torsion
[ 10167 10162 10161 10158 ] final  157.92 input  -65.29 | X-H torsion
[ 10718 10713 10712 10709 ] final   25.84 input   66.30 | X-H torsion
[ 10763 10752 10751 10750 ] final  -79.99 input  -60.55 | X-H torsion
[ 11005 11000 10999 10996 ] final  -44.12 input  -57.11 | X-H torsion

> <Gold.Protein.ActiveResidues>
 VAL166  LYS551  ARG553  GLY616  TRP617  ASP618  TYR619  PRO620  LYS621  CYS622 
 ASP623  PHE694  ASN695  SER759  ASP760  ASP761  ALA762  ILE779  LEU786  VAL792 
 PHE793  MET794  SER795  GLU796  ALA797  LYS798  CYS799  TRP800  GLU811  SER814 

> <Gold.Protein.RotatedAtoms>
  152.2440  133.5159  159.5286 H   0  0  0  0  0  0  0  0  0  0  0  0  # atno 6907 bound_to 6896
  150.7073  134.1050  159.3988 H   0  0  0  0  0  0  0  0  0  0  0  0  # atno 6908 bound_to 6896
  151.8971  135.0393  160.0554 H   0  0  0  0  0  0  0  0  0  0  0  0  # atno 6909 bound_to 6896
  146.1055  139.5761  142.9386 H   0  0  0  0  0  0  0  0  0  0  0  0  # atno 7974 bound_to 7965
  154.4307  140.1829  156.1181 H   0  0  0  0  0  0  0  0  0  0  0  0  # atno 8008 bound_to 7997
  156.0165  140.3345  155.6968 H   0  0  0  0  0  0  0  0  0  0  0  0  # atno 8009 bound_to 7997
  155.6038  140.0643  157.2716 H   0  0  0  0  0  0  0  0  0  0  0  0  # atno 8010 bound_to 7997
  139.4824  144.4873  151.8359 H   0  0  0  0  0  0  0  0  0  0  0  0  # atno 10167 bound_to 10162
  157.1987  130.6880  149.6179 H   0  0  0  0  0  0  0  0  0  0  0  0  # atno 10718 bound_to 10713
  154.5455  135.5676  153.6877 H   0  0  0  0  0  0  0  0  0  0  0  0  # atno 10763 bound_to 10752
  152.9975  135.6238  154.2444 H   0  0  0  0  0  0  0  0  0  0  0  0  # atno 10764 bound_to 10752
  154.2377  135.2863  155.2846 H   0  0  0  0  0  0  0  0  0  0  0  0  # atno 10765 bound_to 10752
  141.0429  133.6772  156.2828 H   0  0  0  0  0  0  0  0  0  0  0  0  # atno 11005 bound_to 11000
  145.5770  141.0387  143.2143 LP  0  0  0  0  0  0  0  0  0  0  0  0  # atno 17320 bound_to 7965
  144.7467  139.7301  143.7289 LP  0  0  0  0  0  0  0  0  0  0  0  0  # atno 17321 bound_to 7965
  140.4354  144.2059  150.5889 LP  0  0  0  0  0  0  0  0  0  0  0  0  # atno 17342 bound_to 10162
  140.4737  143.2403  151.9053 LP  0  0  0  0  0  0  0  0  0  0  0  0  # atno 17343 bound_to 10162
  155.9703  130.4590  150.6020 LP  0  0  0  0  0  0  0  0  0  0  0  0  # atno 17370 bound_to 10713
  157.3788  131.0777  151.1494 LP  0  0  0  0  0  0  0  0  0  0  0  0  # atno 17371 bound_to 10713
  140.6200  134.5371  157.5546 LP  0  0  0  0  0  0  0  0  0  0  0  0  # atno 17394 bound_to 11000
  139.9290  134.8001  156.0986 LP  0  0  0  0  0  0  0  0  0  0  0  0  # atno 17395 bound_to 11000

$$$$
