AV-unprocessed.smi:2308|AV-procd|sdf|9252|dock2
  -GOLD-   2272012473D 1   1.00000     0.00000
 Structure written by MMmdl.
 33 34  0  0  0  0  0  0  0  0  1 V2000
  151.1520  137.9762  154.3026 C   0  0  0  0  0  0  0  0  0  0  0  0
  150.1362  139.0904  154.4455 C   0  0  0  0  0  0  0  0  0  0  0  0
  148.8498  138.9753  153.8829 C   0  0  0  0  0  0  0  0  0  0  0  0
  147.9560  140.0486  154.0479 C   0  0  0  0  0  0  0  0  0  0  0  0
  148.3822  141.1846  154.7626 C   0  0  0  0  0  0  0  0  0  0  0  0
  149.6908  141.2206  155.2950 C   0  0  0  0  0  0  0  0  0  0  0  0
  150.0240  142.4103  155.9958 N   0  0  0  0  0  0  0  0  0  0  0  0
  150.8972  142.5623  157.0072 C   0  0  0  0  0  0  0  0  0  0  0  0
  151.5645  141.6592  157.5133 O   0  0  0  0  0  0  0  0  0  0  0  0
  150.9554  143.8428  157.4082 N   0  0  0  0  0  0  0  0  0  0  0  0
  151.7931  144.3800  158.4834 C   0  0  0  0  0  0  0  0  0  0  0  0
  153.1110  144.9084  157.9072 C   0  0  0  0  0  0  0  0  0  0  0  0
  150.9959  145.2767  159.4552 C   0  0  0  0  0  0  0  0  0  0  0  0
  151.6888  144.5491  160.6101 C   0  0  0  0  0  0  0  0  0  0  0  0
  151.8738  143.3731  159.6468 C   0  0  0  0  0  0  0  0  0  0  0  0
  150.5452  140.1800  155.1305 N   0  0  0  0  0  0  0  0  0  0  0  0
  150.6854  137.0613  153.9363 H   0  0  0  0  0  0  0  0  0  0  0  0
  151.6185  137.7567  155.2636 H   0  0  0  0  0  0  0  0  0  0  0  0
  151.9331  138.2670  153.6000 H   0  0  0  0  0  0  0  0  0  0  0  0
  148.5539  138.0905  153.3383 H   0  0  0  0  0  0  0  0  0  0  0  0
  146.9602  140.0026  153.6325 H   0  0  0  0  0  0  0  0  0  0  0  0
  147.7078  142.0179  154.8973 H   0  0  0  0  0  0  0  0  0  0  0  0
  149.5448  143.2434  155.6883 H   0  0  0  0  0  0  0  0  0  0  0  0
  150.3681  144.5086  156.9278 H   0  0  0  0  0  0  0  0  0  0  0  0
  153.7770  145.2649  158.6932 H   0  0  0  0  0  0  0  0  0  0  0  0
  152.9483  145.7424  157.2242 H   0  0  0  0  0  0  0  0  0  0  0  0
  153.6446  144.1317  157.3588 H   0  0  0  0  0  0  0  0  0  0  0  0
  151.2253  146.3407  159.3875 H   0  0  0  0  0  0  0  0  0  0  0  0
  149.9185  145.0994  159.4390 H   0  0  0  0  0  0  0  0  0  0  0  0
  152.6305  145.0140  160.9062 H   0  0  0  0  0  0  0  0  0  0  0  0
  151.0500  144.3407  161.4689 H   0  0  0  0  0  0  0  0  0  0  0  0
  151.0379  142.6713  159.6832 H   0  0  0  0  0  0  0  0  0  0  0  0
  152.8301  142.8579  159.7426 H   0  0  0  0  0  0  0  0  0  0  0  0
  1  2  1  0  0  0  0
  1 17  1  0  0  0  0
  1 18  1  0  0  0  0
  1 19  1  0  0  0  0
  2 16  1  0  0  0  0
  2  3  2  0  0  0  0
  3  4  1  0  0  0  0
  3 20  1  0  0  0  0
  4  5  2  0  0  0  0
  4 21  1  0  0  0  0
  5  6  1  0  0  0  0
  5 22  1  0  0  0  0
  6  7  1  0  0  0  0
  6 16  2  0  0  0  0
  7  8  1  0  0  0  0
  7 23  1  0  0  0  0
  8  9  2  0  0  0  0
  8 10  1  0  0  0  0
 10 11  1  0  0  0  0
 10 24  1  0  0  0  0
 11 15  1  0  0  0  0
 11 12  1  0  0  0  0
 11 13  1  0  0  0  0
 12 25  1  0  0  0  0
 12 26  1  0  0  0  0
 12 27  1  0  0  0  0
 13 14  1  0  0  0  0
 13 28  1  0  0  0  0
 13 29  1  0  0  0  0
 14 15  1  0  0  0  0
 14 30  1  0  0  0  0
 14 31  1  0  0  0  0
 15 32  1  0  0  0  0
 15 33  1  0  0  0  0
M  END
> <s_m_source_file>
AV-unprocessed.smi

> <i_m_source_file_index>
2308

> <i_lp_mmshare_version>
43012

> <i_f3d_flags>
0

> <s_epik_input>
W0NIM11jMVtjSF1bY0hdW2NIXWMobjEpW05IXUMoPU8pW05IXUMyKFtDSDNdKVtDSDJdW0NIMl1bQ0gyXTI=

> <s_epik_cmdline>
J2VwaWtfcHl0aG9uJywgJy1waCcsICc3LjAnLCAnLXRuJywgJzgnLCAnLW1hJywgJzIwMCcsICctbWV0YWxfYmluZGluZycsICctaW1hZScsICc8aW5maWxlLm1hZT4nLCAnLW9tYWUnLCAnPG91dGZpbGUubWFlPic=

> <r_lp_tautomer_probability>
1

> <r_epik_Ionization_Penalty>
9.50392e-05

> <r_epik_Ionization_Penalty_Charging>
0

> <r_epik_Ionization_Penalty_Neutral>
9.50392e-05

> <r_epik_State_Penalty>
-0

> <r_epik_Charging_Adjusted_Penalty>
0

> <i_epik_Tot_Q>
0

> <i_epik_Tot_abs_Q>
0

> <r_epik_Metal_State_Penalty>
-0

> <b_epik_Metal_Only>
0

> <s_lp_Force_Field>
OPLS_2005

> <r_lp_Energy>
16.4501

> <b_lp_Chiralities_Consistent>
1

> <s_lp_Variant>
AV-unprocessed.smi:2308-1

> <Gold.Version>
5.8.1

> <Gold.Id.Protein>
6NUR|6NUR_protein|mol2

> <Gold.PLP.Fitness>
45.1404

> <Gold.PLP.PLP>
-38.3583

> <Gold.PLP.part.hbond>
-3.0000

> <Gold.PLP.part.metal>
0.0000

> <Gold.PLP.part.buried>
-3.8722

> <Gold.PLP.part.nonpolar>
-31.9563

> <Gold.PLP.part.repulsive>
0.2229

> <Gold.PLP.ligand.clash>
0.0000

> <Gold.PLP.ligand.torsion>
0.5729

> <Gold.PLP.Chemscore.Hbond>
2.5440

> <Gold.PLP.Chemscore.CHOScore>
0.0000

> <Gold.PLP.Chemscore.Metal>
0.0000

> <Gold.Chemscore.Hbonds>
donor molecule, donor type, donor heavy atom, donor atom, acceptor molecule, acceptor atom, score
      L1  H     7    23       P1  8028  1.00
      L1  H    10    24       P1  8028  0.93
      P1  H  7989  7998       L1    16  0.50

> <Gold.PLP.Chemscore.Internal.Correction>
0.2960

> <Gold.Rescore>
     Score         DG    S(hbond)    S(metal)    S(lipo)     H(rot)  DE(clash)    DE(int)     intcor
     17.34     -20.46       1.89        0.00      96.00       1.00       0.10       3.02       ----

> <Gold.Chemscore.Fitness>
17.3350

> <Gold.Chemscore.DG>
-20.4555

> <Gold.Chemscore.ZeroCoef>
-5.4800

> <Gold.Chemscore.Hbond>
1.8874

> <Gold.Chemscore.Metal>
0.0000

> <Gold.Chemscore.Lipo>
95.9957

> <Gold.Chemscore.Internal_Hbond>
0.0000

> <Gold.Chemscore.DEClash>
0.0968

> <Gold.Chemscore.DEInternal>
3.0236

> <Gold.Chemscore.Rot>
1.0000

> <Gold.Chemscore.Internal.Correction>
   9.000000E+99

> <Gold.Chemscore.Hbonds>
donor molecule, donor type, donor heavy atom, donor atom, acceptor molecule, acceptor atom, score
      L1  H     7    23       P1  8028  0.99
      L1  H    10    24       P1  8028  0.74
      P1  H  7989  7998       L1    16  0.01

> <Gold.Chemscore.Hbond.Weighted>
-6.3040

> <Gold.Chemscore.Metal.Weighted>
-0.0000

> <Gold.Chemscore.Lipo.Weighted>
-11.2315

> <Gold.Chemscore.Internal_Hbond.Weighted>
0.0000

> <Gold.Chemscore.DEClash.Weighted>
0.0968

> <Gold.Chemscore.DEInternal.Weighted>
3.0236

> <Gold.Chemscore.Rot.Weighted>
2.5600

> <Gold.Chemscore.Internal.Correction.Weighted>
   9.000000E+99

> <Gold.Protein.RotatedTorsions>
[ 6907 6896 6895 6894 ] final   84.55 input  -60.11 | X-H torsion
[ 7974 7965 7964 7962 ] final   64.64 input  175.53 | X-H torsion
[ 8008 7997 7996 7995 ] final  -60.60 input   59.86 | X-H torsion
[ 10167 10162 10161 10158 ] final   71.98 input  -65.29 | X-H torsion
[ 10718 10713 10712 10709 ] final   97.54 input   66.30 | X-H torsion
[ 10763 10752 10751 10750 ] final   58.36 input  -60.55 | X-H torsion
[ 11005 11000 10999 10996 ] final -153.59 input  -57.11 | X-H torsion

> <Gold.Protein.ActiveResidues>
 VAL166  LYS551  ARG553  GLY616  TRP617  ASP618  TYR619  PRO620  LYS621  CYS622 
 ASP623  PHE694  ASN695  SER759  ASP760  ASP761  ALA762  ILE779  LEU786  VAL792 
 PHE793  MET794  SER795  GLU796  ALA797  LYS798  CYS799  TRP800  GLU811  SER814 

> <Gold.Protein.RotatedAtoms>
  152.5355  134.2723  159.8975 H   0  0  0  0  0  0  0  0  0  0  0  0  # atno 6907 bound_to 6896
  151.2679  133.4263  159.2627 H   0  0  0  0  0  0  0  0  0  0  0  0  # atno 6908 bound_to 6896
  151.0394  134.9611  159.8210 H   0  0  0  0  0  0  0  0  0  0  0  0  # atno 6909 bound_to 6896
  145.8478  139.3235  143.0893 H   0  0  0  0  0  0  0  0  0  0  0  0  # atno 7974 bound_to 7965
  154.4406  140.1036  156.6299 H   0  0  0  0  0  0  0  0  0  0  0  0  # atno 8008 bound_to 7997
  155.5616  140.3487  155.4474 H   0  0  0  0  0  0  0  0  0  0  0  0  # atno 8009 bound_to 7997
  156.0455  140.1292  157.0097 H   0  0  0  0  0  0  0  0  0  0  0  0  # atno 8010 bound_to 7997
  140.0402  144.5395  150.7440 H   0  0  0  0  0  0  0  0  0  0  0  0  # atno 10167 bound_to 10162
  157.6911  131.0612  150.4660 H   0  0  0  0  0  0  0  0  0  0  0  0  # atno 10718 bound_to 10713
  152.9869  135.5609  154.5540 H   0  0  0  0  0  0  0  0  0  0  0  0  # atno 10763 bound_to 10752
  154.4972  135.2795  155.1452 H   0  0  0  0  0  0  0  0  0  0  0  0  # atno 10764 bound_to 10752
  154.2897  135.6328  153.5433 H   0  0  0  0  0  0  0  0  0  0  0  0  # atno 10765 bound_to 10752
  140.7065  134.3880  157.5203 H   0  0  0  0  0  0  0  0  0  0  0  0  # atno 11005 bound_to 11000
  145.9392  140.8992  143.0316 LP  0  0  0  0  0  0  0  0  0  0  0  0  # atno 17320 bound_to 7965
  144.6730  140.1525  143.7429 LP  0  0  0  0  0  0  0  0  0  0  0  0  # atno 17321 bound_to 7965
  140.7263  143.2640  151.4107 LP  0  0  0  0  0  0  0  0  0  0  0  0  # atno 17342 bound_to 10162
  139.6019  144.1278  152.2207 LP  0  0  0  0  0  0  0  0  0  0  0  0  # atno 17343 bound_to 10162
  156.5001  130.4115  149.6358 LP  0  0  0  0  0  0  0  0  0  0  0  0  # atno 17370 bound_to 10713
  156.3336  130.7345  151.2278 LP  0  0  0  0  0  0  0  0  0  0  0  0  # atno 17371 bound_to 10713
  139.8883  134.8860  156.2483 LP  0  0  0  0  0  0  0  0  0  0  0  0  # atno 17394 bound_to 11000
  141.0120  133.7090  156.1127 LP  0  0  0  0  0  0  0  0  0  0  0  0  # atno 17395 bound_to 11000

$$$$
