AV-unprocessed.smi:99|AV-procd|sdf|872|dock10
  -GOLD-   2262017333D 1   1.00000     0.00000
 Structure written by MMmdl.
 53 56  0  0  0  0  0  0  0  0  1 V2000
  147.6995  131.0676  153.2295 O   0  0  0  0  0  0  0  0  0  0  0  0
  147.4209  132.1686  152.7499 C   0  0  0  0  0  0  0  0  0  0  0  0
  148.1773  133.2700  152.9234 O   0  0  0  0  0  0  0  0  0  0  0  0
  149.2918  133.2336  153.7989 C   0  0  0  0  0  0  0  0  0  0  0  0
  148.8010  132.9592  155.2342 C   0  0  1  0  0  0  0  0  0  0  0  0
  148.7710  131.5524  155.4362 O   0  0  0  0  0  0  0  0  0  0  0  0
  150.0139  131.1125  155.8916 C   0  0  2  0  0  0  0  0  0  0  0  0
  149.7708  130.0364  156.9289 N   0  0  0  0  0  0  0  0  0  0  0  0
  148.9367  130.2799  158.0114 C   0  0  0  0  0  0  0  0  0  0  0  0
  148.6727  129.3552  158.9645 C   0  0  0  0  0  0  0  0  0  0  0  0
  149.2705  128.0260  158.8907 C   0  0  0  0  0  0  0  0  0  0  0  0
  149.0894  127.1212  159.7027 O   0  0  0  0  0  0  0  0  0  0  0  0
  150.1063  127.8258  157.7878 N   0  0  0  0  0  0  0  0  0  0  0  0
  150.3883  128.7722  156.8006 C   0  0  0  0  0  0  0  0  0  0  0  0
  151.1520  128.4872  155.8791 O   0  0  0  0  0  0  0  0  0  0  0  0
  150.7840  132.3346  156.4431 C   0  0  2  0  0  0  0  0  0  0  0  0
  151.2397  132.1939  157.7769 O   0  0  0  0  0  0  0  0  0  0  0  0
  149.7478  133.4490  156.3385 C   0  0  1  0  0  0  0  0  0  0  0  0
  150.3380  134.6948  155.9834 O   0  0  0  0  0  0  0  0  0  0  0  0
  150.4170  135.7067  156.8729 C   0  0  0  0  0  0  0  0  0  0  0  0
  150.0441  135.6184  158.0442 O   0  0  0  0  0  0  0  0  0  0  0  0
  151.0115  136.9434  156.2895 C   0  0  0  0  0  0  0  0  0  0  0  0
  151.5726  137.9152  157.1505 C   0  0  0  0  0  0  0  0  0  0  0  0
  152.1428  139.0925  156.6287 C   0  0  0  0  0  0  0  0  0  0  0  0
  152.1583  139.3128  155.2394 C   0  0  0  0  0  0  0  0  0  0  0  0
  151.6025  138.3544  154.3721 C   0  0  0  0  0  0  0  0  0  0  0  0
  151.0323  137.1760  154.8919 C   0  0  0  0  0  0  0  0  0  0  0  0
  146.2101  132.4211  151.9166 C   0  0  0  0  0  0  0  0  0  0  0  0
  145.9685  133.7241  151.4218 C   0  0  0  0  0  0  0  0  0  0  0  0
  144.8344  133.9921  150.6308 C   0  0  0  0  0  0  0  0  0  0  0  0
  143.9274  132.9608  150.3252 C   0  0  0  0  0  0  0  0  0  0  0  0
  144.1562  131.6604  150.8116 C   0  0  0  0  0  0  0  0  0  0  0  0
  145.2903  131.3901  151.6021 C   0  0  0  0  0  0  0  0  0  0  0  0
  150.5459  126.9211  157.7001 H   0  0  0  0  0  0  0  0  0  0  0  0
  150.0063  132.4755  153.4754 H   0  0  0  0  0  0  0  0  0  0  0  0
  149.7957  134.1997  153.7512 H   0  0  0  0  0  0  0  0  0  0  0  0
  147.8060  133.3851  155.3690 H   0  0  0  0  0  0  0  0  0  0  0  0
  150.5270  130.6490  155.0481 H   0  0  0  0  0  0  0  0  0  0  0  0
  148.4777  131.2534  158.1091 H   0  0  0  0  0  0  0  0  0  0  0  0
  148.0165  129.6006  159.7868 H   0  0  0  0  0  0  0  0  0  0  0  0
  151.6304  132.5263  155.7818 H   0  0  0  0  0  0  0  0  0  0  0  0
  150.8366  131.4265  158.1537 H   0  0  0  0  0  0  0  0  0  0  0  0
  149.1772  133.5219  157.2663 H   0  0  0  0  0  0  0  0  0  0  0  0
  151.5728  137.7682  158.2210 H   0  0  0  0  0  0  0  0  0  0  0  0
  152.5686  139.8271  157.2962 H   0  0  0  0  0  0  0  0  0  0  0  0
  152.5958  140.2157  154.8394 H   0  0  0  0  0  0  0  0  0  0  0  0
  151.6137  138.5232  153.3054 H   0  0  0  0  0  0  0  0  0  0  0  0
  150.6145  136.4614  154.1979 H   0  0  0  0  0  0  0  0  0  0  0  0
  146.6509  134.5322  151.6427 H   0  0  0  0  0  0  0  0  0  0  0  0
  144.6611  134.9907  150.2573 H   0  0  0  0  0  0  0  0  0  0  0  0
  143.0580  133.1667  149.7183 H   0  0  0  0  0  0  0  0  0  0  0  0
  143.4609  130.8677  150.5775 H   0  0  0  0  0  0  0  0  0  0  0  0
  145.4363  130.3806  151.9581 H   0  0  0  0  0  0  0  0  0  0  0  0
  1  2  2  0  0  0  0
  2  3  1  0  0  0  0
  2 28  1  0  0  0  0
  3  4  1  0  0  0  0
  4  5  1  0  0  0  0
  4 35  1  0  0  0  0
  4 36  1  0  0  0  0
  5 18  1  0  0  0  0
  5  6  1  0  0  0  0
  5 37  1  0  0  0  0
  6  7  1  0  0  0  0
  7  8  1  0  0  0  0
  7 16  1  0  0  0  0
  7 38  1  0  0  0  0
  8 14  1  0  0  0  0
  8  9  1  0  0  0  0
  9 10  2  0  0  0  0
  9 39  1  0  0  0  0
 10 11  1  0  0  0  0
 10 40  1  0  0  0  0
 11 12  2  0  0  0  0
 11 13  1  0  0  0  0
 13 34  1  0  0  0  0
 13 14  1  0  0  0  0
 14 15  2  0  0  0  0
 16 17  1  0  0  0  0
 16 18  1  0  0  0  0
 16 41  1  0  0  0  0
 17 42  1  0  0  0  0
 18 19  1  0  0  0  0
 18 43  1  0  0  0  0
 19 20  1  0  0  0  0
 20 21  2  0  0  0  0
 20 22  1  0  0  0  0
 22 27  1  0  0  0  0
 22 23  2  0  0  0  0
 23 24  1  0  0  0  0
 23 44  1  0  0  0  0
 24 25  2  0  0  0  0
 24 45  1  0  0  0  0
 25 26  1  0  0  0  0
 25 46  1  0  0  0  0
 26 27  2  0  0  0  0
 26 47  1  0  0  0  0
 27 48  1  0  0  0  0
 28 33  1  0  0  0  0
 28 29  2  0  0  0  0
 29 30  1  0  0  0  0
 29 49  1  0  0  0  0
 30 31  2  0  0  0  0
 30 50  1  0  0  0  0
 31 32  1  0  0  0  0
 31 51  1  0  0  0  0
 32 33  2  0  0  0  0
 32 52  1  0  0  0  0
 33 53  1  0  0  0  0
M  END
> <s_m_source_file>
AV-unprocessed.smi

> <i_m_source_file_index>
99

> <i_lp_mmshare_version>
43012

> <i_f3d_flags>
0

> <s_epik_input>
W2NIXTFbY0hdW2NIXVtjSF1bY0hdYzFDKD1PKU9bQ0gyXVtDQEBIXTJPW0NAQEhdKG4zW2NIXVtjSF1jKD1PKVtuSF1jMz1PKVtDQEBIXShbT0hdKVtDQEhdMk9DKD1PKWM0W2NIXVtjSF1bY0hdW2NIXVtjSF00

> <s_epik_cmdline>
J2VwaWtfcHl0aG9uJywgJy1waCcsICc3LjAnLCAnLXRuJywgJzgnLCAnLW1hJywgJzIwMCcsICctbWV0YWxfYmluZGluZycsICctaW1hZScsICc8aW5maWxlLm1hZT4nLCAnLW9tYWUnLCAnPG91dGZpbGUubWFlPic=

> <r_lp_tautomer_probability>
1

> <r_epik_Ionization_Penalty>
0.00454555

> <r_epik_Ionization_Penalty_Charging>
0.0045191

> <r_epik_Ionization_Penalty_Neutral>
2.64449e-05

> <r_epik_State_Penalty>
-0

> <r_epik_Charging_Adjusted_Penalty>
0.0045191

> <i_epik_Tot_Q>
0

> <i_epik_Tot_abs_Q>
0

> <r_epik_Metal_State_Penalty>
1.27877

> <b_epik_Metal_Only>
0

> <s_epik_Chemistry_Notes>
This compound has an ester and may undergo hydrolysis at high or low pH. This compound contains an acetal/aminal-like group ( X-CH(R)-Y where X, Y are N, S, or O) that may be acid/base labile, releasing an aldehyde.

> <s_lp_Force_Field>
OPLS_2005

> <r_lp_Energy>
42.9918

> <b_lp_Chiralities_Consistent>
1

> <s_lp_Variant>
AV-unprocessed.smi:99-8

> <Gold.Version>
5.8.1

> <Gold.Id.Protein>
6NUR|6NUR_protein|mol2

> <Gold.PLP.Fitness>
44.3242

> <Gold.PLP.PLP>
-40.8944

> <Gold.PLP.part.hbond>
-2.0000

> <Gold.PLP.part.metal>
0.0000

> <Gold.PLP.part.buried>
-6.5837

> <Gold.PLP.part.nonpolar>
-33.9261

> <Gold.PLP.part.repulsive>
0.5182

> <Gold.PLP.ligand.clash>
0.0000

> <Gold.PLP.ligand.torsion>
1.3018

> <Gold.PLP.Chemscore.Hbond>
1.8480

> <Gold.PLP.Chemscore.CHOScore>
0.0000

> <Gold.PLP.Chemscore.Metal>
0.0000

> <Gold.Chemscore.Hbonds>
donor molecule, donor type, donor heavy atom, donor atom, acceptor molecule, acceptor atom, score
      P1  H  6896  6908       L1    17  1.00
      P1  H  6896  6909       L1    21  0.88

> <Gold.PLP.Chemscore.Internal.Correction>
0.4895

> <Gold.Rescore>
     Score         DG    S(hbond)    S(metal)    S(lipo)     H(rot)  DE(clash)    DE(int)     intcor
     12.01     -15.31       1.88        0.00     100.30       3.19       0.07       3.24       ----

> <Gold.Chemscore.Fitness>
12.0056

> <Gold.Chemscore.DG>
-15.3133

> <Gold.Chemscore.ZeroCoef>
-5.4800

> <Gold.Chemscore.Hbond>
1.8759

> <Gold.Chemscore.Metal>
0.0000

> <Gold.Chemscore.Lipo>
100.2972

> <Gold.Chemscore.Internal_Hbond>
0.0000

> <Gold.Chemscore.DEClash>
0.0706

> <Gold.Chemscore.DEInternal>
3.2372

> <Gold.Chemscore.Rot>
3.1903

> <Gold.Chemscore.Internal.Correction>
   9.000000E+99

> <Gold.Chemscore.Hbonds>
donor molecule, donor type, donor heavy atom, donor atom, acceptor molecule, acceptor atom, score
      P1  H  6896  6908       L1    17  0.47
      P1  H  6896  6909       L1    21  0.86

> <Gold.Chemscore.Hbond.Weighted>
-6.2656

> <Gold.Chemscore.Metal.Weighted>
-0.0000

> <Gold.Chemscore.Lipo.Weighted>
-11.7348

> <Gold.Chemscore.Internal_Hbond.Weighted>
0.0000

> <Gold.Chemscore.DEClash.Weighted>
0.0706

> <Gold.Chemscore.DEInternal.Weighted>
3.2372

> <Gold.Chemscore.Rot.Weighted>
8.1671

> <Gold.Chemscore.Internal.Correction.Weighted>
   9.000000E+99

> <Gold.Protein.RotatedTorsions>
[ 6907 6896 6895 6894 ] final   54.57 input  -60.11 | X-H torsion
[ 7974 7965 7964 7962 ] final  125.70 input  175.53 | X-H torsion
[ 8008 7997 7996 7995 ] final -167.35 input   59.86 | X-H torsion
[ 10167 10162 10161 10158 ] final -101.12 input  -65.29 | X-H torsion
[ 10718 10713 10712 10709 ] final  -44.01 input   66.30 | X-H torsion
[ 10763 10752 10751 10750 ] final  130.56 input  -60.55 | X-H torsion
[ 11005 11000 10999 10996 ] final -162.25 input  -57.11 | X-H torsion

> <Gold.Protein.ActiveResidues>
 VAL166  LYS551  ARG553  GLY616  TRP617  ASP618  TYR619  PRO620  LYS621  CYS622 
 ASP623  PHE694  ASN695  SER759  ASP760  ASP761  ALA762  ILE779  LEU786  VAL792 
 PHE793  MET794  SER795  GLU796  ALA797  LYS798  CYS799  TRP800  GLU811  SER814 

> <Gold.Protein.RotatedAtoms>
  152.3452  134.7080  160.0252 H   0  0  0  0  0  0  0  0  0  0  0  0  # atno 6907 bound_to 6896
  151.7452  133.3319  159.3384 H   0  0  0  0  0  0  0  0  0  0  0  0  # atno 6908 bound_to 6896
  150.7505  134.6175  159.6163 H   0  0  0  0  0  0  0  0  0  0  0  0  # atno 6909 bound_to 6896
  145.0701  139.3737  143.4962 H   0  0  0  0  0  0  0  0  0  0  0  0  # atno 7974 bound_to 7965
  155.8764  140.1002  157.1515 H   0  0  0  0  0  0  0  0  0  0  0  0  # atno 8008 bound_to 7997
  154.4001  140.1337  156.4205 H   0  0  0  0  0  0  0  0  0  0  0  0  # atno 8009 bound_to 7997
  155.7692  140.3461  155.5240 H   0  0  0  0  0  0  0  0  0  0  0  0  # atno 8010 bound_to 7997
  140.2447  143.3514  152.0770 H   0  0  0  0  0  0  0  0  0  0  0  0  # atno 10167 bound_to 10162
  156.2430  130.4181  149.8738 H   0  0  0  0  0  0  0  0  0  0  0  0  # atno 10718 bound_to 10713
  153.7600  135.3197  155.3335 H   0  0  0  0  0  0  0  0  0  0  0  0  # atno 10763 bound_to 10752
  154.8233  135.4587  154.0847 H   0  0  0  0  0  0  0  0  0  0  0  0  # atno 10764 bound_to 10752
  153.2075  135.6931  153.8237 H   0  0  0  0  0  0  0  0  0  0  0  0  # atno 10765 bound_to 10752
  140.6113  134.4846  157.5215 H   0  0  0  0  0  0  0  0  0  0  0  0  # atno 11005 bound_to 11000
  146.3528  140.0441  142.8640 LP  0  0  0  0  0  0  0  0  0  0  0  0  # atno 17320 bound_to 7965
  145.1303  140.9514  143.4548 LP  0  0  0  0  0  0  0  0  0  0  0  0  # atno 17321 bound_to 7965
  139.5066  144.6816  151.5993 LP  0  0  0  0  0  0  0  0  0  0  0  0  # atno 17342 bound_to 10162
  140.6087  143.9476  150.6437 LP  0  0  0  0  0  0  0  0  0  0  0  0  # atno 17343 bound_to 10162
  156.6312  130.8666  151.3496 LP  0  0  0  0  0  0  0  0  0  0  0  0  # atno 17370 bound_to 10713
  157.7183  130.9526  150.1340 LP  0  0  0  0  0  0  0  0  0  0  0  0  # atno 17371 bound_to 10713
  139.9191  134.8186  156.1270 LP  0  0  0  0  0  0  0  0  0  0  0  0  # atno 17394 bound_to 11000
  141.0806  133.6756  156.2328 LP  0  0  0  0  0  0  0  0  0  0  0  0  # atno 17395 bound_to 11000

$$$$
