#       Name:                AV-unprocessed.smi:20
#       Creating user name   scv26
#       Creation time:       Thu Mar 26 15:28:26 2020


#       File generated by GOLD software.
#

@<TRIPOS>MOLECULE
AV-unprocessed.smi:20
    67    71     1
SMALL
NO_CHARGES


@<TRIPOS>ATOM
      1 ****        -0.8103   5.5610   3.1632 O.2            1 S1                 0.0000
      2 ****        -1.6183   4.8522   2.5679 C.2            1 S1                 0.0000
      3 ****        -1.2425   3.9090   1.4379 C.3            1 S1                 0.0000
      4 ****        -2.6057   3.5574   0.7947 C.3            1 S1                 0.0000
      5 ****        -2.9315   4.4825  -0.4089 C.3            1 S1                 0.0000
      6 ****        -2.0731   4.1552  -1.6437 C.3            1 S1                 0.0000
      7 ****        -2.1575   2.6640  -1.9997 C.3            1 S1                 0.0000
      8 ****        -1.8444   1.8370  -0.8346 N.3            1 S1                 0.0000
      9 ****        -1.5210   0.5357  -1.0458 C.ar           1 S1                 0.0000
     10 ****        -1.9136  -0.0835  -2.1916 N.ar           1 S1                 0.0000
     11 ****        -1.6096  -1.3670  -2.4047 C.ar           1 S1                 0.0000
     12 ****        -0.9301  -2.2047  -1.6197 N.ar           1 S1                 0.0000
     13 ****        -0.5248  -1.5885  -0.4729 C.ar           1 S1                 0.0000
     14 ****        -0.7745  -0.2347  -0.1093 C.ar           1 S1                 0.0000
     15 ****        -0.1967   0.0362   1.1258 N.2            1 S1                 0.0000
     16 ****         0.3531  -1.0942   1.4762 C.2            1 S1                 0.0000
     17 ****         0.2179  -2.1194   0.5676 N.pl3          1 S1                 0.0000
     18 ****         0.7224  -3.4748   0.7069 C.3            1 S1                 0.0000
     19 ****         2.2692  -3.5816   0.7257 C.3            1 S1                 0.0000
     20 ****         2.6818  -4.9852   1.2275 C.3            1 S1                 0.0000
     21 ****         2.3079  -5.9975   0.3147 O.3            1 S1                 0.0000
     22 ****         2.9469  -3.2137  -0.6264 C.3            1 S1                 0.0000
     23 ****         4.4526  -3.4241  -0.6589 C.3            1 S1                 0.0000
     24 ****         4.8682  -2.5818  -1.8556 C.3            1 S1                 0.0000
     25 ****         4.0402  -1.4317  -1.7803 O.3            1 S1                 0.0000
     26 ****         2.8593  -1.7362  -1.0428 C.3            1 S1                 0.0000
     27 ****        -2.6833   2.0830   0.3382 C.3            1 S1                 0.0000
     28 ****        -3.6014   3.8342   1.9464 C.3            1 S1                 0.0000
     29 ****        -2.9263   4.7888   2.8039 N.am           1 S1                 0.0000
     30 ****        -0.5384   4.3752   0.7496 H              1 S1                 0.0000
     31 ****        -0.7613   3.0299   1.8685 H              1 S1                 0.0000
     32 ****        -3.9807   4.3638  -0.6827 H              1 S1                 0.0000
     33 ****        -2.8068   5.5315  -0.1375 H              1 S1                 0.0000
     34 ****        -2.3991   4.7562  -2.4928 H              1 S1                 0.0000
     35 ****        -1.0333   4.4269  -1.4628 H              1 S1                 0.0000
     36 ****        -3.1608   2.4212  -2.3528 H              1 S1                 0.0000
     37 ****        -1.4661   2.4488  -2.8156 H              1 S1                 0.0000
     38 ****        -1.9609  -1.7821  -3.3379 H              1 S1                 0.0000
     39 ****         0.8827  -1.2103   2.4105 H              1 S1                 0.0000
     40 ****         0.3102  -3.8726   1.6349 H              1 S1                 0.0000
     41 ****         0.3122  -4.0901  -0.0945 H              1 S1                 0.0000
     42 ****         2.6371  -2.8809   1.4764 H              1 S1                 0.0000
     43 ****         3.7571  -5.0426   1.3956 H              1 S1                 0.0000
     44 ****         2.2152  -5.1970   2.1900 H              1 S1                 0.0000
     45 ****         2.5792  -6.8330   0.6634 H              1 S1                 0.0000
     46 ****         2.5087  -3.8183  -1.4224 H              1 S1                 0.0000
     47 ****         4.9145  -3.0350   0.2498 H              1 S1                 0.0000
     48 ****         4.7392  -4.4704  -0.7701 H              1 S1                 0.0000
     49 ****         5.9259  -2.3182  -1.8402 H              1 S1                 0.0000
     50 ****         4.6592  -3.1104  -2.7868 H              1 S1                 0.0000
     51 ****         1.9789  -1.5356  -1.6521 H              1 S1                 0.0000
     52 ****         2.8276  -1.0786  -0.1736 H              1 S1                 0.0000
     53 ****        -2.4180   1.4272   1.1668 H              1 S1                 0.0000
     54 ****        -3.7124   1.8353   0.0743 H              1 S1                 0.0000
     55 ****        -4.5598   4.2229   1.6007 H              1 S1                 0.0000
     56 ****        -3.7997   2.9338   2.5299 H              1 S1                 0.0000
     57 ****        -3.4055   5.3258   3.5122 H              1 S1                 0.0000
     58 ****        -1.1199   6.1616   3.9003 LP             1 S1                 0.0000
     59 ****         0.1570   5.5373   2.9105 LP             1 S1                 0.0000
     60 ****        -0.9474   2.2045  -0.5891 LP             1 S1                 0.0000
     61 ****        -2.4328   0.4249  -2.8786 LP             1 S1                 0.0000
     62 ****        -0.7423  -3.1611  -1.8435 LP             1 S1                 0.0000
     63 ****        -0.2013   0.8996   1.6302 LP             1 S1                 0.0000
     64 ****         2.7545  -5.8389  -0.5659 LP             1 S1                 0.0000
     65 ****         1.3156  -5.9901   0.1912 LP             1 S1                 0.0000
     66 ****         3.7896  -1.1417  -2.7040 LP             1 S1                 0.0000
     67 ****         4.5368  -0.6942  -1.3227 LP             1 S1                 0.0000
@<TRIPOS>BOND
    1    1    2 2     
    2    2   29 am    
    3    2    3 1     
    4    3    4 1     
    5    3   30 1     
    6    3   31 1     
    7    4   27 1     
    8    4    5 1     
    9    4   28 1     
   10    5    6 1     
   11    5   32 1     
   12    5   33 1     
   13    6    7 1     
   14    6   34 1     
   15    6   35 1     
   16    7    8 1     
   17    7   36 1     
   18    7   37 1     
   19    8    9 1     
   20    8   27 1     
   21    9   14 ar    
   22    9   10 ar    
   23   10   11 ar    
   24   11   12 ar    
   25   11   38 1     
   26   12   13 ar    
   27   13   17 1     
   28   13   14 ar    
   29   14   15 1     
   30   15   16 2     
   31   16   17 1     
   32   16   39 1     
   33   17   18 1     
   34   18   19 1     
   35   18   40 1     
   36   18   41 1     
   37   19   20 1     
   38   19   22 1     
   39   19   42 1     
   40   20   21 1     
   41   20   43 1     
   42   20   44 1     
   43   21   45 1     
   44   22   26 1     
   45   22   23 1     
   46   22   46 1     
   47   23   24 1     
   48   23   47 1     
   49   23   48 1     
   50   24   25 1     
   51   24   49 1     
   52   24   50 1     
   53   25   26 1     
   54   26   51 1     
   55   26   52 1     
   56   27   53 1     
   57   27   54 1     
   58   28   29 1     
   59   28   55 1     
   60   28   56 1     
   61   29   57 1     
   62    1   58 1     
   63    1   59 1     
   64    8   60 1     
   65   10   61 1     
   66   12   62 1     
   67   15   63 1     
   68   21   64 1     
   69   21   65 1     
   70   25   66 1     
   71   25   67 1     
@<TRIPOS>SUBSTRUCTURE
      1 S1             1
@<TRIPOS>SET
LONE_PAIRS      STATIC     ATOMS    <user>   **** ""
10 58 59 60 61 62 63 64 65 66 67
DONOR_HYDROGENS      STATIC     ATOMS    <user>   **** ""
2 45 57
ATOM$BLUE        STATIC     ATOMS    COLORGROUP SYSTEM
10 58 59 60 61 62 63 64 65 66 67
ATOM$RED        STATIC     ATOMS    COLORGROUP SYSTEM
2 45 57
