#       Name:                AV-unprocessed.smi:699
#       Creating user name   scv26
#       Creation time:       Fri Mar 27 00:38:30 2020


#       File generated by GOLD software.
#

@<TRIPOS>MOLECULE
AV-unprocessed.smi:699
    39    40     1
SMALL
NO_CHARGES


@<TRIPOS>ATOM
      1 ****        -1.1784  -0.9946  -2.8551 N.am           1 S1                 0.0000
      2 ****        -1.4801  -1.6007  -1.7041 C.2            1 S1                 0.0000
      3 ****        -1.0067  -2.6953  -1.4030 O.2            1 S1                 0.0000
      4 ****        -2.4465  -0.8579  -0.7557 C.3            1 S1                 0.0000
      5 ****        -3.7277  -1.6745  -0.5312 C.3            1 S1                 0.0000
      6 ****        -3.4342  -2.5897   0.6603 C.3            1 S1                 0.0000
      7 ****        -2.4048  -1.8432   1.5180 C.3            1 S1                 0.0000
      8 ****        -1.9193  -0.6387   0.6884 C.3            1 S1                 0.0000
      9 ****        -0.4685  -0.4713   0.7968 N.am           1 S1                 0.0000
     10 ****         0.1997   0.6524   0.5000 C.2            1 S1                 0.0000
     11 ****        -0.3487   1.6837   0.1123 O.2            1 S1                 0.0000
     12 ****         1.5213   0.4968   0.6904 N.am           1 S1                 0.0000
     13 ****         2.5694   1.4321   0.4706 C.ar           1 S1                 0.0000
     14 ****         3.8062   1.1846   1.1069 C.ar           1 S1                 0.0000
     15 ****         4.8816   2.0745   0.9095 C.ar           1 S1                 0.0000
     16 ****         4.7256   3.1501   0.1086 N.pl3          1 S1                 1.0000
     17 ****         3.5680   3.4216  -0.5312 C.ar           1 S1                 0.0000
     18 ****         2.4578   2.5674  -0.3726 C.ar           1 S1                 0.0000
     19 ****        -0.5572  -1.4456  -3.5109 H              1 S1                 0.0000
     20 ****        -1.5779  -0.0924  -3.0702 H              1 S1                 0.0000
     21 ****        -2.6940   0.1047  -1.2066 H              1 S1                 0.0000
     22 ****        -4.5443  -0.9971  -0.2781 H              1 S1                 0.0000
     23 ****        -4.0420  -2.2378  -1.4113 H              1 S1                 0.0000
     24 ****        -4.3383  -2.8335   1.2190 H              1 S1                 0.0000
     25 ****        -3.0074  -3.5301   0.3094 H              1 S1                 0.0000
     26 ****        -2.8494  -1.5032   2.4538 H              1 S1                 0.0000
     27 ****        -1.5865  -2.5158   1.7794 H              1 S1                 0.0000
     28 ****        -2.4023   0.2539   1.0909 H              1 S1                 0.0000
     29 ****         0.0579  -1.2754   1.1064 H              1 S1                 0.0000
     30 ****         1.8075  -0.3877   1.0841 H              1 S1                 0.0000
     31 ****         3.9324   0.3226   1.7463 H              1 S1                 0.0000
     32 ****         5.8550   1.9577   1.3633 H              1 S1                 0.0000
     33 ****         3.5656   4.3056  -1.1521 H              1 S1                 0.0000
     34 ****         1.5505   2.7954  -0.9101 H              1 S1                 0.0000
     35 ****         5.5164   3.7815  -0.0227 H              1 S1                 0.0000
     36 ****        -0.3767  -3.1565  -2.0277 LP             1 S1                 0.0000
     37 ****        -1.2519  -3.1240  -0.5334 LP             1 S1                 0.0000
     38 ****        -1.3425   1.7115   0.0047 LP             1 S1                 0.0000
     39 ****         0.1995   2.4939  -0.0951 LP             1 S1                 0.0000
@<TRIPOS>BOND
    1    1    2 am    
    2    1   19 1     
    3    1   20 1     
    4    2    3 2     
    5    2    4 1     
    6    4    8 1     
    7    4    5 1     
    8    4   21 1     
    9    5    6 1     
   10    5   22 1     
   11    5   23 1     
   12    6    7 1     
   13    6   24 1     
   14    6   25 1     
   15    7    8 1     
   16    7   26 1     
   17    7   27 1     
   18    8    9 1     
   19    8   28 1     
   20    9   10 am    
   21    9   29 1     
   22   10   11 2     
   23   10   12 am    
   24   12   13 1     
   25   12   30 1     
   26   13   18 ar    
   27   13   14 ar    
   28   14   15 ar    
   29   14   31 1     
   30   15   16 ar    
   31   15   32 1     
   32   16   17 ar    
   33   16   35 1     
   34   17   18 ar    
   35   17   33 1     
   36   18   34 1     
   37    3   36 1     
   38    3   37 1     
   39   11   38 1     
   40   11   39 1     
@<TRIPOS>SUBSTRUCTURE
      1 S1             1
@<TRIPOS>SET
LONE_PAIRS      STATIC     ATOMS    <user>   **** ""
4 36 37 38 39
DONOR_HYDROGENS      STATIC     ATOMS    <user>   **** ""
5 19 20 29 30 35
ATOM$BLUE        STATIC     ATOMS    COLORGROUP SYSTEM
4 36 37 38 39
ATOM$RED        STATIC     ATOMS    COLORGROUP SYSTEM
5 19 20 29 30 35
