AV-unprocessed.smi:1990|AV-procd|sdf|8062|dock5
  -GOLD-   2272010263D 1   1.00000     0.00000
 Structure written by MMmdl.
 46 47  0  0  0  0  0  0  0  0  1 V2000
  151.3418  145.0119  158.5613 C   0  0  0  0  0  0  0  0  0  0  0  0
  152.2288  143.7751  158.7347 C   0  0  2  0  0  0  0  0  0  0  0  0
  151.6366  142.5340  158.0395 C   0  0  0  0  0  0  0  0  0  0  0  0
  152.4625  141.3655  158.3147 N   0  0  0  0  0  0  0  0  0  0  0  0
  152.0597  140.2177  157.6174 C   0  0  0  0  0  0  0  0  0  0  0  0
  151.6457  140.3435  156.2756 C   0  0  0  0  0  0  0  0  0  0  0  0
  151.2437  139.1891  155.5767 C   0  0  0  0  0  0  0  0  0  0  0  0
  151.2767  137.9404  156.2422 C   0  0  0  0  0  0  0  0  0  0  0  0
  150.8777  136.7097  155.6551 N   0  0  0  0  0  0  0  0  0  0  0  0
  150.8225  135.4890  156.2201 C   0  0  0  0  0  0  0  0  0  0  0  0
  151.0712  135.2588  157.4034 O   0  0  0  0  0  0  0  0  0  0  0  0
  150.3839  134.3458  155.2941 C   0  0  2  0  0  0  0  0  0  0  0  0
  148.9836  134.5879  154.7070 C   0  0  0  0  0  0  0  0  0  0  0  0
  150.4139  132.7372  156.2158 S   0  0  0  0  0  0  0  0  0  0  0  0
  150.0063  131.5018  154.9112 C   0  0  0  0  0  0  0  0  0  0  0  0
  151.7857  132.4751  156.6781 O   0  0  0  0  0  0  0  0  0  0  0  0
  149.3150  132.7518  157.1934 O   0  0  0  0  0  0  0  0  0  0  0  0
  151.6916  137.9264  157.5900 C   0  0  0  0  0  0  0  0  0  0  0  0
  152.0790  139.0288  158.2655 N   0  0  0  0  0  0  0  0  0  0  0  0
  152.6512  141.1431  159.7426 C   0  0  0  0  0  0  0  0  0  0  0  0
  153.2238  142.4113  160.4043 C   0  0  2  0  0  0  0  0  0  0  0  0
  153.3453  142.2635  161.9244 C   0  0  0  0  0  0  0  0  0  0  0  0
  152.3579  143.5107  160.1301 O   0  0  0  0  0  0  0  0  0  0  0  0
  151.2166  145.2608  157.5073 H   0  0  0  0  0  0  0  0  0  0  0  0
  151.7811  145.8778  159.0574 H   0  0  0  0  0  0  0  0  0  0  0  0
  150.3514  144.8501  158.9880 H   0  0  0  0  0  0  0  0  0  0  0  0
  153.2148  143.9930  158.3201 H   0  0  0  0  0  0  0  0  0  0  0  0
  150.6195  142.3572  158.3928 H   0  0  0  0  0  0  0  0  0  0  0  0
  151.5803  142.6977  156.9624 H   0  0  0  0  0  0  0  0  0  0  0  0
  151.6309  141.3078  155.7890 H   0  0  0  0  0  0  0  0  0  0  0  0
  150.9067  139.2879  154.5567 H   0  0  0  0  0  0  0  0  0  0  0  0
  150.5500  136.7728  154.7021 H   0  0  0  0  0  0  0  0  0  0  0  0
  151.0929  134.2561  154.4701 H   0  0  0  0  0  0  0  0  0  0  0  0
  148.9260  135.5523  154.2009 H   0  0  0  0  0  0  0  0  0  0  0  0
  148.2149  134.5676  155.4805 H   0  0  0  0  0  0  0  0  0  0  0  0
  148.7329  133.8195  153.9757 H   0  0  0  0  0  0  0  0  0  0  0  0
  149.9117  130.5165  155.3671 H   0  0  0  0  0  0  0  0  0  0  0  0
  150.7998  131.4720  154.1648 H   0  0  0  0  0  0  0  0  0  0  0  0
  149.0639  131.7696  154.4344 H   0  0  0  0  0  0  0  0  0  0  0  0
  151.7184  136.9998  158.1449 H   0  0  0  0  0  0  0  0  0  0  0  0
  151.6975  140.8806  160.2031 H   0  0  0  0  0  0  0  0  0  0  0  0
  153.3270  140.3008  159.8963 H   0  0  0  0  0  0  0  0  0  0  0  0
  154.2128  142.6256  159.9953 H   0  0  0  0  0  0  0  0  0  0  0  0
  154.0049  141.4360  162.1869 H   0  0  0  0  0  0  0  0  0  0  0  0
  152.3731  142.0754  162.3811 H   0  0  0  0  0  0  0  0  0  0  0  0
  153.7541  143.1696  162.3722 H   0  0  0  0  0  0  0  0  0  0  0  0
  1  2  1  0  0  0  0
  1 24  1  0  0  0  0
  1 25  1  0  0  0  0
  1 26  1  0  0  0  0
  2 23  1  0  0  0  0
  2  3  1  0  0  0  0
  2 27  1  0  0  0  0
  3  4  1  0  0  0  0
  3 28  1  0  0  0  0
  3 29  1  0  0  0  0
  4  5  1  0  0  0  0
  4 20  1  0  0  0  0
  5 19  1  0  0  0  0
  5  6  2  0  0  0  0
  6  7  1  0  0  0  0
  6 30  1  0  0  0  0
  7  8  2  0  0  0  0
  7 31  1  0  0  0  0
  8  9  1  0  0  0  0
  8 18  1  0  0  0  0
  9 10  1  0  0  0  0
  9 32  1  0  0  0  0
 10 11  2  0  0  0  0
 10 12  1  0  0  0  0
 12 13  1  0  0  0  0
 12 14  1  0  0  0  0
 12 33  1  0  0  0  0
 13 34  1  0  0  0  0
 13 35  1  0  0  0  0
 13 36  1  0  0  0  0
 14 15  1  0  0  0  0
 14 16  2  0  0  0  0
 14 17  2  0  0  0  0
 15 37  1  0  0  0  0
 15 38  1  0  0  0  0
 15 39  1  0  0  0  0
 18 19  2  0  0  0  0
 18 40  1  0  0  0  0
 20 21  1  0  0  0  0
 20 41  1  0  0  0  0
 20 42  1  0  0  0  0
 21 22  1  0  0  0  0
 21 23  1  0  0  0  0
 21 43  1  0  0  0  0
 22 44  1  0  0  0  0
 22 45  1  0  0  0  0
 22 46  1  0  0  0  0
M  END
> <s_m_source_file>
AV-unprocessed.smi

> <i_m_source_file_index>
1990

> <i_lp_mmshare_version>
43012

> <i_f3d_flags>
0

> <s_epik_input>
W0NIM11bQ0BASF0xW0NIMl1OKFtDSDJdW0NASF0oTzEpW0NIM10pYzJbY0hdW2NIXWMoW2NIXW4yKVtOSF1DKD1PKVtDQEhdKFtDSDNdKVMoPU8pKD1PKVtDSDNd

> <s_epik_cmdline>
J2VwaWtfcHl0aG9uJywgJy1waCcsICc3LjAnLCAnLXRuJywgJzgnLCAnLW1hJywgJzIwMCcsICctbWV0YWxfYmluZGluZycsICctaW1hZScsICc8aW5maWxlLm1hZT4nLCAnLW9tYWUnLCAnPG91dGZpbGUubWFlPic=

> <r_lp_tautomer_probability>
1

> <r_epik_Ionization_Penalty>
0.000334888

> <r_epik_Ionization_Penalty_Charging>
0

> <r_epik_Ionization_Penalty_Neutral>
0.000334888

> <r_epik_State_Penalty>
0.000200905

> <r_epik_Charging_Adjusted_Penalty>
0.000200905

> <i_epik_Tot_Q>
0

> <i_epik_Tot_abs_Q>
0

> <r_epik_Metal_State_Penalty>
-0

> <b_epik_Metal_Only>
0

> <s_lp_Force_Field>
OPLS_2005

> <r_lp_Energy>
20.1561

> <b_lp_Chiralities_Consistent>
1

> <s_lp_Variant>
AV-unprocessed.smi:1990-2

> <Gold.Version>
5.8.1

> <Gold.Id.Protein>
6NUR|6NUR_protein|mol2

> <Gold.PLP.Fitness>
39.5015

> <Gold.PLP.PLP>
-40.3304

> <Gold.PLP.part.hbond>
-1.0000

> <Gold.PLP.part.metal>
0.0000

> <Gold.PLP.part.buried>
-5.7802

> <Gold.PLP.part.nonpolar>
-32.7487

> <Gold.PLP.part.repulsive>
0.0973

> <Gold.PLP.ligand.clash>
0.1760

> <Gold.PLP.ligand.torsion>
0.4566

> <Gold.PLP.Chemscore.Hbond>
0.0000

> <Gold.PLP.Chemscore.CHOScore>
0.0000

> <Gold.PLP.Chemscore.Metal>
0.0000

> <Gold.PLP.Chemscore.Internal.Correction>
0.2604

> <Gold.Rescore>
     Score         DG    S(hbond)    S(metal)    S(lipo)     H(rot)  DE(clash)    DE(int)     intcor
     10.47     -13.69       0.00        0.00     103.39       1.52       0.03       3.19       ----

> <Gold.Chemscore.Fitness>
10.4730

> <Gold.Chemscore.DG>
-13.6912

> <Gold.Chemscore.ZeroCoef>
-5.4800

> <Gold.Chemscore.Hbond>
0.0000

> <Gold.Chemscore.Metal>
0.0000

> <Gold.Chemscore.Lipo>
103.3890

> <Gold.Chemscore.Internal_Hbond>
0.0000

> <Gold.Chemscore.DEClash>
0.0299

> <Gold.Chemscore.DEInternal>
3.1884

> <Gold.Chemscore.Rot>
1.5177

> <Gold.Chemscore.Internal.Correction>
   9.000000E+99

> <Gold.Chemscore.Hbond.Weighted>
-0.0000

> <Gold.Chemscore.Metal.Weighted>
-0.0000

> <Gold.Chemscore.Lipo.Weighted>
-12.0965

> <Gold.Chemscore.Internal_Hbond.Weighted>
0.0000

> <Gold.Chemscore.DEClash.Weighted>
0.0299

> <Gold.Chemscore.DEInternal.Weighted>
3.1884

> <Gold.Chemscore.Rot.Weighted>
3.8853

> <Gold.Chemscore.Internal.Correction.Weighted>
   9.000000E+99

> <Gold.Protein.RotatedTorsions>
[ 6907 6896 6895 6894 ] final -140.03 input  -60.11 | X-H torsion
[ 7974 7965 7964 7962 ] final  115.23 input  175.53 | X-H torsion
[ 8008 7997 7996 7995 ] final  115.28 input   59.86 | X-H torsion
[ 10167 10162 10161 10158 ] final -167.59 input  -65.29 | X-H torsion
[ 10718 10713 10712 10709 ] final   56.58 input   66.30 | X-H torsion
[ 10763 10752 10751 10750 ] final  115.45 input  -60.55 | X-H torsion
[ 11005 11000 10999 10996 ] final  150.77 input  -57.11 | X-H torsion

> <Gold.Protein.ActiveResidues>
 VAL166  LYS551  ARG553  GLY616  TRP617  ASP618  TYR619  PRO620  LYS621  CYS622 
 ASP623  PHE694  ASN695  SER759  ASP760  ASP761  ALA762  ILE779  LEU786  VAL792 
 PHE793  MET794  SER795  GLU796  ALA797  LYS798  CYS799  TRP800  GLU811  SER814 

> <Gold.Protein.RotatedAtoms>
  151.0554  133.5588  159.2638 H   0  0  0  0  0  0  0  0  0  0  0  0  # atno 6907 bound_to 6896
  151.2584  135.0645  159.9098 H   0  0  0  0  0  0  0  0  0  0  0  0  # atno 6908 bound_to 6896
  152.5389  134.0304  159.8076 H   0  0  0  0  0  0  0  0  0  0  0  0  # atno 6909 bound_to 6896
  145.1946  139.2983  143.4350 H   0  0  0  0  0  0  0  0  0  0  0  0  # atno 7974 bound_to 7965
  156.2372  140.2942  156.0345 H   0  0  0  0  0  0  0  0  0  0  0  0  # atno 8008 bound_to 7997
  155.2057  140.0411  157.2942 H   0  0  0  0  0  0  0  0  0  0  0  0  # atno 8009 bound_to 7997
  154.6100  140.2449  155.7688 H   0  0  0  0  0  0  0  0  0  0  0  0  # atno 8010 bound_to 7997
  139.6039  144.0952  152.1773 H   0  0  0  0  0  0  0  0  0  0  0  0  # atno 10167 bound_to 10162
  157.5443  130.8719  149.8868 H   0  0  0  0  0  0  0  0  0  0  0  0  # atno 10718 bound_to 10713
  153.5224  135.3595  155.2638 H   0  0  0  0  0  0  0  0  0  0  0  0  # atno 10763 bound_to 10752
  154.8734  135.4049  154.3244 H   0  0  0  0  0  0  0  0  0  0  0  0  # atno 10764 bound_to 10752
  153.3917  135.7072  153.6557 H   0  0  0  0  0  0  0  0  0  0  0  0  # atno 10765 bound_to 10752
  140.1160  134.8894  157.2004 H   0  0  0  0  0  0  0  0  0  0  0  0  # atno 11005 bound_to 11000
  146.3429  140.2170  142.8591 LP  0  0  0  0  0  0  0  0  0  0  0  0  # atno 17320 bound_to 7965
  145.0007  140.8629  143.5283 LP  0  0  0  0  0  0  0  0  0  0  0  0  # atno 17321 bound_to 7965
  140.0555  144.5898  150.7303 LP  0  0  0  0  0  0  0  0  0  0  0  0  # atno 17342 bound_to 10162
  140.7271  143.2647  151.4084 LP  0  0  0  0  0  0  0  0  0  0  0  0  # atno 17343 bound_to 10162
  156.0522  130.3715  150.1174 LP  0  0  0  0  0  0  0  0  0  0  0  0  # atno 17370 bound_to 10713
  156.9351  130.9726  151.3526 LP  0  0  0  0  0  0  0  0  0  0  0  0  # atno 17371 bound_to 10713
  140.3028  134.3112  155.7285 LP  0  0  0  0  0  0  0  0  0  0  0  0  # atno 17394 bound_to 11000
  141.2141  133.7602  156.9665 LP  0  0  0  0  0  0  0  0  0  0  0  0  # atno 17395 bound_to 11000

$$$$
