AV-unprocessed.smi:2985|AV-procd|sdf|11379|dock10
  -GOLD-   2272016303D 1   1.00000     0.00000
 Structure written by MMmdl.
 33 34  0  0  0  0  0  0  0  0  1 V2000
  150.9576  138.0017  154.0965 C   0  0  0  0  0  0  0  0  0  0  0  0
  151.3021  139.3427  154.3974 O   0  0  0  0  0  0  0  0  0  0  0  0
  152.2844  139.4343  155.4145 C   0  0  0  0  0  0  0  0  0  0  0  0
  151.5845  139.5013  156.7777 C   0  0  0  0  0  0  0  0  0  0  0  0
  151.2752  140.8720  157.1512 N   0  0  0  0  0  0  0  0  0  0  0  0
  150.3997  141.7169  156.5551 C   0  0  0  0  0  0  0  0  0  0  0  0
  149.4472  141.2297  155.1548 S   0  0  0  0  0  0  0  0  0  0  0  0
  147.8043  141.6249  155.8186 C   0  0  0  0  0  0  0  0  0  0  0  0
  146.7800  141.9079  154.7226 C   0  0  0  0  0  0  0  0  0  0  0  0
  145.8649  140.9640  154.4861 N   0  0  0  0  0  0  0  0  0  0  0  0
  146.8187  142.9598  154.0884 O   0  0  0  0  0  0  0  0  0  0  0  0
  150.3148  142.9344  157.0915 N   0  0  0  0  0  0  0  0  0  0  0  0
  151.2223  142.8735  158.1312 C   0  0  0  0  0  0  0  0  0  0  0  0
  151.5983  143.8504  159.0809 C   0  0  0  0  0  0  0  0  0  0  0  0
  152.5677  143.5557  160.0619 C   0  0  0  0  0  0  0  0  0  0  0  0
  153.1742  142.2836  160.1071 C   0  0  0  0  0  0  0  0  0  0  0  0
  152.8134  141.2956  159.1707 C   0  0  0  0  0  0  0  0  0  0  0  0
  151.8438  141.5944  158.1948 C   0  0  0  0  0  0  0  0  0  0  0  0
  150.1986  137.9846  153.3146 H   0  0  0  0  0  0  0  0  0  0  0  0
  150.5509  137.4929  154.9714 H   0  0  0  0  0  0  0  0  0  0  0  0
  151.8233  137.4435  153.7379 H   0  0  0  0  0  0  0  0  0  0  0  0
  152.9461  138.5673  155.3749 H   0  0  0  0  0  0  0  0  0  0  0  0
  152.8973  140.3238  155.2596 H   0  0  0  0  0  0  0  0  0  0  0  0
  150.6643  138.9165  156.7677 H   0  0  0  0  0  0  0  0  0  0  0  0
  152.2192  139.0614  157.5475 H   0  0  0  0  0  0  0  0  0  0  0  0
  147.4606  140.7980  156.4413 H   0  0  0  0  0  0  0  0  0  0  0  0
  147.8807  142.5015  156.4633 H   0  0  0  0  0  0  0  0  0  0  0  0
  145.1746  141.1011  153.7621 H   0  0  0  0  0  0  0  0  0  0  0  0
  145.8752  140.1103  155.0251 H   0  0  0  0  0  0  0  0  0  0  0  0
  151.1408  144.8284  159.0535 H   0  0  0  0  0  0  0  0  0  0  0  0
  152.8482  144.3100  160.7823 H   0  0  0  0  0  0  0  0  0  0  0  0
  153.9169  142.0666  160.8609 H   0  0  0  0  0  0  0  0  0  0  0  0
  153.2779  140.3214  159.2026 H   0  0  0  0  0  0  0  0  0  0  0  0
  1  2  1  0  0  0  0
  1 19  1  0  0  0  0
  1 20  1  0  0  0  0
  1 21  1  0  0  0  0
  2  3  1  0  0  0  0
  3  4  1  0  0  0  0
  3 22  1  0  0  0  0
  3 23  1  0  0  0  0
  4  5  1  0  0  0  0
  4 24  1  0  0  0  0
  4 25  1  0  0  0  0
  5 18  1  0  0  0  0
  5  6  1  0  0  0  0
  6  7  1  0  0  0  0
  6 12  2  0  0  0  0
  7  8  1  0  0  0  0
  8  9  1  0  0  0  0
  8 26  1  0  0  0  0
  8 27  1  0  0  0  0
  9 10  1  0  0  0  0
  9 11  2  0  0  0  0
 10 28  1  0  0  0  0
 10 29  1  0  0  0  0
 12 13  1  0  0  0  0
 13 18  2  0  0  0  0
 13 14  1  0  0  0  0
 14 15  2  0  0  0  0
 14 30  1  0  0  0  0
 15 16  1  0  0  0  0
 15 31  1  0  0  0  0
 16 17  2  0  0  0  0
 16 32  1  0  0  0  0
 17 18  1  0  0  0  0
 17 33  1  0  0  0  0
M  END
> <s_m_source_file>
AV-unprocessed.smi

> <i_m_source_file_index>
2985

> <i_lp_mmshare_version>
43012

> <i_f3d_flags>
0

> <s_epik_input>
W2NIXTFbY0hdW2NIXVtjSF1jKGMxMiluKFtDSDJdW0NIMl1PW0NIM10pYyhuMilTW0NIMl1DKD1PKVtOSDJd

> <s_epik_cmdline>
J2VwaWtfcHl0aG9uJywgJy1waCcsICc3LjAnLCAnLXRuJywgJzgnLCAnLW1hJywgJzIwMCcsICctbWV0YWxfYmluZGluZycsICctaW1hZScsICc8aW5maWxlLm1hZT4nLCAnLW9tYWUnLCAnPG91dGZpbGUubWFlPic=

> <r_epik_Ionization_Penalty>
0.0273334

> <r_epik_Ionization_Penalty_Charging>
0

> <r_epik_Ionization_Penalty_Neutral>
0.0273334

> <r_epik_State_Penalty>
0.0223655

> <r_epik_Charging_Adjusted_Penalty>
0.0223655

> <i_epik_Tot_Q>
0

> <i_epik_Tot_abs_Q>
0

> <r_epik_Metal_State_Penalty>
0.0213644

> <b_epik_Metal_Only>
0

> <s_lp_Force_Field>
OPLS_2005

> <r_lp_Energy>
5.41897

> <b_lp_Chiralities_Consistent>
1

> <s_lp_Variant>
AV-unprocessed.smi:2985-1

> <Gold.Version>
5.8.1

> <Gold.Id.Protein>
6NUR|6NUR_protein|mol2

> <Gold.PLP.Fitness>
40.7632

> <Gold.PLP.PLP>
-36.2347

> <Gold.PLP.part.hbond>
-2.2200

> <Gold.PLP.part.metal>
0.0000

> <Gold.PLP.part.buried>
-4.8445

> <Gold.PLP.part.nonpolar>
-33.2890

> <Gold.PLP.part.repulsive>
3.2303

> <Gold.PLP.ligand.clash>
0.0000

> <Gold.PLP.ligand.torsion>
0.7372

> <Gold.PLP.Chemscore.Hbond>
1.9913

> <Gold.PLP.Chemscore.CHOScore>
0.0000

> <Gold.PLP.Chemscore.Metal>
0.0000

> <Gold.Chemscore.Hbonds>
donor molecule, donor type, donor heavy atom, donor atom, acceptor molecule, acceptor atom, score
      L1  H    10    28       P1 10175  0.94
      P1  H  7989  7998       L1     2  1.00

> <Gold.PLP.Chemscore.Internal.Correction>
0.0290

> <Gold.Rescore>
     Score         DG    S(hbond)    S(metal)    S(lipo)     H(rot)  DE(clash)    DE(int)     intcor
     12.18     -15.66       1.84        0.00      93.18       2.68       1.34       2.14       ----

> <Gold.Chemscore.Fitness>
12.1798

> <Gold.Chemscore.DG>
-15.6590

> <Gold.Chemscore.ZeroCoef>
-5.4800

> <Gold.Chemscore.Hbond>
1.8388

> <Gold.Chemscore.Metal>
0.0000

> <Gold.Chemscore.Lipo>
93.1768

> <Gold.Chemscore.Internal_Hbond>
0.0000

> <Gold.Chemscore.DEClash>
1.3371

> <Gold.Chemscore.DEInternal>
2.1421

> <Gold.Chemscore.Rot>
2.6814

> <Gold.Chemscore.Internal.Correction>
   9.000000E+99

> <Gold.Chemscore.Hbonds>
donor molecule, donor type, donor heavy atom, donor atom, acceptor molecule, acceptor atom, score
      L1  H    10    28       P1 10175  0.58
      P1  H  7989  7998       L1     2  0.26

> <Gold.Chemscore.Hbond.Weighted>
-6.1417

> <Gold.Chemscore.Metal.Weighted>
-0.0000

> <Gold.Chemscore.Lipo.Weighted>
-10.9017

> <Gold.Chemscore.Internal_Hbond.Weighted>
0.0000

> <Gold.Chemscore.DEClash.Weighted>
1.3371

> <Gold.Chemscore.DEInternal.Weighted>
2.1421

> <Gold.Chemscore.Rot.Weighted>
6.8644

> <Gold.Chemscore.Internal.Correction.Weighted>
   9.000000E+99

> <Gold.Protein.RotatedTorsions>
[ 6907 6896 6895 6894 ] final   50.74 input  -60.11 | X-H torsion
[ 7974 7965 7964 7962 ] final  -27.92 input  175.53 | X-H torsion
[ 8008 7997 7996 7995 ] final   63.70 input   59.86 | X-H torsion
[ 10167 10162 10161 10158 ] final  111.05 input  -65.29 | X-H torsion
[ 10718 10713 10712 10709 ] final   92.32 input   66.30 | X-H torsion
[ 10763 10752 10751 10750 ] final -129.06 input  -60.55 | X-H torsion
[ 11005 11000 10999 10996 ] final   52.91 input  -57.11 | X-H torsion

> <Gold.Protein.ActiveResidues>
 VAL166  LYS551  ARG553  GLY616  TRP617  ASP618  TYR619  PRO620  LYS621  CYS622 
 ASP623  PHE694  ASN695  SER759  ASP760  ASP761  ALA762  ILE779  LEU786  VAL792 
 PHE793  MET794  SER795  GLU796  ALA797  LYS798  CYS799  TRP800  GLU811  SER814 

> <Gold.Protein.RotatedAtoms>
  152.3051  134.7564  160.0348 H   0  0  0  0  0  0  0  0  0  0  0  0  # atno 6907 bound_to 6896
  151.8064  133.3371  159.3550 H   0  0  0  0  0  0  0  0  0  0  0  0  # atno 6908 bound_to 6896
  150.7292  134.5635  159.5899 H   0  0  0  0  0  0  0  0  0  0  0  0  # atno 6909 bound_to 6896
  146.1324  140.5215  142.8687 H   0  0  0  0  0  0  0  0  0  0  0  0  # atno 7974 bound_to 7965
  155.6343  140.3496  155.4693 H   0  0  0  0  0  0  0  0  0  0  0  0  # atno 8008 bound_to 7997
  155.9978  140.1207  157.0600 H   0  0  0  0  0  0  0  0  0  0  0  0  # atno 8009 bound_to 7997
  154.4239  140.1106  156.5640 H   0  0  0  0  0  0  0  0  0  0  0  0  # atno 8010 bound_to 7997
  139.6641  144.7128  151.1810 H   0  0  0  0  0  0  0  0  0  0  0  0  # atno 10167 bound_to 10162
  157.6959  131.0439  150.3864 H   0  0  0  0  0  0  0  0  0  0  0  0  # atno 10718 bound_to 10713
  154.8757  135.3908  154.3858 H   0  0  0  0  0  0  0  0  0  0  0  0  # atno 10763 bound_to 10752
  153.4600  135.7029  153.6061 H   0  0  0  0  0  0  0  0  0  0  0  0  # atno 10764 bound_to 10752
  153.4564  135.3822  155.2282 H   0  0  0  0  0  0  0  0  0  0  0  0  # atno 10765 bound_to 10752
  140.0810  134.5339  155.8947 H   0  0  0  0  0  0  0  0  0  0  0  0  # atno 11005 bound_to 11000
  144.7704  140.5625  143.6674 LP  0  0  0  0  0  0  0  0  0  0  0  0  # atno 17320 bound_to 7965
  145.5231  139.1476  143.3541 LP  0  0  0  0  0  0  0  0  0  0  0  0  # atno 17321 bound_to 7965
  140.7592  143.5948  150.8760 LP  0  0  0  0  0  0  0  0  0  0  0  0  # atno 17342 bound_to 10162
  139.9607  143.6166  152.3003 LP  0  0  0  0  0  0  0  0  0  0  0  0  # atno 17343 bound_to 10162
  156.4272  130.3964  149.6785 LP  0  0  0  0  0  0  0  0  0  0  0  0  # atno 17370 bound_to 10713
  156.4015  130.7677  151.2685 LP  0  0  0  0  0  0  0  0  0  0  0  0  # atno 17371 bound_to 10713
  141.2046  133.6641  156.6133 LP  0  0  0  0  0  0  0  0  0  0  0  0  # atno 17394 bound_to 11000
  140.3488  134.7786  157.4452 LP  0  0  0  0  0  0  0  0  0  0  0  0  # atno 17395 bound_to 11000

$$$$
