#       Name:                AV-unprocessed.smi:48
#       Creating user name   scv26
#       Creation time:       Thu Mar 26 16:32:38 2020


#       File generated by GOLD software.
#

@<TRIPOS>MOLECULE
AV-unprocessed.smi:48
    41    43     1
SMALL
NO_CHARGES


@<TRIPOS>ATOM
      1 ****        -3.7543   0.8777   0.1012 O.3            1 S1                 0.0000
      2 ****        -3.2231  -0.3670   0.5028 C.3            1 S1                 0.0000
      3 ****        -1.6928  -0.3571   0.3696 C.3            1 S1                 0.0000
      4 ****        -1.3275  -0.6243  -0.9765 O.3            1 S1                 0.0000
      5 ****        -0.0271  -1.1177  -1.0217 C.3            1 S1                 0.0000
      6 ****         0.9074   0.0328  -1.2855 N.pl3          1 S1                 0.0000
      7 ****         1.3668   0.3998  -2.5000 C.2            1 S1                 0.0000
      8 ****         2.1617   1.4651  -2.5687 N.2            1 S1                 0.0000
      9 ****         2.2133   1.8539  -1.2422 C.ar           1 S1                 0.0000
     10 ****         2.8728   2.9228  -0.5878 C.ar           1 S1                 0.0000
     11 ****         3.8441   4.0422  -1.4721 Cl             1 S1                 0.0000
     12 ****         2.7246   3.0505   0.7515 N.ar           1 S1                 0.0000
     13 ****         1.9645   2.1696   1.4114 C.ar           1 S1                 0.0000
     14 ****         1.2902   1.1189   0.9321 N.ar           1 S1                 0.0000
     15 ****         1.4369   0.9857  -0.4200 C.ar           1 S1                 0.0000
     16 ****         0.2363  -1.8336   0.3145 C.3            1 S1                 0.0000
     17 ****         0.3323  -3.2318   0.1335 O.3            1 S1                 0.0000
     18 ****        -1.0067  -1.4940   1.1429 C.3            1 S1                 0.0000
     19 ****        -0.6413  -1.0567   2.4362 O.3            1 S1                 0.0000
     20 ****        -1.2899   0.6104   0.6699 H              1 S1                 0.0000
     21 ****         0.1005  -1.7639  -1.8915 H              1 S1                 0.0000
     22 ****         1.1660  -1.4867   0.7643 H              1 S1                 0.0000
     23 ****        -1.6732  -2.3554   1.2164 H              1 S1                 0.0000
     24 ****        -4.6931   0.8514   0.2059 H              1 S1                 0.0000
     25 ****        -3.5065  -0.5208   1.5444 H              1 S1                 0.0000
     26 ****        -3.6675  -1.1763  -0.0773 H              1 S1                 0.0000
     27 ****         1.1002  -0.1493  -3.3913 H              1 S1                 0.0000
     28 ****         1.8872   2.3262   2.4770 H              1 S1                 0.0000
     29 ****         1.0835  -3.4131  -0.4104 H              1 S1                 0.0000
     30 ****        -0.1850  -1.7607   2.8712 H              1 S1                 0.0000
     31 ****        -3.5266   1.0480  -0.8575 LP             1 S1                 0.0000
     32 ****        -3.3720   1.6066   0.6692 LP             1 S1                 0.0000
     33 ****        -1.3811   0.2204  -1.5092 LP             1 S1                 0.0000
     34 ****        -1.9535  -1.3019  -1.3623 LP             1 S1                 0.0000
     35 ****         2.6037   1.8751  -3.3665 LP             1 S1                 0.0000
     36 ****         3.1781   3.7948   1.2419 LP             1 S1                 0.0000
     37 ****         0.7423   0.5024   1.4975 LP             1 S1                 0.0000
     38 ****        -0.4962  -3.5719  -0.3114 LP             1 S1                 0.0000
     39 ****         0.4422  -3.6799   1.0207 LP             1 S1                 0.0000
     40 ****        -1.4611  -0.8141   2.9549 LP             1 S1                 0.0000
     41 ****        -0.0429  -0.2585   2.3663 LP             1 S1                 0.0000
@<TRIPOS>BOND
    1    1    2 1     
    2    1   24 1     
    3    2    3 1     
    4    2   25 1     
    5    2   26 1     
    6    3   20 1     
    7    3   18 1     
    8    3    4 1     
    9    4    5 1     
   10    5   21 1     
   11    5    6 1     
   12    5   16 1     
   13    6   15 1     
   14    6    7 1     
   15    7    8 2     
   16    7   27 1     
   17    8    9 1     
   18    9   15 ar    
   19    9   10 ar    
   20   10   11 1     
   21   10   12 ar    
   22   12   13 ar    
   23   13   14 ar    
   24   13   28 1     
   25   14   15 ar    
   26   16   22 1     
   27   16   17 1     
   28   16   18 1     
   29   17   29 1     
   30   18   23 1     
   31   18   19 1     
   32   19   30 1     
   33    1   31 1     
   34    1   32 1     
   35    4   33 1     
   36    4   34 1     
   37    8   35 1     
   38   12   36 1     
   39   14   37 1     
   40   17   38 1     
   41   17   39 1     
   42   19   40 1     
   43   19   41 1     
@<TRIPOS>SUBSTRUCTURE
      1 S1             1
@<TRIPOS>SET
LONE_PAIRS      STATIC     ATOMS    <user>   **** ""
11 31 32 33 34 35 36 37 38 39 40 41
DONOR_HYDROGENS      STATIC     ATOMS    <user>   **** ""
3 24 29 30
ATOM$BLUE        STATIC     ATOMS    COLORGROUP SYSTEM
11 31 32 33 34 35 36 37 38 39 40 41
ATOM$RED        STATIC     ATOMS    COLORGROUP SYSTEM
3 24 29 30
