#       Name:                AV-unprocessed.smi:2296
#       Creating user name   scv26
#       Creation time:       Fri Mar 27 12:44:01 2020


#       File generated by GOLD software.
#

@<TRIPOS>MOLECULE
AV-unprocessed.smi:2296
    27    27     1
SMALL
NO_CHARGES


@<TRIPOS>ATOM
      1 ****         0.7668  -1.1928   1.2344 N.4            1 S1                 1.0000
      2 ****         1.1738  -0.6422  -0.0730 C.3            1 S1                 0.0000
      3 ****         2.7065  -0.6565  -0.2026 C.3            1 S1                 0.0000
      4 ****         3.1803  -1.9861  -0.2472 O.3            1 S1                 0.0000
      5 ****         0.6076   0.7785  -0.2633 C.3            1 S1                 0.0000
      6 ****        -0.9107   0.8214  -0.2625 C.ar           1 S1                 0.0000
      7 ****        -1.6203   1.2700   0.8709 C.ar           1 S1                 0.0000
      8 ****        -3.0290   1.2848   0.8192 C.ar           1 S1                 0.0000
      9 ****        -3.7351   0.8876  -0.2608 N.ar           1 S1                 0.0000
     10 ****        -3.0496   0.4615  -1.3434 C.ar           1 S1                 0.0000
     11 ****        -1.6420   0.4081  -1.3952 C.ar           1 S1                 0.0000
     12 ****         1.1395  -0.6171   1.9756 H              1 S1                 0.0000
     13 ****         1.1274  -2.1321   1.3245 H              1 S1                 0.0000
     14 ****         0.7553  -1.2855  -0.8488 H              1 S1                 0.0000
     15 ****         3.0150  -0.1587  -1.1226 H              1 S1                 0.0000
     16 ****         3.1792  -0.1259   0.6249 H              1 S1                 0.0000
     17 ****         4.1172  -1.9692  -0.3752 H              1 S1                 0.0000
     18 ****         0.9909   1.4436   0.5120 H              1 S1                 0.0000
     19 ****         0.9543   1.1901  -1.2123 H              1 S1                 0.0000
     20 ****        -1.1032   1.5983   1.7608 H              1 S1                 0.0000
     21 ****        -3.6031   1.6221   1.6693 H              1 S1                 0.0000
     22 ****        -3.6400   0.1521  -2.1931 H              1 S1                 0.0000
     23 ****        -1.1399   0.0579  -2.2854 H              1 S1                 0.0000
     24 ****        -0.2414  -1.2108   1.2940 H              1 S1                 0.0000
     25 ****         2.7457  -2.4731  -1.0048 LP             1 S1                 0.0000
     26 ****         2.9663  -2.4488   0.6131 LP             1 S1                 0.0000
     27 ****        -4.7349   0.9083  -0.2591 LP             1 S1                 0.0000
@<TRIPOS>BOND
    1    1    2 1     
    2    1   12 1     
    3    1   13 1     
    4    1   24 1     
    5    2    3 1     
    6    2    5 1     
    7    2   14 1     
    8    3    4 1     
    9    3   15 1     
   10    3   16 1     
   11    4   17 1     
   12    5    6 1     
   13    5   18 1     
   14    5   19 1     
   15    6   11 ar    
   16    6    7 ar    
   17    7    8 ar    
   18    7   20 1     
   19    8    9 ar    
   20    8   21 1     
   21    9   10 ar    
   22   10   11 ar    
   23   10   22 1     
   24   11   23 1     
   25    4   25 1     
   26    4   26 1     
   27    9   27 1     
@<TRIPOS>SUBSTRUCTURE
      1 S1             1
@<TRIPOS>SET
LONE_PAIRS      STATIC     ATOMS    <user>   **** ""
3 25 26 27
DONOR_HYDROGENS      STATIC     ATOMS    <user>   **** ""
4 12 13 24 17
ATOM$BLUE        STATIC     ATOMS    COLORGROUP SYSTEM
3 25 26 27
ATOM$RED        STATIC     ATOMS    COLORGROUP SYSTEM
4 12 13 24 17
