#       Name:                AV-unprocessed.smi:1406
#       Creating user name   scv26
#       Creation time:       Fri Mar 27 05:35:41 2020


#       File generated by GOLD software.
#

@<TRIPOS>MOLECULE
AV-unprocessed.smi:1406
    45    47     1
SMALL
NO_CHARGES


@<TRIPOS>ATOM
      1 ****        -3.4848  -2.3795  -2.3367 C.3            1 S1                 0.0000
      2 ****        -2.8524  -1.4447  -1.2858 C.3            1 S1                 0.0000
      3 ****        -1.3538  -1.1955  -1.5249 C.2            1 S1                 0.0000
      4 ****        -0.7129  -1.8927  -2.3119 O.2            1 S1                 0.0000
      5 ****        -0.8029  -0.1888  -0.8290 N.am           1 S1                 0.0000
      6 ****         0.6078   0.1774  -0.8664 C.3            1 S1                 0.0000
      7 ****         1.0185   0.9837  -2.0948 C.3            1 S1                 0.0000
      8 ****         2.3245   1.6304  -1.6290 C.3            1 S1                 0.0000
      9 ****         2.1534   1.8934  -0.1816 N.4            1 S1                 1.0000
     10 ****         3.3898   1.7576   0.6264 C.3            1 S1                 0.0000
     11 ****         3.1030   2.0569   2.1099 C.3            1 S1                 0.0000
     12 ****         1.9029   1.2621   2.6678 C.3            1 S1                 0.0000
     13 ****         1.2663   0.3429   1.6136 C.3            1 S1                 0.0000
     14 ****         0.9848   1.1031   0.2985 C.3            1 S1                 0.0000
     15 ****        -3.0749  -1.9226   0.0739 N.pl3          1 S1                 0.0000
     16 ****        -3.4908  -1.2642   1.1582 C.2            1 S1                 0.0000
     17 ****        -3.5300  -2.0053   2.2564 N.2            1 S1                 0.0000
     18 ****        -3.0914  -3.1939   1.7454 C.2            1 S1                 0.0000
     19 ****        -2.7941  -3.1964   0.4462 N.2            1 S1                 0.0000
     20 ****        -3.3664  -1.9773  -3.3434 H              1 S1                 0.0000
     21 ****        -4.5537  -2.4975  -2.1574 H              1 S1                 0.0000
     22 ****        -3.0366  -3.3740  -2.3231 H              1 S1                 0.0000
     23 ****        -3.3523  -0.4786  -1.3716 H              1 S1                 0.0000
     24 ****        -1.3979   0.3383  -0.2064 H              1 S1                 0.0000
     25 ****         1.2208  -0.7257  -0.8219 H              1 S1                 0.0000
     26 ****         1.1455   0.3686  -2.9864 H              1 S1                 0.0000
     27 ****         0.2756   1.7525  -2.3138 H              1 S1                 0.0000
     28 ****         3.1470   0.9302  -1.7851 H              1 S1                 0.0000
     29 ****         2.5571   2.5443  -2.1760 H              1 S1                 0.0000
     30 ****         3.7939   0.7497   0.5177 H              1 S1                 0.0000
     31 ****         4.1486   2.4426   0.2466 H              1 S1                 0.0000
     32 ****         3.9943   1.8491   2.7028 H              1 S1                 0.0000
     33 ****         2.9080   3.1235   2.2283 H              1 S1                 0.0000
     34 ****         2.2115   0.6726   3.5318 H              1 S1                 0.0000
     35 ****         1.1504   1.9617   3.0339 H              1 S1                 0.0000
     36 ****         1.9353  -0.4978   1.4243 H              1 S1                 0.0000
     37 ****         0.3435  -0.0901   2.0016 H              1 S1                 0.0000
     38 ****         0.1831   1.8244   0.4663 H              1 S1                 0.0000
     39 ****        -3.7627  -0.2190   1.1461 H              1 S1                 0.0000
     40 ****        -2.9797  -4.0815   2.3506 H              1 S1                 0.0000
     41 ****         1.8712   2.8598  -0.1003 H              1 S1                 0.0000
     42 ****        -1.1663  -2.6339  -2.8068 LP             1 S1                 0.0000
     43 ****         0.2610  -1.7176  -2.4562 LP             1 S1                 0.0000
     44 ****        -3.8017  -1.7644   3.1881 LP             1 S1                 0.0000
     45 ****        -2.4498  -3.9495  -0.1144 LP             1 S1                 0.0000
@<TRIPOS>BOND
    1    1    2 1     
    2    1   20 1     
    3    1   21 1     
    4    1   22 1     
    5    2    3 1     
    6    2   15 1     
    7    2   23 1     
    8    3    4 2     
    9    3    5 am    
   10    5    6 1     
   11    5   24 1     
   12    6   14 1     
   13    6    7 1     
   14    6   25 1     
   15    7    8 1     
   16    7   26 1     
   17    7   27 1     
   18    8    9 1     
   19    8   28 1     
   20    8   29 1     
   21    9   14 1     
   22    9   10 1     
   23    9   41 1     
   24   10   11 1     
   25   10   30 1     
   26   10   31 1     
   27   11   12 1     
   28   11   32 1     
   29   11   33 1     
   30   12   13 1     
   31   12   34 1     
   32   12   35 1     
   33   13   14 1     
   34   13   36 1     
   35   13   37 1     
   36   14   38 1     
   37   15   19 1     
   38   15   16 1     
   39   16   17 2     
   40   16   39 1     
   41   17   18 1     
   42   18   19 2     
   43   18   40 1     
   44    4   42 1     
   45    4   43 1     
   46   17   44 1     
   47   19   45 1     
@<TRIPOS>SUBSTRUCTURE
      1 S1             1
@<TRIPOS>SET
LONE_PAIRS      STATIC     ATOMS    <user>   **** ""
4 42 43 44 45
DONOR_HYDROGENS      STATIC     ATOMS    <user>   **** ""
2 24 41
ATOM$BLUE        STATIC     ATOMS    COLORGROUP SYSTEM
4 42 43 44 45
ATOM$RED        STATIC     ATOMS    COLORGROUP SYSTEM
2 24 41
