AV-unprocessed.smi:1154|AV-procd|sdf|4903|dock8
  -GOLD-   22720 3483D 1   1.00000     0.00000
 Structure written by MMmdl.
 42 43  0  0  0  0  0  0  0  0  2 V2000
  145.6624  132.3354  149.7620 C   0  0  0  0  0  0  0  0  0  0  0  0
  146.0617  133.3499  150.8429 C   0  0  1  0  0  0  0  0  0  0  0  0
  144.8441  133.7881  151.6769 C   0  0  0  0  0  0  0  0  0  0  0  0
  145.2447  134.7559  152.8057 C   0  0  2  0  0  0  0  0  0  0  0  0
  145.5769  136.1688  152.2941 C   0  0  0  0  0  0  0  0  0  0  0  0
  146.3876  134.1576  153.6499 C   0  0  0  0  0  0  0  0  0  0  0  0
  147.5501  133.7738  152.8073 N   0  3  1  0  0  0  0  0  0  0  0  0
  148.7149  133.3396  153.6193 C   0  0  0  0  0  0  0  0  0  0  0  0
  148.9179  134.2179  154.8647 C   0  0  0  0  0  0  0  0  0  0  0  0
  149.2054  135.5918  154.4780 N   0  0  0  0  0  0  0  0  0  0  0  0
  149.5965  136.5525  155.3295 C   0  0  0  0  0  0  0  0  0  0  0  0
  149.7220  136.3677  156.5392 O   0  0  0  0  0  0  0  0  0  0  0  0
  149.8807  137.9348  154.7347 C   0  0  0  0  0  0  0  0  0  0  0  0
  151.2811  138.2981  154.8589 N   0  0  0  0  0  0  0  0  0  0  0  0
  151.8647  139.3568  155.4239 C   0  0  0  0  0  0  0  0  0  0  0  0
  153.1824  139.3119  155.3021 N   0  0  0  0  0  0  0  0  0  0  0  0
  153.3948  138.1282  154.6153 N   0  0  0  0  0  0  0  0  0  0  0  0
  152.2703  137.5217  154.3503 N   0  0  0  0  0  0  0  0  0  0  0  0
  147.1647  132.7894  151.7613 C   0  0  0  0  0  0  0  0  0  0  0  0
  145.2525  131.4257  150.2022 H   0  0  0  0  0  0  0  0  0  0  0  0
  146.5208  132.0526  149.1519 H   0  0  0  0  0  0  0  0  0  0  0  0
  144.9076  132.7511  149.0938 H   0  0  0  0  0  0  0  0  0  0  0  0
  146.4617  134.2250  150.3298 H   0  0  0  0  0  0  0  0  0  0  0  0
  144.0895  134.2471  151.0368 H   0  0  0  0  0  0  0  0  0  0  0  0
  144.3741  132.9068  152.1160 H   0  0  0  0  0  0  0  0  0  0  0  0
  144.3786  134.8647  153.4599 H   0  0  0  0  0  0  0  0  0  0  0  0
  146.4577  136.1748  151.6520 H   0  0  0  0  0  0  0  0  0  0  0  0
  145.7722  136.8481  153.1244 H   0  0  0  0  0  0  0  0  0  0  0  0
  144.7466  136.5837  151.7220 H   0  0  0  0  0  0  0  0  0  0  0  0
  146.6947  134.8809  154.4067 H   0  0  0  0  0  0  0  0  0  0  0  0
  146.0316  133.2769  154.1873 H   0  0  0  0  0  0  0  0  0  0  0  0
  148.5561  132.3141  153.9561 H   0  0  0  0  0  0  0  0  0  0  0  0
  149.6135  133.3244  153.0002 H   0  0  0  0  0  0  0  0  0  0  0  0
  148.0312  134.2187  155.4983 H   0  0  0  0  0  0  0  0  0  0  0  0
  149.7424  133.8251  155.4624 H   0  0  0  0  0  0  0  0  0  0  0  0
  149.1194  135.8252  153.4994 H   0  0  0  0  0  0  0  0  0  0  0  0
  149.6041  137.9424  153.6798 H   0  0  0  0  0  0  0  0  0  0  0  0
  149.2744  138.6926  155.2335 H   0  0  0  0  0  0  0  0  0  0  0  0
  151.3291  140.1572  155.9126 H   0  0  0  0  0  0  0  0  0  0  0  0
  146.8288  131.8667  152.2375 H   0  0  0  0  0  0  0  0  0  0  0  0
  148.0308  132.5301  151.1533 H   0  0  0  0  0  0  0  0  0  0  0  0
  147.8362  134.6161  152.3287 H   0  0  0  0  0  0  0  0  0  0  0  0
  1  2  1  0  0  0  0
  1 20  1  0  0  0  0
  1 21  1  0  0  0  0
  1 22  1  0  0  0  0
  2 19  1  0  0  0  0
  2  3  1  0  0  0  0
  2 23  1  0  0  0  0
  3  4  1  0  0  0  0
  3 24  1  0  0  0  0
  3 25  1  0  0  0  0
  4  5  1  0  0  0  0
  4  6  1  0  0  0  0
  4 26  1  0  0  0  0
  5 27  1  0  0  0  0
  5 28  1  0  0  0  0
  5 29  1  0  0  0  0
  6  7  1  0  0  0  0
  6 30  1  0  0  0  0
  6 31  1  0  0  0  0
  7  8  1  0  0  0  0
  7 19  1  0  0  0  0
  7 42  1  0  0  0  0
  8  9  1  0  0  0  0
  8 32  1  0  0  0  0
  8 33  1  0  0  0  0
  9 10  1  0  0  0  0
  9 34  1  0  0  0  0
  9 35  1  0  0  0  0
 10 11  1  0  0  0  0
 10 36  1  0  0  0  0
 11 12  2  0  0  0  0
 11 13  1  0  0  0  0
 13 14  1  0  0  0  0
 13 37  1  0  0  0  0
 13 38  1  0  0  0  0
 14 18  1  0  0  0  0
 14 15  1  0  0  0  0
 15 16  2  0  0  0  0
 15 39  1  0  0  0  0
 16 17  1  0  0  0  0
 17 18  2  0  0  0  0
 19 40  1  0  0  0  0
 19 41  1  0  0  0  0
M  CHG  1   7   1
M  END
> <s_m_source_file>
AV-unprocessed.smi

> <i_m_source_file_index>
1154

> <i_lp_mmshare_version>
43012

> <i_f3d_flags>
0

> <s_epik_input>
W0NIM11bQ0BASF0xW0NIMl1bQ0BASF0oW0NIM10pW0NIMl1OKFtDSDJdMSlbQ0gyXVtDSDJdW05IXUMoPU8pW0NIMl1uMltjSF1ubm4y

> <s_epik_cmdline>
J2VwaWtfcHl0aG9uJywgJy1waCcsICc3LjAnLCAnLXRuJywgJzgnLCAnLW1hJywgJzIwMCcsICctbWV0YWxfYmluZGluZycsICctaW1hZScsICc8aW5maWxlLm1hZT4nLCAnLW9tYWUnLCAnPG91dGZpbGUubWFlPic=

> <r_lp_tautomer_probability>
1

> <r_epik_Ionization_Penalty>
0.00217773

> <r_epik_Ionization_Penalty_Charging>
0.00217329

> <r_epik_Ionization_Penalty_Neutral>
4.43997e-06

> <r_epik_State_Penalty>
0.00149294

> <r_epik_Charging_Adjusted_Penalty>
0.00366623

> <i_epik_Tot_Q>
1

> <i_epik_Tot_abs_Q>
1

> <r_epik_Metal_State_Penalty>
-0

> <b_epik_Metal_Only>
0

> <s_lp_Force_Field>
OPLS_2005

> <r_lp_Energy>
22.3383

> <b_lp_Chiralities_Consistent>
1

> <s_lp_Variant>
AV-unprocessed.smi:1154-4

> <Gold.Version>
5.8.1

> <Gold.Id.Protein>
6NUR|6NUR_protein|mol2

> <Gold.PLP.Fitness>
46.9502

> <Gold.PLP.PLP>
-33.1664

> <Gold.PLP.part.hbond>
-5.0000

> <Gold.PLP.part.metal>
0.0000

> <Gold.PLP.part.buried>
-3.8896

> <Gold.PLP.part.nonpolar>
-24.7406

> <Gold.PLP.part.repulsive>
0.2080

> <Gold.PLP.ligand.clash>
0.0000

> <Gold.PLP.ligand.torsion>
0.2032

> <Gold.PLP.Chemscore.Hbond>
4.7200

> <Gold.PLP.Chemscore.CHOScore>
0.0000

> <Gold.PLP.Chemscore.Metal>
0.0000

> <Gold.Chemscore.Hbonds>
donor molecule, donor type, donor heavy atom, donor atom, acceptor molecule, acceptor atom, score
      L1  H     7    42       P1  7948  2.00
      L1  H    10    36       P1  7948  1.00
      P1  H  7997  8008       L1    16  1.00
      P1  H 10752 10763       L1    18  0.68

> <Gold.PLP.Chemscore.Internal.Correction>
0.0302

> <Gold.Rescore>
     Score         DG    S(hbond)    S(metal)    S(lipo)     H(rot)  DE(clash)    DE(int)     intcor
     14.12     -14.31       2.83        0.00      53.13       2.67       0.02       0.17       ----

> <Gold.Chemscore.Fitness>
14.1153

> <Gold.Chemscore.DG>
-14.3083

> <Gold.Chemscore.ZeroCoef>
-5.4800

> <Gold.Chemscore.Hbond>
2.8265

> <Gold.Chemscore.Metal>
0.0000

> <Gold.Chemscore.Lipo>
53.1303

> <Gold.Chemscore.Internal_Hbond>
0.0000

> <Gold.Chemscore.DEClash>
0.0202

> <Gold.Chemscore.DEInternal>
0.1727

> <Gold.Chemscore.Rot>
2.6674

> <Gold.Chemscore.Internal.Correction>
   9.000000E+99

> <Gold.Chemscore.Hbonds>
donor molecule, donor type, donor heavy atom, donor atom, acceptor molecule, acceptor atom, score
      L1  H     7    42       P1  7948  0.59
      L1  H    10    36       P1  7948  0.82
      P1  H  7997  8008       L1    16  0.98
      P1  H 10752 10763       L1    18  0.13

> <Gold.Chemscore.Hbond.Weighted>
-9.4406

> <Gold.Chemscore.Metal.Weighted>
-0.0000

> <Gold.Chemscore.Lipo.Weighted>
-6.2162

> <Gold.Chemscore.Internal_Hbond.Weighted>
0.0000

> <Gold.Chemscore.DEClash.Weighted>
0.0202

> <Gold.Chemscore.DEInternal.Weighted>
0.1727

> <Gold.Chemscore.Rot.Weighted>
6.8286

> <Gold.Chemscore.Internal.Correction.Weighted>
   9.000000E+99

> <Gold.Protein.RotatedTorsions>
[ 6907 6896 6895 6894 ] final  179.80 input  -60.11 | X-H torsion
[ 7974 7965 7964 7962 ] final  -56.35 input  175.53 | X-H torsion
[ 8008 7997 7996 7995 ] final  -18.48 input   59.86 | X-H torsion
[ 10167 10162 10161 10158 ] final  -98.32 input  -65.29 | X-H torsion
[ 10718 10713 10712 10709 ] final  -36.08 input   66.30 | X-H torsion
[ 10763 10752 10751 10750 ] final   34.37 input  -60.55 | X-H torsion
[ 11005 11000 10999 10996 ] final  -32.67 input  -57.11 | X-H torsion

> <Gold.Protein.ActiveResidues>
 VAL166  LYS551  ARG553  GLY616  TRP617  ASP618  TYR619  PRO620  LYS621  CYS622 
 ASP623  PHE694  ASN695  SER759  ASP760  ASP761  ALA762  ILE779  LEU786  VAL792 
 PHE793  MET794  SER795  GLU796  ALA797  LYS798  CYS799  TRP800  GLU811  SER814 

> <Gold.Protein.RotatedAtoms>
  151.6658  133.3315  159.3184 H   0  0  0  0  0  0  0  0  0  0  0  0  # atno 6907 bound_to 6896
  150.7891  134.6905  159.6503 H   0  0  0  0  0  0  0  0  0  0  0  0  # atno 6908 bound_to 6896
  152.3968  134.6356  160.0138 H   0  0  0  0  0  0  0  0  0  0  0  0  # atno 6909 bound_to 6896
  145.8637  140.8267  142.9924 H   0  0  0  0  0  0  0  0  0  0  0  0  # atno 7974 bound_to 7965
  154.4903  140.2114  155.9563 H   0  0  0  0  0  0  0  0  0  0  0  0  # atno 8008 bound_to 7997
  156.1296  140.3199  155.8297 H   0  0  0  0  0  0  0  0  0  0  0  0  # atno 8009 bound_to 7997
  155.4321  140.0504  157.3008 H   0  0  0  0  0  0  0  0  0  0  0  0  # atno 8010 bound_to 7997
  140.2742  143.3324  152.0505 H   0  0  0  0  0  0  0  0  0  0  0  0  # atno 10167 bound_to 10162
  156.3311  130.4279  149.7872 H   0  0  0  0  0  0  0  0  0  0  0  0  # atno 10718 bound_to 10713
  153.0167  135.6362  154.1658 H   0  0  0  0  0  0  0  0  0  0  0  0  # atno 10763 bound_to 10752
  154.1397  135.2835  155.3165 H   0  0  0  0  0  0  0  0  0  0  0  0  # atno 10764 bound_to 10752
  154.6134  135.5549  153.7558 H   0  0  0  0  0  0  0  0  0  0  0  0  # atno 10765 bound_to 10752
  140.9571  133.7186  156.1311 H   0  0  0  0  0  0  0  0  0  0  0  0  # atno 11005 bound_to 11000
  144.6726  140.1134  143.7454 LP  0  0  0  0  0  0  0  0  0  0  0  0  # atno 17320 bound_to 7965
  145.9218  139.2550  143.1377 LP  0  0  0  0  0  0  0  0  0  0  0  0  # atno 17321 bound_to 7965
  139.4980  144.6636  151.6408 LP  0  0  0  0  0  0  0  0  0  0  0  0  # atno 17342 bound_to 10162
  140.5865  143.9855  150.6299 LP  0  0  0  0  0  0  0  0  0  0  0  0  # atno 17343 bound_to 10162
  156.5144  130.8186  151.3180 LP  0  0  0  0  0  0  0  0  0  0  0  0  # atno 17370 bound_to 10713
  157.7430  130.9903  150.2562 LP  0  0  0  0  0  0  0  0  0  0  0  0  # atno 17371 bound_to 10713
  140.7520  134.4034  157.5540 LP  0  0  0  0  0  0  0  0  0  0  0  0  # atno 17394 bound_to 11000
  139.8866  134.8906  156.2577 LP  0  0  0  0  0  0  0  0  0  0  0  0  # atno 17395 bound_to 11000

$$$$
