#       Name:                AV-unprocessed.smi:1709
#       Creating user name   scv26
#       Creation time:       Fri Mar 27 08:09:54 2020


#       File generated by GOLD software.
#

@<TRIPOS>MOLECULE
AV-unprocessed.smi:1709
    46    48     1
SMALL
NO_CHARGES


@<TRIPOS>ATOM
      1 ****        -1.9413  -4.5023  -0.5779 C.3            1 S1                 0.0000
      2 ****        -0.5588  -4.8217  -1.1254 C.ar           1 S1                 0.0000
      3 ****        -0.3507  -6.0488  -1.7902 C.ar           1 S1                 0.0000
      4 ****         0.9257  -6.3471  -2.2960 C.ar           1 S1                 0.0000
      5 ****         1.9463  -5.3993  -2.1142 C.ar           1 S1                 0.0000
      6 ****         1.7559  -4.2248  -1.4790 N.ar           1 S1                 0.0000
      7 ****         0.5288  -3.9174  -0.9842 C.ar           1 S1                 0.0000
      8 ****         0.2380  -2.7003  -0.2925 N.am           1 S1                 0.0000
      9 ****         1.0097  -1.6403   0.0303 C.2            1 S1                 0.0000
     10 ****         2.1989  -1.6038  -0.2811 O.2            1 S1                 0.0000
     11 ****         0.4055  -0.6434   0.6968 N.am           1 S1                 0.0000
     12 ****         1.0323   0.6085   1.1066 C.3            1 S1                 0.0000
     13 ****         0.4078   1.2018   2.3817 C.3            1 S1                 0.0000
     14 ****         0.3890   2.7268   2.1566 C.3            1 S1                 0.0000
     15 ****         1.0642   2.9395   0.8620 N.4            1 S1                 1.0000
     16 ****         0.7298   4.1759   0.1221 C.3            1 S1                 0.0000
     17 ****         1.5929   4.2541  -1.1533 C.3            1 S1                 0.0000
     18 ****         1.4736   2.9736  -2.0051 C.3            1 S1                 0.0000
     19 ****         1.7413   1.7145  -1.1579 C.3            1 S1                 0.0000
     20 ****         0.8236   1.7201   0.0761 C.3            1 S1                 0.0000
     21 ****        -2.6390  -5.3207  -0.7580 H              1 S1                 0.0000
     22 ****        -2.3435  -3.6083  -1.0551 H              1 S1                 0.0000
     23 ****        -1.8972  -4.3320   0.4982 H              1 S1                 0.0000
     24 ****        -1.1582  -6.7558  -1.9122 H              1 S1                 0.0000
     25 ****         1.1168  -7.2780  -2.8093 H              1 S1                 0.0000
     26 ****         2.9424  -5.5878  -2.4869 H              1 S1                 0.0000
     27 ****        -0.7076  -2.6430   0.0566 H              1 S1                 0.0000
     28 ****        -0.5747  -0.7576   0.9152 H              1 S1                 0.0000
     29 ****         2.1012   0.4675   1.2811 H              1 S1                 0.0000
     30 ****        -0.6106   0.8401   2.5322 H              1 S1                 0.0000
     31 ****         0.9853   0.9289   3.2656 H              1 S1                 0.0000
     32 ****        -0.6407   3.0842   2.1071 H              1 S1                 0.0000
     33 ****         0.8988   3.2711   2.9521 H              1 S1                 0.0000
     34 ****        -0.3309   4.1815  -0.1335 H              1 S1                 0.0000
     35 ****         0.9147   5.0437   0.7559 H              1 S1                 0.0000
     36 ****         1.3075   5.1246  -1.7450 H              1 S1                 0.0000
     37 ****         2.6367   4.4021  -0.8733 H              1 S1                 0.0000
     38 ****         0.4719   2.9154  -2.4332 H              1 S1                 0.0000
     39 ****         2.1666   3.0152  -2.8459 H              1 S1                 0.0000
     40 ****         1.5680   0.8202  -1.7569 H              1 S1                 0.0000
     41 ****         2.7875   1.6880  -0.8497 H              1 S1                 0.0000
     42 ****        -0.2201   1.7159  -0.2479 H              1 S1                 0.0000
     43 ****         2.0553   2.9618   1.0549 H              1 S1                 0.0000
     44 ****         2.5152  -3.5829  -1.3727 LP             1 S1                 0.0000
     45 ****         2.6085  -2.3668  -0.7811 LP             1 S1                 0.0000
     46 ****         2.7563  -0.8111  -0.0342 LP             1 S1                 0.0000
@<TRIPOS>BOND
    1    1    2 1     
    2    1   21 1     
    3    1   22 1     
    4    1   23 1     
    5    2    7 ar    
    6    2    3 ar    
    7    3    4 ar    
    8    3   24 1     
    9    4    5 ar    
   10    4   25 1     
   11    5    6 ar    
   12    5   26 1     
   13    6    7 ar    
   14    7    8 1     
   15    8    9 am    
   16    8   27 1     
   17    9   10 2     
   18    9   11 am    
   19   11   12 1     
   20   11   28 1     
   21   12   20 1     
   22   12   13 1     
   23   12   29 1     
   24   13   14 1     
   25   13   30 1     
   26   13   31 1     
   27   14   15 1     
   28   14   32 1     
   29   14   33 1     
   30   15   20 1     
   31   15   16 1     
   32   15   43 1     
   33   16   17 1     
   34   16   34 1     
   35   16   35 1     
   36   17   18 1     
   37   17   36 1     
   38   17   37 1     
   39   18   19 1     
   40   18   38 1     
   41   18   39 1     
   42   19   20 1     
   43   19   40 1     
   44   19   41 1     
   45   20   42 1     
   46    6   44 1     
   47   10   45 1     
   48   10   46 1     
@<TRIPOS>SUBSTRUCTURE
      1 S1             1
@<TRIPOS>SET
LONE_PAIRS      STATIC     ATOMS    <user>   **** ""
3 44 45 46
DONOR_HYDROGENS      STATIC     ATOMS    <user>   **** ""
3 27 28 43
ATOM$BLUE        STATIC     ATOMS    COLORGROUP SYSTEM
3 44 45 46
ATOM$RED        STATIC     ATOMS    COLORGROUP SYSTEM
3 27 28 43
