AV-unprocessed.smi:2612|AV-procd|sdf|10211|dock10
  -GOLD-   2272014213D 1   1.00000     0.00000
 Structure written by MMmdl.
 40 41  0  0  0  0  0  0  0  0  1 V2000
  145.2676  132.0942  149.0966 C   0  0  0  0  0  0  0  0  0  0  0  0
  145.9287  132.2880  150.3411 O   0  0  0  0  0  0  0  0  0  0  0  0
  145.4188  133.2704  151.2533 C   0  0  0  0  0  0  0  0  0  0  0  0
  146.1192  132.9076  152.5891 C   0  0  0  0  0  0  0  0  0  0  0  0
  147.5766  132.8765  152.4819 N   0  0  0  0  0  0  0  0  0  0  0  0
  148.3923  132.4576  153.5430 C   0  0  0  0  0  0  0  0  0  0  0  0
  149.1333  133.4342  154.2434 C   0  0  0  0  0  0  0  0  0  0  0  0
  149.9533  133.0296  155.3151 C   0  0  0  0  0  0  0  0  0  0  0  0
  149.9938  131.6618  155.6455 C   0  0  0  0  0  0  0  0  0  0  0  0
  151.0453  131.0795  156.9674 S   0  0  0  0  0  0  0  0  0  0  0  0
  152.4765  130.3310  156.0887 C   0  0  0  0  0  0  0  0  0  0  0  0
  151.5301  132.2506  157.7140 O   0  0  0  0  0  0  0  0  0  0  0  0
  150.3338  130.0061  157.6782 O   0  0  0  0  0  0  0  0  0  0  0  0
  149.2359  130.7531  154.8814 C   0  0  0  0  0  0  0  0  0  0  0  0
  148.4502  131.1403  153.8538 N   0  0  0  0  0  0  0  0  0  0  0  0
  145.6876  134.7348  150.8151 C   0  0  0  0  0  0  0  0  0  0  0  0
  144.9700  135.7419  151.7317 C   0  0  0  0  0  0  0  0  0  0  0  0
  143.5727  135.4726  151.7428 O   0  0  0  0  0  0  0  0  0  0  0  0
  143.2565  134.1876  152.2669 C   0  0  0  0  0  0  0  0  0  0  0  0
  143.8892  133.0888  151.3925 C   0  0  0  0  0  0  0  0  0  0  0  0
  145.7071  131.2322  148.5956 H   0  0  0  0  0  0  0  0  0  0  0  0
  145.4023  132.9501  148.4356 H   0  0  0  0  0  0  0  0  0  0  0  0
  144.2026  131.8971  149.2094 H   0  0  0  0  0  0  0  0  0  0  0  0
  145.7963  133.5628  153.3959 H   0  0  0  0  0  0  0  0  0  0  0  0
  145.8070  131.9079  152.8925 H   0  0  0  0  0  0  0  0  0  0  0  0
  147.9919  133.4619  151.7713 H   0  0  0  0  0  0  0  0  0  0  0  0
  149.0747  134.4773  153.9684 H   0  0  0  0  0  0  0  0  0  0  0  0
  150.5345  133.7544  155.8657 H   0  0  0  0  0  0  0  0  0  0  0  0
  153.1818  129.9339  156.8183 H   0  0  0  0  0  0  0  0  0  0  0  0
  152.9710  131.0905  155.4835 H   0  0  0  0  0  0  0  0  0  0  0  0
  152.1279  129.5235  155.4452 H   0  0  0  0  0  0  0  0  0  0  0  0
  149.2586  129.6941  155.0911 H   0  0  0  0  0  0  0  0  0  0  0  0
  146.7554  134.9472  150.7754 H   0  0  0  0  0  0  0  0  0  0  0  0
  145.3084  134.9070  149.8083 H   0  0  0  0  0  0  0  0  0  0  0  0
  145.3631  135.7171  152.7475 H   0  0  0  0  0  0  0  0  0  0  0  0
  145.1264  136.7552  151.3618 H   0  0  0  0  0  0  0  0  0  0  0  0
  143.5844  134.1137  153.3041 H   0  0  0  0  0  0  0  0  0  0  0  0
  142.1725  134.0745  152.2759 H   0  0  0  0  0  0  0  0  0  0  0  0
  143.4096  133.1308  150.4158 H   0  0  0  0  0  0  0  0  0  0  0  0
  143.6574  132.1044  151.8006 H   0  0  0  0  0  0  0  0  0  0  0  0
  1  2  1  0  0  0  0
  1 21  1  0  0  0  0
  1 22  1  0  0  0  0
  1 23  1  0  0  0  0
  2  3  1  0  0  0  0
  3 20  1  0  0  0  0
  3  4  1  0  0  0  0
  3 16  1  0  0  0  0
  4  5  1  0  0  0  0
  4 24  1  0  0  0  0
  4 25  1  0  0  0  0
  5  6  1  0  0  0  0
  5 26  1  0  0  0  0
  6 15  1  0  0  0  0
  6  7  2  0  0  0  0
  7  8  1  0  0  0  0
  7 27  1  0  0  0  0
  8  9  2  0  0  0  0
  8 28  1  0  0  0  0
  9 10  1  0  0  0  0
  9 14  1  0  0  0  0
 10 11  1  0  0  0  0
 10 12  2  0  0  0  0
 10 13  2  0  0  0  0
 11 29  1  0  0  0  0
 11 30  1  0  0  0  0
 11 31  1  0  0  0  0
 14 15  2  0  0  0  0
 14 32  1  0  0  0  0
 16 17  1  0  0  0  0
 16 33  1  0  0  0  0
 16 34  1  0  0  0  0
 17 18  1  0  0  0  0
 17 35  1  0  0  0  0
 17 36  1  0  0  0  0
 18 19  1  0  0  0  0
 19 20  1  0  0  0  0
 19 37  1  0  0  0  0
 19 38  1  0  0  0  0
 20 39  1  0  0  0  0
 20 40  1  0  0  0  0
M  END
> <s_m_source_file>
AV-unprocessed.smi

> <i_m_source_file_index>
2612

> <i_lp_mmshare_version>
43012

> <i_f3d_flags>
0

> <s_epik_input>
W0NIMl0xW0NIMl1PW0NIMl1bQ0gyXUMxKE9bQ0gzXSlbQ0gyXVtOSF1jMltjSF1bY0hdYyhbY0hdbjIpUyg9TykoPU8pW0NIM10=

> <s_epik_cmdline>
J2VwaWtfcHl0aG9uJywgJy1waCcsICc3LjAnLCAnLXRuJywgJzgnLCAnLW1hJywgJzIwMCcsICctbWV0YWxfYmluZGluZycsICctaW1hZScsICc8aW5maWxlLm1hZT4nLCAnLW9tYWUnLCAnPG91dGZpbGUubWFlPic=

> <r_lp_tautomer_probability>
1

> <r_epik_Ionization_Penalty>
1.02976e-06

> <r_epik_Ionization_Penalty_Charging>
0

> <r_epik_Ionization_Penalty_Neutral>
1.02976e-06

> <r_epik_State_Penalty>
-0

> <r_epik_Charging_Adjusted_Penalty>
0

> <i_epik_Tot_Q>
0

> <i_epik_Tot_abs_Q>
0

> <r_epik_Metal_State_Penalty>
-0

> <b_epik_Metal_Only>
0

> <s_lp_Force_Field>
OPLS_2005

> <r_lp_Energy>
16.1681

> <b_lp_Chiralities_Consistent>
1

> <s_lp_Variant>
AV-unprocessed.smi:2612-1

> <Gold.Version>
5.8.1

> <Gold.Id.Protein>
6NUR|6NUR_protein|mol2

> <Gold.PLP.Fitness>
35.3998

> <Gold.PLP.PLP>
-34.1434

> <Gold.PLP.part.hbond>
-1.0867

> <Gold.PLP.part.metal>
0.0000

> <Gold.PLP.part.buried>
-5.3074

> <Gold.PLP.part.nonpolar>
-28.4500

> <Gold.PLP.part.repulsive>
0.4349

> <Gold.PLP.ligand.clash>
0.0000

> <Gold.PLP.ligand.torsion>
1.8961

> <Gold.PLP.Chemscore.Hbond>
1.0000

> <Gold.PLP.Chemscore.CHOScore>
0.0000

> <Gold.PLP.Chemscore.Metal>
0.0000

> <Gold.Chemscore.Hbonds>
donor molecule, donor type, donor heavy atom, donor atom, acceptor molecule, acceptor atom, score
      P1  H  6896  6907       L1    12  1.00

> <Gold.PLP.Chemscore.Internal.Correction>
2.0486

> <Gold.Rescore>
     Score         DG    S(hbond)    S(metal)    S(lipo)     H(rot)  DE(clash)    DE(int)     intcor
     11.98     -13.82       1.00        0.00      74.53       1.45       0.00       1.84       ----

> <Gold.Chemscore.Fitness>
11.9785

> <Gold.Chemscore.DG>
-13.8239

> <Gold.Chemscore.ZeroCoef>
-5.4800

> <Gold.Chemscore.Hbond>
0.9978

> <Gold.Chemscore.Metal>
0.0000

> <Gold.Chemscore.Lipo>
74.5349

> <Gold.Chemscore.Internal_Hbond>
0.0000

> <Gold.Chemscore.DEClash>
0.0042

> <Gold.Chemscore.DEInternal>
1.8412

> <Gold.Chemscore.Rot>
1.4490

> <Gold.Chemscore.Internal.Correction>
   9.000000E+99

> <Gold.Chemscore.Hbonds>
donor molecule, donor type, donor heavy atom, donor atom, acceptor molecule, acceptor atom, score
      P1  H  6896  6907       L1    12  1.00

> <Gold.Chemscore.Hbond.Weighted>
-3.3327

> <Gold.Chemscore.Metal.Weighted>
-0.0000

> <Gold.Chemscore.Lipo.Weighted>
-8.7206

> <Gold.Chemscore.Internal_Hbond.Weighted>
0.0000

> <Gold.Chemscore.DEClash.Weighted>
0.0042

> <Gold.Chemscore.DEInternal.Weighted>
1.8412

> <Gold.Chemscore.Rot.Weighted>
3.7094

> <Gold.Chemscore.Internal.Correction.Weighted>
   9.000000E+99

> <Gold.Protein.RotatedTorsions>
[ 6907 6896 6895 6894 ] final -175.04 input  -60.11 | X-H torsion
[ 7974 7965 7964 7962 ] final -139.24 input  175.53 | X-H torsion
[ 8008 7997 7996 7995 ] final  -74.15 input   59.86 | X-H torsion
[ 10167 10162 10161 10158 ] final -142.31 input  -65.29 | X-H torsion
[ 10718 10713 10712 10709 ] final   59.57 input   66.30 | X-H torsion
[ 10763 10752 10751 10750 ] final -107.34 input  -60.55 | X-H torsion
[ 11005 11000 10999 10996 ] final  -72.13 input  -57.11 | X-H torsion

> <Gold.Protein.ActiveResidues>
 VAL166  LYS551  ARG553  GLY616  TRP617  ASP618  TYR619  PRO620  LYS621  CYS622 
 ASP623  PHE694  ASN695  SER759  ASP760  ASP761  ALA762  ILE779  LEU786  VAL792 
 PHE793  MET794  SER795  GLU796  ALA797  LYS798  CYS799  TRP800  GLU811  SER814 

> <Gold.Protein.RotatedAtoms>
  151.5822  133.3376  159.3010 H   0  0  0  0  0  0  0  0  0  0  0  0  # atno 6907 bound_to 6896
  150.8307  134.7562  159.6862 H   0  0  0  0  0  0  0  0  0  0  0  0  # atno 6908 bound_to 6896
  152.4391  134.5634  159.9952 H   0  0  0  0  0  0  0  0  0  0  0  0  # atno 6909 bound_to 6896
  144.8693  140.6341  143.5277 H   0  0  0  0  0  0  0  0  0  0  0  0  # atno 7974 bound_to 7965
  154.5306  140.0766  156.8338 H   0  0  0  0  0  0  0  0  0  0  0  0  # atno 8008 bound_to 7997
  155.3382  140.3406  155.4221 H   0  0  0  0  0  0  0  0  0  0  0  0  # atno 8009 bound_to 7997
  156.1777  140.1641  156.8318 H   0  0  0  0  0  0  0  0  0  0  0  0  # atno 8010 bound_to 7997
  139.8100  143.7715  152.2663 H   0  0  0  0  0  0  0  0  0  0  0  0  # atno 10167 bound_to 10162
  157.5686  130.8890  149.9229 H   0  0  0  0  0  0  0  0  0  0  0  0  # atno 10718 bound_to 10713
  154.8069  135.4678  154.0415 H   0  0  0  0  0  0  0  0  0  0  0  0  # atno 10763 bound_to 10752
  153.1877  135.6850  153.8400 H   0  0  0  0  0  0  0  0  0  0  0  0  # atno 10764 bound_to 10752
  153.7929  135.3240  155.3358 H   0  0  0  0  0  0  0  0  0  0  0  0  # atno 10765 bound_to 10752
  141.1603  133.6837  156.7011 H   0  0  0  0  0  0  0  0  0  0  0  0  # atno 11005 bound_to 11000
  145.4162  139.1571  143.4099 LP  0  0  0  0  0  0  0  0  0  0  0  0  # atno 17320 bound_to 7965
  146.2918  140.4269  142.8736 LP  0  0  0  0  0  0  0  0  0  0  0  0  # atno 17321 bound_to 7965
  139.7861  144.7427  151.0019 LP  0  0  0  0  0  0  0  0  0  0  0  0  # atno 17342 bound_to 10162
  140.7818  143.4490  151.0440 LP  0  0  0  0  0  0  0  0  0  0  0  0  # atno 17343 bound_to 10162
  156.0733  130.3682  150.0731 LP  0  0  0  0  0  0  0  0  0  0  0  0  # atno 17370 bound_to 10713
  156.8886  130.9581  151.3591 LP  0  0  0  0  0  0  0  0  0  0  0  0  # atno 17371 bound_to 10713
  140.2958  134.8204  157.4056 LP  0  0  0  0  0  0  0  0  0  0  0  0  # atno 17394 bound_to 11000
  140.1306  134.5100  155.8109 LP  0  0  0  0  0  0  0  0  0  0  0  0  # atno 17395 bound_to 11000

$$$$
