#       Name:                AV-unprocessed.smi:44
#       Creating user name   scv26
#       Creation time:       Thu Mar 26 16:26:03 2020


#       File generated by GOLD software.
#

@<TRIPOS>MOLECULE
AV-unprocessed.smi:44
    37    39     1
SMALL
NO_CHARGES


@<TRIPOS>ATOM
      1 ****        -2.6952   4.2622   1.3492 O.2            1 S1                 0.0000
      2 ****        -2.8294   3.0811   1.0354 C.2            1 S1                 0.0000
      3 ****        -3.9899   2.3593   1.1461 N.pl3          1 S1                -1.0000
      4 ****        -4.0110   1.0229   0.7519 C.2            1 S1                 0.0000
      5 ****        -3.0365   0.3276   0.2722 N.2            1 S1                 0.0000
      6 ****        -1.8555   1.0306   0.1531 C.2            1 S1                 0.0000
      7 ****        -1.6565   2.3427   0.4877 C.2            1 S1                 0.0000
      8 ****        -0.3469   2.7326   0.2357 N.2            1 S1                 0.0000
      9 ****         0.1898   1.6121  -0.2475 C.2            1 S1                 0.0000
     10 ****        -0.6412   0.5502  -0.3207 N.pl3          1 S1                 0.0000
     11 ****        -0.3507  -0.8354  -0.8107 C.3            1 S1                 0.0000
     12 ****        -0.2381  -1.7877   0.3805 C.3            1 S1                 0.0000
     13 ****         1.2264  -1.6499   0.7301 C.3            1 S1                 0.0000
     14 ****         1.8585  -1.5507  -0.6581 C.3            1 S1                 0.0000
     15 ****         3.2195  -0.8385  -0.6593 C.3            1 S1                 0.0000
     16 ****         3.9292  -1.1518  -1.8381 O.3            1 S1                 0.0000
     17 ****         0.9015  -0.8271  -1.4358 O.3            1 S1                 0.0000
     18 ****        -1.1638  -1.0625  -1.5010 H              1 S1                 0.0000
     19 ****         1.9490  -2.5579  -1.0692 H              1 S1                 0.0000
     20 ****        -4.9976   0.5740   0.8923 H              1 S1                 0.0000
     21 ****         1.2226   1.5684  -0.5570 H              1 S1                 0.0000
     22 ****        -0.9178  -1.5234   1.1915 H              1 S1                 0.0000
     23 ****        -0.4630  -2.8005   0.0439 H              1 S1                 0.0000
     24 ****         1.3938  -0.7351   1.3009 H              1 S1                 0.0000
     25 ****         1.6072  -2.4897   1.3117 H              1 S1                 0.0000
     26 ****         3.1093   0.2407  -0.5578 H              1 S1                 0.0000
     27 ****         3.8205  -1.1814   0.1834 H              1 S1                 0.0000
     28 ****         4.7656  -0.7129  -1.8117 H              1 S1                 0.0000
     29 ****        -1.8095   4.7123   1.2354 LP             1 S1                 0.0000
     30 ****        -3.4717   4.7728   1.7183 LP             1 S1                 0.0000
     31 ****        -4.8169   2.7897   1.5079 LP             1 S1                 0.0000
     32 ****        -3.1285  -0.6332   0.0106 LP             1 S1                 0.0000
     33 ****         0.0825   3.6242   0.3798 LP             1 S1                 0.0000
     34 ****         3.4113  -0.8423  -2.6355 LP             1 S1                 0.0000
     35 ****         4.0690  -2.1404  -1.8945 LP             1 S1                 0.0000
     36 ****         1.2103   0.1183  -1.5399 LP             1 S1                 0.0000
     37 ****         0.8214  -1.2528  -2.3371 LP             1 S1                 0.0000
@<TRIPOS>BOND
    1    1    2 2     
    2    2    7 1     
    3    2    3 1     
    4    3    4 1     
    5    4    5 2     
    6    4   20 1     
    7    5    6 1     
    8    6   10 1     
    9    6    7 2     
   10    7    8 1     
   11    8    9 2     
   12    9   10 1     
   13    9   21 1     
   14   10   11 1     
   15   11   18 1     
   16   11   17 1     
   17   11   12 1     
   18   12   13 1     
   19   12   22 1     
   20   12   23 1     
   21   13   14 1     
   22   13   24 1     
   23   13   25 1     
   24   14   19 1     
   25   14   15 1     
   26   14   17 1     
   27   15   16 1     
   28   15   26 1     
   29   15   27 1     
   30   16   28 1     
   31    1   29 1     
   32    1   30 1     
   33    3   31 1     
   34    5   32 1     
   35    8   33 1     
   36   16   34 1     
   37   16   35 1     
   38   17   36 1     
   39   17   37 1     
@<TRIPOS>SUBSTRUCTURE
      1 S1             1
@<TRIPOS>SET
LONE_PAIRS      STATIC     ATOMS    <user>   **** ""
9 29 30 31 32 33 34 35 36 37
DONOR_HYDROGENS      STATIC     ATOMS    <user>   **** ""
1 28
ATOM$BLUE        STATIC     ATOMS    COLORGROUP SYSTEM
9 29 30 31 32 33 34 35 36 37
ATOM$RED        STATIC     ATOMS    COLORGROUP SYSTEM
1 28
