AV-unprocessed.smi:2437|AV-procd|sdf|9594|dock2
  -GOLD-   2272013223D 1   1.00000     0.00000
 Structure written by MMmdl.
 34 35  0  0  0  0  0  0  0  0  3 V2000
  151.5509  141.5870  158.2011 O   0  0  0  0  0  0  0  0  0  0  0  0
  150.9748  142.1223  157.2528 C   0  0  0  0  0  0  0  0  0  0  0  0
  150.3934  141.2857  156.1035 C   0  0  0  0  0  0  0  0  0  0  0  0
  148.9655  141.5443  155.8516 N   0  0  0  0  0  0  0  0  0  0  0  0
  148.1443  141.7487  156.9780 C   0  0  0  0  0  0  0  0  0  0  0  0
  146.8224  141.9852  156.8671 C   0  0  0  0  0  0  0  0  0  0  0  0
  145.9943  142.1931  158.0348 N   0  3  0  0  0  0  0  0  0  0  0  0
  144.8429  142.5860  157.8772 O   0  0  0  0  0  0  0  0  0  0  0  0
  146.4661  141.9730  159.1465 O   0  5  0  0  0  0  0  0  0  0  0  0
  146.2538  142.0229  155.5337 C   0  0  0  0  0  0  0  0  0  0  0  0
  147.0334  141.8264  154.4523 C   0  0  0  0  0  0  0  0  0  0  0  0
  148.4722  141.5703  154.5754 C   0  0  0  0  0  0  0  0  0  0  0  0
  149.1896  141.3890  153.5916 O   0  0  0  0  0  0  0  0  0  0  0  0
  150.7993  143.4486  157.1555 N   0  0  0  0  0  0  0  0  0  0  0  0
  151.2739  144.4339  158.1238 C   0  0  0  0  0  0  0  0  0  0  0  0
  152.7564  144.2099  158.4860 C   0  0  0  0  0  0  0  0  0  0  0  0
  152.7650  143.6779  159.9193 C   0  0  0  0  0  0  0  0  0  0  0  0
  151.5373  144.3162  160.5605 C   0  0  0  0  0  0  0  0  0  0  0  0
  150.4897  144.3240  159.4458 C   0  0  0  0  0  0  0  0  0  0  0  0
  150.9806  141.4853  155.2061 H   0  0  0  0  0  0  0  0  0  0  0  0
  150.5531  140.2271  156.3171 H   0  0  0  0  0  0  0  0  0  0  0  0
  148.6610  141.6939  157.9253 H   0  0  0  0  0  0  0  0  0  0  0  0
  145.1988  142.2065  155.3926 H   0  0  0  0  0  0  0  0  0  0  0  0
  146.5887  141.8567  153.4684 H   0  0  0  0  0  0  0  0  0  0  0  0
  150.3074  143.8039  156.3484 H   0  0  0  0  0  0  0  0  0  0  0  0
  151.1482  145.4369  157.7113 H   0  0  0  0  0  0  0  0  0  0  0  0
  153.2786  143.5413  157.8003 H   0  0  0  0  0  0  0  0  0  0  0  0
  153.2787  145.1670  158.4560 H   0  0  0  0  0  0  0  0  0  0  0  0
  152.6533  142.5928  159.9102 H   0  0  0  0  0  0  0  0  0  0  0  0
  153.6875  143.9144  160.4500 H   0  0  0  0  0  0  0  0  0  0  0  0
  151.2016  143.7825  161.4500 H   0  0  0  0  0  0  0  0  0  0  0  0
  151.7692  145.3410  160.8539 H   0  0  0  0  0  0  0  0  0  0  0  0
  149.7717  145.1357  159.5677 H   0  0  0  0  0  0  0  0  0  0  0  0
  149.9268  143.3897  159.4836 H   0  0  0  0  0  0  0  0  0  0  0  0
  1  2  2  0  0  0  0
  2  3  1  0  0  0  0
  2 14  1  0  0  0  0
  3  4  1  0  0  0  0
  3 20  1  0  0  0  0
  3 21  1  0  0  0  0
  4 12  1  0  0  0  0
  4  5  1  0  0  0  0
  5  6  2  0  0  0  0
  5 22  1  0  0  0  0
  6  7  1  0  0  0  0
  6 10  1  0  0  0  0
  7  8  2  0  0  0  0
  7  9  1  0  0  0  0
 10 11  2  0  0  0  0
 10 23  1  0  0  0  0
 11 12  1  0  0  0  0
 11 24  1  0  0  0  0
 12 13  2  0  0  0  0
 14 15  1  0  0  0  0
 14 25  1  0  0  0  0
 15 19  1  0  0  0  0
 15 16  1  0  0  0  0
 15 26  1  0  0  0  0
 16 17  1  0  0  0  0
 16 27  1  0  0  0  0
 16 28  1  0  0  0  0
 17 18  1  0  0  0  0
 17 29  1  0  0  0  0
 17 30  1  0  0  0  0
 18 19  1  0  0  0  0
 18 31  1  0  0  0  0
 18 32  1  0  0  0  0
 19 33  1  0  0  0  0
 19 34  1  0  0  0  0
M  CHG  1   7   1
M  CHG  1   9  -1
M  END
> <s_m_source_file>
AV-unprocessed.smi

> <i_m_source_file_index>
2437

> <i_lp_mmshare_version>
43012

> <i_f3d_flags>
0

> <s_epik_input>
W0NIMl0xW0NIMl1bQ0gyXVtDSDJdW0NIXTFbTkhdQyg9TylbQ0gyXW4yW2NIXWMoW04rXSg9TylbTy1dKVtjSF1bY0hdYzI9Tw==

> <s_epik_cmdline>
J2VwaWtfcHl0aG9uJywgJy1waCcsICc3LjAnLCAnLXRuJywgJzgnLCAnLW1hJywgJzIwMCcsICctbWV0YWxfYmluZGluZycsICctaW1hZScsICc8aW5maWxlLm1hZT4nLCAnLW9tYWUnLCAnPG91dGZpbGUubWFlPic=

> <r_lp_tautomer_probability>
1

> <r_epik_Ionization_Penalty>
1.93821e-08

> <r_epik_Ionization_Penalty_Charging>
8.03436e-11

> <r_epik_Ionization_Penalty_Neutral>
1.93017e-08

> <r_epik_State_Penalty>
-0

> <r_epik_Charging_Adjusted_Penalty>
8.03436e-11

> <i_epik_Tot_Q>
0

> <i_epik_Tot_abs_Q>
2

> <r_epik_Metal_State_Penalty>
-0

> <b_epik_Metal_Only>
0

> <s_lp_Force_Field>
OPLS_2005

> <r_lp_Energy>
29.2975

> <b_lp_Chiralities_Consistent>
1

> <s_lp_Variant>
AV-unprocessed.smi:2437-1

> <Gold.Version>
5.8.1

> <Gold.Id.Protein>
6NUR|6NUR_protein|mol2

> <Gold.PLP.Fitness>
45.9663

> <Gold.PLP.PLP>
-38.6534

> <Gold.PLP.part.hbond>
-4.0000

> <Gold.PLP.part.metal>
0.0000

> <Gold.PLP.part.buried>
-6.0951

> <Gold.PLP.part.nonpolar>
-32.1243

> <Gold.PLP.part.repulsive>
2.3550

> <Gold.PLP.ligand.clash>
0.0000

> <Gold.PLP.ligand.torsion>
0.4823

> <Gold.PLP.Chemscore.Hbond>
2.7520

> <Gold.PLP.Chemscore.CHOScore>
0.0000

> <Gold.PLP.Chemscore.Metal>
0.0000

> <Gold.Chemscore.Hbonds>
donor molecule, donor type, donor heavy atom, donor atom, acceptor molecule, acceptor atom, score
      L1  H    14    25       P1  8028  0.98
      P1  H  6934  6946       L1     9  0.90
      P1  H  8011  8017       L1    13  0.88

> <Gold.PLP.Chemscore.Internal.Correction>
0.0217

> <Gold.Rescore>
     Score         DG    S(hbond)    S(metal)    S(lipo)     H(rot)  DE(clash)    DE(int)     intcor
     16.83     -20.02       2.71        0.00      81.37       1.58       0.60       2.58       ----

> <Gold.Chemscore.Fitness>
16.8281

> <Gold.Chemscore.DG>
-20.0158

> <Gold.Chemscore.ZeroCoef>
-5.4800

> <Gold.Chemscore.Hbond>
2.7150

> <Gold.Chemscore.Metal>
0.0000

> <Gold.Chemscore.Lipo>
81.3715

> <Gold.Chemscore.Internal_Hbond>
0.0000

> <Gold.Chemscore.DEClash>
0.6035

> <Gold.Chemscore.DEInternal>
2.5842

> <Gold.Chemscore.Rot>
1.5831

> <Gold.Chemscore.Internal.Correction>
   9.000000E+99

> <Gold.Chemscore.Hbonds>
donor molecule, donor type, donor heavy atom, donor atom, acceptor molecule, acceptor atom, score
      L1  H    14    25       P1  8028  0.93
      P1  H  6934  6946       L1     9  0.87
      P1  H  7989  7998       L1    13  0.01
      P1  H  8011  8017       L1    13  0.87

> <Gold.Chemscore.Hbond.Weighted>
-9.0680

> <Gold.Chemscore.Metal.Weighted>
-0.0000

> <Gold.Chemscore.Lipo.Weighted>
-9.5205

> <Gold.Chemscore.Internal_Hbond.Weighted>
0.0000

> <Gold.Chemscore.DEClash.Weighted>
0.6035

> <Gold.Chemscore.DEInternal.Weighted>
2.5842

> <Gold.Chemscore.Rot.Weighted>
4.0527

> <Gold.Chemscore.Internal.Correction.Weighted>
   9.000000E+99

> <Gold.Protein.RotatedTorsions>
[ 6907 6896 6895 6894 ] final  132.19 input  -60.11 | X-H torsion
[ 7974 7965 7964 7962 ] final  172.58 input  175.53 | X-H torsion
[ 8008 7997 7996 7995 ] final  -18.56 input   59.86 | X-H torsion
[ 10167 10162 10161 10158 ] final   43.13 input  -65.29 | X-H torsion
[ 10718 10713 10712 10709 ] final   50.67 input   66.30 | X-H torsion
[ 10763 10752 10751 10750 ] final  -37.12 input  -60.55 | X-H torsion
[ 11005 11000 10999 10996 ] final -102.84 input  -57.11 | X-H torsion

> <Gold.Protein.ActiveResidues>
 VAL166  LYS551  ARG553  GLY616  TRP617  ASP618  TYR619  PRO620  LYS621  CYS622 
 ASP623  PHE694  ASN695  SER759  ASP760  ASP761  ALA762  ILE779  LEU786  VAL792 
 PHE793  MET794  SER795  GLU796  ALA797  LYS798  CYS799  TRP800  GLU811  SER814 

> <Gold.Protein.RotatedAtoms>
  152.3349  133.6001  159.5835 H   0  0  0  0  0  0  0  0  0  0  0  0  # atno 6907 bound_to 6896
  150.7445  133.9810  159.3585 H   0  0  0  0  0  0  0  0  0  0  0  0  # atno 6908 bound_to 6896
  151.7681  135.0794  160.0407 H   0  0  0  0  0  0  0  0  0  0  0  0  # atno 6909 bound_to 6896
  144.7265  139.9519  143.6432 H   0  0  0  0  0  0  0  0  0  0  0  0  # atno 7974 bound_to 7965
  154.4897  140.2112  155.9575 H   0  0  0  0  0  0  0  0  0  0  0  0  # atno 8008 bound_to 7997
  156.1288  140.3200  155.8286 H   0  0  0  0  0  0  0  0  0  0  0  0  # atno 8009 bound_to 7997
  155.4334  140.0505  157.3007 H   0  0  0  0  0  0  0  0  0  0  0  0  # atno 8010 bound_to 7997
  140.3475  144.2393  150.6149 H   0  0  0  0  0  0  0  0  0  0  0  0  # atno 10167 bound_to 10162
  157.4907  130.8374  149.8199 H   0  0  0  0  0  0  0  0  0  0  0  0  # atno 10718 bound_to 10713
  153.8910  135.6812  153.4760 H   0  0  0  0  0  0  0  0  0  0  0  0  # atno 10763 bound_to 10752
  153.1181  135.4752  154.9147 H   0  0  0  0  0  0  0  0  0  0  0  0  # atno 10764 bound_to 10752
  154.7622  135.3214  154.8309 H   0  0  0  0  0  0  0  0  0  0  0  0  # atno 10765 bound_to 10752
  141.1172  133.8591  157.1410 H   0  0  0  0  0  0  0  0  0  0  0  0  # atno 11005 bound_to 11000
  146.0705  139.3694  143.0526 LP  0  0  0  0  0  0  0  0  0  0  0  0  # atno 17320 bound_to 7965
  145.7975  140.9786  143.1016 LP  0  0  0  0  0  0  0  0  0  0  0  0  # atno 17321 bound_to 7965
  140.5251  143.2256  151.8328 LP  0  0  0  0  0  0  0  0  0  0  0  0  # atno 17342 bound_to 10162
  139.4831  144.4789  151.9331 LP  0  0  0  0  0  0  0  0  0  0  0  0  # atno 17343 bound_to 10162
  156.0172  130.3809  150.2074 LP  0  0  0  0  0  0  0  0  0  0  0  0  # atno 17370 bound_to 10713
  157.0263  130.9994  151.3325 LP  0  0  0  0  0  0  0  0  0  0  0  0  # atno 17371 bound_to 10713
  140.0102  134.9991  157.0379 LP  0  0  0  0  0  0  0  0  0  0  0  0  # atno 17394 bound_to 11000
  140.4612  134.1482  155.7191 LP  0  0  0  0  0  0  0  0  0  0  0  0  # atno 17395 bound_to 11000

$$$$
