AV-unprocessed.smi:870|AV-procd|sdf|4008|dock5
  -GOLD-   22720 1493D 1   1.00000     0.00000
 Structure written by MMmdl.
 46 48  0  0  0  0  0  0  0  0  1 V2000
  147.6633  145.2184  161.0449 C   0  0  0  0  0  0  0  0  0  0  0  0
  148.8081  144.3880  161.1084 O   0  0  0  0  0  0  0  0  0  0  0  0
  149.9089  144.9313  160.3991 C   0  0  0  0  0  0  0  0  0  0  0  0
  151.0335  143.9443  160.4872 C   0  0  0  0  0  0  0  0  0  0  0  0
  151.6057  143.6335  161.6510 N   0  0  0  0  0  0  0  0  0  0  0  0
  152.5827  142.7313  161.2782 C   0  0  0  0  0  0  0  0  0  0  0  0
  153.5354  142.0362  162.0572 C   0  0  0  0  0  0  0  0  0  0  0  0
  154.4523  141.1562  161.4458 C   0  0  0  0  0  0  0  0  0  0  0  0
  154.4305  140.9598  160.0498 C   0  0  0  0  0  0  0  0  0  0  0  0
  153.4894  141.6424  159.2552 C   0  0  0  0  0  0  0  0  0  0  0  0
  152.5746  142.5178  159.8707 C   0  0  0  0  0  0  0  0  0  0  0  0
  151.5430  143.3206  159.3937 N   0  0  0  0  0  0  0  0  0  0  0  0
  151.1299  143.4499  158.0016 C   0  0  0  0  0  0  0  0  0  0  0  0
  150.8235  142.0888  157.3387 C   0  0  1  0  0  0  0  0  0  0  0  0
  149.5392  141.6058  157.6784 O   0  0  0  0  0  0  0  0  0  0  0  0
  150.9630  142.1056  155.8081 C   0  0  0  0  0  0  0  0  0  0  0  0
  150.6819  140.8105  155.2926 O   0  0  0  0  0  0  0  0  0  0  0  0
  149.4802  140.5982  154.6507 C   0  0  0  0  0  0  0  0  0  0  0  0
  148.5375  141.6235  154.3839 C   0  0  0  0  0  0  0  0  0  0  0  0
  147.3296  141.3295  153.7230 C   0  0  0  0  0  0  0  0  0  0  0  0
  147.0479  140.0118  153.3205 C   0  0  0  0  0  0  0  0  0  0  0  0
  147.9761  138.9872  153.5795 C   0  0  0  0  0  0  0  0  0  0  0  0
  149.1876  139.2763  154.2417 C   0  0  0  0  0  0  0  0  0  0  0  0
  150.1814  138.1613  154.5086 C   0  0  0  0  0  0  0  0  0  0  0  0
  146.8421  144.7527  161.5894 H   0  0  0  0  0  0  0  0  0  0  0  0
  147.3414  145.3671  160.0135 H   0  0  0  0  0  0  0  0  0  0  0  0
  147.8581  146.1928  161.4946 H   0  0  0  0  0  0  0  0  0  0  0  0
  149.6607  145.1119  159.3522 H   0  0  0  0  0  0  0  0  0  0  0  0
  150.2143  145.8819  160.8399 H   0  0  0  0  0  0  0  0  0  0  0  0
  153.5607  142.1810  163.1270 H   0  0  0  0  0  0  0  0  0  0  0  0
  155.1762  140.6298  162.0506 H   0  0  0  0  0  0  0  0  0  0  0  0
  155.1369  140.2846  159.5893 H   0  0  0  0  0  0  0  0  0  0  0  0
  153.4710  141.4942  158.1861 H   0  0  0  0  0  0  0  0  0  0  0  0
  150.2649  144.1086  157.9426 H   0  0  0  0  0  0  0  0  0  0  0  0
  151.9273  143.9554  157.4562 H   0  0  0  0  0  0  0  0  0  0  0  0
  151.5259  141.3500  157.7251 H   0  0  0  0  0  0  0  0  0  0  0  0
  149.4364  140.7427  157.3070 H   0  0  0  0  0  0  0  0  0  0  0  0
  150.2468  142.8196  155.3983 H   0  0  0  0  0  0  0  0  0  0  0  0
  151.9636  142.4336  155.5209 H   0  0  0  0  0  0  0  0  0  0  0  0
  148.7164  142.6467  154.6765 H   0  0  0  0  0  0  0  0  0  0  0  0
  146.6182  142.1175  153.5245 H   0  0  0  0  0  0  0  0  0  0  0  0
  146.1210  139.7874  152.8137 H   0  0  0  0  0  0  0  0  0  0  0  0
  147.7539  137.9775  153.2664 H   0  0  0  0  0  0  0  0  0  0  0  0
  149.7727  137.1878  154.2374 H   0  0  0  0  0  0  0  0  0  0  0  0
  150.4494  138.1325  155.5652 H   0  0  0  0  0  0  0  0  0  0  0  0
  151.0896  138.3228  153.9280 H   0  0  0  0  0  0  0  0  0  0  0  0
  1  2  1  0  0  0  0
  1 25  1  0  0  0  0
  1 26  1  0  0  0  0
  1 27  1  0  0  0  0
  2  3  1  0  0  0  0
  3  4  1  0  0  0  0
  3 28  1  0  0  0  0
  3 29  1  0  0  0  0
  4 12  1  0  0  0  0
  4  5  2  0  0  0  0
  5  6  1  0  0  0  0
  6 11  2  0  0  0  0
  6  7  1  0  0  0  0
  7  8  2  0  0  0  0
  7 30  1  0  0  0  0
  8  9  1  0  0  0  0
  8 31  1  0  0  0  0
  9 10  2  0  0  0  0
  9 32  1  0  0  0  0
 10 11  1  0  0  0  0
 10 33  1  0  0  0  0
 11 12  1  0  0  0  0
 12 13  1  0  0  0  0
 13 14  1  0  0  0  0
 13 34  1  0  0  0  0
 13 35  1  0  0  0  0
 14 15  1  0  0  0  0
 14 16  1  0  0  0  0
 14 36  1  0  0  0  0
 15 37  1  0  0  0  0
 16 17  1  0  0  0  0
 16 38  1  0  0  0  0
 16 39  1  0  0  0  0
 17 18  1  0  0  0  0
 18 23  1  0  0  0  0
 18 19  2  0  0  0  0
 19 20  1  0  0  0  0
 19 40  1  0  0  0  0
 20 21  2  0  0  0  0
 20 41  1  0  0  0  0
 21 22  1  0  0  0  0
 21 42  1  0  0  0  0
 22 23  2  0  0  0  0
 22 43  1  0  0  0  0
 23 24  1  0  0  0  0
 24 44  1  0  0  0  0
 24 45  1  0  0  0  0
 24 46  1  0  0  0  0
M  END
> <s_m_source_file>
AV-unprocessed.smi

> <i_m_source_file_index>
870

> <i_lp_mmshare_version>
43012

> <i_f3d_flags>
0

> <s_epik_input>
W2NIXTFbY0hdW2NIXVtjSF1jKGMxMiluKGMobjIpW0NIMl1PW0NIM10pW0NIMl1bQ0BIXShbT0hdKVtDSDJdT2MzW2NIXVtjSF1bY0hdW2NIXWMzW0NIM10=

> <s_epik_cmdline>
J2VwaWtfcHl0aG9uJywgJy1waCcsICc3LjAnLCAnLXRuJywgJzgnLCAnLW1hJywgJzIwMCcsICctbWV0YWxfYmluZGluZycsICctaW1hZScsICc8aW5maWxlLm1hZT4nLCAnLW9tYWUnLCAnPG91dGZpbGUubWFlPic=

> <r_lp_tautomer_probability>
1

> <r_epik_Ionization_Penalty>
0.0447032

> <r_epik_Ionization_Penalty_Charging>
0

> <r_epik_Ionization_Penalty_Neutral>
0.0447032

> <r_epik_State_Penalty>
0.0379025

> <r_epik_Charging_Adjusted_Penalty>
0.0379025

> <i_epik_Tot_Q>
0

> <i_epik_Tot_abs_Q>
0

> <r_epik_Metal_State_Penalty>
3.91398e-05

> <b_epik_Metal_Only>
0

> <s_lp_Force_Field>
OPLS_2005

> <r_lp_Energy>
16.5078

> <b_lp_Chiralities_Consistent>
1

> <s_lp_Variant>
AV-unprocessed.smi:870-2

> <Gold.Version>
5.8.1

> <Gold.Id.Protein>
6NUR|6NUR_protein|mol2

> <Gold.PLP.Fitness>
56.3487

> <Gold.PLP.PLP>
-54.3241

> <Gold.PLP.part.hbond>
-2.4114

> <Gold.PLP.part.metal>
0.0000

> <Gold.PLP.part.buried>
-5.5673

> <Gold.PLP.part.nonpolar>
-47.2340

> <Gold.PLP.part.repulsive>
0.5137

> <Gold.PLP.ligand.clash>
0.0000

> <Gold.PLP.ligand.torsion>
0.6388

> <Gold.PLP.Chemscore.Hbond>
1.0484

> <Gold.PLP.Chemscore.CHOScore>
0.0000

> <Gold.PLP.Chemscore.Metal>
0.0000

> <Gold.Chemscore.Hbonds>
donor molecule, donor type, donor heavy atom, donor atom, acceptor molecule, acceptor atom, score
      P1  H  6933  6944       L1     2  0.69
      P1  H  7989  7998       L1    17  0.41

> <Gold.PLP.Chemscore.Internal.Correction>
0.1570

> <Gold.Rescore>
     Score         DG    S(hbond)    S(metal)    S(lipo)     H(rot)  DE(clash)    DE(int)     intcor
     17.66     -19.65       0.80        0.00     149.82       2.36       1.36       0.63       ----

> <Gold.Chemscore.Fitness>
17.6557

> <Gold.Chemscore.DG>
-19.6488

> <Gold.Chemscore.ZeroCoef>
-5.4800

> <Gold.Chemscore.Hbond>
0.8016

> <Gold.Chemscore.Metal>
0.0000

> <Gold.Chemscore.Lipo>
149.8237

> <Gold.Chemscore.Internal_Hbond>
0.0000

> <Gold.Chemscore.DEClash>
1.3647

> <Gold.Chemscore.DEInternal>
0.6284

> <Gold.Chemscore.Rot>
2.3585

> <Gold.Chemscore.Internal.Correction>
   9.000000E+99

> <Gold.Chemscore.Hbonds>
donor molecule, donor type, donor heavy atom, donor atom, acceptor molecule, acceptor atom, score
      P1  H  6933  6944       L1     2  0.64
      P1  H  7989  7998       L1    17  0.01

> <Gold.Chemscore.Hbond.Weighted>
-2.6773

> <Gold.Chemscore.Metal.Weighted>
-0.0000

> <Gold.Chemscore.Lipo.Weighted>
-17.5294

> <Gold.Chemscore.Internal_Hbond.Weighted>
0.0000

> <Gold.Chemscore.DEClash.Weighted>
1.3647

> <Gold.Chemscore.DEInternal.Weighted>
0.6284

> <Gold.Chemscore.Rot.Weighted>
6.0378

> <Gold.Chemscore.Internal.Correction.Weighted>
   9.000000E+99

> <Gold.Protein.RotatedTorsions>
[ 6907 6896 6895 6894 ] final  -36.58 input  -60.11 | X-H torsion
[ 7974 7965 7964 7962 ] final   81.73 input  175.53 | X-H torsion
[ 8008 7997 7996 7995 ] final  -22.79 input   59.86 | X-H torsion
[ 10167 10162 10161 10158 ] final -155.42 input  -65.29 | X-H torsion
[ 10718 10713 10712 10709 ] final -103.73 input   66.30 | X-H torsion
[ 10763 10752 10751 10750 ] final  -64.61 input  -60.55 | X-H torsion
[ 11005 11000 10999 10996 ] final  -33.07 input  -57.11 | X-H torsion

> <Gold.Protein.ActiveResidues>
 VAL166  LYS551  ARG553  GLY616  TRP617  ASP618  TYR619  PRO620  LYS621  CYS622 
 ASP623  PHE694  ASN695  SER759  ASP760  ASP761  ALA762  ILE779  LEU786  VAL792 
 PHE793  MET794  SER795  GLU796  ALA797  LYS798  CYS799  TRP800  GLU811  SER814 

> <Gold.Protein.RotatedAtoms>
  151.0254  134.9500  159.8081 H   0  0  0  0  0  0  0  0  0  0  0  0  # atno 6907 bound_to 6896
  152.5334  134.2849  159.9031 H   0  0  0  0  0  0  0  0  0  0  0  0  # atno 6908 bound_to 6896
  151.2857  133.4146  159.2664 H   0  0  0  0  0  0  0  0  0  0  0  0  # atno 6909 bound_to 6896
  145.6343  139.2411  143.2067 H   0  0  0  0  0  0  0  0  0  0  0  0  # atno 7974 bound_to 7965
  154.4623  140.1998  156.0211 H   0  0  0  0  0  0  0  0  0  0  0  0  # atno 8008 bound_to 7997
  156.0863  140.3264  155.7730 H   0  0  0  0  0  0  0  0  0  0  0  0  # atno 8009 bound_to 7997
  155.5029  140.0555  157.2927 H   0  0  0  0  0  0  0  0  0  0  0  0  # atno 8010 bound_to 7997
  139.6932  143.9385  152.2395 H   0  0  0  0  0  0  0  0  0  0  0  0  # atno 10167 bound_to 10162
  156.0277  130.5481  150.7296 H   0  0  0  0  0  0  0  0  0  0  0  0  # atno 10718 bound_to 10713
  154.3326  135.6173  153.5559 H   0  0  0  0  0  0  0  0  0  0  0  0  # atno 10763 bound_to 10752
  152.9810  135.5750  154.4944 H   0  0  0  0  0  0  0  0  0  0  0  0  # atno 10764 bound_to 10752
  154.4633  135.2856  155.1674 H   0  0  0  0  0  0  0  0  0  0  0  0  # atno 10765 bound_to 10752
  140.9605  133.7167  156.1361 H   0  0  0  0  0  0  0  0  0  0  0  0  # atno 11005 bound_to 11000
  146.1332  140.7158  142.9402 LP  0  0  0  0  0  0  0  0  0  0  0  0  # atno 17320 bound_to 7965
  144.7182  140.4282  143.7028 LP  0  0  0  0  0  0  0  0  0  0  0  0  # atno 17321 bound_to 7965
  139.9207  144.6801  150.8464 LP  0  0  0  0  0  0  0  0  0  0  0  0  # atno 17342 bound_to 10162
  140.7689  143.3377  151.2274 LP  0  0  0  0  0  0  0  0  0  0  0  0  # atno 17343 bound_to 10162
  157.4891  131.0909  151.0447 LP  0  0  0  0  0  0  0  0  0  0  0  0  # atno 17370 bound_to 10713
  157.0859  130.5922  149.5430 LP  0  0  0  0  0  0  0  0  0  0  0  0  # atno 17371 bound_to 10713
  140.7475  134.4082  157.5546 LP  0  0  0  0  0  0  0  0  0  0  0  0  # atno 17394 bound_to 11000
  139.8876  134.8877  156.2518 LP  0  0  0  0  0  0  0  0  0  0  0  0  # atno 17395 bound_to 11000

$$$$
