#       Name:                AV-unprocessed.smi:878
#       Creating user name   scv26
#       Creation time:       Fri Mar 27 01:52:26 2020


#       File generated by GOLD software.
#

@<TRIPOS>MOLECULE
AV-unprocessed.smi:878
    39    40     1
SMALL
NO_CHARGES


@<TRIPOS>ATOM
      1 ****        -5.9927   0.7366  -2.0121 C.3            1 S1                 0.0000
      2 ****        -5.2724   1.6552  -0.6245 S.3            1 S1                 0.0000
      3 ****        -3.5325   1.3318  -0.5924 C.ar           1 S1                 0.0000
      4 ****        -2.9567   0.3094  -1.3755 C.ar           1 S1                 0.0000
      5 ****        -1.5680   0.0772  -1.3261 C.ar           1 S1                 0.0000
      6 ****        -0.7356   0.8667  -0.4937 C.ar           1 S1                 0.0000
      7 ****         0.6296   0.7124  -0.3905 O.3            1 S1                 0.0000
      8 ****         1.2456  -0.3535  -1.1002 C.3            1 S1                 0.0000
      9 ****         2.7599  -0.3513  -0.8332 C.3            1 S1                 0.0000
     10 ****         3.0990  -0.7291   0.5180 N.am           1 S1                 0.0000
     11 ****         3.3084  -2.0502   0.8821 C.2            1 S1                 0.0000
     12 ****         3.6119  -2.4342   2.1455 C.2            1 S1                 0.0000
     13 ****         3.8578  -4.1023   2.5203 Cl             1 S1                 0.0000
     14 ****         3.7312  -1.4340   3.2055 C.2            1 S1                 0.0000
     15 ****         4.0054  -1.6704   4.3805 O.2            1 S1                 0.0000
     16 ****         3.5035  -0.1169   2.7954 N.am           1 S1                 0.0000
     17 ****         3.1874   0.2874   1.4980 C.2            1 S1                 0.0000
     18 ****         3.0003   1.4803   1.2587 O.2            1 S1                 0.0000
     19 ****        -1.3233   1.8839   0.2851 C.ar           1 S1                 0.0000
     20 ****        -2.7112   2.1152   0.2402 C.ar           1 S1                 0.0000
     21 ****         3.5716   0.6040   3.4991 H              1 S1                 0.0000
     22 ****        -7.0538   0.9690  -2.1014 H              1 S1                 0.0000
     23 ****        -5.8904  -0.3375  -1.8582 H              1 S1                 0.0000
     24 ****        -5.5017   1.0093  -2.9464 H              1 S1                 0.0000
     25 ****        -3.5629  -0.3087  -2.0189 H              1 S1                 0.0000
     26 ****        -1.1649  -0.7131  -1.9407 H              1 S1                 0.0000
     27 ****         0.8155  -1.3120  -0.8043 H              1 S1                 0.0000
     28 ****         1.0763  -0.2261  -2.1703 H              1 S1                 0.0000
     29 ****         3.2550  -1.0841  -1.4723 H              1 S1                 0.0000
     30 ****         3.2292   0.6080  -1.0607 H              1 S1                 0.0000
     31 ****         3.2239  -2.8149   0.1228 H              1 S1                 0.0000
     32 ****        -0.7022   2.4931   0.9253 H              1 S1                 0.0000
     33 ****        -3.1430   2.8987   0.8455 H              1 S1                 0.0000
     34 ****         0.8399   0.5827   0.5785 LP             1 S1                 0.0000
     35 ****         1.0481   1.5620  -0.7116 LP             1 S1                 0.0000
     36 ****         4.1675  -2.6117   4.6765 LP             1 S1                 0.0000
     37 ****         4.0663  -0.9213   5.0402 LP             1 S1                 0.0000
     38 ****         2.7722   1.7743   0.3305 LP             1 S1                 0.0000
     39 ****         3.0764   2.1554   1.9925 LP             1 S1                 0.0000
@<TRIPOS>BOND
    1    1    2 1     
    2    1   22 1     
    3    1   23 1     
    4    1   24 1     
    5    2    3 1     
    6    3   20 ar    
    7    3    4 ar    
    8    4    5 ar    
    9    4   25 1     
   10    5    6 ar    
   11    5   26 1     
   12    6    7 1     
   13    6   19 ar    
   14    7    8 1     
   15    8    9 1     
   16    8   27 1     
   17    8   28 1     
   18    9   10 1     
   19    9   29 1     
   20    9   30 1     
   21   10   17 1     
   22   10   11 1     
   23   11   12 2     
   24   11   31 1     
   25   12   13 1     
   26   12   14 1     
   27   14   15 2     
   28   14   16 1     
   29   16   21 1     
   30   16   17 1     
   31   17   18 2     
   32   19   20 ar    
   33   19   32 1     
   34   20   33 1     
   35    7   34 1     
   36    7   35 1     
   37   15   36 1     
   38   15   37 1     
   39   18   38 1     
   40   18   39 1     
@<TRIPOS>SUBSTRUCTURE
      1 S1             1
@<TRIPOS>SET
LONE_PAIRS      STATIC     ATOMS    <user>   **** ""
6 34 35 36 37 38 39
DONOR_HYDROGENS      STATIC     ATOMS    <user>   **** ""
1 21
ATOM$BLUE        STATIC     ATOMS    COLORGROUP SYSTEM
6 34 35 36 37 38 39
ATOM$RED        STATIC     ATOMS    COLORGROUP SYSTEM
1 21
