AV-unprocessed.smi:2886|AV-procd|sdf|11097|dock2
  -GOLD-   2272015563D 1   1.00000     0.00000
 Structure written by MMmdl.
 27 29  0  0  0  0  0  0  0  0  2 V2000
  152.2256  137.0808  155.5267 O   0  0  0  0  0  0  0  0  0  0  0  0
  151.7235  138.2035  155.5153 C   0  0  0  0  0  0  0  0  0  0  0  0
  151.1048  138.7130  154.4072 N   0  5  0  0  0  0  0  0  0  0  0  0
  150.5194  140.0347  154.4457 N   0  0  0  0  0  0  0  0  0  0  0  0
  150.5769  140.7482  155.5001 C   0  0  0  0  0  0  0  0  0  0  0  0
  151.2427  140.2807  156.7407 C   0  0  0  0  0  0  0  0  0  0  0  0
  151.3048  141.0578  157.8905 N   0  0  0  0  0  0  0  0  0  0  0  0
  150.7732  142.3951  158.1146 C   0  0  2  0  0  0  0  0  0  0  0  0
  151.2788  143.4197  157.0979 C   0  0  0  0  0  0  0  0  0  0  0  0
  151.8445  144.5129  158.0160 C   0  0  2  0  0  0  0  0  0  0  0  0
  153.1820  144.0898  158.6368 C   0  0  0  0  0  0  0  0  0  0  0  0
  152.7346  143.0419  159.6544 C   0  0  0  0  0  0  0  0  0  0  0  0
  151.2107  143.0268  159.4474 C   0  0  1  0  0  0  0  0  0  0  0  0
  150.9902  144.3940  159.1424 O   0  0  0  0  0  0  0  0  0  0  0  0
  151.7845  139.0364  156.7227 C   0  0  0  0  0  0  0  0  0  0  0  0
  152.5720  138.3956  158.1280 Cl  0  0  0  0  0  0  0  0  0  0  0  0
  150.1272  141.7431  155.5344 H   0  0  0  0  0  0  0  0  0  0  0  0
  151.9032  140.7139  158.6279 H   0  0  0  0  0  0  0  0  0  0  0  0
  149.6847  142.3795  158.0620 H   0  0  0  0  0  0  0  0  0  0  0  0
  152.0347  143.0269  156.4161 H   0  0  0  0  0  0  0  0  0  0  0  0
  150.4498  143.8008  156.5007 H   0  0  0  0  0  0  0  0  0  0  0  0
  151.8612  145.5052  157.5649 H   0  0  0  0  0  0  0  0  0  0  0  0
  153.8774  143.6925  157.8967 H   0  0  0  0  0  0  0  0  0  0  0  0
  153.6607  144.9305  159.1399 H   0  0  0  0  0  0  0  0  0  0  0  0
  153.1977  142.0677  159.4955 H   0  0  0  0  0  0  0  0  0  0  0  0
  152.9799  143.3684  160.6656 H   0  0  0  0  0  0  0  0  0  0  0  0
  150.6514  142.6640  160.3102 H   0  0  0  0  0  0  0  0  0  0  0  0
  1  2  2  0  0  0  0
  2 15  1  0  0  0  0
  2  3  1  0  0  0  0
  3  4  1  0  0  0  0
  4  5  2  0  0  0  0
  5  6  1  0  0  0  0
  5 17  1  0  0  0  0
  6  7  1  0  0  0  0
  6 15  2  0  0  0  0
  7  8  1  0  0  0  0
  7 18  1  0  0  0  0
  8 13  1  0  0  0  0
  8  9  1  0  0  0  0
  8 19  1  0  0  0  0
  9 10  1  0  0  0  0
  9 20  1  0  0  0  0
  9 21  1  0  0  0  0
 10 14  1  0  0  0  0
 10 11  1  0  0  0  0
 10 22  1  0  0  0  0
 11 12  1  0  0  0  0
 11 23  1  0  0  0  0
 11 24  1  0  0  0  0
 12 13  1  0  0  0  0
 12 25  1  0  0  0  0
 12 26  1  0  0  0  0
 13 14  1  0  0  0  0
 13 27  1  0  0  0  0
 15 16  1  0  0  0  0
M  CHG  1   3  -1
M  END
> <s_m_source_file>
AV-unprocessed.smi

> <i_m_source_file_index>
2886

> <i_lp_mmshare_version>
43012

> <i_f3d_flags>
0

> <s_epik_input>
Tz1jMVtuSF1uW2NIXWMoYzFDbClbTkhdW0NASF0oW0NIMl1bQ0BASF0yMylbQ0BASF0oTzMpW0NIMl1bQ0gyXTI=

> <s_epik_cmdline>
J2VwaWtfcHl0aG9uJywgJy1waCcsICc3LjAnLCAnLXRuJywgJzgnLCAnLW1hJywgJzIwMCcsICctbWV0YWxfYmluZGluZycsICctaW1hZScsICc8aW5maWxlLm1hZT4nLCAnLW9tYWUnLCAnPG91dGZpbGUubWFlPic=

> <r_lp_tautomer_probability>
0.986175

> <r_epik_Ionization_Penalty>
3.84253

> <r_epik_Ionization_Penalty_Charging>
0.0129711

> <r_epik_Ionization_Penalty_Neutral>
3.82956

> <r_epik_State_Penalty>
3.8249

> <r_epik_Charging_Adjusted_Penalty>
3.83787

> <i_epik_Tot_Q>
-1

> <i_epik_Tot_abs_Q>
1

> <r_epik_Metal_State_Penalty>
0.57612

> <b_epik_Metal_Only>
1

> <s_lp_Force_Field>
OPLS_2005

> <r_lp_Energy>
60.9826

> <b_lp_Chiralities_Consistent>
1

> <s_lp_Variant>
AV-unprocessed.smi:2886-11

> <Gold.Version>
5.8.1

> <Gold.Id.Protein>
6NUR|6NUR_protein|mol2

> <Gold.PLP.Fitness>
34.3063

> <Gold.PLP.PLP>
-28.7482

> <Gold.PLP.part.hbond>
-2.0000

> <Gold.PLP.part.metal>
0.0000

> <Gold.PLP.part.buried>
-3.2016

> <Gold.PLP.part.nonpolar>
-23.7679

> <Gold.PLP.part.repulsive>
0.4898

> <Gold.PLP.ligand.clash>
0.0000

> <Gold.PLP.ligand.torsion>
0.0455

> <Gold.PLP.Chemscore.Hbond>
1.8800

> <Gold.PLP.Chemscore.CHOScore>
0.0000

> <Gold.PLP.Chemscore.Metal>
0.0000

> <Gold.Chemscore.Hbonds>
donor molecule, donor type, donor heavy atom, donor atom, acceptor molecule, acceptor atom, score
      P1  H  7989  7998       L1     4  0.95
      P1  H 10752 10765       L1     1  0.88

> <Gold.PLP.Chemscore.Internal.Correction>
0.0091

> <Gold.Rescore>
     Score         DG    S(hbond)    S(metal)    S(lipo)     H(rot)  DE(clash)    DE(int)     intcor
     16.64     -16.84       1.00        0.00      90.32       1.00       0.18       0.02       ----

> <Gold.Chemscore.Fitness>
16.6392

> <Gold.Chemscore.DG>
-16.8364

> <Gold.Chemscore.ZeroCoef>
-5.4800

> <Gold.Chemscore.Hbond>
1.0025

> <Gold.Chemscore.Metal>
0.0000

> <Gold.Chemscore.Lipo>
90.3246

> <Gold.Chemscore.Internal_Hbond>
0.0000

> <Gold.Chemscore.DEClash>
0.1789

> <Gold.Chemscore.DEInternal>
0.0182

> <Gold.Chemscore.Rot>
1.0000

> <Gold.Chemscore.Internal.Correction>
   9.000000E+99

> <Gold.Chemscore.Hbonds>
donor molecule, donor type, donor heavy atom, donor atom, acceptor molecule, acceptor atom, score
      P1  H  7989  7998       L1     4  0.06
      P1  H 10752 10765       L1     1  0.86

> <Gold.Chemscore.Hbond.Weighted>
-3.3484

> <Gold.Chemscore.Metal.Weighted>
-0.0000

> <Gold.Chemscore.Lipo.Weighted>
-10.5680

> <Gold.Chemscore.Internal_Hbond.Weighted>
0.0000

> <Gold.Chemscore.DEClash.Weighted>
0.1789

> <Gold.Chemscore.DEInternal.Weighted>
0.0182

> <Gold.Chemscore.Rot.Weighted>
2.5600

> <Gold.Chemscore.Internal.Correction.Weighted>
   9.000000E+99

> <Gold.Protein.RotatedTorsions>
[ 6907 6896 6895 6894 ] final  -28.07 input  -60.11 | X-H torsion
[ 7974 7965 7964 7962 ] final -100.69 input  175.53 | X-H torsion
[ 8008 7997 7996 7995 ] final   12.71 input   59.86 | X-H torsion
[ 10167 10162 10161 10158 ] final    9.53 input  -65.29 | X-H torsion
[ 10718 10713 10712 10709 ] final  125.43 input   66.30 | X-H torsion
[ 10763 10752 10751 10750 ] final -168.01 input  -60.55 | X-H torsion
[ 11005 11000 10999 10996 ] final -158.86 input  -57.11 | X-H torsion

> <Gold.Protein.ActiveResidues>
 VAL166  LYS551  ARG553  GLY616  TRP617  ASP618  TYR619  PRO620  LYS621  CYS622 
 ASP623  PHE694  ASN695  SER759  ASP760  ASP761  ALA762  ILE779  LEU786  VAL792 
 PHE793  MET794  SER795  GLU796  ALA797  LYS798  CYS799  TRP800  GLU811  SER814 

> <Gold.Protein.RotatedAtoms>
  151.1381  135.0165  159.8612 H   0  0  0  0  0  0  0  0  0  0  0  0  # atno 6907 bound_to 6896
  152.5452  134.1531  159.8537 H   0  0  0  0  0  0  0  0  0  0  0  0  # atno 6908 bound_to 6896
  151.1604  133.4803  159.2627 H   0  0  0  0  0  0  0  0  0  0  0  0  # atno 6909 bound_to 6896
  145.2913  140.9353  143.2876 H   0  0  0  0  0  0  0  0  0  0  0  0  # atno 7974 bound_to 7965
  154.8244  140.2889  155.5765 H   0  0  0  0  0  0  0  0  0  0  0  0  # atno 8008 bound_to 7997
  156.3000  140.2544  156.3088 H   0  0  0  0  0  0  0  0  0  0  0  0  # atno 8009 bound_to 7997
  154.9302  140.0383  157.2033 H   0  0  0  0  0  0  0  0  0  0  0  0  # atno 8010 bound_to 7997
  140.6249  143.8122  150.7221 H   0  0  0  0  0  0  0  0  0  0  0  0  # atno 10167 bound_to 10162
  157.5504  131.1094  150.8712 H   0  0  0  0  0  0  0  0  0  0  0  0  # atno 10718 bound_to 10713
  154.6673  135.2934  154.9788 H   0  0  0  0  0  0  0  0  0  0  0  0  # atno 10763 bound_to 10752
  154.0827  135.6602  153.4844 H   0  0  0  0  0  0  0  0  0  0  0  0  # atno 10764 bound_to 10752
  153.0465  135.5201  154.7653 H   0  0  0  0  0  0  0  0  0  0  0  0  # atno 10765 bound_to 10752
  140.6490  134.4471  157.5235 H   0  0  0  0  0  0  0  0  0  0  0  0  # atno 11005 bound_to 11000
  144.9170  139.4458  143.6559 LP  0  0  0  0  0  0  0  0  0  0  0  0  # atno 17320 bound_to 7965
  146.3184  139.8010  142.8965 LP  0  0  0  0  0  0  0  0  0  0  0  0  # atno 17321 bound_to 7965
  140.1721  143.4186  152.1993 LP  0  0  0  0  0  0  0  0  0  0  0  0  # atno 17342 bound_to 10162
  139.5471  144.7307  151.4549 LP  0  0  0  0  0  0  0  0  0  0  0  0  # atno 17343 bound_to 10162
  156.9238  130.5325  149.5279 LP  0  0  0  0  0  0  0  0  0  0  0  0  # atno 17370 bound_to 10713
  156.0572  130.5631  150.9116 LP  0  0  0  0  0  0  0  0  0  0  0  0  # atno 17371 bound_to 10713
  139.9053  134.8464  156.1733 LP  0  0  0  0  0  0  0  0  0  0  0  0  # atno 17394 bound_to 11000
  141.0551  133.6869  156.1845 LP  0  0  0  0  0  0  0  0  0  0  0  0  # atno 17395 bound_to 11000

$$$$
