AV-unprocessed.smi:1114|AV-procd|sdf|4801|dock1
  -GOLD-   22720 3343D 1   1.00000     0.00000
 Structure written by MMmdl.
 53 55  0  0  0  0  0  0  0  0  2 V2000
  143.0804  134.5162  153.3655 C   0  0  0  0  0  0  0  0  0  0  0  0
  143.8924  134.5842  152.0701 C   0  0  0  0  0  0  0  0  0  0  0  0
  144.1640  133.5261  151.5022 O   0  0  0  0  0  0  0  0  0  0  0  0
  144.2795  135.7918  151.5931 N   0  0  0  0  0  0  0  0  0  0  0  0
  144.0126  137.0489  152.3021 C   0  0  0  0  0  0  0  0  0  0  0  0
  145.3410  137.6094  152.8418 C   0  0  0  0  0  0  0  0  0  0  0  0
  146.3784  137.7887  151.7124 C   0  0  0  0  0  0  0  0  0  0  0  0
  147.6709  138.1498  152.2881 N   0  0  0  0  0  0  0  0  0  0  0  0
  147.8545  139.0111  153.2993 C   0  0  0  0  0  0  0  0  0  0  0  0
  146.9352  139.6070  153.8602 O   0  0  0  0  0  0  0  0  0  0  0  0
  149.1556  139.1155  153.6214 N   0  0  0  0  0  0  0  0  0  0  0  0
  149.7536  139.9464  154.6069 C   0  0  0  0  0  0  0  0  0  0  0  0
  150.9092  139.4723  155.2609 C   0  0  0  0  0  0  0  0  0  0  0  0
  151.5458  140.2734  156.2313 C   0  0  0  0  0  0  0  0  0  0  0  0
  151.0302  141.5587  156.5345 C   0  0  0  0  0  0  0  0  0  0  0  0
  151.5982  142.4318  157.4891 N   0  0  0  0  0  0  0  0  0  0  0  0
  150.8113  143.5943  157.9056 C   0  0  0  0  0  0  0  0  0  0  0  0
  151.6879  144.6442  158.6100 C   0  0  0  0  0  0  0  0  0  0  0  0
  152.4813  144.0186  159.7652 C   0  0  0  0  0  0  0  0  0  0  0  0
  153.3062  142.8326  159.2469 C   0  0  0  0  0  0  0  0  0  0  0  0
  152.4116  141.8036  158.5351 C   0  0  0  0  0  0  0  0  0  0  0  0
  149.9244  141.9732  155.8700 N   0  3  0  0  0  0  0  0  0  0  0  0
  149.2807  141.2377  154.9382 C   0  0  0  0  0  0  0  0  0  0  0  0
  146.4973  136.5098  150.8509 C   0  0  0  0  0  0  0  0  0  0  0  0
  145.1127  136.0083  150.4038 C   0  0  0  0  0  0  0  0  0  0  0  0
  142.1517  135.0798  153.2711 H   0  0  0  0  0  0  0  0  0  0  0  0
  143.6547  134.9144  154.2023 H   0  0  0  0  0  0  0  0  0  0  0  0
  142.8203  133.4841  153.6026 H   0  0  0  0  0  0  0  0  0  0  0  0
  143.5557  137.7619  151.6145 H   0  0  0  0  0  0  0  0  0  0  0  0
  143.3019  136.9300  153.1209 H   0  0  0  0  0  0  0  0  0  0  0  0
  145.1654  138.5615  153.3439 H   0  0  0  0  0  0  0  0  0  0  0  0
  145.7318  136.9280  153.5993 H   0  0  0  0  0  0  0  0  0  0  0  0
  146.0341  138.6042  151.0734 H   0  0  0  0  0  0  0  0  0  0  0  0
  148.4835  137.7037  151.8882 H   0  0  0  0  0  0  0  0  0  0  0  0
  149.7857  138.4967  153.1323 H   0  0  0  0  0  0  0  0  0  0  0  0
  151.3086  138.4964  155.0255 H   0  0  0  0  0  0  0  0  0  0  0  0
  152.4298  139.8879  156.7158 H   0  0  0  0  0  0  0  0  0  0  0  0
  150.3421  144.0629  157.0400 H   0  0  0  0  0  0  0  0  0  0  0  0
  150.0128  143.2652  158.5720 H   0  0  0  0  0  0  0  0  0  0  0  0
  152.3799  145.0836  157.8900 H   0  0  0  0  0  0  0  0  0  0  0  0
  151.0672  145.4609  158.9801 H   0  0  0  0  0  0  0  0  0  0  0  0
  153.1347  144.7628  160.2213 H   0  0  0  0  0  0  0  0  0  0  0  0
  151.7965  143.6815  160.5445 H   0  0  0  0  0  0  0  0  0  0  0  0
  154.0694  143.1928  158.5555 H   0  0  0  0  0  0  0  0  0  0  0  0
  153.8363  142.3566  160.0721 H   0  0  0  0  0  0  0  0  0  0  0  0
  151.7432  141.3313  159.2562 H   0  0  0  0  0  0  0  0  0  0  0  0
  153.0465  141.0145  158.1330 H   0  0  0  0  0  0  0  0  0  0  0  0
  148.4252  141.7205  154.4907 H   0  0  0  0  0  0  0  0  0  0  0  0
  147.1194  136.7003  149.9758 H   0  0  0  0  0  0  0  0  0  0  0  0
  146.9962  135.7235  151.4194 H   0  0  0  0  0  0  0  0  0  0  0  0
  145.2241  135.1229  149.7797 H   0  0  0  0  0  0  0  0  0  0  0  0
  144.6368  136.7540  149.7653 H   0  0  0  0  0  0  0  0  0  0  0  0
  149.5535  142.8985  156.0865 H   0  0  0  0  0  0  0  0  0  0  0  0
  1  2  1  0  0  0  0
  1 26  1  0  0  0  0
  1 27  1  0  0  0  0
  1 28  1  0  0  0  0
  2  3  2  0  0  0  0
  2  4  1  0  0  0  0
  4 25  1  0  0  0  0
  4  5  1  0  0  0  0
  5  6  1  0  0  0  0
  5 29  1  0  0  0  0
  5 30  1  0  0  0  0
  6  7  1  0  0  0  0
  6 31  1  0  0  0  0
  6 32  1  0  0  0  0
  7  8  1  0  0  0  0
  7 24  1  0  0  0  0
  7 33  1  0  0  0  0
  8  9  1  0  0  0  0
  8 34  1  0  0  0  0
  9 10  2  0  0  0  0
  9 11  1  0  0  0  0
 11 12  1  0  0  0  0
 11 35  1  0  0  0  0
 12 23  1  0  0  0  0
 12 13  2  0  0  0  0
 13 14  1  0  0  0  0
 13 36  1  0  0  0  0
 14 15  2  0  0  0  0
 14 37  1  0  0  0  0
 15 16  1  0  0  0  0
 15 22  1  0  0  0  0
 16 21  1  0  0  0  0
 16 17  1  0  0  0  0
 17 18  1  0  0  0  0
 17 38  1  0  0  0  0
 17 39  1  0  0  0  0
 18 19  1  0  0  0  0
 18 40  1  0  0  0  0
 18 41  1  0  0  0  0
 19 20  1  0  0  0  0
 19 42  1  0  0  0  0
 19 43  1  0  0  0  0
 20 21  1  0  0  0  0
 20 44  1  0  0  0  0
 20 45  1  0  0  0  0
 21 46  1  0  0  0  0
 21 47  1  0  0  0  0
 22 23  2  0  0  0  0
 22 53  1  0  0  0  0
 23 48  1  0  0  0  0
 24 25  1  0  0  0  0
 24 49  1  0  0  0  0
 24 50  1  0  0  0  0
 25 51  1  0  0  0  0
 25 52  1  0  0  0  0
M  CHG  1  22   1
M  END
> <s_m_source_file>
AV-unprocessed.smi

> <i_m_source_file_index>
1114

> <i_lp_mmshare_version>
43012

> <i_f3d_flags>
0

> <s_epik_input>
W0NIM11DKD1PKU4xW0NIMl1bQ0gyXVtDSF0oW0NIMl1bQ0gyXTEpW05IXUMoPU8pW05IXWMyW2NIXVtjSF1jKG5bY0hdMilOM1tDSDJdW0NIMl1bQ0gyXVtDSDJdW0NIMl0z

> <s_epik_cmdline>
J2VwaWtfcHl0aG9uJywgJy1waCcsICc3LjAnLCAnLXRuJywgJzgnLCAnLW1hJywgJzIwMCcsICctbWV0YWxfYmluZGluZycsICctaW1hZScsICc8aW5maWxlLm1hZT4nLCAnLW9tYWUnLCAnPG91dGZpbGUubWFlPic=

> <r_lp_tautomer_probability>
0.999994

> <r_epik_Ionization_Penalty>
1.08953

> <r_epik_Ionization_Penalty_Charging>
1.08951

> <r_epik_Ionization_Penalty_Neutral>
2.1351e-05

> <r_epik_State_Penalty>
1.14567

> <r_epik_Charging_Adjusted_Penalty>
2.23518

> <i_epik_Tot_Q>
1

> <i_epik_Tot_abs_Q>
1

> <r_epik_Metal_State_Penalty>
1.23466

> <b_epik_Metal_Only>
0

> <s_lp_Force_Field>
OPLS_2005

> <r_lp_Energy>
44.385

> <b_lp_Chiralities_Consistent>
1

> <s_lp_Variant>
AV-unprocessed.smi:1114-2

> <Gold.Version>
5.8.1

> <Gold.Id.Protein>
6NUR|6NUR_protein|mol2

> <Gold.PLP.Fitness>
52.1750

> <Gold.PLP.PLP>
-44.5453

> <Gold.PLP.part.hbond>
-3.4635

> <Gold.PLP.part.metal>
0.0000

> <Gold.PLP.part.buried>
4.2583

> <Gold.PLP.part.nonpolar>
-45.1430

> <Gold.PLP.part.repulsive>
0.5921

> <Gold.PLP.ligand.clash>
0.0280

> <Gold.PLP.ligand.torsion>
0.9353

> <Gold.PLP.Chemscore.Hbond>
3.0000

> <Gold.PLP.Chemscore.CHOScore>
0.0000

> <Gold.PLP.Chemscore.Metal>
0.0000

> <Gold.Chemscore.Hbonds>
donor molecule, donor type, donor heavy atom, donor atom, acceptor molecule, acceptor atom, score
      L1  H     8    34       P1  7948  0.65
      L1  H    22    53       P1  8028  2.00

> <Gold.PLP.Chemscore.Internal.Correction>
0.5284

> <Gold.Rescore>
     Score         DG    S(hbond)    S(metal)    S(lipo)     H(rot)  DE(clash)    DE(int)     intcor
     18.38     -23.28       1.93        0.00     123.58       1.21       3.04       1.86       ----

> <Gold.Chemscore.Fitness>
18.3825

> <Gold.Chemscore.DG>
-23.2819

> <Gold.Chemscore.ZeroCoef>
-5.4800

> <Gold.Chemscore.Hbond>
1.9288

> <Gold.Chemscore.Metal>
0.0000

> <Gold.Chemscore.Lipo>
123.5773

> <Gold.Chemscore.Internal_Hbond>
0.0000

> <Gold.Chemscore.DEClash>
3.0412

> <Gold.Chemscore.DEInternal>
1.8581

> <Gold.Chemscore.Rot>
1.2105

> <Gold.Chemscore.Internal.Correction>
   9.000000E+99

> <Gold.Chemscore.Hbonds>
donor molecule, donor type, donor heavy atom, donor atom, acceptor molecule, acceptor atom, score
      L1  H     8    34       P1  7948  0.61
      L1  H    22    53       P1  8028  0.95

> <Gold.Chemscore.Hbond.Weighted>
-6.4423

> <Gold.Chemscore.Metal.Weighted>
-0.0000

> <Gold.Chemscore.Lipo.Weighted>
-14.4585

> <Gold.Chemscore.Internal_Hbond.Weighted>
0.0000

> <Gold.Chemscore.DEClash.Weighted>
3.0412

> <Gold.Chemscore.DEInternal.Weighted>
1.8581

> <Gold.Chemscore.Rot.Weighted>
3.0990

> <Gold.Chemscore.Internal.Correction.Weighted>
   9.000000E+99

> <Gold.Protein.RotatedTorsions>
[ 6907 6896 6895 6894 ] final -151.09 input  -60.11 | X-H torsion
[ 7974 7965 7964 7962 ] final  106.48 input  175.53 | X-H torsion
[ 8008 7997 7996 7995 ] final  -66.44 input   59.86 | X-H torsion
[ 10167 10162 10161 10158 ] final  179.79 input  -65.29 | X-H torsion
[ 10718 10713 10712 10709 ] final  -84.00 input   66.30 | X-H torsion
[ 10763 10752 10751 10750 ] final  -89.94 input  -60.55 | X-H torsion
[ 11005 11000 10999 10996 ] final -117.84 input  -57.11 | X-H torsion

> <Gold.Protein.ActiveResidues>
 VAL166  LYS551  ARG553  GLY616  TRP617  ASP618  TYR619  PRO620  LYS621  CYS622 
 ASP623  PHE694  ASN695  SER759  ASP760  ASP761  ALA762  ILE779  LEU786  VAL792 
 PHE793  MET794  SER795  GLU796  ALA797  LYS798  CYS799  TRP800  GLU811  SER814 

> <Gold.Protein.RotatedAtoms>
  151.2081  133.4572  159.2597 H   0  0  0  0  0  0  0  0  0  0  0  0  # atno 6907 bound_to 6896
  151.1003  134.9968  159.8456 H   0  0  0  0  0  0  0  0  0  0  0  0  # atno 6908 bound_to 6896
  152.5443  134.2008  159.8764 H   0  0  0  0  0  0  0  0  0  0  0  0  # atno 6909 bound_to 6896
  145.3061  139.2554  143.3788 H   0  0  0  0  0  0  0  0  0  0  0  0  # atno 7974 bound_to 7965
  154.4734  140.0913  156.7203 H   0  0  0  0  0  0  0  0  0  0  0  0  # atno 8008 bound_to 7997
  155.4661  140.3463  155.4301 H   0  0  0  0  0  0  0  0  0  0  0  0  # atno 8009 bound_to 7997
  156.1077  140.1439  156.9369 H   0  0  0  0  0  0  0  0  0  0  0  0  # atno 8010 bound_to 7997
  139.5352  144.2519  152.0777 H   0  0  0  0  0  0  0  0  0  0  0  0  # atno 10167 bound_to 10162
  156.0011  130.4684  150.4343 H   0  0  0  0  0  0  0  0  0  0  0  0  # atno 10718 bound_to 10713
  154.6605  135.5323  153.8012 H   0  0  0  0  0  0  0  0  0  0  0  0  # atno 10763 bound_to 10752
  153.0439  135.6504  154.0879 H   0  0  0  0  0  0  0  0  0  0  0  0  # atno 10764 bound_to 10752
  154.0788  135.2948  155.3274 H   0  0  0  0  0  0  0  0  0  0  0  0  # atno 10765 bound_to 10752
  141.0327  133.9957  157.3118 H   0  0  0  0  0  0  0  0  0  0  0  0  # atno 11005 bound_to 11000
  146.3135  140.3586  142.8663 LP  0  0  0  0  0  0  0  0  0  0  0  0  # atno 17320 bound_to 7965
  144.9054  140.7693  143.5841 LP  0  0  0  0  0  0  0  0  0  0  0  0  # atno 17321 bound_to 7965
  140.1989  144.4678  150.6441 LP  0  0  0  0  0  0  0  0  0  0  0  0  # atno 17342 bound_to 10162
  140.6554  143.2236  151.5982 LP  0  0  0  0  0  0  0  0  0  0  0  0  # atno 17343 bound_to 10162
  157.2390  131.0521  151.2448 LP  0  0  0  0  0  0  0  0  0  0  0  0  # atno 17370 bound_to 10713
  157.3639  130.7145  149.6520 LP  0  0  0  0  0  0  0  0  0  0  0  0  # atno 17371 bound_to 10713
  139.9219  135.0200  156.8095 LP  0  0  0  0  0  0  0  0  0  0  0  0  # atno 17394 bound_to 11000
  140.6378  133.9846  155.7692 LP  0  0  0  0  0  0  0  0  0  0  0  0  # atno 17395 bound_to 11000

$$$$
