AV-unprocessed.smi:2013|AV-procd|sdf|8158|dock1
  -GOLD-   2272010403D 1   1.00000     0.00000
 Structure written by MMmdl.
 51 52  0  0  0  0  0  0  0  0  2 V2000
  146.3310  137.6355  155.8892 C   0  0  0  0  0  0  0  0  0  0  0  0
  145.5308  138.7380  155.1747 C   0  0  0  0  0  0  0  0  0  0  0  0
  144.4959  138.1277  154.2136 C   0  0  0  0  0  0  0  0  0  0  0  0
  146.3979  139.8263  154.4779 C   0  0  1  0  0  0  0  0  0  0  0  0
  147.1205  139.3528  153.1872 C   0  0  0  0  0  0  0  0  0  0  0  0
  148.4387  138.7879  153.4502 N   0  0  0  0  0  0  0  0  0  0  0  0
  149.3851  139.3516  154.2158 C   0  0  0  0  0  0  0  0  0  0  0  0
  149.2337  140.4283  154.7921 O   0  0  0  0  0  0  0  0  0  0  0  0
  150.7061  138.5875  154.3530 C   0  0  0  0  0  0  0  0  0  0  0  0
  150.9683  138.1825  155.7400 N   0  0  0  0  0  0  0  0  0  0  0  0
  150.1811  137.2024  156.3172 C   0  0  0  0  0  0  0  0  0  0  0  0
  150.3408  136.7678  157.5861 C   0  0  0  0  0  0  0  0  0  0  0  0
  151.3811  137.3258  158.4402 C   0  0  0  0  0  0  0  0  0  0  0  0
  151.5702  136.9655  159.6029 O   0  0  0  0  0  0  0  0  0  0  0  0
  152.1710  138.3263  157.8296 N   0  0  0  0  0  0  0  0  0  0  0  0
  153.2179  138.9043  158.6468 C   0  0  0  0  0  0  0  0  0  0  0  0
  152.0020  138.7761  156.4989 C   0  0  0  0  0  0  0  0  0  0  0  0
  152.7134  139.6524  156.0021 O   0  0  0  0  0  0  0  0  0  0  0  0
  145.6395  141.1048  154.3041 N   0  3  0  0  0  0  0  0  0  0  0  0
  144.9150  141.5339  155.5255 C   0  0  0  0  0  0  0  0  0  0  0  0
  144.0187  142.7460  155.2168 C   0  0  0  0  0  0  0  0  0  0  0  0
  144.7982  143.8011  154.6667 O   0  0  0  0  0  0  0  0  0  0  0  0
  145.4317  143.4206  153.4515 C   0  0  0  0  0  0  0  0  0  0  0  0
  146.3897  142.2511  153.7259 C   0  0  0  0  0  0  0  0  0  0  0  0
  146.8582  136.9963  155.1816 H   0  0  0  0  0  0  0  0  0  0  0  0
  145.6665  136.9923  156.4668 H   0  0  0  0  0  0  0  0  0  0  0  0
  147.0599  138.0498  156.5850 H   0  0  0  0  0  0  0  0  0  0  0  0
  144.9475  139.2390  155.9479 H   0  0  0  0  0  0  0  0  0  0  0  0
  144.9730  137.5563  153.4170 H   0  0  0  0  0  0  0  0  0  0  0  0
  143.8834  138.9007  153.7487 H   0  0  0  0  0  0  0  0  0  0  0  0
  143.8218  137.4534  154.7427 H   0  0  0  0  0  0  0  0  0  0  0  0
  147.1938  140.0346  155.1946 H   0  0  0  0  0  0  0  0  0  0  0  0
  146.5463  138.5822  152.6739 H   0  0  0  0  0  0  0  0  0  0  0  0
  147.2190  140.1810  152.4831 H   0  0  0  0  0  0  0  0  0  0  0  0
  148.6530  137.9032  153.0113 H   0  0  0  0  0  0  0  0  0  0  0  0
  150.6715  137.7024  153.7156 H   0  0  0  0  0  0  0  0  0  0  0  0
  151.5195  139.1968  153.9556 H   0  0  0  0  0  0  0  0  0  0  0  0
  149.3942  136.7605  155.7232 H   0  0  0  0  0  0  0  0  0  0  0  0
  149.6900  135.9981  157.9746 H   0  0  0  0  0  0  0  0  0  0  0  0
  153.7458  139.6968  158.1177 H   0  0  0  0  0  0  0  0  0  0  0  0
  153.9099  138.0989  158.8987 H   0  0  0  0  0  0  0  0  0  0  0  0
  152.7442  139.3151  159.5403 H   0  0  0  0  0  0  0  0  0  0  0  0
  144.2949  140.7188  155.9010 H   0  0  0  0  0  0  0  0  0  0  0  0
  145.6318  141.7820  156.3098 H   0  0  0  0  0  0  0  0  0  0  0  0
  143.2213  142.4710  154.5245 H   0  0  0  0  0  0  0  0  0  0  0  0
  143.5392  143.1008  156.1294 H   0  0  0  0  0  0  0  0  0  0  0  0
  144.6859  143.1486  152.7027 H   0  0  0  0  0  0  0  0  0  0  0  0
  145.9835  144.2750  153.0585 H   0  0  0  0  0  0  0  0  0  0  0  0
  147.1641  142.5844  154.4181 H   0  0  0  0  0  0  0  0  0  0  0  0
  146.8894  141.9641  152.8023 H   0  0  0  0  0  0  0  0  0  0  0  0
  144.9141  140.8837  153.6370 H   0  0  0  0  0  0  0  0  0  0  0  0
  1  2  1  0  0  0  0
  1 25  1  0  0  0  0
  1 26  1  0  0  0  0
  1 27  1  0  0  0  0
  2  3  1  0  0  0  0
  2  4  1  0  0  0  0
  2 28  1  0  0  0  0
  3 29  1  0  0  0  0
  3 30  1  0  0  0  0
  3 31  1  0  0  0  0
  4  5  1  0  0  0  0
  4 19  1  0  0  0  0
  4 32  1  0  0  0  0
  5  6  1  0  0  0  0
  5 33  1  0  0  0  0
  5 34  1  0  0  0  0
  6  7  1  0  0  0  0
  6 35  1  0  0  0  0
  7  8  2  0  0  0  0
  7  9  1  0  0  0  0
  9 10  1  0  0  0  0
  9 36  1  0  0  0  0
  9 37  1  0  0  0  0
 10 17  1  0  0  0  0
 10 11  1  0  0  0  0
 11 12  2  0  0  0  0
 11 38  1  0  0  0  0
 12 13  1  0  0  0  0
 12 39  1  0  0  0  0
 13 14  2  0  0  0  0
 13 15  1  0  0  0  0
 15 16  1  0  0  0  0
 15 17  1  0  0  0  0
 16 40  1  0  0  0  0
 16 41  1  0  0  0  0
 16 42  1  0  0  0  0
 17 18  2  0  0  0  0
 19 24  1  0  0  0  0
 19 20  1  0  0  0  0
 19 51  1  0  0  0  0
 20 21  1  0  0  0  0
 20 43  1  0  0  0  0
 20 44  1  0  0  0  0
 21 22  1  0  0  0  0
 21 45  1  0  0  0  0
 21 46  1  0  0  0  0
 22 23  1  0  0  0  0
 23 24  1  0  0  0  0
 23 47  1  0  0  0  0
 23 48  1  0  0  0  0
 24 49  1  0  0  0  0
 24 50  1  0  0  0  0
M  CHG  1  19   1
M  END
> <s_m_source_file>
AV-unprocessed.smi

> <i_m_source_file_index>
2013

> <i_lp_mmshare_version>
43012

> <i_f3d_flags>
0

> <s_epik_input>
W0NIMl0xW0NIMl1PW0NIMl1bQ0gyXU4xW0NASF0oW0NIXShbQ0gzXSlbQ0gzXSlbQ0gyXVtOSF1DKD1PKVtDSDJdbjJbY0hdW2NIXWMoPU8pbihbQ0gzXSljMj1P

> <s_epik_cmdline>
J2VwaWtfcHl0aG9uJywgJy1waCcsICc3LjAnLCAnLXRuJywgJzgnLCAnLW1hJywgJzIwMCcsICctbWV0YWxfYmluZGluZycsICctaW1hZScsICc8aW5maWxlLm1hZT4nLCAnLW9tYWUnLCAnPG91dGZpbGUubWFlPic=

> <r_lp_tautomer_probability>
1

> <r_epik_Ionization_Penalty>
0.370738

> <r_epik_Ionization_Penalty_Charging>
0.370738

> <r_epik_Ionization_Penalty_Neutral>
8.1827e-08

> <r_epik_State_Penalty>
0.368162

> <r_epik_Charging_Adjusted_Penalty>
0.7389

> <i_epik_Tot_Q>
1

> <i_epik_Tot_abs_Q>
1

> <r_epik_Metal_State_Penalty>
0.368194

> <b_epik_Metal_Only>
0

> <s_lp_Force_Field>
OPLS_2005

> <r_lp_Energy>
35.5949

> <b_lp_Chiralities_Consistent>
1

> <s_lp_Variant>
AV-unprocessed.smi:2013-2

> <Gold.Version>
5.8.1

> <Gold.Id.Protein>
6NUR|6NUR_protein|mol2

> <Gold.PLP.Fitness>
43.7938

> <Gold.PLP.PLP>
-30.0355

> <Gold.PLP.part.hbond>
-4.9752

> <Gold.PLP.part.metal>
0.0000

> <Gold.PLP.part.buried>
-3.3857

> <Gold.PLP.part.nonpolar>
-20.9452

> <Gold.PLP.part.repulsive>
0.3465

> <Gold.PLP.ligand.clash>
0.0000

> <Gold.PLP.ligand.torsion>
0.9000

> <Gold.PLP.Chemscore.Hbond>
4.9920

> <Gold.PLP.Chemscore.CHOScore>
0.0000

> <Gold.PLP.Chemscore.Metal>
0.0000

> <Gold.Chemscore.Hbonds>
donor molecule, donor type, donor heavy atom, donor atom, acceptor molecule, acceptor atom, score
      L1  H     6    35       P1  7948  1.00
      L1  H    19    51       P1 10175  2.00
      P1  H  6896  6909       L1    14  1.00
      P1  H  7997  8010       L1    18  1.00

> <Gold.PLP.Chemscore.Internal.Correction>
0.5823

> <Gold.Rescore>
     Score         DG    S(hbond)    S(metal)    S(lipo)     H(rot)  DE(clash)    DE(int)     intcor
     16.43     -18.73       3.92        0.00      51.33       2.28       0.17       2.13       ----

> <Gold.Chemscore.Fitness>
16.4273

> <Gold.Chemscore.DG>
-18.7271

> <Gold.Chemscore.ZeroCoef>
-5.4800

> <Gold.Chemscore.Hbond>
3.9169

> <Gold.Chemscore.Metal>
0.0000

> <Gold.Chemscore.Lipo>
51.3255

> <Gold.Chemscore.Internal_Hbond>
0.0000

> <Gold.Chemscore.DEClash>
0.1736

> <Gold.Chemscore.DEInternal>
2.1262

> <Gold.Chemscore.Rot>
2.2814

> <Gold.Chemscore.Internal.Correction>
   9.000000E+99

> <Gold.Chemscore.Hbonds>
donor molecule, donor type, donor heavy atom, donor atom, acceptor molecule, acceptor atom, score
      L1  H     6    35       P1  7948  0.93
      L1  H    19    51       P1 10175  0.85
      P1  H  6896  6909       L1    14  0.97
      P1  H  7997  8010       L1    18  0.98

> <Gold.Chemscore.Hbond.Weighted>
-13.0825

> <Gold.Chemscore.Metal.Weighted>
-0.0000

> <Gold.Chemscore.Lipo.Weighted>
-6.0051

> <Gold.Chemscore.Internal_Hbond.Weighted>
0.0000

> <Gold.Chemscore.DEClash.Weighted>
0.1736

> <Gold.Chemscore.DEInternal.Weighted>
2.1262

> <Gold.Chemscore.Rot.Weighted>
5.8404

> <Gold.Chemscore.Internal.Correction.Weighted>
   9.000000E+99

> <Gold.Protein.RotatedTorsions>
[ 6907 6896 6895 6894 ] final  121.14 input  -60.11 | X-H torsion
[ 7974 7965 7964 7962 ] final   59.17 input  175.53 | X-H torsion
[ 8008 7997 7996 7995 ] final   65.68 input   59.86 | X-H torsion
[ 10167 10162 10161 10158 ] final    4.95 input  -65.29 | X-H torsion
[ 10718 10713 10712 10709 ] final  153.62 input   66.30 | X-H torsion
[ 10763 10752 10751 10750 ] final  171.17 input  -60.55 | X-H torsion
[ 11005 11000 10999 10996 ] final  -94.16 input  -57.11 | X-H torsion

> <Gold.Protein.ActiveResidues>
 VAL166  LYS551  ARG553  GLY616  TRP617  ASP618  TYR619  PRO620  LYS621  CYS622 
 ASP623  PHE694  ASN695  SER759  ASP760  ASP761  ALA762  ILE779  LEU786  VAL792 
 PHE793  MET794  SER795  GLU796  ALA797  LYS798  CYS799  TRP800  GLU811  SER814 

> <Gold.Protein.RotatedAtoms>
  152.4344  133.7335  159.6600 H   0  0  0  0  0  0  0  0  0  0  0  0  # atno 6907 bound_to 6896
  150.8226  133.8215  159.3138 H   0  0  0  0  0  0  0  0  0  0  0  0  # atno 6908 bound_to 6896
  151.5893  135.1056  160.0087 H   0  0  0  0  0  0  0  0  0  0  0  0  # atno 6909 bound_to 6896
  145.9101  139.3648  143.0540 H   0  0  0  0  0  0  0  0  0  0  0  0  # atno 7974 bound_to 7965
  155.6656  140.3497  155.4799 H   0  0  0  0  0  0  0  0  0  0  0  0  # atno 8008 bound_to 7997
  155.9732  140.1160  157.0816 H   0  0  0  0  0  0  0  0  0  0  0  0  # atno 8009 bound_to 7997
  154.4172  140.1153  156.5321 H   0  0  0  0  0  0  0  0  0  0  0  0  # atno 8010 bound_to 7997
  140.6508  143.7550  150.7571 H   0  0  0  0  0  0  0  0  0  0  0  0  # atno 10167 bound_to 10162
  157.2423  131.0762  151.1784 H   0  0  0  0  0  0  0  0  0  0  0  0  # atno 10718 bound_to 10713
  154.4081  135.2756  155.2054 H   0  0  0  0  0  0  0  0  0  0  0  0  # atno 10763 bound_to 10752
  154.4051  135.6035  153.5923 H   0  0  0  0  0  0  0  0  0  0  0  0  # atno 10764 bound_to 10752
  152.9831  135.5936  154.4359 H   0  0  0  0  0  0  0  0  0  0  0  0  # atno 10765 bound_to 10752
  141.1478  133.7937  157.0259 H   0  0  0  0  0  0  0  0  0  0  0  0  # atno 11005 bound_to 11000
  145.8682  140.9436  143.0664 LP  0  0  0  0  0  0  0  0  0  0  0  0  # atno 17320 bound_to 7965
  144.6742  140.0619  143.7476 LP  0  0  0  0  0  0  0  0  0  0  0  0  # atno 17321 bound_to 7965
  140.1200  143.4620  152.2319 LP  0  0  0  0  0  0  0  0  0  0  0  0  # atno 17342 bound_to 10162
  139.5723  144.7469  151.3858 LP  0  0  0  0  0  0  0  0  0  0  0  0  # atno 17343 bound_to 10162
  157.3365  130.7011  149.6356 LP  0  0  0  0  0  0  0  0  0  0  0  0  # atno 17370 bound_to 10713
  155.9669  130.4292  150.4822 LP  0  0  0  0  0  0  0  0  0  0  0  0  # atno 17371 bound_to 10713
  140.0785  134.9662  157.1586 LP  0  0  0  0  0  0  0  0  0  0  0  0  # atno 17394 bound_to 11000
  140.3610  134.2494  155.7187 LP  0  0  0  0  0  0  0  0  0  0  0  0  # atno 17395 bound_to 11000

$$$$
