AV-unprocessed.smi:3034|AV-procd|sdf|11580|dock1
  -GOLD-   2272016553D 1   1.00000     0.00000
 Structure written by MMmdl.
 31 31  0  0  0  0  0  0  0  0  2 V2000
  151.1548  134.9670  155.1202 C   0  0  0  0  0  0  0  0  0  0  0  0
  150.8149  136.4596  155.1890 C   0  0  0  0  0  0  0  0  0  0  0  0
  152.0283  137.3516  154.8967 C   0  0  0  0  0  0  0  0  0  0  0  0
  151.6550  139.1269  155.2580 S   0  0  0  0  0  0  0  0  0  0  0  0
  152.9268  139.8547  155.1105 O   0  0  0  0  0  0  0  0  0  0  0  0
  150.5807  139.4903  154.3215 O   0  0  0  0  0  0  0  0  0  0  0  0
  151.1023  139.0598  156.7851 N   0  5  0  0  0  0  0  0  0  0  0  0
  151.5153  140.0390  157.7832 C   0  0  0  0  0  0  0  0  0  0  0  0
  151.1613  141.4739  157.3155 C   0  0  1  0  0  0  0  0  0  0  0  0
  149.7646  141.5324  157.0939 O   0  0  0  0  0  0  0  0  0  0  0  0
  151.6422  142.5878  158.2524 C   0  0  0  0  0  0  0  0  0  0  0  0
  151.5306  143.9426  157.8628 C   0  0  0  0  0  0  0  0  0  0  0  0
  151.9736  144.9429  158.7488 C   0  0  0  0  0  0  0  0  0  0  0  0
  152.5032  144.5591  159.9952 C   0  0  0  0  0  0  0  0  0  0  0  0
  152.5674  143.1855  160.3000 C   0  0  0  0  0  0  0  0  0  0  0  0
  152.1457  142.2184  159.4577 N   0  0  0  0  0  0  0  0  0  0  0  0
  150.2737  134.3587  155.3247 H   0  0  0  0  0  0  0  0  0  0  0  0
  151.9190  134.7037  155.8519 H   0  0  0  0  0  0  0  0  0  0  0  0
  151.5267  134.6933  154.1325 H   0  0  0  0  0  0  0  0  0  0  0  0
  150.0196  136.6817  154.4769 H   0  0  0  0  0  0  0  0  0  0  0  0
  150.4181  136.6922  156.1775 H   0  0  0  0  0  0  0  0  0  0  0  0
  152.8800  137.0553  155.5088 H   0  0  0  0  0  0  0  0  0  0  0  0
  152.3204  137.2628  153.8507 H   0  0  0  0  0  0  0  0  0  0  0  0
  151.0150  139.8533  158.7347 H   0  0  0  0  0  0  0  0  0  0  0  0
  152.5832  139.9749  157.9955 H   0  0  0  0  0  0  0  0  0  0  0  0
  151.6199  141.6409  156.3395 H   0  0  0  0  0  0  0  0  0  0  0  0
  149.5203  142.4384  156.9873 H   0  0  0  0  0  0  0  0  0  0  0  0
  151.1235  144.2084  156.8983 H   0  0  0  0  0  0  0  0  0  0  0  0
  151.9081  145.9860  158.4767 H   0  0  0  0  0  0  0  0  0  0  0  0
  152.8523  145.2988  160.7001 H   0  0  0  0  0  0  0  0  0  0  0  0
  152.9663  142.8547  161.2474 H   0  0  0  0  0  0  0  0  0  0  0  0
  1  2  1  0  0  0  0
  1 17  1  0  0  0  0
  1 18  1  0  0  0  0
  1 19  1  0  0  0  0
  2  3  1  0  0  0  0
  2 20  1  0  0  0  0
  2 21  1  0  0  0  0
  3  4  1  0  0  0  0
  3 22  1  0  0  0  0
  3 23  1  0  0  0  0
  4  5  2  0  0  0  0
  4  6  2  0  0  0  0
  4  7  1  0  0  0  0
  7  8  1  0  0  0  0
  8  9  1  0  0  0  0
  8 24  1  0  0  0  0
  8 25  1  0  0  0  0
  9 10  1  0  0  0  0
  9 11  1  0  0  0  0
  9 26  1  0  0  0  0
 10 27  1  0  0  0  0
 11 16  1  0  0  0  0
 11 12  2  0  0  0  0
 12 13  1  0  0  0  0
 12 28  1  0  0  0  0
 13 14  2  0  0  0  0
 13 29  1  0  0  0  0
 14 15  1  0  0  0  0
 14 30  1  0  0  0  0
 15 16  2  0  0  0  0
 15 31  1  0  0  0  0
M  CHG  1   7  -1
M  END
> <s_m_source_file>
AV-unprocessed.smi

> <i_m_source_file_index>
3034

> <i_lp_mmshare_version>
43012

> <i_f3d_flags>
0

> <s_epik_input>
W0NIM11bQ0gyXVtDSDJdUyg9TykoPU8pW05IXVtDSDJdW0NASF0oW09IXSljMVtjSF1bY0hdW2NIXVtjSF1uMQ==

> <s_epik_cmdline>
J2VwaWtfcHl0aG9uJywgJy1waCcsICc3LjAnLCAnLXRuJywgJzgnLCAnLW1hJywgJzIwMCcsICctbWV0YWxfYmluZGluZycsICctaW1hZScsICc8aW5maWxlLm1hZT4nLCAnLW9tYWUnLCAnPG91dGZpbGUubWFlPic=

> <r_epik_Ionization_Penalty>
6.18156

> <r_epik_Ionization_Penalty_Charging>
6.17474

> <r_epik_Ionization_Penalty_Neutral>
0.0068235

> <r_epik_State_Penalty>
6.17598

> <r_epik_Charging_Adjusted_Penalty>
12.3507

> <i_epik_Tot_Q>
-1

> <i_epik_Tot_abs_Q>
1

> <r_epik_Metal_State_Penalty>
2.11803

> <b_epik_Metal_Only>
1

> <s_lp_Force_Field>
OPLS_2005

> <r_lp_Energy>
1.09161

> <b_lp_Chiralities_Consistent>
1

> <s_lp_Variant>
AV-unprocessed.smi:3034-4

> <Gold.Version>
5.8.1

> <Gold.Id.Protein>
6NUR|6NUR_protein|mol2

> <Gold.PLP.Fitness>
44.2154

> <Gold.PLP.PLP>
-35.6158

> <Gold.PLP.part.hbond>
-3.7691

> <Gold.PLP.part.metal>
0.0000

> <Gold.PLP.part.buried>
-4.9910

> <Gold.PLP.part.nonpolar>
-27.9567

> <Gold.PLP.part.repulsive>
0.5534

> <Gold.PLP.ligand.clash>
0.0000

> <Gold.PLP.ligand.torsion>
0.7304

> <Gold.PLP.Chemscore.Hbond>
3.0000

> <Gold.PLP.Chemscore.CHOScore>
0.0000

> <Gold.PLP.Chemscore.Metal>
0.0000

> <Gold.Chemscore.Hbonds>
donor molecule, donor type, donor heavy atom, donor atom, acceptor molecule, acceptor atom, score
      P1  H  7989  7998       L1     6  0.65
      P1  H  7997  8010       L1     5  0.93

> <Gold.PLP.Chemscore.Internal.Correction>
1.0604

> <Gold.Rescore>
     Score         DG    S(hbond)    S(metal)    S(lipo)     H(rot)  DE(clash)    DE(int)     intcor
     17.87     -19.18       2.80        0.00      87.18       2.29       0.03       1.28       ----

> <Gold.Chemscore.Fitness>
17.8710

> <Gold.Chemscore.DG>
-19.1763

> <Gold.Chemscore.ZeroCoef>
-5.4800

> <Gold.Chemscore.Hbond>
2.8017

> <Gold.Chemscore.Metal>
0.0000

> <Gold.Chemscore.Lipo>
87.1785

> <Gold.Chemscore.Internal_Hbond>
0.0000

> <Gold.Chemscore.DEClash>
0.0270

> <Gold.Chemscore.DEInternal>
1.2783

> <Gold.Chemscore.Rot>
2.2895

> <Gold.Chemscore.Internal.Correction>
   9.000000E+99

> <Gold.Chemscore.Hbonds>
donor molecule, donor type, donor heavy atom, donor atom, acceptor molecule, acceptor atom, score
      P1  H  7989  7998       L1     6  0.06
      P1  H  7997  8010       L1     5  0.91

> <Gold.Chemscore.Hbond.Weighted>
-9.3577

> <Gold.Chemscore.Metal.Weighted>
-0.0000

> <Gold.Chemscore.Lipo.Weighted>
-10.1999

> <Gold.Chemscore.Internal_Hbond.Weighted>
0.0000

> <Gold.Chemscore.DEClash.Weighted>
0.0270

> <Gold.Chemscore.DEInternal.Weighted>
1.2783

> <Gold.Chemscore.Rot.Weighted>
5.8612

> <Gold.Chemscore.Internal.Correction.Weighted>
   9.000000E+99

> <Gold.Protein.RotatedTorsions>
[ 6907 6896 6895 6894 ] final  -78.37 input  -60.11 | X-H torsion
[ 7974 7965 7964 7962 ] final  -44.88 input  175.53 | X-H torsion
[ 8008 7997 7996 7995 ] final   79.65 input   59.86 | X-H torsion
[ 10167 10162 10161 10158 ] final  127.15 input  -65.29 | X-H torsion
[ 10718 10713 10712 10709 ] final  166.85 input   66.30 | X-H torsion
[ 10763 10752 10751 10750 ] final   36.64 input  -60.55 | X-H torsion
[ 11005 11000 10999 10996 ] final -100.01 input  -57.11 | X-H torsion

> <Gold.Protein.ActiveResidues>
 VAL166  LYS551  ARG553  GLY616  TRP617  ASP618  TYR619  PRO620  LYS621  CYS622 
 ASP623  PHE694  ASN695  SER759  ASP760  ASP761  ALA762  ILE779  LEU786  VAL792 
 PHE793  MET794  SER795  GLU796  ALA797  LYS798  CYS799  TRP800  GLU811  SER814 

> <Gold.Protein.RotatedAtoms>
  150.6975  134.4283  159.5236 H   0  0  0  0  0  0  0  0  0  0  0  0  # atno 6907 bound_to 6896
  152.2014  134.8582  160.0516 H   0  0  0  0  0  0  0  0  0  0  0  0  # atno 6908 bound_to 6896
  151.9501  133.3628  159.4033 H   0  0  0  0  0  0  0  0  0  0  0  0  # atno 6909 bound_to 6896
  145.9876  140.7215  142.9332 H   0  0  0  0  0  0  0  0  0  0  0  0  # atno 7974 bound_to 7965
  155.8726  140.3448  155.5831 H   0  0  0  0  0  0  0  0  0  0  0  0  # atno 8008 bound_to 7997
  155.7810  140.0858  157.2078 H   0  0  0  0  0  0  0  0  0  0  0  0  # atno 8009 bound_to 7997
  154.4018  140.1500  156.3040 H   0  0  0  0  0  0  0  0  0  0  0  0  # atno 8010 bound_to 7997
  139.5593  144.6871  151.4088 H   0  0  0  0  0  0  0  0  0  0  0  0  # atno 10167 bound_to 10162
  157.0600  131.0337  151.2650 H   0  0  0  0  0  0  0  0  0  0  0  0  # atno 10718 bound_to 10713
  153.0069  135.6300  154.2018 H   0  0  0  0  0  0  0  0  0  0  0  0  # atno 10763 bound_to 10752
  154.1761  135.2816  155.3068 H   0  0  0  0  0  0  0  0  0  0  0  0  # atno 10764 bound_to 10752
  154.5871  135.5629  153.7301 H   0  0  0  0  0  0  0  0  0  0  0  0  # atno 10765 bound_to 10752
  141.1287  133.8365  157.1046 H   0  0  0  0  0  0  0  0  0  0  0  0  # atno 11005 bound_to 11000
  144.6879  140.3015  143.7262 LP  0  0  0  0  0  0  0  0  0  0  0  0  # atno 17320 bound_to 7965
  145.7677  139.1846  143.2230 LP  0  0  0  0  0  0  0  0  0  0  0  0  # atno 17321 bound_to 7965
  140.6871  143.7948  150.7202 LP  0  0  0  0  0  0  0  0  0  0  0  0  # atno 17342 bound_to 10162
  140.1419  143.4433  152.2188 LP  0  0  0  0  0  0  0  0  0  0  0  0  # atno 17343 bound_to 10162
  157.4962  130.7852  149.7558 LP  0  0  0  0  0  0  0  0  0  0  0  0  # atno 17370 bound_to 10713
  155.9981  130.3896  150.2713 LP  0  0  0  0  0  0  0  0  0  0  0  0  # atno 17371 bound_to 10713
  140.0312  134.9900  157.0784 LP  0  0  0  0  0  0  0  0  0  0  0  0  # atno 17394 bound_to 11000
  140.4282  134.1809  155.7167 LP  0  0  0  0  0  0  0  0  0  0  0  0  # atno 17395 bound_to 11000

$$$$
