#       Name:                AV-unprocessed.smi:1532
#       Creating user name   scv26
#       Creation time:       Fri Mar 27 06:31:03 2020


#       File generated by GOLD software.
#

@<TRIPOS>MOLECULE
AV-unprocessed.smi:1532
    43    45     1
SMALL
NO_CHARGES


@<TRIPOS>ATOM
      1 ****        -1.0586  -2.9851  -0.6294 O.2            1 S1                 0.0000
      2 ****        -1.4702  -1.8261  -0.6906 C.2            1 S1                 0.0000
      3 ****        -2.8980  -1.4738  -0.7267 C.2            1 S1                 0.0000
      4 ****        -3.9164  -2.6108  -0.7194 C.3            1 S1                 0.0000
      5 ****        -5.1654  -2.1550  -0.8264 F              1 S1                 0.0000
      6 ****        -3.6999  -3.4453  -1.7368 F              1 S1                 0.0000
      7 ****        -3.8308  -3.3055   0.4154 F              1 S1                 0.0000
      8 ****        -3.2764  -0.1732  -0.7787 C.2            1 S1                 0.0000
      9 ****        -2.2798   0.8783  -0.7935 C.2            1 S1                 0.0000
     10 ****        -2.6276   2.3389  -0.8283 C.3            1 S1                 0.0000
     11 ****        -2.3472   3.2484   0.3453 C.3            1 S1                 0.0000
     12 ****        -3.7730   2.9130  -0.0263 C.3            1 S1                 0.0000
     13 ****        -1.0280   0.5667  -0.7741 N.2            1 S1                 0.0000
     14 ****        -0.6253  -0.7539  -0.7274 N.am           1 S1                 0.0000
     15 ****         0.8323  -0.9279  -0.6914 C.3            1 S1                 0.0000
     16 ****         1.4015  -0.7600   0.7344 C.3            1 S1                 0.0000
     17 ****         1.1904  -1.9552   1.4599 O.3            1 S1                 0.0000
     18 ****         2.8779  -0.3964   0.6900 C.ar           1 S1                 0.0000
     19 ****         3.8498  -1.3668   0.3594 C.ar           1 S1                 0.0000
     20 ****         5.2135  -1.0180   0.3109 C.ar           1 S1                 0.0000
     21 ****         5.6133   0.3031   0.5884 C.ar           1 S1                 0.0000
     22 ****         4.6486   1.2757   0.9132 C.ar           1 S1                 0.0000
     23 ****         5.0318   2.5475   1.1762 F              1 S1                 0.0000
     24 ****         3.2849   0.9270   0.9636 C.ar           1 S1                 0.0000
     25 ****        -4.3192   0.1048  -0.8114 H              1 S1                 0.0000
     26 ****        -2.4692   2.7493  -1.8238 H              1 S1                 0.0000
     27 ****        -1.9488   2.8010   1.2542 H              1 S1                 0.0000
     28 ****        -1.9927   4.2536   0.1269 H              1 S1                 0.0000
     29 ****        -4.3682   3.6958  -0.4921 H              1 S1                 0.0000
     30 ****        -4.3179   2.2505   0.6438 H              1 S1                 0.0000
     31 ****         1.1561  -1.8704  -1.1373 H              1 S1                 0.0000
     32 ****         1.2611  -0.1568  -1.3349 H              1 S1                 0.0000
     33 ****         0.8694   0.0379   1.2546 H              1 S1                 0.0000
     34 ****         1.4667  -1.8164   2.3529 H              1 S1                 0.0000
     35 ****         3.5516  -2.3816   0.1398 H              1 S1                 0.0000
     36 ****         5.9527  -1.7639   0.0589 H              1 S1                 0.0000
     37 ****         6.6589   0.5707   0.5500 H              1 S1                 0.0000
     38 ****         2.5524   1.6811   1.2108 H              1 S1                 0.0000
     39 ****        -0.0754  -3.1659  -0.6050 LP             1 S1                 0.0000
     40 ****        -1.7076  -3.7455  -0.6041 LP             1 S1                 0.0000
     41 ****        -0.3394   1.2915  -0.7931 LP             1 S1                 0.0000
     42 ****         1.7247  -2.6960   1.0527 LP             1 S1                 0.0000
     43 ****         0.2197  -2.1948   1.4404 LP             1 S1                 0.0000
@<TRIPOS>BOND
    1    1    2 2     
    2    2   14 am    
    3    2    3 1     
    4    3    4 1     
    5    3    8 2     
    6    4    5 1     
    7    4    6 1     
    8    4    7 1     
    9    8    9 1     
   10    8   25 1     
   11    9   10 1     
   12    9   13 2     
   13   10   12 1     
   14   10   11 1     
   15   10   26 1     
   16   11   12 1     
   17   11   27 1     
   18   11   28 1     
   19   12   29 1     
   20   12   30 1     
   21   13   14 1     
   22   14   15 1     
   23   15   16 1     
   24   15   31 1     
   25   15   32 1     
   26   16   17 1     
   27   16   18 1     
   28   16   33 1     
   29   17   34 1     
   30   18   24 ar    
   31   18   19 ar    
   32   19   20 ar    
   33   19   35 1     
   34   20   21 ar    
   35   20   36 1     
   36   21   22 ar    
   37   21   37 1     
   38   22   23 1     
   39   22   24 ar    
   40   24   38 1     
   41    1   39 1     
   42    1   40 1     
   43   13   41 1     
   44   17   42 1     
   45   17   43 1     
@<TRIPOS>SUBSTRUCTURE
      1 S1             1
@<TRIPOS>SET
LONE_PAIRS      STATIC     ATOMS    <user>   **** ""
5 39 40 41 42 43
DONOR_HYDROGENS      STATIC     ATOMS    <user>   **** ""
1 34
ATOM$BLUE        STATIC     ATOMS    COLORGROUP SYSTEM
5 39 40 41 42 43
ATOM$RED        STATIC     ATOMS    COLORGROUP SYSTEM
1 34
