AV-unprocessed.smi:2976|AV-procd|sdf|11359|dock8
  -GOLD-   2272016273D 1   1.00000     0.00000
 Structure written by MMmdl.
 40 41  0  0  0  0  0  0  0  0  1 V2000
  152.1991  144.5281  162.0509 C   0  0  0  0  0  0  0  0  0  0  0  0
  152.4161  143.2110  161.2851 C   0  0  2  0  0  0  0  0  0  0  0  0
  153.4310  142.3287  162.0416 C   0  0  0  0  0  0  0  0  0  0  0  0
  153.6790  140.9906  161.3320 C   0  0  0  0  0  0  0  0  0  0  0  0
  154.1299  141.2107  159.8800 C   0  0  0  0  0  0  0  0  0  0  0  0
  153.1294  142.0782  159.0938 C   0  0  1  0  0  0  0  0  0  0  0  0
  151.8910  141.3268  158.8801 N   0  0  0  0  0  0  0  0  0  0  0  0
  151.6373  140.4817  157.8691 C   0  0  0  0  0  0  0  0  0  0  0  0
  152.4555  140.2023  156.9923 O   0  0  0  0  0  0  0  0  0  0  0  0
  150.2399  139.8498  157.8517 C   0  0  0  0  0  0  0  0  0  0  0  0
  149.3802  140.4282  156.8096 N   0  0  0  0  0  0  0  0  0  0  0  0
  149.8525  140.2505  155.5212 N   0  0  0  0  0  0  0  0  0  0  0  0
  149.1848  140.7314  154.5295 C   0  0  0  0  0  0  0  0  0  0  0  0
  147.9451  141.4535  154.7124 C   0  0  0  0  0  0  0  0  0  0  0  0
  147.0937  142.0757  153.3430 Cl  0  0  0  0  0  0  0  0  0  0  0  0
  147.4879  141.6168  155.9793 C   0  0  0  0  0  0  0  0  0  0  0  0
  146.0117  142.4684  156.2787 Cl  0  0  0  0  0  0  0  0  0  0  0  0
  148.2218  141.0818  157.1344 C   0  0  0  0  0  0  0  0  0  0  0  0
  147.8378  141.2049  158.2986 O   0  0  0  0  0  0  0  0  0  0  0  0
  152.8718  143.4301  159.8152 C   0  0  1  0  0  0  0  0  0  0  0  0
  151.9151  144.3371  159.0145 C   0  0  0  0  0  0  0  0  0  0  0  0
  153.0957  145.1483  162.0363 H   0  0  0  0  0  0  0  0  0  0  0  0
  151.9457  144.3366  163.0939 H   0  0  0  0  0  0  0  0  0  0  0  0
  151.3799  145.1099  161.6292 H   0  0  0  0  0  0  0  0  0  0  0  0
  151.4605  142.6843  161.2731 H   0  0  0  0  0  0  0  0  0  0  0  0
  154.3768  142.8627  162.1445 H   0  0  0  0  0  0  0  0  0  0  0  0
  153.0760  142.1373  163.0550 H   0  0  0  0  0  0  0  0  0  0  0  0
  154.4352  140.4202  161.8721 H   0  0  0  0  0  0  0  0  0  0  0  0
  152.7689  140.3901  161.3538 H   0  0  0  0  0  0  0  0  0  0  0  0
  155.1058  141.6978  159.8793 H   0  0  0  0  0  0  0  0  0  0  0  0
  154.2706  140.2503  159.3822 H   0  0  0  0  0  0  0  0  0  0  0  0
  153.5857  142.2904  158.1253 H   0  0  0  0  0  0  0  0  0  0  0  0
  151.1520  141.4869  159.5491 H   0  0  0  0  0  0  0  0  0  0  0  0
  150.3578  138.7758  157.6972 H   0  0  0  0  0  0  0  0  0  0  0  0
  149.7628  139.9541  158.8283 H   0  0  0  0  0  0  0  0  0  0  0  0
  149.5190  140.6191  153.4980 H   0  0  0  0  0  0  0  0  0  0  0  0
  153.8299  143.9516  159.8488 H   0  0  0  0  0  0  0  0  0  0  0  0
  150.8889  143.9711  159.0479 H   0  0  0  0  0  0  0  0  0  0  0  0
  152.2143  144.3933  157.9677 H   0  0  0  0  0  0  0  0  0  0  0  0
  151.9149  145.3576  159.3965 H   0  0  0  0  0  0  0  0  0  0  0  0
  1  2  1  0  0  0  0
  1 22  1  0  0  0  0
  1 23  1  0  0  0  0
  1 24  1  0  0  0  0
  2 20  1  0  0  0  0
  2  3  1  0  0  0  0
  2 25  1  0  0  0  0
  3  4  1  0  0  0  0
  3 26  1  0  0  0  0
  3 27  1  0  0  0  0
  4  5  1  0  0  0  0
  4 28  1  0  0  0  0
  4 29  1  0  0  0  0
  5  6  1  0  0  0  0
  5 30  1  0  0  0  0
  5 31  1  0  0  0  0
  6  7  1  0  0  0  0
  6 20  1  0  0  0  0
  6 32  1  0  0  0  0
  7  8  1  0  0  0  0
  7 33  1  0  0  0  0
  8  9  2  0  0  0  0
  8 10  1  0  0  0  0
 10 11  1  0  0  0  0
 10 34  1  0  0  0  0
 10 35  1  0  0  0  0
 11 18  1  0  0  0  0
 11 12  1  0  0  0  0
 12 13  2  0  0  0  0
 13 14  1  0  0  0  0
 13 36  1  0  0  0  0
 14 15  1  0  0  0  0
 14 16  2  0  0  0  0
 16 17  1  0  0  0  0
 16 18  1  0  0  0  0
 18 19  2  0  0  0  0
 20 21  1  0  0  0  0
 20 37  1  0  0  0  0
 21 38  1  0  0  0  0
 21 39  1  0  0  0  0
 21 40  1  0  0  0  0
M  END
> <s_m_source_file>
AV-unprocessed.smi

> <i_m_source_file_index>
2976

> <i_lp_mmshare_version>
43012

> <i_f3d_flags>
0

> <s_epik_input>
W0NIM11bQ0BASF0xW0NIMl1bQ0gyXVtDSDJdW0NASF0oW0NASF0xW0NIM10pW05IXUMoPU8pW0NIMl1uMm5bY0hdYyhDbCljKENsKWMyPU8=

> <s_epik_cmdline>
J2VwaWtfcHl0aG9uJywgJy1waCcsICc3LjAnLCAnLXRuJywgJzgnLCAnLW1hJywgJzIwMCcsICctbWV0YWxfYmluZGluZycsICctaW1hZScsICc8aW5maWxlLm1hZT4nLCAnLW9tYWUnLCAnPG91dGZpbGUubWFlPic=

> <r_lp_tautomer_probability>
1

> <r_epik_Ionization_Penalty>
1.90777e-08

> <r_epik_Ionization_Penalty_Charging>
3.07942e-11

> <r_epik_Ionization_Penalty_Neutral>
1.90469e-08

> <r_epik_State_Penalty>
-0

> <r_epik_Charging_Adjusted_Penalty>
3.07942e-11

> <i_epik_Tot_Q>
0

> <i_epik_Tot_abs_Q>
0

> <r_epik_Metal_State_Penalty>
-0

> <b_epik_Metal_Only>
0

> <s_lp_Force_Field>
OPLS_2005

> <r_lp_Energy>
25.2962

> <b_lp_Chiralities_Consistent>
1

> <s_lp_Variant>
AV-unprocessed.smi:2976-1

> <Gold.Version>
5.8.1

> <Gold.Id.Protein>
6NUR|6NUR_protein|mol2

> <Gold.PLP.Fitness>
46.3655

> <Gold.PLP.PLP>
-41.4395

> <Gold.PLP.part.hbond>
-2.0000

> <Gold.PLP.part.metal>
0.0000

> <Gold.PLP.part.buried>
-2.8745

> <Gold.PLP.part.nonpolar>
-35.9199

> <Gold.PLP.part.repulsive>
0.2003

> <Gold.PLP.ligand.clash>
0.0000

> <Gold.PLP.ligand.torsion>
0.5412

> <Gold.PLP.Chemscore.Hbond>
1.0000

> <Gold.PLP.Chemscore.CHOScore>
1.0000

> <Gold.PLP.Chemscore.Metal>
0.0000

> <Gold.Chemscore.Hbonds>
donor molecule, donor type, donor heavy atom, donor atom, acceptor molecule, acceptor atom, score
      P1  H  7997  8010       L1     9  1.00
      L1  C    13    36       P1  7957  1.00

> <Gold.PLP.Chemscore.Internal.Correction>
0.0084

> <Gold.Rescore>
     Score         DG    S(hbond)    S(metal)    S(lipo)     H(rot)  DE(clash)    DE(int)     intcor
     15.95     -19.25       0.99        0.00     122.09       1.49       1.64       1.65       ----

> <Gold.Chemscore.Fitness>
15.9547

> <Gold.Chemscore.DG>
-19.2492

> <Gold.Chemscore.ZeroCoef>
-5.4800

> <Gold.Chemscore.Hbond>
0.9850

> <Gold.Chemscore.Metal>
0.0000

> <Gold.Chemscore.Lipo>
122.0927

> <Gold.Chemscore.Internal_Hbond>
0.0000

> <Gold.Chemscore.DEClash>
1.6399

> <Gold.Chemscore.DEInternal>
1.6547

> <Gold.Chemscore.Rot>
1.4866

> <Gold.Chemscore.Internal.Correction>
   9.000000E+99

> <Gold.Chemscore.Hbonds>
donor molecule, donor type, donor heavy atom, donor atom, acceptor molecule, acceptor atom, score
      P1  H  7997  8010       L1     9  0.96

> <Gold.Chemscore.Hbond.Weighted>
-3.2901

> <Gold.Chemscore.Metal.Weighted>
-0.0000

> <Gold.Chemscore.Lipo.Weighted>
-14.2848

> <Gold.Chemscore.Internal_Hbond.Weighted>
0.0000

> <Gold.Chemscore.DEClash.Weighted>
1.6399

> <Gold.Chemscore.DEInternal.Weighted>
1.6547

> <Gold.Chemscore.Rot.Weighted>
3.8057

> <Gold.Chemscore.Internal.Correction.Weighted>
   9.000000E+99

> <Gold.Protein.RotatedTorsions>
[ 6907 6896 6895 6894 ] final -138.79 input  -60.11 | X-H torsion
[ 7974 7965 7964 7962 ] final  102.53 input  175.53 | X-H torsion
[ 8008 7997 7996 7995 ] final   65.10 input   59.86 | X-H torsion
[ 10167 10162 10161 10158 ] final  -37.37 input  -65.29 | X-H torsion
[ 10718 10713 10712 10709 ] final   75.12 input   66.30 | X-H torsion
[ 10763 10752 10751 10750 ] final  -67.56 input  -60.55 | X-H torsion
[ 11005 11000 10999 10996 ] final   86.56 input  -57.11 | X-H torsion

> <Gold.Protein.ActiveResidues>
 VAL166  LYS551  ARG553  GLY616  TRP617  ASP618  TYR619  PRO620  LYS621  CYS622 
 ASP623  PHE694  ASN695  SER759  ASP760  ASP761  ALA762  ILE779  LEU786  VAL792 
 PHE793  MET794  SER795  GLU796  ALA797  LYS798  CYS799  TRP800  GLU811  SER814 

> <Gold.Protein.RotatedAtoms>
  151.0396  133.5718  159.2652 H   0  0  0  0  0  0  0  0  0  0  0  0  # atno 6907 bound_to 6896
  151.2769  135.0701  159.9165 H   0  0  0  0  0  0  0  0  0  0  0  0  # atno 6908 bound_to 6896
  152.5361  134.0117  159.7995 H   0  0  0  0  0  0  0  0  0  0  0  0  # atno 6909 bound_to 6896
  145.3579  139.2424  143.3523 H   0  0  0  0  0  0  0  0  0  0  0  0  # atno 7974 bound_to 7965
  155.6565  140.3497  155.4767 H   0  0  0  0  0  0  0  0  0  0  0  0  # atno 8008 bound_to 7997
  155.9804  140.1173  157.0754 H   0  0  0  0  0  0  0  0  0  0  0  0  # atno 8009 bound_to 7997
  154.4190  140.1139  156.5414 H   0  0  0  0  0  0  0  0  0  0  0  0  # atno 8010 bound_to 7997
  140.7120  143.3346  151.2492 H   0  0  0  0  0  0  0  0  0  0  0  0  # atno 10167 bound_to 10162
  157.6621  130.9711  150.1308 H   0  0  0  0  0  0  0  0  0  0  0  0  # atno 10718 bound_to 10713
  154.3762  135.6084  153.5766 H   0  0  0  0  0  0  0  0  0  0  0  0  # atno 10763 bound_to 10752
  152.9789  135.5850  154.4464 H   0  0  0  0  0  0  0  0  0  0  0  0  # atno 10764 bound_to 10752
  154.4225  135.2846  155.1943 H   0  0  0  0  0  0  0  0  0  0  0  0  # atno 10765 bound_to 10752
  139.8941  134.8363  156.2737 H   0  0  0  0  0  0  0  0  0  0  0  0  # atno 11005 bound_to 11000
  146.2940  140.4207  142.8729 LP  0  0  0  0  0  0  0  0  0  0  0  0  # atno 17320 bound_to 7965
  144.8668  140.7218  143.6072 LP  0  0  0  0  0  0  0  0  0  0  0  0  # atno 17321 bound_to 7965
  139.6838  143.9809  152.2823 LP  0  0  0  0  0  0  0  0  0  0  0  0  # atno 17342 bound_to 10162
  139.9448  144.6658  150.8230 LP  0  0  0  0  0  0  0  0  0  0  0  0  # atno 17343 bound_to 10162
  156.2155  130.3670  149.8618 LP  0  0  0  0  0  0  0  0  0  0  0  0  # atno 17370 bound_to 10713
  156.6486  130.8734  151.3527 LP  0  0  0  0  0  0  0  0  0  0  0  0  # atno 17371 bound_to 10713
  141.0084  133.7110  156.1072 LP  0  0  0  0  0  0  0  0  0  0  0  0  # atno 17394 bound_to 11000
  140.7401  134.4159  157.5555 LP  0  0  0  0  0  0  0  0  0  0  0  0  # atno 17395 bound_to 11000

$$$$
