AV-unprocessed.smi:502|AV-procd|sdf|2745|dock7
  -GOLD-   2262023213D 1   1.00000     0.00000
 Structure written by MMmdl.
 49 51  0  0  0  0  0  0  0  0  2 V2000
  148.9804  133.1668  153.4950 C   0  0  0  0  0  0  0  0  0  0  0  0
  149.7859  133.9110  154.5545 C   0  0  0  0  0  0  0  0  0  0  0  0
  150.2824  133.2972  155.4987 O   0  0  0  0  0  0  0  0  0  0  0  0
  149.9077  135.2364  154.3866 N   0  0  0  0  0  0  0  0  0  0  0  0
  150.6178  136.1312  155.2930 C   0  0  0  0  0  0  0  0  0  0  0  0
  151.2849  137.2947  154.5408 C   0  0  0  0  0  0  0  0  0  0  0  0
  150.3283  138.4203  154.3128 C   0  0  0  0  0  0  0  0  0  0  0  0
  149.2021  138.3567  153.5471 N   0  3  0  0  0  0  0  0  0  0  0  0
  148.5572  139.5938  153.5487 C   0  0  0  0  0  0  0  0  0  0  0  0
  147.3875  140.0133  152.9226 C   0  0  0  0  0  0  0  0  0  0  0  0
  147.0043  141.3548  153.1310 C   0  0  0  0  0  0  0  0  0  0  0  0
  147.7723  142.2213  153.9358 C   0  0  0  0  0  0  0  0  0  0  0  0
  148.9563  141.7841  154.5656 C   0  0  0  0  0  0  0  0  0  0  0  0
  149.3287  140.4570  154.3527 C   0  0  0  0  0  0  0  0  0  0  0  0
  150.4147  139.6941  154.7969 N   0  0  0  0  0  0  0  0  0  0  0  0
  151.4206  140.3272  155.6614 C   0  0  0  0  0  0  0  0  0  0  0  0
  151.3469  139.8178  157.1071 C   0  0  0  0  0  0  0  0  0  0  0  0
  152.4302  140.3759  157.8357 O   0  0  0  0  0  0  0  0  0  0  0  0
  152.2633  141.6179  158.4135 C   0  0  0  0  0  0  0  0  0  0  0  0
  151.3857  142.6107  157.9066 C   0  0  0  0  0  0  0  0  0  0  0  0
  151.2667  143.8573  158.5498 C   0  0  0  0  0  0  0  0  0  0  0  0
  152.0195  144.1294  159.7056 C   0  0  0  0  0  0  0  0  0  0  0  0
  152.8930  143.1533  160.2179 C   0  0  0  0  0  0  0  0  0  0  0  0
  153.0166  141.9028  159.5767 C   0  0  0  0  0  0  0  0  0  0  0  0
  153.9633  140.8613  160.1436 C   0  0  0  0  0  0  0  0  0  0  0  0
  149.4262  133.3043  152.5097 H   0  0  0  0  0  0  0  0  0  0  0  0
  147.9555  133.5374  153.4661 H   0  0  0  0  0  0  0  0  0  0  0  0
  148.9502  132.0982  153.7099 H   0  0  0  0  0  0  0  0  0  0  0  0
  149.4649  135.6562  153.5816 H   0  0  0  0  0  0  0  0  0  0  0  0
  149.8987  136.5161  156.0152 H   0  0  0  0  0  0  0  0  0  0  0  0
  151.3594  135.5684  155.8625 H   0  0  0  0  0  0  0  0  0  0  0  0
  152.1364  137.6736  155.1073 H   0  0  0  0  0  0  0  0  0  0  0  0
  151.6803  136.9547  153.5836 H   0  0  0  0  0  0  0  0  0  0  0  0
  146.7977  139.3514  152.3056 H   0  0  0  0  0  0  0  0  0  0  0  0
  146.1038  141.7266  152.6639 H   0  0  0  0  0  0  0  0  0  0  0  0
  147.4476  143.2428  154.0725 H   0  0  0  0  0  0  0  0  0  0  0  0
  149.5388  142.4556  155.1789 H   0  0  0  0  0  0  0  0  0  0  0  0
  152.4080  140.1498  155.2337 H   0  0  0  0  0  0  0  0  0  0  0  0
  151.2615  141.4049  155.6367 H   0  0  0  0  0  0  0  0  0  0  0  0
  150.3984  140.1132  157.5569 H   0  0  0  0  0  0  0  0  0  0  0  0
  151.4061  138.7286  157.1247 H   0  0  0  0  0  0  0  0  0  0  0  0
  150.7902  142.4421  157.0225 H   0  0  0  0  0  0  0  0  0  0  0  0
  150.5961  144.6060  158.1547 H   0  0  0  0  0  0  0  0  0  0  0  0
  151.9272  145.0856  160.1992 H   0  0  0  0  0  0  0  0  0  0  0  0
  153.4680  143.3694  161.1065 H   0  0  0  0  0  0  0  0  0  0  0  0
  154.4563  141.2191  161.0481 H   0  0  0  0  0  0  0  0  0  0  0  0
  154.7339  140.6129  159.4135 H   0  0  0  0  0  0  0  0  0  0  0  0
  153.4184  139.9504  160.3931 H   0  0  0  0  0  0  0  0  0  0  0  0
  148.8986  137.5233  153.0595 H   0  0  0  0  0  0  0  0  0  0  0  0
  1  2  1  0  0  0  0
  1 26  1  0  0  0  0
  1 27  1  0  0  0  0
  1 28  1  0  0  0  0
  2  3  2  0  0  0  0
  2  4  1  0  0  0  0
  4  5  1  0  0  0  0
  4 29  1  0  0  0  0
  5  6  1  0  0  0  0
  5 30  1  0  0  0  0
  5 31  1  0  0  0  0
  6  7  1  0  0  0  0
  6 32  1  0  0  0  0
  6 33  1  0  0  0  0
  7 15  1  0  0  0  0
  7  8  2  0  0  0  0
  8  9  1  0  0  0  0
  8 49  1  0  0  0  0
  9 14  2  0  0  0  0
  9 10  1  0  0  0  0
 10 11  2  0  0  0  0
 10 34  1  0  0  0  0
 11 12  1  0  0  0  0
 11 35  1  0  0  0  0
 12 13  2  0  0  0  0
 12 36  1  0  0  0  0
 13 14  1  0  0  0  0
 13 37  1  0  0  0  0
 14 15  1  0  0  0  0
 15 16  1  0  0  0  0
 16 17  1  0  0  0  0
 16 38  1  0  0  0  0
 16 39  1  0  0  0  0
 17 18  1  0  0  0  0
 17 40  1  0  0  0  0
 17 41  1  0  0  0  0
 18 19  1  0  0  0  0
 19 24  1  0  0  0  0
 19 20  2  0  0  0  0
 20 21  1  0  0  0  0
 20 42  1  0  0  0  0
 21 22  2  0  0  0  0
 21 43  1  0  0  0  0
 22 23  1  0  0  0  0
 22 44  1  0  0  0  0
 23 24  2  0  0  0  0
 23 45  1  0  0  0  0
 24 25  1  0  0  0  0
 25 46  1  0  0  0  0
 25 47  1  0  0  0  0
 25 48  1  0  0  0  0
M  CHG  1   8   1
M  END
> <s_m_source_file>
AV-unprocessed.smi

> <i_m_source_file_index>
502

> <i_lp_mmshare_version>
43012

> <i_f3d_flags>
0

> <s_epik_input>
W0NIM11DKD1PKVtOSF1bQ0gyXVtDSDJdYyhuMSluKGMoYzEyKVtjSF1bY0hdW2NIXVtjSF0yKVtDSDJdW0NIMl1PYzNbY0hdW2NIXVtjSF1bY0hdYzNbQ0gzXQ==

> <s_epik_cmdline>
J2VwaWtfcHl0aG9uJywgJy1waCcsICc3LjAnLCAnLXRuJywgJzgnLCAnLW1hJywgJzIwMCcsICctbWV0YWxfYmluZGluZycsICctaW1hZScsICc8aW5maWxlLm1hZT4nLCAnLW9tYWUnLCAnPG91dGZpbGUubWFlPic=

> <r_lp_tautomer_probability>
1

> <r_epik_Ionization_Penalty>
1.10789

> <r_epik_Ionization_Penalty_Charging>
1.10789

> <r_epik_Ionization_Penalty_Neutral>
3.05925e-07

> <r_epik_State_Penalty>
1.16562

> <r_epik_Charging_Adjusted_Penalty>
2.27351

> <i_epik_Tot_Q>
1

> <i_epik_Tot_abs_Q>
1

> <r_epik_Metal_State_Penalty>
1.2518

> <b_epik_Metal_Only>
0

> <s_lp_Force_Field>
OPLS_2005

> <r_lp_Energy>
20.1677

> <b_lp_Chiralities_Consistent>
1

> <s_lp_Variant>
AV-unprocessed.smi:502-2

> <Gold.Version>
5.8.1

> <Gold.Id.Protein>
6NUR|6NUR_protein|mol2

> <Gold.PLP.Fitness>
65.7979

> <Gold.PLP.PLP>
-57.1048

> <Gold.PLP.part.hbond>
-4.2733

> <Gold.PLP.part.metal>
0.0000

> <Gold.PLP.part.buried>
1.9442

> <Gold.PLP.part.nonpolar>
-53.1681

> <Gold.PLP.part.repulsive>
0.1207

> <Gold.PLP.ligand.clash>
0.0000

> <Gold.PLP.ligand.torsion>
0.9806

> <Gold.PLP.Chemscore.Hbond>
3.5138

> <Gold.PLP.Chemscore.CHOScore>
0.0000

> <Gold.PLP.Chemscore.Metal>
0.0000

> <Gold.Chemscore.Hbonds>
donor molecule, donor type, donor heavy atom, donor atom, acceptor molecule, acceptor atom, score
      L1  H     4    29       P1  7948  1.00
      L1  H     8    49       P1  7948  2.00
      P1  H  7997  8008       L1    18  0.30

> <Gold.PLP.Chemscore.Internal.Correction>
0.1130

> <Gold.Rescore>
     Score         DG    S(hbond)    S(metal)    S(lipo)     H(rot)  DE(clash)    DE(int)     intcor
     22.74     -24.21       2.22        0.00     144.47       2.18       0.63       0.84       ----

> <Gold.Chemscore.Fitness>
22.7389

> <Gold.Chemscore.DG>
-24.2064

> <Gold.Chemscore.ZeroCoef>
-5.4800

> <Gold.Chemscore.Hbond>
2.2164

> <Gold.Chemscore.Metal>
0.0000

> <Gold.Chemscore.Lipo>
144.4688

> <Gold.Chemscore.Internal_Hbond>
0.0000

> <Gold.Chemscore.DEClash>
0.6277

> <Gold.Chemscore.DEInternal>
0.8397

> <Gold.Chemscore.Rot>
2.1793

> <Gold.Chemscore.Internal.Correction>
   9.000000E+99

> <Gold.Chemscore.Hbonds>
donor molecule, donor type, donor heavy atom, donor atom, acceptor molecule, acceptor atom, score
      L1  H     4    29       P1  7948  0.30
      L1  H     8    49       P1  7948  0.99
      P1  H  7997  8008       L1    18  0.24

> <Gold.Chemscore.Hbond.Weighted>
-7.4026

> <Gold.Chemscore.Metal.Weighted>
-0.0000

> <Gold.Chemscore.Lipo.Weighted>
-16.9029

> <Gold.Chemscore.Internal_Hbond.Weighted>
0.0000

> <Gold.Chemscore.DEClash.Weighted>
0.6277

> <Gold.Chemscore.DEInternal.Weighted>
0.8397

> <Gold.Chemscore.Rot.Weighted>
5.5791

> <Gold.Chemscore.Internal.Correction.Weighted>
   9.000000E+99

> <Gold.Protein.RotatedTorsions>
[ 6907 6896 6895 6894 ] final   61.90 input  -60.11 | X-H torsion
[ 7974 7965 7964 7962 ] final -106.98 input  175.53 | X-H torsion
[ 8008 7997 7996 7995 ] final  -80.16 input   59.86 | X-H torsion
[ 10167 10162 10161 10158 ] final  -83.56 input  -65.29 | X-H torsion
[ 10718 10713 10712 10709 ] final  160.73 input   66.30 | X-H torsion
[ 10763 10752 10751 10750 ] final   59.51 input  -60.55 | X-H torsion
[ 11005 11000 10999 10996 ] final  -12.89 input  -57.11 | X-H torsion

> <Gold.Protein.ActiveResidues>
 VAL166  LYS551  ARG553  GLY616  TRP617  ASP618  TYR619  PRO620  LYS621  CYS622 
 ASP623  PHE694  ASN695  SER759  ASP760  ASP761  ALA762  ILE779  LEU786  VAL792 
 PHE793  MET794  SER795  GLU796  ALA797  LYS798  CYS799  TRP800  GLU811  SER814 

> <Gold.Protein.RotatedAtoms>
  152.4127  134.6095  160.0021 H   0  0  0  0  0  0  0  0  0  0  0  0  # atno 6907 bound_to 6896
  151.6268  133.3329  159.3108 H   0  0  0  0  0  0  0  0  0  0  0  0  # atno 6908 bound_to 6896
  150.8017  134.7156  159.6673 H   0  0  0  0  0  0  0  0  0  0  0  0  # atno 6909 bound_to 6896
  145.2111  140.9096  143.3314 H   0  0  0  0  0  0  0  0  0  0  0  0  # atno 7974 bound_to 7965
  154.5856  140.0667  156.9166 H   0  0  0  0  0  0  0  0  0  0  0  0  # atno 8008 bound_to 7997
  155.2385  140.3343  155.4276 H   0  0  0  0  0  0  0  0  0  0  0  0  # atno 8009 bound_to 7997
  156.2220  140.1803  156.7438 H   0  0  0  0  0  0  0  0  0  0  0  0  # atno 8010 bound_to 7997
  140.4215  143.2583  151.8883 H   0  0  0  0  0  0  0  0  0  0  0  0  # atno 10167 bound_to 10162
  157.1463  131.0553  151.2302 H   0  0  0  0  0  0  0  0  0  0  0  0  # atno 10718 bound_to 10713
  152.9896  135.5569  154.5724 H   0  0  0  0  0  0  0  0  0  0  0  0  # atno 10763 bound_to 10752
  154.5122  135.2803  155.1335 H   0  0  0  0  0  0  0  0  0  0  0  0  # atno 10764 bound_to 10752
  154.2722  135.6361  153.5367 H   0  0  0  0  0  0  0  0  0  0  0  0  # atno 10765 bound_to 10752
  140.7704  133.8443  155.9202 H   0  0  0  0  0  0  0  0  0  0  0  0  # atno 11005 bound_to 11000
  144.9855  139.3741  143.6241 LP  0  0  0  0  0  0  0  0  0  0  0  0  # atno 17320 bound_to 7965
  146.3397  139.9015  142.8794 LP  0  0  0  0  0  0  0  0  0  0  0  0  # atno 17321 bound_to 7965
  139.4783  144.5432  151.8497 LP  0  0  0  0  0  0  0  0  0  0  0  0  # atno 17342 bound_to 10162
  140.4528  144.1831  150.5899 LP  0  0  0  0  0  0  0  0  0  0  0  0  # atno 17343 bound_to 10162
  157.4261  130.7464  149.6952 LP  0  0  0  0  0  0  0  0  0  0  0  0  # atno 17370 bound_to 10713
  155.9779  130.4058  150.3684 LP  0  0  0  0  0  0  0  0  0  0  0  0  # atno 17371 bound_to 10713
  140.9579  134.1694  157.4677 LP  0  0  0  0  0  0  0  0  0  0  0  0  # atno 17394 bound_to 11000
  139.8756  134.9934  156.5642 LP  0  0  0  0  0  0  0  0  0  0  0  0  # atno 17395 bound_to 11000

$$$$
