#       Name:                AV-unprocessed.smi:2547
#       Creating user name   scv26
#       Creation time:       Fri Mar 27 14:05:20 2020


#       File generated by GOLD software.
#

@<TRIPOS>MOLECULE
AV-unprocessed.smi:2547
    47    48     1
SMALL
NO_CHARGES


@<TRIPOS>ATOM
      1 ****        -4.1745  -5.0603  -0.0000 C.3            1 S1                 0.0000
      2 ****        -2.9123  -4.2901   0.0001 N.4            1 S1                 1.0000
      3 ****        -2.7469  -3.4766   1.2303 C.3            1 S1                 0.0000
      4 ****        -1.3708  -2.7905   1.2583 C.3            1 S1                 0.0000
      5 ****        -1.1505  -1.9341  -0.0000 C.3            1 S1                 0.0000
      6 ****         0.2057  -1.3908  -0.0000 N.am           1 S1                 0.0000
      7 ****         0.5439  -0.0922  -0.0003 C.2            1 S1                 0.0000
      8 ****        -0.3109   0.7984  -0.0007 O.2            1 S1                 0.0000
      9 ****         1.9292   0.0295  -0.0002 N.2            1 S1                 0.0000
     10 ****         2.5369   1.1810  -0.0001 C.2            1 S1                 0.0000
     11 ****         3.9891   1.2311   0.0001 C.2            1 S1                 0.0000
     12 ****         4.6448   2.4097   0.0002 C.2            1 S1                 0.0000
     13 ****         3.9239   3.6658   0.0002 C.2            1 S1                 0.0000
     14 ****         2.5773   3.6589  -0.0000 C.2            1 S1                 0.0000
     15 ****         1.8928   4.8592  -0.0001 N.pl3          1 S1                 0.0000
     16 ****         2.6016   6.1277   0.0000 C.3            1 S1                 0.0000
     17 ****         0.4842   4.9201  -0.3516 C.3            1 S1                 0.0000
     18 ****         1.9041   2.4385  -0.0002 N.pl3          1 S1                 0.0000
     19 ****        -1.3708  -2.7904  -1.2582 C.3            1 S1                 0.0000
     20 ****        -2.7468  -3.4766  -1.2303 C.3            1 S1                 0.0000
     21 ****        -5.0390  -4.3949  -0.0000 H              1 S1                 0.0000
     22 ****        -4.2351  -5.7005   0.8807 H              1 S1                 0.0000
     23 ****        -4.2351  -5.7005  -0.8807 H              1 S1                 0.0000
     24 ****        -3.5403  -2.7295   1.2849 H              1 S1                 0.0000
     25 ****        -2.8520  -4.1156   2.1081 H              1 S1                 0.0000
     26 ****        -1.2856  -2.1710   2.1521 H              1 S1                 0.0000
     27 ****        -0.5902  -3.5494   1.3326 H              1 S1                 0.0000
     28 ****        -1.8897  -1.1310   0.0001 H              1 S1                 0.0000
     29 ****         0.9601  -2.0624   0.0003 H              1 S1                 0.0000
     30 ****         4.5820   0.3278   0.0001 H              1 S1                 0.0000
     31 ****         5.7247   2.4175   0.0004 H              1 S1                 0.0000
     32 ****         4.4696   4.5985   0.0004 H              1 S1                 0.0000
     33 ****         3.5483   6.0396   0.5340 H              1 S1                 0.0000
     34 ****         2.0109   6.9046   0.4862 H              1 S1                 0.0000
     35 ****         2.8130   6.4424  -1.0221 H              1 S1                 0.0000
     36 ****        -0.0254   4.0012  -0.0597 H              1 S1                 0.0000
     37 ****         0.3687   5.0485  -1.4281 H              1 S1                 0.0000
     38 ****        -0.0077   5.7532   0.1512 H              1 S1                 0.0000
     39 ****        -1.2856  -2.1710  -2.1520 H              1 S1                 0.0000
     40 ****        -0.5902  -3.5493  -1.3326 H              1 S1                 0.0000
     41 ****        -2.8521  -4.1155  -2.1081 H              1 S1                 0.0000
     42 ****        -3.5404  -2.7294  -1.2848 H              1 S1                 0.0000
     43 ****        -2.1634  -4.9680  -0.0000 H              1 S1                 0.0000
     44 ****         0.8961   2.5007  -0.0003 H              1 S1                 0.0000
     45 ****        -1.2819   0.5595  -0.0008 LP             1 S1                 0.0000
     46 ****        -0.0323   1.7588  -0.0009 LP             1 S1                 0.0000
     47 ****         2.4826  -0.8034  -0.0002 LP             1 S1                 0.0000
@<TRIPOS>BOND
    1    1    2 1     
    2    1   21 1     
    3    1   22 1     
    4    1   23 1     
    5    2   20 1     
    6    2    3 1     
    7    2   43 1     
    8    3    4 1     
    9    3   24 1     
   10    3   25 1     
   11    4    5 1     
   12    4   26 1     
   13    4   27 1     
   14    5    6 1     
   15    5   19 1     
   16    5   28 1     
   17    6    7 am    
   18    6   29 1     
   19    7    8 2     
   20    7    9 1     
   21    9   10 2     
   22   10   18 1     
   23   10   11 1     
   24   11   12 2     
   25   11   30 1     
   26   12   13 1     
   27   12   31 1     
   28   13   14 2     
   29   13   32 1     
   30   14   15 1     
   31   14   18 1     
   32   15   16 1     
   33   15   17 1     
   34   16   33 1     
   35   16   34 1     
   36   16   35 1     
   37   17   36 1     
   38   17   37 1     
   39   17   38 1     
   40   18   44 1     
   41   19   20 1     
   42   19   39 1     
   43   19   40 1     
   44   20   41 1     
   45   20   42 1     
   46    8   45 1     
   47    8   46 1     
   48    9   47 1     
@<TRIPOS>SUBSTRUCTURE
      1 S1             1
@<TRIPOS>SET
LONE_PAIRS      STATIC     ATOMS    <user>   **** ""
3 45 46 47
DONOR_HYDROGENS      STATIC     ATOMS    <user>   **** ""
3 43 29 44
ATOM$BLUE        STATIC     ATOMS    COLORGROUP SYSTEM
3 45 46 47
ATOM$RED        STATIC     ATOMS    COLORGROUP SYSTEM
3 43 29 44
