AV-unprocessed.smi:2837|AV-procd|sdf|10921|dock8
  -GOLD-   2272015373D 1   1.00000     0.00000
 Structure written by MMmdl.
 32 34  0  0  0  0  0  0  0  0  1 V2000
  139.0478  138.4264  152.6149 F   0  0  0  0  0  0  0  0  0  0  0  0
  139.7505  139.0490  153.5917 C   0  0  0  0  0  0  0  0  0  0  0  0
  138.8798  139.8072  154.3022 F   0  0  0  0  0  0  0  0  0  0  0  0
  140.3396  138.1236  154.3946 O   0  0  0  0  0  0  0  0  0  0  0  0
  141.2576  137.2527  153.8537 C   0  0  0  0  0  0  0  0  0  0  0  0
  141.0708  135.8515  153.7950 C   0  0  0  0  0  0  0  0  0  0  0  0
  142.0698  135.0523  153.2067 C   0  0  0  0  0  0  0  0  0  0  0  0
  143.2227  135.6759  152.6873 C   0  0  0  0  0  0  0  0  0  0  0  0
  144.2162  134.8729  152.1092 N   0  0  0  0  0  0  0  0  0  0  0  0
  144.0284  133.4338  151.9501 C   0  0  1  0  0  0  0  0  0  0  0  0
  143.7660  133.0218  150.4998 C   0  0  0  0  0  0  0  0  0  0  0  0
  144.8452  131.9537  150.2746 C   0  0  1  0  0  0  0  0  0  0  0  0
  146.2358  132.5829  150.1181 C   0  0  0  0  0  0  0  0  0  0  0  0
  146.5438  133.0152  151.5503 C   0  0  0  0  0  0  0  0  0  0  0  0
  145.2685  132.5837  152.2944 C   0  0  2  0  0  0  0  0  0  0  0  0
  144.9549  131.4020  151.5763 O   0  0  0  0  0  0  0  0  0  0  0  0
  143.4034  137.0164  152.7323 N   0  0  0  0  0  0  0  0  0  0  0  0
  142.4411  137.7768  153.2961 C   0  0  0  0  0  0  0  0  0  0  0  0
  140.4872  139.6942  153.1124 H   0  0  0  0  0  0  0  0  0  0  0  0
  140.1790  135.3852  154.1864 H   0  0  0  0  0  0  0  0  0  0  0  0
  141.9473  133.9802  153.1543 H   0  0  0  0  0  0  0  0  0  0  0  0
  145.1467  135.2483  151.9963 H   0  0  0  0  0  0  0  0  0  0  0  0
  143.1831  133.1093  152.5591 H   0  0  0  0  0  0  0  0  0  0  0  0
  142.7683  132.5918  150.4059 H   0  0  0  0  0  0  0  0  0  0  0  0
  143.8479  133.8424  149.7854 H   0  0  0  0  0  0  0  0  0  0  0  0
  144.5969  131.2310  149.4970 H   0  0  0  0  0  0  0  0  0  0  0  0
  146.9619  131.8442  149.7771 H   0  0  0  0  0  0  0  0  0  0  0  0
  146.2378  133.4160  149.4144 H   0  0  0  0  0  0  0  0  0  0  0  0
  147.4095  132.4719  151.9308 H   0  0  0  0  0  0  0  0  0  0  0  0
  146.7535  134.0813  151.6397 H   0  0  0  0  0  0  0  0  0  0  0  0
  145.4151  132.4265  153.3631 H   0  0  0  0  0  0  0  0  0  0  0  0
  142.6237  138.8413  153.3070 H   0  0  0  0  0  0  0  0  0  0  0  0
  1  2  1  0  0  0  0
  2  3  1  0  0  0  0
  2  4  1  0  0  0  0
  2 19  1  0  0  0  0
  4  5  1  0  0  0  0
  5 18  1  0  0  0  0
  5  6  2  0  0  0  0
  6  7  1  0  0  0  0
  6 20  1  0  0  0  0
  7  8  2  0  0  0  0
  7 21  1  0  0  0  0
  8  9  1  0  0  0  0
  8 17  1  0  0  0  0
  9 10  1  0  0  0  0
  9 22  1  0  0  0  0
 10 15  1  0  0  0  0
 10 11  1  0  0  0  0
 10 23  1  0  0  0  0
 11 12  1  0  0  0  0
 11 24  1  0  0  0  0
 11 25  1  0  0  0  0
 12 16  1  0  0  0  0
 12 13  1  0  0  0  0
 12 26  1  0  0  0  0
 13 14  1  0  0  0  0
 13 27  1  0  0  0  0
 13 28  1  0  0  0  0
 14 15  1  0  0  0  0
 14 29  1  0  0  0  0
 14 30  1  0  0  0  0
 15 16  1  0  0  0  0
 15 31  1  0  0  0  0
 17 18  2  0  0  0  0
 18 32  1  0  0  0  0
M  END
> <s_m_source_file>
AV-unprocessed.smi

> <i_m_source_file_index>
2837

> <i_lp_mmshare_version>
43012

> <i_f3d_flags>
0

> <s_epik_input>
RltDSF0oRilPYzFbY0hdW2NIXWMobltjSF0xKVtOSF1bQ0BIXShbQ0gyXVtDQEBIXTIzKVtDQEBIXShPMylbQ0gyXVtDSDJdMg==

> <s_epik_cmdline>
J2VwaWtfcHl0aG9uJywgJy1waCcsICc3LjAnLCAnLXRuJywgJzgnLCAnLW1hJywgJzIwMCcsICctbWV0YWxfYmluZGluZycsICctaW1hZScsICc8aW5maWxlLm1hZT4nLCAnLW9tYWUnLCAnPG91dGZpbGUubWFlPic=

> <r_lp_tautomer_probability>
1

> <r_epik_Ionization_Penalty>
0.0124072

> <r_epik_Ionization_Penalty_Charging>
0

> <r_epik_Ionization_Penalty_Neutral>
0.0124072

> <r_epik_State_Penalty>
0.00959565

> <r_epik_Charging_Adjusted_Penalty>
0.00959565

> <i_epik_Tot_Q>
0

> <i_epik_Tot_abs_Q>
0

> <r_epik_Metal_State_Penalty>
9.67369e-06

> <b_epik_Metal_Only>
0

> <s_lp_Force_Field>
OPLS_2005

> <r_lp_Energy>
39.9144

> <b_lp_Chiralities_Consistent>
1

> <s_lp_Variant>
AV-unprocessed.smi:2837-2

> <Gold.Version>
5.8.1

> <Gold.Id.Protein>
6NUR|6NUR_protein|mol2

> <Gold.PLP.Fitness>
34.4865

> <Gold.PLP.PLP>
-31.9057

> <Gold.PLP.part.hbond>
0.0000

> <Gold.PLP.part.metal>
0.0000

> <Gold.PLP.part.buried>
-2.6899

> <Gold.PLP.part.nonpolar>
-28.9626

> <Gold.PLP.part.repulsive>
0.4175

> <Gold.PLP.ligand.clash>
0.0000

> <Gold.PLP.ligand.torsion>
0.2191

> <Gold.PLP.Chemscore.Hbond>
0.0000

> <Gold.PLP.Chemscore.CHOScore>
1.0000

> <Gold.PLP.Chemscore.Metal>
0.0000

> <Gold.Chemscore.Hbonds>
donor molecule, donor type, donor heavy atom, donor atom, acceptor molecule, acceptor atom, score
      L1  C    18    32       P1 10175  1.00

> <Gold.PLP.Chemscore.Internal.Correction>
0.0189

> <Gold.Rescore>
     Score         DG    S(hbond)    S(metal)    S(lipo)     H(rot)  DE(clash)    DE(int)     intcor
     11.10     -11.36       0.00        0.00      79.13       1.32       0.05       0.21       ----

> <Gold.Chemscore.Fitness>
11.0991

> <Gold.Chemscore.DG>
-11.3554

> <Gold.Chemscore.ZeroCoef>
-5.4800

> <Gold.Chemscore.Hbond>
0.0000

> <Gold.Chemscore.Metal>
0.0000

> <Gold.Chemscore.Lipo>
79.1278

> <Gold.Chemscore.Internal_Hbond>
0.0000

> <Gold.Chemscore.DEClash>
0.0471

> <Gold.Chemscore.DEInternal>
0.2092

> <Gold.Chemscore.Rot>
1.3213

> <Gold.Chemscore.Internal.Correction>
   9.000000E+99

> <Gold.Chemscore.Hbond.Weighted>
-0.0000

> <Gold.Chemscore.Metal.Weighted>
-0.0000

> <Gold.Chemscore.Lipo.Weighted>
-9.2579

> <Gold.Chemscore.Internal_Hbond.Weighted>
0.0000

> <Gold.Chemscore.DEClash.Weighted>
0.0471

> <Gold.Chemscore.DEInternal.Weighted>
0.2092

> <Gold.Chemscore.Rot.Weighted>
3.3825

> <Gold.Chemscore.Internal.Correction.Weighted>
   9.000000E+99

> <Gold.Protein.RotatedTorsions>
[ 6907 6896 6895 6894 ] final   18.46 input  -60.11 | X-H torsion
[ 7974 7965 7964 7962 ] final   39.37 input  175.53 | X-H torsion
[ 8008 7997 7996 7995 ] final  108.94 input   59.86 | X-H torsion
[ 10167 10162 10161 10158 ] final -143.79 input  -65.29 | X-H torsion
[ 10718 10713 10712 10709 ] final   70.11 input   66.30 | X-H torsion
[ 10763 10752 10751 10750 ] final   58.60 input  -60.55 | X-H torsion
[ 11005 11000 10999 10996 ] final  -86.02 input  -57.11 | X-H torsion

> <Gold.Protein.ActiveResidues>
 VAL166  LYS551  ARG553  GLY616  TRP617  ASP618  TYR619  PRO620  LYS621  CYS622 
 ASP623  PHE694  ASN695  SER759  ASP760  ASP761  ALA762  ILE779  LEU786  VAL792 
 PHE793  MET794  SER795  GLU796  ALA797  LYS798  CYS799  TRP800  GLU811  SER814 

> <Gold.Protein.RotatedAtoms>
  151.8657  135.0508  160.0473 H   0  0  0  0  0  0  0  0  0  0  0  0  # atno 6907 bound_to 6896
  152.2628  133.5308  159.5400 H   0  0  0  0  0  0  0  0  0  0  0  0  # atno 6908 bound_to 6896
  150.7122  134.0722  159.3911 H   0  0  0  0  0  0  0  0  0  0  0  0  # atno 6909 bound_to 6896
  146.0989  139.5659  142.9427 H   0  0  0  0  0  0  0  0  0  0  0  0  # atno 7974 bound_to 7965
  156.1941  140.3067  155.9392 H   0  0  0  0  0  0  0  0  0  0  0  0  # atno 8008 bound_to 7997
  155.3105  140.0451  157.3051 H   0  0  0  0  0  0  0  0  0  0  0  0  # atno 8009 bound_to 7997
  154.5488  140.2285  155.8527 H   0  0  0  0  0  0  0  0  0  0  0  0  # atno 8010 bound_to 7997
  139.7960  143.7899  152.2654 H   0  0  0  0  0  0  0  0  0  0  0  0  # atno 10167 bound_to 10162
  157.6382  130.9460  150.0606 H   0  0  0  0  0  0  0  0  0  0  0  0  # atno 10718 bound_to 10713
  152.9874  135.5601  154.5579 H   0  0  0  0  0  0  0  0  0  0  0  0  # atno 10763 bound_to 10752
  154.5003  135.2797  155.1428 H   0  0  0  0  0  0  0  0  0  0  0  0  # atno 10764 bound_to 10752
  154.2861  135.6335  153.5419 H   0  0  0  0  0  0  0  0  0  0  0  0  # atno 10765 bound_to 10752
  141.1635  133.7431  156.9099 H   0  0  0  0  0  0  0  0  0  0  0  0  # atno 11005 bound_to 11000
  145.5893  141.0372  143.2079 LP  0  0  0  0  0  0  0  0  0  0  0  0  # atno 17320 bound_to 7965
  144.7417  139.7431  143.7308 LP  0  0  0  0  0  0  0  0  0  0  0  0  # atno 17321 bound_to 7965
  139.8005  144.7376  150.9831 LP  0  0  0  0  0  0  0  0  0  0  0  0  # atno 17342 bound_to 10162
  140.7820  143.4350  151.0637 LP  0  0  0  0  0  0  0  0  0  0  0  0  # atno 17343 bound_to 10162
  156.1640  130.3644  149.9259 LP  0  0  0  0  0  0  0  0  0  0  0  0  # atno 17370 bound_to 10713
  156.7250  130.9021  151.3621 LP  0  0  0  0  0  0  0  0  0  0  0  0  # atno 17371 bound_to 10713
  140.1524  134.9221  157.2609 LP  0  0  0  0  0  0  0  0  0  0  0  0  # atno 17394 bound_to 11000
  140.2707  134.3463  155.7374 LP  0  0  0  0  0  0  0  0  0  0  0  0  # atno 17395 bound_to 11000

$$$$
