#       Name:                AV-unprocessed.smi:72
#       Creating user name   scv26
#       Creation time:       Thu Mar 26 17:07:43 2020


#       File generated by GOLD software.
#

@<TRIPOS>MOLECULE
AV-unprocessed.smi:72
    41    42     1
SMALL
NO_CHARGES


@<TRIPOS>ATOM
      1 ****        -5.0865  -0.2427  -0.4377 N.pl3          1 S1                 0.0000
      2 ****        -3.7148  -0.3764  -0.4865 C.2            1 S1                 0.0000
      3 ****        -2.9696   0.8039  -0.3611 N.2            1 S1                 0.0000
      4 ****        -1.6805   0.6847  -0.4090 C.2            1 S1                 0.0000
      5 ****        -1.0489  -0.6125  -0.5851 N.am           1 S1                 0.0000
      6 ****         0.4592  -0.7837  -0.6447 C.3            1 S1                 0.0000
      7 ****         1.0645   0.4289  -0.9949 O.3            1 S1                 0.0000
      8 ****         1.7542   0.9776   0.1254 C.3            1 S1                 0.0000
      9 ****         2.8726   1.9128  -0.3588 C.3            1 S1                 0.0000
     10 ****         2.3446   3.1885  -0.6524 O.3            1 S1                 0.0000
     11 ****         2.2651  -0.2833   0.8210 C.3            1 S1                 0.0000
     12 ****         2.6731  -0.0554   2.1570 O.3            1 S1                 0.0000
     13 ****         1.0788  -1.2350   0.6996 C.3            1 S1                 0.0000
     14 ****         0.1913  -1.1249   1.8028 O.3            1 S1                 0.0000
     15 ****        -1.8680  -1.7693  -0.6989 C.2            1 S1                 0.0000
     16 ****        -1.3525  -2.8795  -0.8319 O.2            1 S1                 0.0000
     17 ****        -3.2543  -1.5842  -0.6433 N.2            1 S1                 0.0000
     18 ****         0.6435  -1.4846  -1.4606 H              1 S1                 0.0000
     19 ****         1.0553   1.5008   0.7808 H              1 S1                 0.0000
     20 ****         3.1071  -0.6920   0.2599 H              1 S1                 0.0000
     21 ****         1.4048  -2.2726   0.6217 H              1 S1                 0.0000
     22 ****        -5.7224  -1.0228  -0.5168 H              1 S1                 0.0000
     23 ****        -5.5557   0.6432  -0.3179 H              1 S1                 0.0000
     24 ****        -1.0053   1.5356  -0.3203 H              1 S1                 0.0000
     25 ****         3.6197   2.0417   0.4249 H              1 S1                 0.0000
     26 ****         3.3840   1.5030  -1.2302 H              1 S1                 0.0000
     27 ****         3.0517   3.7493  -0.9327 H              1 S1                 0.0000
     28 ****         2.8537  -0.8903   2.5610 H              1 S1                 0.0000
     29 ****        -0.5659  -1.6644   1.6330 H              1 S1                 0.0000
     30 ****        -3.4107   1.6932  -0.2408 LP             1 S1                 0.0000
     31 ****         0.3623   1.0730  -1.2981 LP             1 S1                 0.0000
     32 ****         1.7149   0.2708  -1.7379 LP             1 S1                 0.0000
     33 ****         1.9143   3.5715   0.1649 LP             1 S1                 0.0000
     34 ****         1.6652   3.1123  -1.3822 LP             1 S1                 0.0000
     35 ****         1.9440   0.4112   2.6576 LP             1 S1                 0.0000
     36 ****         3.4982   0.5096   2.1662 LP             1 S1                 0.0000
     37 ****        -0.0913  -0.1722   1.9146 LP             1 S1                 0.0000
     38 ****         0.6481  -1.4371   2.6358 LP             1 S1                 0.0000
     39 ****        -0.3568  -2.9683  -0.8600 LP             1 S1                 0.0000
     40 ****        -1.9294  -3.6924  -0.9119 LP             1 S1                 0.0000
     41 ****        -3.8773  -2.3624  -0.7223 LP             1 S1                 0.0000
@<TRIPOS>BOND
    1    1    2 1     
    2    1   22 1     
    3    1   23 1     
    4    2   17 2     
    5    2    3 1     
    6    3    4 2     
    7    4    5 1     
    8    4   24 1     
    9    5    6 1     
   10    5   15 am    
   11    6   18 1     
   12    6   13 1     
   13    6    7 1     
   14    7    8 1     
   15    8   19 1     
   16    8    9 1     
   17    8   11 1     
   18    9   10 1     
   19    9   25 1     
   20    9   26 1     
   21   10   27 1     
   22   11   20 1     
   23   11   12 1     
   24   11   13 1     
   25   12   28 1     
   26   13   21 1     
   27   13   14 1     
   28   14   29 1     
   29   15   16 2     
   30   15   17 1     
   31    3   30 1     
   32    7   31 1     
   33    7   32 1     
   34   10   33 1     
   35   10   34 1     
   36   12   35 1     
   37   12   36 1     
   38   14   37 1     
   39   14   38 1     
   40   16   39 1     
   41   16   40 1     
   42   17   41 1     
@<TRIPOS>SUBSTRUCTURE
      1 S1             1
@<TRIPOS>SET
LONE_PAIRS      STATIC     ATOMS    <user>   **** ""
12 30 31 32 33 34 35 36 37 38 39 40 41
DONOR_HYDROGENS      STATIC     ATOMS    <user>   **** ""
5 22 23 27 28 29
ATOM$BLUE        STATIC     ATOMS    COLORGROUP SYSTEM
12 30 31 32 33 34 35 36 37 38 39 40 41
ATOM$RED        STATIC     ATOMS    COLORGROUP SYSTEM
5 22 23 27 28 29
