AV-unprocessed.smi:1300|AV-procd|sdf|5420|dock9
  -GOLD-   22720 4583D 1   1.00000     0.00000
 Structure written by MMmdl.
 35 36  0  0  0  0  0  0  0  0  1 V2000
  155.8575  139.5821  164.9406 C   0  0  0  0  0  0  0  0  0  0  0  0
  155.2310  139.3851  163.5844 C   0  0  0  0  0  0  0  0  0  0  0  0
  154.9650  140.4714  162.9370 N   0  0  0  0  0  0  0  0  0  0  0  0
  154.3862  140.4434  161.6848 N   0  0  0  0  0  0  0  0  0  0  0  0
  154.1652  141.7729  161.1018 C   0  0  0  0  0  0  0  0  0  0  0  0
  152.7919  142.3662  161.4848 C   0  0  1  0  0  0  0  0  0  0  0  0
  152.8628  142.8606  162.8091 O   0  0  0  0  0  0  0  0  0  0  0  0
  152.3807  143.4510  160.4970 C   0  0  0  0  0  0  0  0  0  0  0  0
  152.2032  144.7858  160.9271 C   0  0  0  0  0  0  0  0  0  0  0  0
  151.8367  145.7880  160.0084 C   0  0  0  0  0  0  0  0  0  0  0  0
  151.6500  145.4650  158.6514 C   0  0  0  0  0  0  0  0  0  0  0  0
  151.8327  144.1397  158.2137 C   0  0  0  0  0  0  0  0  0  0  0  0
  152.1991  143.1353  159.1310 C   0  0  0  0  0  0  0  0  0  0  0  0
  152.3809  141.8675  158.6896 F   0  0  0  0  0  0  0  0  0  0  0  0
  154.0420  139.3077  161.0143 C   0  0  0  0  0  0  0  0  0  0  0  0
  153.5252  139.3292  159.8961 O   0  0  0  0  0  0  0  0  0  0  0  0
  154.3456  138.0779  161.7493 C   0  0  0  0  0  0  0  0  0  0  0  0
  153.9976  136.8654  161.0809 C   0  0  0  0  0  0  0  0  0  0  0  0
  153.7331  135.8739  160.5450 N   0  0  0  0  0  0  0  0  0  0  0  0
  154.9180  138.0906  162.9796 C   0  0  0  0  0  0  0  0  0  0  0  0
  155.2516  136.8335  163.7717 C   0  0  0  0  0  0  0  0  0  0  0  0
  156.0237  138.6474  165.4731 H   0  0  0  0  0  0  0  0  0  0  0  0
  155.2207  140.2037  165.5711 H   0  0  0  0  0  0  0  0  0  0  0  0
  156.8226  140.0812  164.8487 H   0  0  0  0  0  0  0  0  0  0  0  0
  154.9667  142.4623  161.3756 H   0  0  0  0  0  0  0  0  0  0  0  0
  154.2324  141.6824  160.0158 H   0  0  0  0  0  0  0  0  0  0  0  0
  152.0288  141.5877  161.4779 H   0  0  0  0  0  0  0  0  0  0  0  0
  152.6381  143.7785  162.7978 H   0  0  0  0  0  0  0  0  0  0  0  0
  152.3512  145.0495  161.9643 H   0  0  0  0  0  0  0  0  0  0  0  0
  151.7015  146.8055  160.3447 H   0  0  0  0  0  0  0  0  0  0  0  0
  151.3705  146.2336  157.9461 H   0  0  0  0  0  0  0  0  0  0  0  0
  151.6942  143.8928  157.1713 H   0  0  0  0  0  0  0  0  0  0  0  0
  155.0119  135.9228  163.2242 H   0  0  0  0  0  0  0  0  0  0  0  0
  154.6899  136.8106  164.7061 H   0  0  0  0  0  0  0  0  0  0  0  0
  156.3166  136.7997  164.0048 H   0  0  0  0  0  0  0  0  0  0  0  0
  1  2  1  0  0  0  0
  1 22  1  0  0  0  0
  1 23  1  0  0  0  0
  1 24  1  0  0  0  0
  2 20  1  0  0  0  0
  2  3  2  0  0  0  0
  3  4  1  0  0  0  0
  4  5  1  0  0  0  0
  4 15  1  0  0  0  0
  5  6  1  0  0  0  0
  5 25  1  0  0  0  0
  5 26  1  0  0  0  0
  6  7  1  0  0  0  0
  6  8  1  0  0  0  0
  6 27  1  0  0  0  0
  7 28  1  0  0  0  0
  8 13  1  0  0  0  0
  8  9  2  0  0  0  0
  9 10  1  0  0  0  0
  9 29  1  0  0  0  0
 10 11  2  0  0  0  0
 10 30  1  0  0  0  0
 11 12  1  0  0  0  0
 11 31  1  0  0  0  0
 12 13  2  0  0  0  0
 12 32  1  0  0  0  0
 13 14  1  0  0  0  0
 15 16  2  0  0  0  0
 15 17  1  0  0  0  0
 17 18  1  0  0  0  0
 17 20  2  0  0  0  0
 18 19  3  0  0  0  0
 20 21  1  0  0  0  0
 21 33  1  0  0  0  0
 21 34  1  0  0  0  0
 21 35  1  0  0  0  0
M  END
> <s_m_source_file>
AV-unprocessed.smi

> <i_m_source_file_index>
1300

> <i_lp_mmshare_version>
43012

> <i_f3d_flags>
0

> <s_epik_input>
TiNDYyhjMVtDSDNdKWMoPU8pbihuYzFbQ0gzXSlbQ0gyXVtDQEhdKFtPSF0pYzJbY0hdW2NIXVtjSF1bY0hdYzJG

> <s_epik_cmdline>
J2VwaWtfcHl0aG9uJywgJy1waCcsICc3LjAnLCAnLXRuJywgJzgnLCAnLW1hJywgJzIwMCcsICctbWV0YWxfYmluZGluZycsICctaW1hZScsICc8aW5maWxlLm1hZT4nLCAnLW9tYWUnLCAnPG91dGZpbGUubWFlPic=

> <r_lp_tautomer_probability>
1

> <r_epik_Ionization_Penalty>
7.1854e-08

> <r_epik_Ionization_Penalty_Charging>
1.40848e-10

> <r_epik_Ionization_Penalty_Neutral>
7.17131e-08

> <r_epik_State_Penalty>
-0

> <r_epik_Charging_Adjusted_Penalty>
1.40848e-10

> <i_epik_Tot_Q>
0

> <i_epik_Tot_abs_Q>
0

> <r_epik_Metal_State_Penalty>
-0

> <b_epik_Metal_Only>
0

> <s_lp_Force_Field>
OPLS_2005

> <r_lp_Energy>
29.2167

> <b_lp_Chiralities_Consistent>
1

> <s_lp_Variant>
AV-unprocessed.smi:1300-2

> <Gold.Version>
5.8.1

> <Gold.Id.Protein>
6NUR|6NUR_protein|mol2

> <Gold.PLP.Fitness>
48.3024

> <Gold.PLP.PLP>
-46.4253

> <Gold.PLP.part.hbond>
-1.1822

> <Gold.PLP.part.metal>
0.0000

> <Gold.PLP.part.buried>
-5.0127

> <Gold.PLP.part.nonpolar>
-38.7026

> <Gold.PLP.part.repulsive>
0.0000

> <Gold.PLP.ligand.clash>
0.0000

> <Gold.PLP.ligand.torsion>
0.5656

> <Gold.PLP.Chemscore.Hbond>
1.0000

> <Gold.PLP.Chemscore.CHOScore>
0.0000

> <Gold.PLP.Chemscore.Metal>
0.0000

> <Gold.Chemscore.Hbonds>
donor molecule, donor type, donor heavy atom, donor atom, acceptor molecule, acceptor atom, score
      P1  H  6896  6907       L1    19  1.00

> <Gold.PLP.Chemscore.Internal.Correction>
0.0082

> <Gold.Rescore>
     Score         DG    S(hbond)    S(metal)    S(lipo)     H(rot)  DE(clash)    DE(int)     intcor
     16.87     -18.41       0.99        0.00     125.86       2.00       0.14       1.40       ----

> <Gold.Chemscore.Fitness>
16.8693

> <Gold.Chemscore.DG>
-18.4142

> <Gold.Chemscore.ZeroCoef>
-5.4800

> <Gold.Chemscore.Hbond>
0.9937

> <Gold.Chemscore.Metal>
0.0000

> <Gold.Chemscore.Lipo>
125.8554

> <Gold.Chemscore.Internal_Hbond>
0.0000

> <Gold.Chemscore.DEClash>
0.1409

> <Gold.Chemscore.DEInternal>
1.4040

> <Gold.Chemscore.Rot>
1.9960

> <Gold.Chemscore.Internal.Correction>
   9.000000E+99

> <Gold.Chemscore.Hbonds>
donor molecule, donor type, donor heavy atom, donor atom, acceptor molecule, acceptor atom, score
      P1  H  6896  6907       L1    19  1.00

> <Gold.Chemscore.Hbond.Weighted>
-3.3189

> <Gold.Chemscore.Metal.Weighted>
-0.0000

> <Gold.Chemscore.Lipo.Weighted>
-14.7251

> <Gold.Chemscore.Internal_Hbond.Weighted>
0.0000

> <Gold.Chemscore.DEClash.Weighted>
0.1409

> <Gold.Chemscore.DEInternal.Weighted>
1.4040

> <Gold.Chemscore.Rot.Weighted>
5.1097

> <Gold.Chemscore.Internal.Correction.Weighted>
   9.000000E+99

> <Gold.Protein.RotatedTorsions>
[ 6907 6896 6895 6894 ] final   49.80 input  -60.11 | X-H torsion
[ 7974 7965 7964 7962 ] final  -41.14 input  175.53 | X-H torsion
[ 8008 7997 7996 7995 ] final  152.13 input   59.86 | X-H torsion
[ 10167 10162 10161 10158 ] final   69.40 input  -65.29 | X-H torsion
[ 10718 10713 10712 10709 ] final  129.66 input   66.30 | X-H torsion
[ 10763 10752 10751 10750 ] final  150.91 input  -60.55 | X-H torsion
[ 11005 11000 10999 10996 ] final -167.17 input  -57.11 | X-H torsion

> <Gold.Protein.ActiveResidues>
 VAL166  LYS551  ARG553  GLY616  TRP617  ASP618  TYR619  PRO620  LYS621  CYS622 
 ASP623  PHE694  ASN695  SER759  ASP760  ASP761  ALA762  ILE779  LEU786  VAL792 
 PHE793  MET794  SER795  GLU796  ALA797  LYS798  CYS799  TRP800  GLU811  SER814 

> <Gold.Protein.RotatedAtoms>
  152.2948  134.7679  160.0370 H   0  0  0  0  0  0  0  0  0  0  0  0  # atno 6907 bound_to 6896
  151.8213  133.3390  159.3593 H   0  0  0  0  0  0  0  0  0  0  0  0  # atno 6908 bound_to 6896
  150.7246  134.5500  159.5834 H   0  0  0  0  0  0  0  0  0  0  0  0  # atno 6909 bound_to 6896
  146.0239  140.6816  142.9165 H   0  0  0  0  0  0  0  0  0  0  0  0  # atno 7974 bound_to 7965
  156.2643  140.2029  156.6285 H   0  0  0  0  0  0  0  0  0  0  0  0  # atno 8008 bound_to 7997
  154.6701  140.0551  157.0181 H   0  0  0  0  0  0  0  0  0  0  0  0  # atno 8009 bound_to 7997
  155.1149  140.3219  155.4515 H   0  0  0  0  0  0  0  0  0  0  0  0  # atno 8010 bound_to 7997
  140.0683  144.5175  150.7245 H   0  0  0  0  0  0  0  0  0  0  0  0  # atno 10167 bound_to 10162
  157.5133  131.1097  150.9260 H   0  0  0  0  0  0  0  0  0  0  0  0  # atno 10718 bound_to 10713
  154.0952  135.2849  155.3263 H   0  0  0  0  0  0  0  0  0  0  0  0  # atno 10763 bound_to 10752
  154.6593  135.5340  153.8001 H   0  0  0  0  0  0  0  0  0  0  0  0  # atno 10764 bound_to 10752
  153.0399  135.6529  154.1119 H   0  0  0  0  0  0  0  0  0  0  0  0  # atno 10765 bound_to 10752
  140.5562  134.5378  157.5133 H   0  0  0  0  0  0  0  0  0  0  0  0  # atno 11005 bound_to 11000
  144.7001  140.3615  143.7163 LP  0  0  0  0  0  0  0  0  0  0  0  0  # atno 17320 bound_to 7965
  145.7149  139.1694  143.2517 LP  0  0  0  0  0  0  0  0  0  0  0  0  # atno 17321 bound_to 7965
  140.7138  143.2527  151.4498 LP  0  0  0  0  0  0  0  0  0  0  0  0  # atno 17342 bound_to 10162
  139.5852  144.1621  152.2019 LP  0  0  0  0  0  0  0  0  0  0  0  0  # atno 17343 bound_to 10162
  156.9894  130.5557  149.5302 LP  0  0  0  0  0  0  0  0  0  0  0  0  # atno 17370 bound_to 10713
  156.0304  130.5395  150.8518 LP  0  0  0  0  0  0  0  0  0  0  0  0  # atno 17371 bound_to 10713
  139.9430  134.7752  156.0631 LP  0  0  0  0  0  0  0  0  0  0  0  0  # atno 17394 bound_to 11000
  141.1142  133.6633  156.3052 LP  0  0  0  0  0  0  0  0  0  0  0  0  # atno 17395 bound_to 11000

$$$$
