AV-unprocessed.smi:1828|AV-procd|sdf|7424|dock8
  -GOLD-   22720 9103D 1   1.00000     0.00000
 Structure written by MMmdl.
 39 41  0  0  0  0  0  0  0  0  1 V2000
  151.6815  136.7080  154.1898 O   0  0  0  0  0  0  0  0  0  0  0  0
  151.7915  137.9229  154.8998 C   0  0  0  0  0  0  0  0  0  0  0  0
  150.6020  138.8132  154.7088 C   0  0  0  0  0  0  0  0  0  0  0  0
  149.5574  138.4430  153.9668 N   0  0  0  0  0  0  0  0  0  0  0  0
  148.7119  139.5304  154.0682 C   0  0  0  0  0  0  0  0  0  0  0  0
  147.4352  139.7572  153.5061 C   0  0  0  0  0  0  0  0  0  0  0  0
  146.7493  140.9641  153.7558 C   0  0  0  0  0  0  0  0  0  0  0  0
  147.3289  141.9595  154.5691 C   0  0  0  0  0  0  0  0  0  0  0  0
  148.6008  141.7543  155.1377 C   0  0  0  0  0  0  0  0  0  0  0  0
  149.2808  140.5479  154.8850 C   0  0  0  0  0  0  0  0  0  0  0  0
  150.5148  140.0417  155.2793 N   0  0  0  0  0  0  0  0  0  0  0  0
  151.4823  140.7190  156.1326 C   0  0  0  0  0  0  0  0  0  0  0  0
  151.8324  139.9045  157.3939 C   0  0  2  0  0  0  0  0  0  0  0  0
  150.7488  139.0673  157.7491 O   0  0  0  0  0  0  0  0  0  0  0  0
  152.2545  140.8135  158.5373 C   0  0  0  0  0  0  0  0  0  0  0  0
  153.0408  140.3154  159.5985 C   0  0  0  0  0  0  0  0  0  0  0  0
  153.4243  141.1638  160.6540 C   0  0  0  0  0  0  0  0  0  0  0  0
  153.0193  142.5122  160.6587 C   0  0  0  0  0  0  0  0  0  0  0  0
  152.2225  143.0196  159.6093 C   0  0  0  0  0  0  0  0  0  0  0  0
  151.7830  144.4763  159.6018 C   0  0  0  0  0  0  0  0  0  0  0  0
  150.4547  144.5610  159.5232 F   0  0  0  0  0  0  0  0  0  0  0  0
  152.1766  145.1091  160.7078 F   0  0  0  0  0  0  0  0  0  0  0  0
  152.3152  145.0890  158.5453 F   0  0  0  0  0  0  0  0  0  0  0  0
  151.8480  142.1649  158.5498 C   0  0  0  0  0  0  0  0  0  0  0  0
  150.7745  136.5774  153.9595 H   0  0  0  0  0  0  0  0  0  0  0  0
  151.9322  137.7139  155.9600 H   0  0  0  0  0  0  0  0  0  0  0  0
  152.6886  138.4426  154.5619 H   0  0  0  0  0  0  0  0  0  0  0  0
  146.9827  139.0004  152.8825 H   0  0  0  0  0  0  0  0  0  0  0  0
  145.7735  141.1267  153.3221 H   0  0  0  0  0  0  0  0  0  0  0  0
  146.7964  142.8806  154.7563 H   0  0  0  0  0  0  0  0  0  0  0  0
  149.0478  142.5143  155.7612 H   0  0  0  0  0  0  0  0  0  0  0  0
  152.3835  140.8911  155.5430 H   0  0  0  0  0  0  0  0  0  0  0  0
  151.1082  141.7059  156.4035 H   0  0  0  0  0  0  0  0  0  0  0  0
  152.6675  139.2426  157.1611 H   0  0  0  0  0  0  0  0  0  0  0  0
  151.0962  138.2690  158.1169 H   0  0  0  0  0  0  0  0  0  0  0  0
  153.3523  139.2811  159.6062 H   0  0  0  0  0  0  0  0  0  0  0  0
  154.0302  140.7796  161.4615 H   0  0  0  0  0  0  0  0  0  0  0  0
  153.3251  143.1529  161.4727 H   0  0  0  0  0  0  0  0  0  0  0  0
  151.2444  142.5505  157.7411 H   0  0  0  0  0  0  0  0  0  0  0  0
  1  2  1  0  0  0  0
  1 25  1  0  0  0  0
  2  3  1  0  0  0  0
  2 26  1  0  0  0  0
  2 27  1  0  0  0  0
  3 11  1  0  0  0  0
  3  4  2  0  0  0  0
  4  5  1  0  0  0  0
  5 10  2  0  0  0  0
  5  6  1  0  0  0  0
  6  7  2  0  0  0  0
  6 28  1  0  0  0  0
  7  8  1  0  0  0  0
  7 29  1  0  0  0  0
  8  9  2  0  0  0  0
  8 30  1  0  0  0  0
  9 10  1  0  0  0  0
  9 31  1  0  0  0  0
 10 11  1  0  0  0  0
 11 12  1  0  0  0  0
 12 13  1  0  0  0  0
 12 32  1  0  0  0  0
 12 33  1  0  0  0  0
 13 14  1  0  0  0  0
 13 15  1  0  0  0  0
 13 34  1  0  0  0  0
 14 35  1  0  0  0  0
 15 24  1  0  0  0  0
 15 16  2  0  0  0  0
 16 17  1  0  0  0  0
 16 36  1  0  0  0  0
 17 18  2  0  0  0  0
 17 37  1  0  0  0  0
 18 19  1  0  0  0  0
 18 38  1  0  0  0  0
 19 20  1  0  0  0  0
 19 24  2  0  0  0  0
 20 21  1  0  0  0  0
 20 22  1  0  0  0  0
 20 23  1  0  0  0  0
 24 39  1  0  0  0  0
M  END
> <s_m_source_file>
AV-unprocessed.smi

> <i_m_source_file_index>
1828

> <i_lp_mmshare_version>
43012

> <i_f3d_flags>
0

> <s_epik_input>
W2NIXTFbY0hdW2NIXVtjSF1jKGMxMiluKGMobjIpW0NIMl1bT0hdKVtDSDJdW0NASF0oW09IXSljM1tjSF1bY0hdW2NIXWMoQyhGKShGKUYpW2NIXTM=

> <s_epik_cmdline>
J2VwaWtfcHl0aG9uJywgJy1waCcsICc3LjAnLCAnLXRuJywgJzgnLCAnLW1hJywgJzIwMCcsICctbWV0YWxfYmluZGluZycsICctaW1hZScsICc8aW5maWxlLm1hZT4nLCAnLW9tYWUnLCAnPG91dGZpbGUubWFlPic=

> <r_epik_Ionization_Penalty>
0.0634719

> <r_epik_Ionization_Penalty_Charging>
0

> <r_epik_Ionization_Penalty_Neutral>
0.0634719

> <r_epik_State_Penalty>
0.0551572

> <r_epik_Charging_Adjusted_Penalty>
0.0551572

> <i_epik_Tot_Q>
0

> <i_epik_Tot_abs_Q>
0

> <r_epik_Metal_State_Penalty>
5.78034e-05

> <b_epik_Metal_Only>
0

> <s_lp_Force_Field>
OPLS_2005

> <r_lp_Energy>
12.8621

> <b_lp_Chiralities_Consistent>
1

> <s_lp_Variant>
AV-unprocessed.smi:1828-1

> <Gold.Version>
5.8.1

> <Gold.Id.Protein>
6NUR|6NUR_protein|mol2

> <Gold.PLP.Fitness>
58.5624

> <Gold.PLP.PLP>
-57.3874

> <Gold.PLP.part.hbond>
-2.0000

> <Gold.PLP.part.metal>
0.0000

> <Gold.PLP.part.buried>
-3.8497

> <Gold.PLP.part.nonpolar>
-53.0632

> <Gold.PLP.part.repulsive>
0.6075

> <Gold.PLP.ligand.clash>
0.7015

> <Gold.PLP.ligand.torsion>
0.9886

> <Gold.PLP.Chemscore.Hbond>
1.0000

> <Gold.PLP.Chemscore.CHOScore>
0.0000

> <Gold.PLP.Chemscore.Metal>
0.0000

> <Gold.Chemscore.Hbonds>
donor molecule, donor type, donor heavy atom, donor atom, acceptor molecule, acceptor atom, score
      P1  H 10752 10763       L1     1  1.00

> <Gold.PLP.Chemscore.Internal.Correction>
0.8537

> <Gold.Rescore>
     Score         DG    S(hbond)    S(metal)    S(lipo)     H(rot)  DE(clash)    DE(int)     intcor
     14.44     -15.91       0.90        0.00     127.05       2.91       0.48       0.99       ----

> <Gold.Chemscore.Fitness>
14.4393

> <Gold.Chemscore.DG>
-15.9069

> <Gold.Chemscore.ZeroCoef>
-5.4800

> <Gold.Chemscore.Hbond>
0.9049

> <Gold.Chemscore.Metal>
0.0000

> <Gold.Chemscore.Lipo>
127.0476

> <Gold.Chemscore.Internal_Hbond>
0.0000

> <Gold.Chemscore.DEClash>
0.4781

> <Gold.Chemscore.DEInternal>
0.9895

> <Gold.Chemscore.Rot>
2.9141

> <Gold.Chemscore.Internal.Correction>
   9.000000E+99

> <Gold.Chemscore.Hbonds>
donor molecule, donor type, donor heavy atom, donor atom, acceptor molecule, acceptor atom, score
      P1  H 10752 10763       L1     1  0.96

> <Gold.Chemscore.Hbond.Weighted>
-3.0223

> <Gold.Chemscore.Metal.Weighted>
-0.0000

> <Gold.Chemscore.Lipo.Weighted>
-14.8646

> <Gold.Chemscore.Internal_Hbond.Weighted>
0.0000

> <Gold.Chemscore.DEClash.Weighted>
0.4781

> <Gold.Chemscore.DEInternal.Weighted>
0.9895

> <Gold.Chemscore.Rot.Weighted>
7.4600

> <Gold.Chemscore.Internal.Correction.Weighted>
   9.000000E+99

> <Gold.Protein.RotatedTorsions>
[ 6907 6896 6895 6894 ] final  124.14 input  -60.11 | X-H torsion
[ 7974 7965 7964 7962 ] final  -52.80 input  175.53 | X-H torsion
[ 8008 7997 7996 7995 ] final -147.81 input   59.86 | X-H torsion
[ 10167 10162 10161 10158 ] final   55.15 input  -65.29 | X-H torsion
[ 10718 10713 10712 10709 ] final   87.43 input   66.30 | X-H torsion
[ 10763 10752 10751 10750 ] final   33.14 input  -60.55 | X-H torsion
[ 11005 11000 10999 10996 ] final    8.21 input  -57.11 | X-H torsion

> <Gold.Protein.ActiveResidues>
 VAL166  LYS551  ARG553  GLY616  TRP617  ASP618  TYR619  PRO620  LYS621  CYS622 
 ASP623  PHE694  ASN695  SER759  ASP760  ASP761  ALA762  ILE779  LEU786  VAL792 
 PHE793  MET794  SER795  GLU796  ALA797  LYS798  CYS799  TRP800  GLU811  SER814 

> <Gold.Protein.RotatedAtoms>
  152.4103  133.6953  159.6391 H   0  0  0  0  0  0  0  0  0  0  0  0  # atno 6907 bound_to 6896
  150.7984  133.8636  159.3247 H   0  0  0  0  0  0  0  0  0  0  0  0  # atno 6908 bound_to 6896
  151.6380  135.1017  160.0187 H   0  0  0  0  0  0  0  0  0  0  0  0  # atno 6909 bound_to 6896
  145.9040  140.7971  142.9729 H   0  0  0  0  0  0  0  0  0  0  0  0  # atno 7974 bound_to 7965
  155.5815  140.0644  157.2782 H   0  0  0  0  0  0  0  0  0  0  0  0  # atno 8008 bound_to 7997
  154.4331  140.1851  156.1028 H   0  0  0  0  0  0  0  0  0  0  0  0  # atno 8009 bound_to 7997
  156.0301  140.3307  155.7134 H   0  0  0  0  0  0  0  0  0  0  0  0  # atno 8010 bound_to 7997
  140.2225  144.3773  150.6445 H   0  0  0  0  0  0  0  0  0  0  0  0  # atno 10167 bound_to 10162
  157.6940  131.0255  150.3123 H   0  0  0  0  0  0  0  0  0  0  0  0  # atno 10718 bound_to 10713
  153.0226  135.6395  154.1465 H   0  0  0  0  0  0  0  0  0  0  0  0  # atno 10763 bound_to 10752
  154.1198  135.2847  155.3212 H   0  0  0  0  0  0  0  0  0  0  0  0  # atno 10764 bound_to 10752
  154.6271  135.5505  153.7702 H   0  0  0  0  0  0  0  0  0  0  0  0  # atno 10765 bound_to 10752
  140.5395  134.0388  155.7899 H   0  0  0  0  0  0  0  0  0  0  0  0  # atno 11005 bound_to 11000
  144.6738  140.1721  143.7413 LP  0  0  0  0  0  0  0  0  0  0  0  0  # atno 17320 bound_to 7965
  145.8755  139.2295  143.1636 LP  0  0  0  0  0  0  0  0  0  0  0  0  # atno 17321 bound_to 7965
  140.6244  143.2179  151.6626 LP  0  0  0  0  0  0  0  0  0  0  0  0  # atno 17342 bound_to 10162
  139.5139  144.3428  152.0724 LP  0  0  0  0  0  0  0  0  0  0  0  0  # atno 17343 bound_to 10162
  156.3622  130.3849  149.7242 LP  0  0  0  0  0  0  0  0  0  0  0  0  # atno 17370 bound_to 10713
  156.4684  130.7985  151.3003 LP  0  0  0  0  0  0  0  0  0  0  0  0  # atno 17371 bound_to 10713
  141.1235  133.9422  157.2682 LP  0  0  0  0  0  0  0  0  0  0  0  0  # atno 17394 bound_to 11000
  139.9511  135.0175  156.8997 LP  0  0  0  0  0  0  0  0  0  0  0  0  # atno 17395 bound_to 11000

$$$$
