#       Name:                AV-unprocessed.smi:1758
#       Creating user name   scv26
#       Creation time:       Fri Mar 27 08:30:02 2020


#       File generated by GOLD software.
#

@<TRIPOS>MOLECULE
AV-unprocessed.smi:1758
    47    49     1
SMALL
NO_CHARGES


@<TRIPOS>ATOM
      1 ****        -7.0707   1.3847  -1.5018 C.3            1 S1                 0.0000
      2 ****        -6.6131  -0.0621  -1.2778 C.3            1 S1                 0.0000
      3 ****        -5.1675  -0.1738  -1.2394 N.pl3          1 S1                 0.0000
      4 ****        -4.3588  -0.4327  -0.1504 C.2            1 S1                 0.0000
      5 ****        -3.0833  -0.4470  -0.6293 C.2            1 S1                 0.0000
      6 ****        -1.9266  -0.6816   0.1555 N.am           1 S1                 0.0000
      7 ****        -0.6545  -0.7372  -0.2703 C.2            1 S1                 0.0000
      8 ****        -0.2882  -0.5631  -1.4323 O.2            1 S1                 0.0000
      9 ****         0.1858  -1.0096   0.7380 N.am           1 S1                 0.0000
     10 ****         1.6322  -1.1630   0.6095 C.3            1 S1                 0.0000
     11 ****         2.2275  -2.1050   1.6491 C.3            1 S1                 0.0000
     12 ****         3.7068  -1.7170   1.6269 C.3            1 S1                 0.0000
     13 ****         3.7428  -0.2632   1.3467 N.4            1 S1                 1.0000
     14 ****         4.8887   0.1747   0.5125 C.3            1 S1                 0.0000
     15 ****         4.8530   1.6986   0.2932 C.3            1 S1                 0.0000
     16 ****         3.4760   2.2105  -0.1793 C.3            1 S1                 0.0000
     17 ****         2.4661   1.0709  -0.3842 C.3            1 S1                 0.0000
     18 ****         2.3969   0.1491   0.8547 C.3            1 S1                 0.0000
     19 ****        -3.1894  -0.1885  -2.0254 C.2            1 S1                 0.0000
     20 ****        -4.4543  -0.0284  -2.3837 N.2            1 S1                 0.0000
     21 ****        -8.1588   1.4497  -1.5148 H              1 S1                 0.0000
     22 ****        -6.7042   1.7734  -2.4524 H              1 S1                 0.0000
     23 ****        -6.7068   2.0389  -0.7091 H              1 S1                 0.0000
     24 ****        -7.0183  -0.4419  -0.3391 H              1 S1                 0.0000
     25 ****        -6.9920  -0.7078  -2.0712 H              1 S1                 0.0000
     26 ****        -4.7535  -0.5817   0.8440 H              1 S1                 0.0000
     27 ****        -2.0872  -0.8414   1.1393 H              1 S1                 0.0000
     28 ****        -0.2064  -1.1364   1.6598 H              1 S1                 0.0000
     29 ****         1.8837  -1.5577  -0.3776 H              1 S1                 0.0000
     30 ****         1.8040  -1.9052   2.6348 H              1 S1                 0.0000
     31 ****         2.0626  -3.1572   1.4149 H              1 S1                 0.0000
     32 ****         4.2152  -1.9552   2.5616 H              1 S1                 0.0000
     33 ****         4.2079  -2.2637   0.8261 H              1 S1                 0.0000
     34 ****         5.8224  -0.1106   0.9983 H              1 S1                 0.0000
     35 ****         4.8636  -0.3433  -0.4477 H              1 S1                 0.0000
     36 ****         5.1195   2.2030   1.2230 H              1 S1                 0.0000
     37 ****         5.6208   1.9778  -0.4293 H              1 S1                 0.0000
     38 ****         3.0807   2.9070   0.5613 H              1 S1                 0.0000
     39 ****         3.5831   2.7815  -1.1023 H              1 S1                 0.0000
     40 ****         1.4810   1.4853  -0.6004 H              1 S1                 0.0000
     41 ****         2.7494   0.4941  -1.2659 H              1 S1                 0.0000
     42 ****         1.9298   0.6930   1.6775 H              1 S1                 0.0000
     43 ****        -2.4200  -0.1139  -2.7795 H              1 S1                 0.0000
     44 ****         3.8538   0.1978   2.2386 H              1 S1                 0.0000
     45 ****        -0.9614  -0.3623  -2.1440 LP             1 S1                 0.0000
     46 ****         0.6826  -0.6225  -1.6648 LP             1 S1                 0.0000
     47 ****        -4.8073   0.1592  -3.3003 LP             1 S1                 0.0000
@<TRIPOS>BOND
    1    1    2 1     
    2    1   21 1     
    3    1   22 1     
    4    1   23 1     
    5    2    3 1     
    6    2   24 1     
    7    2   25 1     
    8    3   20 1     
    9    3    4 1     
   10    4    5 2     
   11    4   26 1     
   12    5    6 1     
   13    5   19 1     
   14    6    7 am    
   15    6   27 1     
   16    7    8 2     
   17    7    9 am    
   18    9   10 1     
   19    9   28 1     
   20   10   18 1     
   21   10   11 1     
   22   10   29 1     
   23   11   12 1     
   24   11   30 1     
   25   11   31 1     
   26   12   13 1     
   27   12   32 1     
   28   12   33 1     
   29   13   18 1     
   30   13   14 1     
   31   13   44 1     
   32   14   15 1     
   33   14   34 1     
   34   14   35 1     
   35   15   16 1     
   36   15   36 1     
   37   15   37 1     
   38   16   17 1     
   39   16   38 1     
   40   16   39 1     
   41   17   18 1     
   42   17   40 1     
   43   17   41 1     
   44   18   42 1     
   45   19   20 2     
   46   19   43 1     
   47    8   45 1     
   48    8   46 1     
   49   20   47 1     
@<TRIPOS>SUBSTRUCTURE
      1 S1             1
@<TRIPOS>SET
LONE_PAIRS      STATIC     ATOMS    <user>   **** ""
3 45 46 47
DONOR_HYDROGENS      STATIC     ATOMS    <user>   **** ""
3 27 28 44
ATOM$BLUE        STATIC     ATOMS    COLORGROUP SYSTEM
3 45 46 47
ATOM$RED        STATIC     ATOMS    COLORGROUP SYSTEM
3 27 28 44
