AV-unprocessed.smi:2305|AV-procd|sdf|9246|dock3
  -GOLD-   2272012463D 1   1.00000     0.00000
 Structure written by MMmdl.
 40 41  0  0  0  0  0  0  0  0  1 V2000
  152.1222  144.0393  161.0487 C   0  0  0  0  0  0  0  0  0  0  0  0
  151.9797  143.1433  159.8310 C   0  0  0  0  0  0  0  0  0  0  0  0
  151.2127  143.6640  158.7849 N   0  0  0  0  0  0  0  0  0  0  0  0
  151.0377  142.9719  157.7068 C   0  0  0  0  0  0  0  0  0  0  0  0
  151.5955  141.6922  157.5532 N   0  0  0  0  0  0  0  0  0  0  0  0
  151.3206  141.0086  156.2780 C   0  0  0  0  0  0  0  0  0  0  0  0
  149.8683  140.4866  156.1989 C   0  0  2  0  0  0  0  0  0  0  0  0
  149.8905  139.0809  156.3526 O   0  0  0  0  0  0  0  0  0  0  0  0
  149.2198  140.8006  154.8370 C   0  0  0  0  0  0  0  0  0  0  0  0
  148.0374  141.7461  154.9543 C   0  0  0  0  0  0  0  0  0  0  0  0
  147.4694  142.0140  156.2165 C   0  0  0  0  0  0  0  0  0  0  0  0
  146.3706  142.8877  156.3275 C   0  0  0  0  0  0  0  0  0  0  0  0
  145.8300  143.5048  155.1790 C   0  0  0  0  0  0  0  0  0  0  0  0
  144.6371  144.4402  155.3106 C   0  0  0  0  0  0  0  0  0  0  0  0
  144.4040  145.0957  154.1729 F   0  0  0  0  0  0  0  0  0  0  0  0
  143.5545  143.7299  155.6248 F   0  0  0  0  0  0  0  0  0  0  0  0
  144.8558  145.3380  156.2718 F   0  0  0  0  0  0  0  0  0  0  0  0
  146.3978  143.2299  153.9152 C   0  0  0  0  0  0  0  0  0  0  0  0
  147.4975  142.3570  153.8039 C   0  0  0  0  0  0  0  0  0  0  0  0
  152.3630  141.1128  158.5214 C   0  0  0  0  0  0  0  0  0  0  0  0
  152.8596  139.9947  158.3697 O   0  0  0  0  0  0  0  0  0  0  0  0
  152.5550  141.9131  159.7417 C   0  0  0  0  0  0  0  0  0  0  0  0
  153.4048  141.2968  160.8459 C   0  0  0  0  0  0  0  0  0  0  0  0
  151.7352  143.5411  161.9379 H   0  0  0  0  0  0  0  0  0  0  0  0
  151.5711  144.9722  160.9224 H   0  0  0  0  0  0  0  0  0  0  0  0
  153.1697  144.2907  161.2170 H   0  0  0  0  0  0  0  0  0  0  0  0
  150.4555  143.3363  156.8586 H   0  0  0  0  0  0  0  0  0  0  0  0
  151.4982  141.7202  155.4697 H   0  0  0  0  0  0  0  0  0  0  0  0
  152.0286  140.2009  156.0799 H   0  0  0  0  0  0  0  0  0  0  0  0
  149.2670  140.9309  156.9933 H   0  0  0  0  0  0  0  0  0  0  0  0
  150.7257  138.8339  156.7199 H   0  0  0  0  0  0  0  0  0  0  0  0
  149.9508  141.2808  154.1852 H   0  0  0  0  0  0  0  0  0  0  0  0
  148.9212  139.8831  154.3273 H   0  0  0  0  0  0  0  0  0  0  0  0
  147.8737  141.5473  157.1031 H   0  0  0  0  0  0  0  0  0  0  0  0
  145.9411  143.0820  157.2993 H   0  0  0  0  0  0  0  0  0  0  0  0
  145.9929  143.6844  153.0233 H   0  0  0  0  0  0  0  0  0  0  0  0
  147.9231  142.1555  152.8315 H   0  0  0  0  0  0  0  0  0  0  0  0
  154.4063  141.0798  160.4725 H   0  0  0  0  0  0  0  0  0  0  0  0
  152.9600  140.3605  161.1846 H   0  0  0  0  0  0  0  0  0  0  0  0
  153.5135  141.9427  161.7156 H   0  0  0  0  0  0  0  0  0  0  0  0
  1  2  1  0  0  0  0
  1 24  1  0  0  0  0
  1 25  1  0  0  0  0
  1 26  1  0  0  0  0
  2 22  2  0  0  0  0
  2  3  1  0  0  0  0
  3  4  2  0  0  0  0
  4  5  1  0  0  0  0
  4 27  1  0  0  0  0
  5  6  1  0  0  0  0
  5 20  1  0  0  0  0
  6  7  1  0  0  0  0
  6 28  1  0  0  0  0
  6 29  1  0  0  0  0
  7  8  1  0  0  0  0
  7  9  1  0  0  0  0
  7 30  1  0  0  0  0
  8 31  1  0  0  0  0
  9 10  1  0  0  0  0
  9 32  1  0  0  0  0
  9 33  1  0  0  0  0
 10 19  1  0  0  0  0
 10 11  2  0  0  0  0
 11 12  1  0  0  0  0
 11 34  1  0  0  0  0
 12 13  2  0  0  0  0
 12 35  1  0  0  0  0
 13 14  1  0  0  0  0
 13 18  1  0  0  0  0
 14 15  1  0  0  0  0
 14 16  1  0  0  0  0
 14 17  1  0  0  0  0
 18 19  2  0  0  0  0
 18 36  1  0  0  0  0
 19 37  1  0  0  0  0
 20 21  2  0  0  0  0
 20 22  1  0  0  0  0
 22 23  1  0  0  0  0
 23 38  1  0  0  0  0
 23 39  1  0  0  0  0
 23 40  1  0  0  0  0
M  END
> <s_m_source_file>
AV-unprocessed.smi

> <i_m_source_file_index>
2305

> <i_lp_mmshare_version>
43012

> <i_f3d_flags>
0

> <s_epik_input>
W0NIM11jMW5bY0hdbihjKD1PKWMxW0NIM10pW0NIMl1bQ0BIXShbT0hdKVtDSDJdYzJbY0hdW2NIXWMoQyhGKShGKUYpW2NIXVtjSF0y

> <s_epik_cmdline>
J2VwaWtfcHl0aG9uJywgJy1waCcsICc3LjAnLCAnLXRuJywgJzgnLCAnLW1hJywgJzIwMCcsICctbWV0YWxfYmluZGluZycsICctaW1hZScsICc8aW5maWxlLm1hZT4nLCAnLW9tYWUnLCAnPG91dGZpbGUubWFlPic=

> <r_lp_tautomer_probability>
1

> <r_epik_Ionization_Penalty>
8.92636e-05

> <r_epik_Ionization_Penalty_Charging>
8.63033e-08

> <r_epik_Ionization_Penalty_Neutral>
8.91773e-05

> <r_epik_State_Penalty>
-0

> <r_epik_Charging_Adjusted_Penalty>
8.63033e-08

> <i_epik_Tot_Q>
0

> <i_epik_Tot_abs_Q>
0

> <r_epik_Metal_State_Penalty>
-0

> <b_epik_Metal_Only>
0

> <s_lp_Force_Field>
OPLS_2005

> <r_lp_Energy>
20.2426

> <b_lp_Chiralities_Consistent>
1

> <s_lp_Variant>
AV-unprocessed.smi:2305-1

> <Gold.Version>
5.8.1

> <Gold.Id.Protein>
6NUR|6NUR_protein|mol2

> <Gold.PLP.Fitness>
48.5636

> <Gold.PLP.PLP>
-46.1548

> <Gold.PLP.part.hbond>
-1.0000

> <Gold.PLP.part.metal>
0.0000

> <Gold.PLP.part.buried>
-7.0755

> <Gold.PLP.part.nonpolar>
-37.7424

> <Gold.PLP.part.repulsive>
0.0943

> <Gold.PLP.ligand.clash>
0.2634

> <Gold.PLP.ligand.torsion>
2.0232

> <Gold.PLP.Chemscore.Hbond>
1.0000

> <Gold.PLP.Chemscore.CHOScore>
1.0000

> <Gold.PLP.Chemscore.Metal>
0.0000

> <Gold.Chemscore.Hbonds>
donor molecule, donor type, donor heavy atom, donor atom, acceptor molecule, acceptor atom, score
      P1  H  7997  8009       L1    21  0.62
      L1  C     4    27       P1  8028  1.00

> <Gold.PLP.Chemscore.Internal.Correction>
0.7187

> <Gold.Rescore>
     Score         DG    S(hbond)    S(metal)    S(lipo)     H(rot)  DE(clash)    DE(int)     intcor
     11.69     -13.25       0.94        0.00      91.38       2.37       0.06       1.49       ----

> <Gold.Chemscore.Fitness>
11.6947

> <Gold.Chemscore.DG>
-13.2473

> <Gold.Chemscore.ZeroCoef>
-5.4800

> <Gold.Chemscore.Hbond>
0.9396

> <Gold.Chemscore.Metal>
0.0000

> <Gold.Chemscore.Lipo>
91.3790

> <Gold.Chemscore.Internal_Hbond>
0.0000

> <Gold.Chemscore.DEClash>
0.0598

> <Gold.Chemscore.DEInternal>
1.4927

> <Gold.Chemscore.Rot>
2.3681

> <Gold.Chemscore.Internal.Correction>
   9.000000E+99

> <Gold.Chemscore.Hbonds>
donor molecule, donor type, donor heavy atom, donor atom, acceptor molecule, acceptor atom, score
      P1  H  7997  8009       L1    21  0.46

> <Gold.Chemscore.Hbond.Weighted>
-3.1383

> <Gold.Chemscore.Metal.Weighted>
-0.0000

> <Gold.Chemscore.Lipo.Weighted>
-10.6913

> <Gold.Chemscore.Internal_Hbond.Weighted>
0.0000

> <Gold.Chemscore.DEClash.Weighted>
0.0598

> <Gold.Chemscore.DEInternal.Weighted>
1.4927

> <Gold.Chemscore.Rot.Weighted>
6.0624

> <Gold.Chemscore.Internal.Correction.Weighted>
   9.000000E+99

> <Gold.Protein.RotatedTorsions>
[ 6907 6896 6895 6894 ] final  142.36 input  -60.11 | X-H torsion
[ 7974 7965 7964 7962 ] final -176.97 input  175.53 | X-H torsion
[ 8008 7997 7996 7995 ] final  156.23 input   59.86 | X-H torsion
[ 10167 10162 10161 10158 ] final -116.99 input  -65.29 | X-H torsion
[ 10718 10713 10712 10709 ] final   23.42 input   66.30 | X-H torsion
[ 10763 10752 10751 10750 ] final -119.09 input  -60.55 | X-H torsion
[ 11005 11000 10999 10996 ] final -105.18 input  -57.11 | X-H torsion

> <Gold.Protein.ActiveResidues>
 VAL166  LYS551  ARG553  GLY616  TRP617  ASP618  TYR619  PRO620  LYS621  CYS622 
 ASP623  PHE694  ASN695  SER759  ASP760  ASP761  ALA762  ILE779  LEU786  VAL792 
 PHE793  MET794  SER795  GLU796  ALA797  LYS798  CYS799  TRP800  GLU811  SER814 

> <Gold.Protein.RotatedAtoms>
  152.2196  133.4973  159.5154 H   0  0  0  0  0  0  0  0  0  0  0  0  # atno 6907 bound_to 6896
  150.7009  134.1360  159.4096 H   0  0  0  0  0  0  0  0  0  0  0  0  # atno 6908 bound_to 6896
  151.9280  135.0269  160.0578 H   0  0  0  0  0  0  0  0  0  0  0  0  # atno 6909 bound_to 6896
  144.7127  140.1090  143.6412 H   0  0  0  0  0  0  0  0  0  0  0  0  # atno 7974 bound_to 7965
  156.2434  140.1918  156.6923 H   0  0  0  0  0  0  0  0  0  0  0  0  # atno 8008 bound_to 7997
  154.6242  140.0604  156.9680 H   0  0  0  0  0  0  0  0  0  0  0  0  # atno 8009 bound_to 7997
  155.1812  140.3276  155.4377 H   0  0  0  0  0  0  0  0  0  0  0  0  # atno 8010 bound_to 7997
  140.0732  143.4858  152.1968 H   0  0  0  0  0  0  0  0  0  0  0  0  # atno 10167 bound_to 10162
  157.1658  130.6737  149.6060 H   0  0  0  0  0  0  0  0  0  0  0  0  # atno 10718 bound_to 10713
  154.8607  135.4250  154.2243 H   0  0  0  0  0  0  0  0  0  0  0  0  # atno 10763 bound_to 10752
  153.3242  135.6984  153.7010 H   0  0  0  0  0  0  0  0  0  0  0  0  # atno 10764 bound_to 10752
  153.6053  135.3529  155.2933 H   0  0  0  0  0  0  0  0  0  0  0  0  # atno 10765 bound_to 10752
  141.1066  133.8786  157.1702 H   0  0  0  0  0  0  0  0  0  0  0  0  # atno 11005 bound_to 11000
  145.9471  139.2708  143.1234 LP  0  0  0  0  0  0  0  0  0  0  0  0  # atno 17320 bound_to 7965
  145.9362  140.9013  143.0331 LP  0  0  0  0  0  0  0  0  0  0  0  0  # atno 17321 bound_to 7965
  139.5824  144.7516  151.3607 LP  0  0  0  0  0  0  0  0  0  0  0  0  # atno 17342 bound_to 10162
  140.7115  143.7377  150.7576 LP  0  0  0  0  0  0  0  0  0  0  0  0  # atno 17343 bound_to 10162
  155.9746  130.4696  150.6400 LP  0  0  0  0  0  0  0  0  0  0  0  0  # atno 17370 bound_to 10713
  157.4089  131.0821  151.1239 LP  0  0  0  0  0  0  0  0  0  0  0  0  # atno 17371 bound_to 10713
  139.9939  135.0054  157.0037 LP  0  0  0  0  0  0  0  0  0  0  0  0  # atno 17394 bound_to 11000
  140.4887  134.1215  155.7229 LP  0  0  0  0  0  0  0  0  0  0  0  0  # atno 17395 bound_to 11000

$$$$
