AV-unprocessed.smi:622|AV-procd|sdf|3090|dock6
  -GOLD-   22720 0 13D 1   1.00000     0.00000
 Structure written by MMmdl.
 36 37  0  0  0  0  0  0  0  0  1 V2000
  151.0249  141.0688  156.3387 O   0  0  0  0  0  0  0  0  0  0  0  0
  150.2618  142.0284  156.2301 C   0  0  0  0  0  0  0  0  0  0  0  0
  149.2063  142.0884  155.4000 N   0  0  0  0  0  0  0  0  0  0  0  0
  148.7065  141.0800  154.5328 C   0  0  0  0  0  0  0  0  0  0  0  0
  147.5796  141.2427  153.6913 C   0  0  0  0  0  0  0  0  0  0  0  0
  147.1932  140.1747  152.8588 C   0  0  0  0  0  0  0  0  0  0  0  0
  147.9502  138.9876  152.8928 C   0  0  0  0  0  0  0  0  0  0  0  0
  149.0350  138.8239  153.6789 N   0  0  0  0  0  0  0  0  0  0  0  0
  149.4005  139.8529  154.4732 C   0  0  0  0  0  0  0  0  0  0  0  0
  150.3955  143.1698  156.9216 N   0  0  0  0  0  0  0  0  0  0  0  0
  151.4320  143.4631  157.9100 C   0  0  0  0  0  0  0  0  0  0  0  0
  151.6557  142.2008  158.7642 C   0  0  0  0  0  0  0  0  0  0  0  0
  152.6880  142.3470  159.8956 C   0  0  0  0  0  0  0  0  0  0  0  0
  152.1567  143.1669  161.0823 C   0  0  0  0  0  0  0  0  0  0  0  0
  152.3314  144.6910  160.9639 C   0  0  0  0  0  0  0  0  0  0  0  0
  152.1637  145.2966  159.5593 C   0  0  0  0  0  0  0  0  0  0  0  0
  151.0179  144.7120  158.7166 C   0  0  0  0  0  0  0  0  0  0  0  0
  148.7310  142.9776  155.3488 H   0  0  0  0  0  0  0  0  0  0  0  0
  147.0178  142.1632  153.6565 H   0  0  0  0  0  0  0  0  0  0  0  0
  146.3383  140.2653  152.2052 H   0  0  0  0  0  0  0  0  0  0  0  0
  147.6808  138.1493  152.2674 H   0  0  0  0  0  0  0  0  0  0  0  0
  150.2751  139.6877  155.0853 H   0  0  0  0  0  0  0  0  0  0  0  0
  149.7194  143.9005  156.7542 H   0  0  0  0  0  0  0  0  0  0  0  0
  152.3699  143.6866  157.3985 H   0  0  0  0  0  0  0  0  0  0  0  0
  150.7067  141.8605  159.1814 H   0  0  0  0  0  0  0  0  0  0  0  0
  151.9889  141.3989  158.1038 H   0  0  0  0  0  0  0  0  0  0  0  0
  152.9198  141.3454  160.2595 H   0  0  0  0  0  0  0  0  0  0  0  0
  153.6295  142.7528  159.5241 H   0  0  0  0  0  0  0  0  0  0  0  0
  151.1033  142.9327  161.2408 H   0  0  0  0  0  0  0  0  0  0  0  0
  152.6610  142.8416  161.9929 H   0  0  0  0  0  0  0  0  0  0  0  0
  151.6250  145.1668  161.6453 H   0  0  0  0  0  0  0  0  0  0  0  0
  153.3205  144.9653  161.3326 H   0  0  0  0  0  0  0  0  0  0  0  0
  152.0017  146.3685  159.6784 H   0  0  0  0  0  0  0  0  0  0  0  0
  153.1008  145.2112  159.0079 H   0  0  0  0  0  0  0  0  0  0  0  0
  150.7075  145.4833  158.0100 H   0  0  0  0  0  0  0  0  0  0  0  0
  150.1443  144.5088  159.3374 H   0  0  0  0  0  0  0  0  0  0  0  0
  1  2  2  0  0  0  0
  2  3  1  0  0  0  0
  2 10  1  0  0  0  0
  3  4  1  0  0  0  0
  3 18  1  0  0  0  0
  4  9  1  0  0  0  0
  4  5  2  0  0  0  0
  5  6  1  0  0  0  0
  5 19  1  0  0  0  0
  6  7  2  0  0  0  0
  6 20  1  0  0  0  0
  7  8  1  0  0  0  0
  7 21  1  0  0  0  0
  8  9  2  0  0  0  0
  9 22  1  0  0  0  0
 10 11  1  0  0  0  0
 10 23  1  0  0  0  0
 11 17  1  0  0  0  0
 11 12  1  0  0  0  0
 11 24  1  0  0  0  0
 12 13  1  0  0  0  0
 12 25  1  0  0  0  0
 12 26  1  0  0  0  0
 13 14  1  0  0  0  0
 13 27  1  0  0  0  0
 13 28  1  0  0  0  0
 14 15  1  0  0  0  0
 14 29  1  0  0  0  0
 14 30  1  0  0  0  0
 15 16  1  0  0  0  0
 15 31  1  0  0  0  0
 15 32  1  0  0  0  0
 16 17  1  0  0  0  0
 16 33  1  0  0  0  0
 16 34  1  0  0  0  0
 17 35  1  0  0  0  0
 17 36  1  0  0  0  0
M  END
> <s_m_source_file>
AV-unprocessed.smi

> <i_m_source_file_index>
622

> <i_lp_mmshare_version>
43012

> <i_f3d_flags>
0

> <s_epik_input>
W2NIXTFuW2NIXVtjSF1bY0hdYzFbTkhdQyg9TylbTkhdW0NIXTJbQ0gyXVtDSDJdW0NIMl1bQ0gyXVtDSDJdW0NIMl0y

> <s_epik_cmdline>
J2VwaWtfcHl0aG9uJywgJy1waCcsICc3LjAnLCAnLXRuJywgJzgnLCAnLW1hJywgJzIwMCcsICctbWV0YWxfYmluZGluZycsICctaW1hZScsICc8aW5maWxlLm1hZT4nLCAnLW9tYWUnLCAnPG91dGZpbGUubWFlPic=

> <r_epik_Ionization_Penalty>
0.00494148

> <r_epik_Ionization_Penalty_Charging>
0

> <r_epik_Ionization_Penalty_Neutral>
0.00494148

> <r_epik_State_Penalty>
0.00355757

> <r_epik_Charging_Adjusted_Penalty>
0.00355757

> <i_epik_Tot_Q>
0

> <i_epik_Tot_abs_Q>
0

> <r_epik_Metal_State_Penalty>
-0

> <b_epik_Metal_Only>
0

> <s_lp_Force_Field>
OPLS_2005

> <r_lp_Energy>
17.9389

> <b_lp_Chiralities_Consistent>
1

> <s_lp_Variant>
AV-unprocessed.smi:622-1

> <Gold.Version>
5.8.1

> <Gold.Id.Protein>
6NUR|6NUR_protein|mol2

> <Gold.PLP.Fitness>
44.0142

> <Gold.PLP.PLP>
-36.0077

> <Gold.PLP.part.hbond>
-1.9435

> <Gold.PLP.part.metal>
0.0000

> <Gold.PLP.part.buried>
-1.1340

> <Gold.PLP.part.nonpolar>
-33.1429

> <Gold.PLP.part.repulsive>
1.0584

> <Gold.PLP.ligand.clash>
0.0007

> <Gold.PLP.ligand.torsion>
0.2245

> <Gold.PLP.Chemscore.Hbond>
1.9200

> <Gold.PLP.Chemscore.CHOScore>
0.8944

> <Gold.PLP.Chemscore.Metal>
0.0000

> <Gold.Chemscore.Hbonds>
donor molecule, donor type, donor heavy atom, donor atom, acceptor molecule, acceptor atom, score
      L1  H     3    18       P1  8028  0.91
      L1  H    10    23       P1  8028  0.94
      L1  C     7    21       P1  7948  0.94

> <Gold.PLP.Chemscore.Internal.Correction>
0.0131

> <Gold.Rescore>
     Score         DG    S(hbond)    S(metal)    S(lipo)     H(rot)  DE(clash)    DE(int)     intcor
     17.76     -22.50       1.87        0.00     113.95       1.00       1.71       3.03       ----

> <Gold.Chemscore.Fitness>
17.7566

> <Gold.Chemscore.DG>
-22.4988

> <Gold.Chemscore.ZeroCoef>
-5.4800

> <Gold.Chemscore.Hbond>
1.8703

> <Gold.Chemscore.Metal>
0.0000

> <Gold.Chemscore.Lipo>
113.9498

> <Gold.Chemscore.Internal_Hbond>
0.0000

> <Gold.Chemscore.DEClash>
1.7122

> <Gold.Chemscore.DEInternal>
3.0301

> <Gold.Chemscore.Rot>
1.0000

> <Gold.Chemscore.Internal.Correction>
   9.000000E+99

> <Gold.Chemscore.Hbonds>
donor molecule, donor type, donor heavy atom, donor atom, acceptor molecule, acceptor atom, score
      L1  H     3    18       P1  8028  0.90
      L1  H    10    23       P1  8028  0.87

> <Gold.Chemscore.Hbond.Weighted>
-6.2467

> <Gold.Chemscore.Metal.Weighted>
-0.0000

> <Gold.Chemscore.Lipo.Weighted>
-13.3321

> <Gold.Chemscore.Internal_Hbond.Weighted>
0.0000

> <Gold.Chemscore.DEClash.Weighted>
1.7122

> <Gold.Chemscore.DEInternal.Weighted>
3.0301

> <Gold.Chemscore.Rot.Weighted>
2.5600

> <Gold.Chemscore.Internal.Correction.Weighted>
   9.000000E+99

> <Gold.Protein.RotatedTorsions>
[ 6907 6896 6895 6894 ] final  -99.70 input  -60.11 | X-H torsion
[ 7974 7965 7964 7962 ] final   60.82 input  175.53 | X-H torsion
[ 8008 7997 7996 7995 ] final  -43.51 input   59.86 | X-H torsion
[ 10167 10162 10161 10158 ] final -100.13 input  -65.29 | X-H torsion
[ 10718 10713 10712 10709 ] final  141.14 input   66.30 | X-H torsion
[ 10763 10752 10751 10750 ] final  172.17 input  -60.55 | X-H torsion
[ 11005 11000 10999 10996 ] final  -36.30 input  -57.11 | X-H torsion

> <Gold.Protein.ActiveResidues>
 VAL166  LYS551  ARG553  GLY616  TRP617  ASP618  TYR619  PRO620  LYS621  CYS622 
 ASP623  PHE694  ASN695  SER759  ASP760  ASP761  ALA762  ILE779  LEU786  VAL792 
 PHE793  MET794  SER795  GLU796  ALA797  LYS798  CYS799  TRP800  GLU811  SER814 

> <Gold.Protein.RotatedAtoms>
  150.7089  134.1001  159.3962 H   0  0  0  0  0  0  0  0  0  0  0  0  # atno 6907 bound_to 6896
  151.8987  135.0385  160.0514 H   0  0  0  0  0  0  0  0  0  0  0  0  # atno 6908 bound_to 6896
  152.2432  133.5117  159.5319 H   0  0  0  0  0  0  0  0  0  0  0  0  # atno 6909 bound_to 6896
  145.8918  139.3516  143.0645 H   0  0  0  0  0  0  0  0  0  0  0  0  # atno 7974 bound_to 7965
  154.3997  140.1446  156.3530 H   0  0  0  0  0  0  0  0  0  0  0  0  # atno 8008 bound_to 7997
  155.8251  140.3468  155.5517 H   0  0  0  0  0  0  0  0  0  0  0  0  # atno 8009 bound_to 7997
  155.8247  140.0903  157.1818 H   0  0  0  0  0  0  0  0  0  0  0  0  # atno 8010 bound_to 7997
  140.2552  143.3445  152.0677 H   0  0  0  0  0  0  0  0  0  0  0  0  # atno 10167 bound_to 10162
  157.3954  131.1010  151.0605 H   0  0  0  0  0  0  0  0  0  0  0  0  # atno 10718 bound_to 10713
  154.4223  135.2758  155.1967 H   0  0  0  0  0  0  0  0  0  0  0  0  # atno 10763 bound_to 10752
  154.3908  135.6066  153.5845 H   0  0  0  0  0  0  0  0  0  0  0  0  # atno 10764 bound_to 10752
  152.9833  135.5903  154.4521 H   0  0  0  0  0  0  0  0  0  0  0  0  # atno 10765 bound_to 10752
  140.9864  133.7028  156.1773 H   0  0  0  0  0  0  0  0  0  0  0  0  # atno 11005 bound_to 11000
  145.8899  140.9310  143.0557 LP  0  0  0  0  0  0  0  0  0  0  0  0  # atno 17320 bound_to 7965
  144.6731  140.0892  143.7466 LP  0  0  0  0  0  0  0  0  0  0  0  0  # atno 17321 bound_to 7965
  139.5034  144.6754  151.6141 LP  0  0  0  0  0  0  0  0  0  0  0  0  # atno 17342 bound_to 10162
  140.6009  143.9611  150.6386 LP  0  0  0  0  0  0  0  0  0  0  0  0  # atno 17343 bound_to 10162
  157.1623  130.6231  149.5615 LP  0  0  0  0  0  0  0  0  0  0  0  0  # atno 17370 bound_to 10713
  155.9809  130.4813  150.6798 LP  0  0  0  0  0  0  0  0  0  0  0  0  # atno 17371 bound_to 10713
  140.7108  134.4464  157.5581 LP  0  0  0  0  0  0  0  0  0  0  0  0  # atno 17394 bound_to 11000
  139.8972  134.8641  156.2053 LP  0  0  0  0  0  0  0  0  0  0  0  0  # atno 17395 bound_to 11000

$$$$
