AV-unprocessed.smi:3354|AV-procd|sdf|12958|dock2
  -GOLD-   2272019393D 1   1.00000     0.00000
 Structure written by MMmdl.
 38 40  0  0  0  0  0  0  0  0  1 V2000
  150.9019  142.7806  157.3574 C   0  0  0  0  0  0  0  0  0  0  0  0
  150.3631  141.4540  156.8671 C   0  0  1  0  0  0  0  0  0  0  0  0
  149.3145  141.4257  155.7810 C   0  0  0  0  0  0  0  0  0  0  0  0
  150.7130  140.9371  155.4820 C   0  0  2  0  0  0  0  0  0  0  0  0
  150.8866  139.5367  155.2310 N   0  0  0  0  0  0  0  0  0  0  0  0
  149.7912  138.5841  155.3462 C   0  0  0  0  0  0  0  0  0  0  0  0
  150.4558  137.1950  155.3984 C   0  0  1  0  0  0  0  0  0  0  0  0
  149.7819  136.2279  154.5360 N   0  0  0  0  0  0  0  0  0  0  0  0
  149.5535  134.9456  154.8531 C   0  0  0  0  0  0  0  0  0  0  0  0
  149.8735  134.4492  155.9327 O   0  0  0  0  0  0  0  0  0  0  0  0
  148.9259  134.3035  153.8525 N   0  0  0  0  0  0  0  0  0  0  0  0
  148.5304  132.9399  153.7728 C   0  0  0  0  0  0  0  0  0  0  0  0
  149.2142  131.8660  154.3939 C   0  0  0  0  0  0  0  0  0  0  0  0
  148.7244  130.5570  154.2211 C   0  0  0  0  0  0  0  0  0  0  0  0
  147.5747  130.3672  153.4303 C   0  0  0  0  0  0  0  0  0  0  0  0
  146.9193  131.3788  152.8236 N   0  0  0  0  0  0  0  0  0  0  0  0
  147.3949  132.6308  152.9936 C   0  0  0  0  0  0  0  0  0  0  0  0
  151.9099  137.4252  154.9669 C   0  0  0  0  0  0  0  0  0  0  0  0
  152.0667  138.9342  155.0462 C   0  0  0  0  0  0  0  0  0  0  0  0
  153.1594  139.4933  154.9608 O   0  0  0  0  0  0  0  0  0  0  0  0
  151.0000  143.4882  156.5332 H   0  0  0  0  0  0  0  0  0  0  0  0
  151.8825  142.6399  157.8126 H   0  0  0  0  0  0  0  0  0  0  0  0
  150.2296  143.2060  158.1027 H   0  0  0  0  0  0  0  0  0  0  0  0
  150.2292  140.7248  157.6633 H   0  0  0  0  0  0  0  0  0  0  0  0
  148.5241  140.6827  155.8700 H   0  0  0  0  0  0  0  0  0  0  0  0
  149.0122  142.3727  155.3381 H   0  0  0  0  0  0  0  0  0  0  0  0
  151.3313  141.6005  154.8785 H   0  0  0  0  0  0  0  0  0  0  0  0
  149.1944  138.7673  156.2407 H   0  0  0  0  0  0  0  0  0  0  0  0
  149.1410  138.6899  154.4761 H   0  0  0  0  0  0  0  0  0  0  0  0
  150.4545  136.8306  156.4277 H   0  0  0  0  0  0  0  0  0  0  0  0
  149.4805  136.5561  153.6303 H   0  0  0  0  0  0  0  0  0  0  0  0
  148.6682  134.8711  153.0584 H   0  0  0  0  0  0  0  0  0  0  0  0
  150.1050  132.0113  154.9841 H   0  0  0  0  0  0  0  0  0  0  0  0
  149.2222  129.7164  154.6813 H   0  0  0  0  0  0  0  0  0  0  0  0
  147.1742  129.3763  153.2763 H   0  0  0  0  0  0  0  0  0  0  0  0
  146.8468  133.4139  152.4902 H   0  0  0  0  0  0  0  0  0  0  0  0
  152.6176  136.9171  155.6228 H   0  0  0  0  0  0  0  0  0  0  0  0
  152.0942  137.1046  153.9407 H   0  0  0  0  0  0  0  0  0  0  0  0
  1  2  1  0  0  0  0
  1 21  1  0  0  0  0
  1 22  1  0  0  0  0
  1 23  1  0  0  0  0
  2  4  1  0  0  0  0
  2  3  1  0  0  0  0
  2 24  1  0  0  0  0
  3  4  1  0  0  0  0
  3 25  1  0  0  0  0
  3 26  1  0  0  0  0
  4  5  1  0  0  0  0
  4 27  1  0  0  0  0
  5 19  1  0  0  0  0
  5  6  1  0  0  0  0
  6  7  1  0  0  0  0
  6 28  1  0  0  0  0
  6 29  1  0  0  0  0
  7  8  1  0  0  0  0
  7 18  1  0  0  0  0
  7 30  1  0  0  0  0
  8  9  1  0  0  0  0
  8 31  1  0  0  0  0
  9 10  2  0  0  0  0
  9 11  1  0  0  0  0
 11 12  1  0  0  0  0
 11 32  1  0  0  0  0
 12 17  1  0  0  0  0
 12 13  2  0  0  0  0
 13 14  1  0  0  0  0
 13 33  1  0  0  0  0
 14 15  2  0  0  0  0
 14 34  1  0  0  0  0
 15 16  1  0  0  0  0
 15 35  1  0  0  0  0
 16 17  2  0  0  0  0
 17 36  1  0  0  0  0
 18 19  1  0  0  0  0
 18 37  1  0  0  0  0
 18 38  1  0  0  0  0
 19 20  2  0  0  0  0
M  END
> <s_m_source_file>
AV-unprocessed.smi

> <i_m_source_file_index>
3354

> <i_lp_mmshare_version>
43012

> <i_f3d_flags>
0

> <s_epik_input>
W0NIM11bQ0BASF0xW0NIMl1bQ0BIXTFOMltDSDJdW0NASF0oW0NIMl1DMj1PKVtOSF1DKD1PKVtOSF1jM1tjSF1bY0hdW2NIXW5bY0hdMw==

> <s_epik_cmdline>
J2VwaWtfcHl0aG9uJywgJy1waCcsICc3LjAnLCAnLXRuJywgJzgnLCAnLW1hJywgJzIwMCcsICctbWV0YWxfYmluZGluZycsICctaW1hZScsICc8aW5maWxlLm1hZT4nLCAnLW9tYWUnLCAnPG91dGZpbGUubWFlPic=

> <r_epik_Ionization_Penalty>
0.00456191

> <r_epik_Ionization_Penalty_Charging>
0

> <r_epik_Ionization_Penalty_Neutral>
0.00456191

> <r_epik_State_Penalty>
0.00327094

> <r_epik_Charging_Adjusted_Penalty>
0.00327094

> <i_epik_Tot_Q>
0

> <i_epik_Tot_abs_Q>
0

> <r_epik_Metal_State_Penalty>
-0

> <b_epik_Metal_Only>
0

> <s_lp_Force_Field>
OPLS_2005

> <r_lp_Energy>
42.9067

> <b_lp_Chiralities_Consistent>
1

> <s_lp_Variant>
AV-unprocessed.smi:3354-4

> <Gold.Version>
5.8.1

> <Gold.Id.Protein>
6NUR|6NUR_protein|mol2

> <Gold.PLP.Fitness>
43.7371

> <Gold.PLP.PLP>
-35.7538

> <Gold.PLP.part.hbond>
-4.2761

> <Gold.PLP.part.metal>
0.0000

> <Gold.PLP.part.buried>
0.4315

> <Gold.PLP.part.nonpolar>
-31.5613

> <Gold.PLP.part.repulsive>
0.2309

> <Gold.PLP.ligand.clash>
0.0000

> <Gold.PLP.ligand.torsion>
0.5829

> <Gold.PLP.Chemscore.Hbond>
2.9920

> <Gold.PLP.Chemscore.CHOScore>
0.0000

> <Gold.PLP.Chemscore.Metal>
0.0000

> <Gold.Chemscore.Hbonds>
donor molecule, donor type, donor heavy atom, donor atom, acceptor molecule, acceptor atom, score
      L1  H     8    31       P1  7948  1.00
      L1  H    11    32       P1  7948  1.00
      P1  H  7997  8008       L1    20  1.00

> <Gold.PLP.Chemscore.Internal.Correction>
0.1730

> <Gold.Rescore>
     Score         DG    S(hbond)    S(metal)    S(lipo)     H(rot)  DE(clash)    DE(int)     intcor
     18.14     -18.74       2.65        0.00      64.72       1.24       0.20       0.40       ----

> <Gold.Chemscore.Fitness>
18.1393

> <Gold.Chemscore.DG>
-18.7375

> <Gold.Chemscore.ZeroCoef>
-5.4800

> <Gold.Chemscore.Hbond>
2.6496

> <Gold.Chemscore.Metal>
0.0000

> <Gold.Chemscore.Lipo>
64.7197

> <Gold.Chemscore.Internal_Hbond>
0.0000

> <Gold.Chemscore.DEClash>
0.1994

> <Gold.Chemscore.DEInternal>
0.3987

> <Gold.Chemscore.Rot>
1.2361

> <Gold.Chemscore.Internal.Correction>
   9.000000E+99

> <Gold.Chemscore.Hbonds>
donor molecule, donor type, donor heavy atom, donor atom, acceptor molecule, acceptor atom, score
      L1  H     8    31       P1  7948  0.75
      L1  H    11    32       P1  7948  0.38
      P1  H  7997  8008       L1    20  1.00

> <Gold.Chemscore.Hbond.Weighted>
-8.8496

> <Gold.Chemscore.Metal.Weighted>
-0.0000

> <Gold.Chemscore.Lipo.Weighted>
-7.5722

> <Gold.Chemscore.Internal_Hbond.Weighted>
0.0000

> <Gold.Chemscore.DEClash.Weighted>
0.1994

> <Gold.Chemscore.DEInternal.Weighted>
0.3987

> <Gold.Chemscore.Rot.Weighted>
3.1643

> <Gold.Chemscore.Internal.Correction.Weighted>
   9.000000E+99

> <Gold.Protein.RotatedTorsions>
[ 6907 6896 6895 6894 ] final   -1.74 input  -60.11 | X-H torsion
[ 7974 7965 7964 7962 ] final   68.52 input  175.53 | X-H torsion
[ 8008 7997 7996 7995 ] final   -8.83 input   59.86 | X-H torsion
[ 10167 10162 10161 10158 ] final  105.52 input  -65.29 | X-H torsion
[ 10718 10713 10712 10709 ] final   95.46 input   66.30 | X-H torsion
[ 10763 10752 10751 10750 ] final -135.52 input  -60.55 | X-H torsion
[ 11005 11000 10999 10996 ] final   23.15 input  -57.11 | X-H torsion

> <Gold.Protein.ActiveResidues>
 VAL166  LYS551  ARG553  GLY616  TRP617  ASP618  TYR619  PRO620  LYS621  CYS622 
 ASP623  PHE694  ASN695  SER759  ASP760  ASP761  ALA762  ILE779  LEU786  VAL792 
 PHE793  MET794  SER795  GLU796  ALA797  LYS798  CYS799  TRP800  GLU811  SER814 

> <Gold.Protein.RotatedAtoms>
  151.5412  135.1068  159.9926 H   0  0  0  0  0  0  0  0  0  0  0  0  # atno 6907 bound_to 6896
  152.4534  133.7671  159.6789 H   0  0  0  0  0  0  0  0  0  0  0  0  # atno 6908 bound_to 6896
  150.8470  133.7780  159.3064 H   0  0  0  0  0  0  0  0  0  0  0  0  # atno 6909 bound_to 6896
  145.8016  139.2985  143.1151 H   0  0  0  0  0  0  0  0  0  0  0  0  # atno 7974 bound_to 7965
  154.5703  140.2371  155.8201 H   0  0  0  0  0  0  0  0  0  0  0  0  # atno 8008 bound_to 7997
  156.2102  140.3028  155.9673 H   0  0  0  0  0  0  0  0  0  0  0  0  # atno 8009 bound_to 7997
  155.2724  140.0419  157.2998 H   0  0  0  0  0  0  0  0  0  0  0  0  # atno 8010 bound_to 7997
  139.7086  144.7082  151.1065 H   0  0  0  0  0  0  0  0  0  0  0  0  # atno 10167 bound_to 10162
  157.6938  131.0546  150.4342 H   0  0  0  0  0  0  0  0  0  0  0  0  # atno 10718 bound_to 10713
  154.8701  135.3701  154.4912 H   0  0  0  0  0  0  0  0  0  0  0  0  # atno 10763 bound_to 10752
  153.5559  135.7024  153.5575 H   0  0  0  0  0  0  0  0  0  0  0  0  # atno 10764 bound_to 10752
  153.3673  135.4031  155.1726 H   0  0  0  0  0  0  0  0  0  0  0  0  # atno 10765 bound_to 10752
  140.3728  134.2004  155.7666 H   0  0  0  0  0  0  0  0  0  0  0  0  # atno 11005 bound_to 11000
  145.9872  140.8633  143.0085 LP  0  0  0  0  0  0  0  0  0  0  0  0  # atno 17320 bound_to 7965
  144.6768  140.2164  143.7371 LP  0  0  0  0  0  0  0  0  0  0  0  0  # atno 17321 bound_to 7965
  140.7727  143.5324  150.9407 LP  0  0  0  0  0  0  0  0  0  0  0  0  # atno 17342 bound_to 10162
  139.9009  143.6838  152.3131 LP  0  0  0  0  0  0  0  0  0  0  0  0  # atno 17343 bound_to 10162
  156.4706  130.4052  149.6520 LP  0  0  0  0  0  0  0  0  0  0  0  0  # atno 17370 bound_to 10713
  156.3602  130.7478  151.2449 LP  0  0  0  0  0  0  0  0  0  0  0  0  # atno 17371 bound_to 10713
  141.1949  133.8118  157.0738 LP  0  0  0  0  0  0  0  0  0  0  0  0  # atno 17394 bound_to 11000
  140.0538  134.9791  157.1185 LP  0  0  0  0  0  0  0  0  0  0  0  0  # atno 17395 bound_to 11000

$$$$
