AV-unprocessed.smi:1809|AV-procd|sdf|7317|dock1
  -GOLD-   22720 8573D 1   1.00000     0.00000
 Structure written by MMmdl.
 39 41  0  0  0  0  0  0  0  0  1 V2000
  151.8876  141.2463  156.4401 C   0  0  0  0  0  0  0  0  0  0  0  0
  151.7068  139.8887  155.8519 C   0  0  0  0  0  0  0  0  0  0  0  0
  152.7248  139.0400  155.6641 N   0  0  0  0  0  0  0  0  0  0  0  0
  152.3125  137.8403  155.1009 N   0  0  0  0  0  0  0  0  0  0  0  0
  150.9911  137.8205  154.8782 C   0  0  0  0  0  0  0  0  0  0  0  0
  150.3023  136.7168  154.3093 N   0  0  0  0  0  0  0  0  0  0  0  0
  150.1937  135.4653  154.7887 C   0  0  0  0  0  0  0  0  0  0  0  0
  150.6917  135.0597  155.8391 O   0  0  0  0  0  0  0  0  0  0  0  0
  149.4603  134.6962  153.9711 N   0  0  0  0  0  0  0  0  0  0  0  0
  149.1525  133.2874  154.1938 C   0  0  0  0  0  0  0  0  0  0  0  0
  148.2270  132.7255  153.1017 C   0  0  2  0  0  0  0  0  0  0  0  0
  147.1122  133.7307  152.7307 C   0  0  0  0  0  0  0  0  0  0  0  0
  146.1889  133.1249  151.7910 N   0  0  0  0  0  0  0  0  0  0  0  0
  145.0399  133.9111  151.4059 C   0  0  0  0  0  0  0  0  0  0  0  0
  144.0738  132.8904  150.7791 C   0  0  0  0  0  0  0  0  0  0  0  0
  144.5487  131.5247  151.3239 C   0  0  0  0  0  0  0  0  0  0  0  0
  145.6227  131.9218  152.3380 C   0  0  1  0  0  0  0  0  0  0  0  0
  146.7235  130.8991  152.6512 C   0  0  0  0  0  0  0  0  0  0  0  0
  147.6360  131.5057  153.5693 O   0  0  0  0  0  0  0  0  0  0  0  0
  150.1358  139.2815  155.3428 S   0  0  0  0  0  0  0  0  0  0  0  0
  152.7628  141.2676  157.0902 H   0  0  0  0  0  0  0  0  0  0  0  0
  151.0114  141.5211  157.0274 H   0  0  0  0  0  0  0  0  0  0  0  0
  152.0221  141.9805  155.6458 H   0  0  0  0  0  0  0  0  0  0  0  0
  149.8343  136.9035  153.4350 H   0  0  0  0  0  0  0  0  0  0  0  0
  149.0918  135.1125  153.1288 H   0  0  0  0  0  0  0  0  0  0  0  0
  150.0651  132.6932  154.2673 H   0  0  0  0  0  0  0  0  0  0  0  0
  148.6601  133.2119  155.1636 H   0  0  0  0  0  0  0  0  0  0  0  0
  148.8174  132.5056  152.2101 H   0  0  0  0  0  0  0  0  0  0  0  0
  146.5780  134.0384  153.6309 H   0  0  0  0  0  0  0  0  0  0  0  0
  147.5463  134.6314  152.2956 H   0  0  0  0  0  0  0  0  0  0  0  0
  144.5808  134.3632  152.2865 H   0  0  0  0  0  0  0  0  0  0  0  0
  145.3121  134.7112  150.7171 H   0  0  0  0  0  0  0  0  0  0  0  0
  143.0419  133.1058  151.0580 H   0  0  0  0  0  0  0  0  0  0  0  0
  144.1377  132.9079  149.6905 H   0  0  0  0  0  0  0  0  0  0  0  0
  143.7431  130.9497  151.7814 H   0  0  0  0  0  0  0  0  0  0  0  0
  144.9783  130.9275  150.5183 H   0  0  0  0  0  0  0  0  0  0  0  0
  145.1162  132.1655  153.2747 H   0  0  0  0  0  0  0  0  0  0  0  0
  146.3002  130.0014  153.1020 H   0  0  0  0  0  0  0  0  0  0  0  0
  147.2511  130.5949  151.7461 H   0  0  0  0  0  0  0  0  0  0  0  0
  1  2  1  0  0  0  0
  1 21  1  0  0  0  0
  1 22  1  0  0  0  0
  1 23  1  0  0  0  0
  2 20  1  0  0  0  0
  2  3  2  0  0  0  0
  3  4  1  0  0  0  0
  4  5  2  0  0  0  0
  5  6  1  0  0  0  0
  5 20  1  0  0  0  0
  6  7  1  0  0  0  0
  6 24  1  0  0  0  0
  7  8  2  0  0  0  0
  7  9  1  0  0  0  0
  9 10  1  0  0  0  0
  9 25  1  0  0  0  0
 10 11  1  0  0  0  0
 10 26  1  0  0  0  0
 10 27  1  0  0  0  0
 11 19  1  0  0  0  0
 11 12  1  0  0  0  0
 11 28  1  0  0  0  0
 12 13  1  0  0  0  0
 12 29  1  0  0  0  0
 12 30  1  0  0  0  0
 13 17  1  0  0  0  0
 13 14  1  0  0  0  0
 14 15  1  0  0  0  0
 14 31  1  0  0  0  0
 14 32  1  0  0  0  0
 15 16  1  0  0  0  0
 15 33  1  0  0  0  0
 15 34  1  0  0  0  0
 16 17  1  0  0  0  0
 16 35  1  0  0  0  0
 16 36  1  0  0  0  0
 17 18  1  0  0  0  0
 17 37  1  0  0  0  0
 18 19  1  0  0  0  0
 18 38  1  0  0  0  0
 18 39  1  0  0  0  0
M  END
> <s_m_source_file>
AV-unprocessed.smi

> <i_m_source_file_index>
1809

> <i_lp_mmshare_version>
43012

> <i_f3d_flags>
0

> <s_epik_input>
W0NIM11jMW5uYyhzMSlbTkhdQyg9TylbTkhdW0NIMl1bQ0BIXShbQ0gyXTIpT1tDSDJdW0NAQEhdKE4yMylbQ0gyXVtDSDJdW0NIMl0z

> <s_epik_cmdline>
J2VwaWtfcHl0aG9uJywgJy1waCcsICc3LjAnLCAnLXRuJywgJzgnLCAnLW1hJywgJzIwMCcsICctbWV0YWxfYmluZGluZycsICctaW1hZScsICc8aW5maWxlLm1hZT4nLCAnLW9tYWUnLCAnPG91dGZpbGUubWFlPic=

> <r_lp_tautomer_probability>
1

> <r_epik_Ionization_Penalty>
1.05954

> <r_epik_Ionization_Penalty_Charging>
0

> <r_epik_Ionization_Penalty_Neutral>
1.05954

> <r_epik_State_Penalty>
1.4238

> <r_epik_Charging_Adjusted_Penalty>
1.4238

> <i_epik_Tot_Q>
0

> <i_epik_Tot_abs_Q>
0

> <r_epik_Metal_State_Penalty>
1.7901

> <b_epik_Metal_Only>
0

> <s_lp_Force_Field>
OPLS_2005

> <r_lp_Energy>
46.8482

> <b_lp_Chiralities_Consistent>
1

> <s_lp_Variant>
AV-unprocessed.smi:1809-9

> <Gold.Version>
5.8.1

> <Gold.Id.Protein>
6NUR|6NUR_protein|mol2

> <Gold.PLP.Fitness>
39.2021

> <Gold.PLP.PLP>
-31.6258

> <Gold.PLP.part.hbond>
-4.8493

> <Gold.PLP.part.metal>
0.0000

> <Gold.PLP.part.buried>
-4.1530

> <Gold.PLP.part.nonpolar>
-22.6631

> <Gold.PLP.part.repulsive>
0.3887

> <Gold.PLP.ligand.clash>
0.0000

> <Gold.PLP.ligand.torsion>
0.7423

> <Gold.PLP.Chemscore.Hbond>
3.0195

> <Gold.PLP.Chemscore.CHOScore>
0.0000

> <Gold.PLP.Chemscore.Metal>
0.0000

> <Gold.Chemscore.Hbonds>
donor molecule, donor type, donor heavy atom, donor atom, acceptor molecule, acceptor atom, score
      L1  H     6    24       P1  7948  0.98
      L1  H     9    25       P1  7948  0.85
      P1  H  7997  8008       L1     3  0.99
      P1  H 10752 10765       L1     4  0.10

> <Gold.PLP.Chemscore.Internal.Correction>
0.0023

> <Gold.Rescore>
     Score         DG    S(hbond)    S(metal)    S(lipo)     H(rot)  DE(clash)    DE(int)     intcor
     15.53     -16.34       1.98        0.00      65.34       1.32       0.05       0.76       ----

> <Gold.Chemscore.Fitness>
15.5304

> <Gold.Chemscore.DG>
-16.3441

> <Gold.Chemscore.ZeroCoef>
-5.4800

> <Gold.Chemscore.Hbond>
1.9754

> <Gold.Chemscore.Metal>
0.0000

> <Gold.Chemscore.Lipo>
65.3372

> <Gold.Chemscore.Internal_Hbond>
0.0000

> <Gold.Chemscore.DEClash>
0.0519

> <Gold.Chemscore.DEInternal>
0.7618

> <Gold.Chemscore.Rot>
1.3196

> <Gold.Chemscore.Internal.Correction>
   9.000000E+99

> <Gold.Chemscore.Hbonds>
donor molecule, donor type, donor heavy atom, donor atom, acceptor molecule, acceptor atom, score
      L1  H     6    24       P1  7948  0.37
      L1  H     9    25       P1  7948  0.14
      P1  H  7997  8008       L1     3  0.37
      P1  H 10752 10765       L1     4  0.04

> <Gold.Chemscore.Hbond.Weighted>
-6.5980

> <Gold.Chemscore.Metal.Weighted>
-0.0000

> <Gold.Chemscore.Lipo.Weighted>
-7.6445

> <Gold.Chemscore.Internal_Hbond.Weighted>
0.0000

> <Gold.Chemscore.DEClash.Weighted>
0.0519

> <Gold.Chemscore.DEInternal.Weighted>
0.7618

> <Gold.Chemscore.Rot.Weighted>
3.3783

> <Gold.Chemscore.Internal.Correction.Weighted>
   9.000000E+99

> <Gold.Protein.RotatedTorsions>
[ 6907 6896 6895 6894 ] final -113.41 input  -60.11 | X-H torsion
[ 7974 7965 7964 7962 ] final   -7.97 input  175.53 | X-H torsion
[ 8008 7997 7996 7995 ] final  -38.31 input   59.86 | X-H torsion
[ 10167 10162 10161 10158 ] final  -40.32 input  -65.29 | X-H torsion
[ 10718 10713 10712 10709 ] final   22.64 input   66.30 | X-H torsion
[ 10763 10752 10751 10750 ] final -178.72 input  -60.55 | X-H torsion
[ 11005 11000 10999 10996 ] final -154.59 input  -57.11 | X-H torsion

> <Gold.Protein.ActiveResidues>
 VAL166  LYS551  ARG553  GLY616  TRP617  ASP618  TYR619  PRO620  LYS621  CYS622 
 ASP623  PHE694  ASN695  SER759  ASP760  ASP761  ALA762  ILE779  LEU786  VAL792 
 PHE793  MET794  SER795  GLU796  ALA797  LYS798  CYS799  TRP800  GLU811  SER814 

> <Gold.Protein.RotatedAtoms>
  150.7827  133.8949  159.3323 H   0  0  0  0  0  0  0  0  0  0  0  0  # atno 6907 bound_to 6896
  151.6807  135.0960  160.0225 H   0  0  0  0  0  0  0  0  0  0  0  0  # atno 6908 bound_to 6896
  152.3883  133.6604  159.6252 H   0  0  0  0  0  0  0  0  0  0  0  0  # atno 6909 bound_to 6896
  146.2293  140.2399  142.8343 H   0  0  0  0  0  0  0  0  0  0  0  0  # atno 7974 bound_to 7965
  154.4039  140.1581  156.2679 H   0  0  0  0  0  0  0  0  0  0  0  0  # atno 8008 bound_to 7997
  155.8979  140.3435  155.5982 H   0  0  0  0  0  0  0  0  0  0  0  0  # atno 8009 bound_to 7997
  155.7482  140.0801  157.2204 H   0  0  0  0  0  0  0  0  0  0  0  0  # atno 8010 bound_to 7997
  140.7038  143.3160  151.2908 H   0  0  0  0  0  0  0  0  0  0  0  0  # atno 10167 bound_to 10162
  157.1551  130.6692  149.6025 H   0  0  0  0  0  0  0  0  0  0  0  0  # atno 10718 bound_to 10713
  154.5442  135.2808  155.1068 H   0  0  0  0  0  0  0  0  0  0  0  0  # atno 10763 bound_to 10752
  154.2539  135.6334  153.5254 H   0  0  0  0  0  0  0  0  0  0  0  0  # atno 10764 bound_to 10752
  152.9986  135.5589  154.5990 H   0  0  0  0  0  0  0  0  0  0  0  0  # atno 10765 bound_to 10752
  140.6956  134.3993  157.5215 H   0  0  0  0  0  0  0  0  0  0  0  0  # atno 11005 bound_to 11000
  144.9493  140.8161  143.5582 LP  0  0  0  0  0  0  0  0  0  0  0  0  # atno 17320 bound_to 7965
  145.2358  139.2094  143.5019 LP  0  0  0  0  0  0  0  0  0  0  0  0  # atno 17321 bound_to 7965
  139.6599  144.0208  152.2685 LP  0  0  0  0  0  0  0  0  0  0  0  0  # atno 17342 bound_to 10162
  139.9772  144.6453  150.7934 LP  0  0  0  0  0  0  0  0  0  0  0  0  # atno 17343 bound_to 10162
  155.9763  130.4731  150.6522 LP  0  0  0  0  0  0  0  0  0  0  0  0  # atno 17370 bound_to 10713
  157.4184  131.0833  151.1154 LP  0  0  0  0  0  0  0  0  0  0  0  0  # atno 17371 bound_to 10713
  139.8911  134.8788  156.2337 LP  0  0  0  0  0  0  0  0  0  0  0  0  # atno 17394 bound_to 11000
  141.0206  133.7044  156.1261 LP  0  0  0  0  0  0  0  0  0  0  0  0  # atno 17395 bound_to 11000

$$$$
