AV-unprocessed.smi:3035|AV-procd|sdf|11581|dock5
  -GOLD-   2272016553D 1   1.00000     0.00000
 Structure written by MMmdl.
 38 39  0  0  0  0  0  0  0  0  1 V2000
  156.1364  138.4044  159.3741 C   0  0  0  0  0  0  0  0  0  0  0  0
  155.2891  138.6109  158.2574 O   0  0  0  0  0  0  0  0  0  0  0  0
  154.0813  137.8737  158.3469 C   0  0  0  0  0  0  0  0  0  0  0  0
  153.2061  138.1738  157.1673 C   0  0  0  0  0  0  0  0  0  0  0  0
  152.7589  139.3128  156.7953 N   0  0  0  0  0  0  0  0  0  0  0  0
  152.0407  139.0268  155.7085 N   0  0  0  0  0  0  0  0  0  0  0  0
  151.3597  140.0708  154.9510 C   0  0  0  0  0  0  0  0  0  0  0  0
  150.6317  141.0500  155.8840 C   0  0  0  0  0  0  0  0  0  0  0  0
  151.5773  141.7143  156.7696 N   0  0  0  0  0  0  0  0  0  0  0  0
  151.2338  142.6050  157.7111 C   0  0  0  0  0  0  0  0  0  0  0  0
  150.0694  142.9497  157.9160 O   0  0  0  0  0  0  0  0  0  0  0  0
  152.3820  143.1976  158.5452 C   0  0  0  0  0  0  0  0  0  0  0  0
  152.1742  142.9728  160.0614 C   0  0  0  0  0  0  0  0  0  0  0  0
  152.0845  144.3589  160.7135 C   0  0  0  0  0  0  0  0  0  0  0  0
  151.7521  145.3208  159.5764 C   0  0  0  0  0  0  0  0  0  0  0  0
  152.4793  144.7256  158.3719 C   0  0  0  0  0  0  0  0  0  0  0  0
  152.0555  137.6769  155.4125 C   0  0  0  0  0  0  0  0  0  0  0  0
  151.5093  137.0800  154.4862 O   0  0  0  0  0  0  0  0  0  0  0  0
  152.8163  137.1282  156.3693 O   0  0  0  0  0  0  0  0  0  0  0  0
  157.0464  138.9929  159.2575 H   0  0  0  0  0  0  0  0  0  0  0  0
  156.4228  137.3555  159.4633 H   0  0  0  0  0  0  0  0  0  0  0  0
  155.6510  138.7149  160.3002 H   0  0  0  0  0  0  0  0  0  0  0  0
  154.3000  136.8053  158.3864 H   0  0  0  0  0  0  0  0  0  0  0  0
  153.5543  138.1306  159.2671 H   0  0  0  0  0  0  0  0  0  0  0  0
  152.0889  140.6036  154.3387 H   0  0  0  0  0  0  0  0  0  0  0  0
  150.6503  139.6137  154.2591 H   0  0  0  0  0  0  0  0  0  0  0  0
  150.0987  141.7994  155.2965 H   0  0  0  0  0  0  0  0  0  0  0  0
  149.8889  140.5206  156.4832 H   0  0  0  0  0  0  0  0  0  0  0  0
  152.5541  141.4824  156.6614 H   0  0  0  0  0  0  0  0  0  0  0  0
  153.3210  142.7404  158.2279 H   0  0  0  0  0  0  0  0  0  0  0  0
  151.2628  142.4094  160.2683 H   0  0  0  0  0  0  0  0  0  0  0  0
  152.9961  142.3993  160.4911 H   0  0  0  0  0  0  0  0  0  0  0  0
  151.3496  144.3957  161.5183 H   0  0  0  0  0  0  0  0  0  0  0  0
  153.0530  144.6236  161.1398 H   0  0  0  0  0  0  0  0  0  0  0  0
  150.6760  145.3253  159.3975 H   0  0  0  0  0  0  0  0  0  0  0  0
  152.0595  146.3451  159.7889 H   0  0  0  0  0  0  0  0  0  0  0  0
  153.5277  145.0264  158.3931 H   0  0  0  0  0  0  0  0  0  0  0  0
  152.0639  145.0849  157.4290 H   0  0  0  0  0  0  0  0  0  0  0  0
  1  2  1  0  0  0  0
  1 20  1  0  0  0  0
  1 21  1  0  0  0  0
  1 22  1  0  0  0  0
  2  3  1  0  0  0  0
  3  4  1  0  0  0  0
  3 23  1  0  0  0  0
  3 24  1  0  0  0  0
  4 19  1  0  0  0  0
  4  5  2  0  0  0  0
  5  6  1  0  0  0  0
  6  7  1  0  0  0  0
  6 17  1  0  0  0  0
  7  8  1  0  0  0  0
  7 25  1  0  0  0  0
  7 26  1  0  0  0  0
  8  9  1  0  0  0  0
  8 27  1  0  0  0  0
  8 28  1  0  0  0  0
  9 10  1  0  0  0  0
  9 29  1  0  0  0  0
 10 11  2  0  0  0  0
 10 12  1  0  0  0  0
 12 16  1  0  0  0  0
 12 13  1  0  0  0  0
 12 30  1  0  0  0  0
 13 14  1  0  0  0  0
 13 31  1  0  0  0  0
 13 32  1  0  0  0  0
 14 15  1  0  0  0  0
 14 33  1  0  0  0  0
 14 34  1  0  0  0  0
 15 16  1  0  0  0  0
 15 35  1  0  0  0  0
 15 36  1  0  0  0  0
 16 37  1  0  0  0  0
 16 38  1  0  0  0  0
 17 18  2  0  0  0  0
 17 19  1  0  0  0  0
M  END
> <s_m_source_file>
AV-unprocessed.smi

> <i_m_source_file_index>
3035

> <i_lp_mmshare_version>
43012

> <i_f3d_flags>
0

> <s_epik_input>
W0NIM11PW0NIMl1jMW5uKGMoPU8pbzEpW0NIMl1bQ0gyXVtOSF1DKD1PKVtDSF0yW0NIMl1bQ0gyXVtDSDJdW0NIMl0y

> <s_epik_cmdline>
J2VwaWtfcHl0aG9uJywgJy1waCcsICc3LjAnLCAnLXRuJywgJzgnLCAnLW1hJywgJzIwMCcsICctbWV0YWxfYmluZGluZycsICctaW1hZScsICc8aW5maWxlLm1hZT4nLCAnLW9tYWUnLCAnPG91dGZpbGUubWFlPic=

> <r_lp_tautomer_probability>
1

> <r_epik_Ionization_Penalty>
6.81406e-08

> <r_epik_Ionization_Penalty_Charging>
1.21446e-09

> <r_epik_Ionization_Penalty_Neutral>
6.69261e-08

> <r_epik_State_Penalty>
-0

> <r_epik_Charging_Adjusted_Penalty>
1.21446e-09

> <i_epik_Tot_Q>
0

> <i_epik_Tot_abs_Q>
0

> <r_epik_Metal_State_Penalty>
-0

> <b_epik_Metal_Only>
0

> <s_lp_Force_Field>
OPLS_2005

> <r_lp_Energy>
26.4396

> <b_lp_Chiralities_Consistent>
1

> <s_lp_Variant>
AV-unprocessed.smi:3035-1

> <Gold.Version>
5.8.1

> <Gold.Id.Protein>
6NUR|6NUR_protein|mol2

> <Gold.PLP.Fitness>
44.0359

> <Gold.PLP.PLP>
-36.0265

> <Gold.PLP.part.hbond>
-4.0000

> <Gold.PLP.part.metal>
0.0000

> <Gold.PLP.part.buried>
0.8258

> <Gold.PLP.part.nonpolar>
-33.1526

> <Gold.PLP.part.repulsive>
0.4264

> <Gold.PLP.ligand.clash>
0.0000

> <Gold.PLP.ligand.torsion>
0.2259

> <Gold.PLP.Chemscore.Hbond>
2.8124

> <Gold.PLP.Chemscore.CHOScore>
0.0000

> <Gold.PLP.Chemscore.Metal>
0.0000

> <Gold.Chemscore.Hbonds>
donor molecule, donor type, donor heavy atom, donor atom, acceptor molecule, acceptor atom, score
      P1  H  7997  8008       L1     2  0.72
      P1  H  7997  8009       L1     5  1.00
      P1  H 10752 10763       L1    18  0.85
      P1  H 10752 10764       L1    19  0.01

> <Gold.PLP.Chemscore.Internal.Correction>
0.0240

> <Gold.Rescore>
     Score         DG    S(hbond)    S(metal)    S(lipo)     H(rot)  DE(clash)    DE(int)     intcor
     14.47     -14.78       1.74        0.00      81.55       2.36       0.04       0.27       ----

> <Gold.Chemscore.Fitness>
14.4716

> <Gold.Chemscore.DG>
-14.7814

> <Gold.Chemscore.ZeroCoef>
-5.4800

> <Gold.Chemscore.Hbond>
1.7359

> <Gold.Chemscore.Metal>
0.0000

> <Gold.Chemscore.Lipo>
81.5519

> <Gold.Chemscore.Internal_Hbond>
0.0000

> <Gold.Chemscore.DEClash>
0.0376

> <Gold.Chemscore.DEInternal>
0.2721

> <Gold.Chemscore.Rot>
2.3587

> <Gold.Chemscore.Internal.Correction>
   9.000000E+99

> <Gold.Chemscore.Hbonds>
donor molecule, donor type, donor heavy atom, donor atom, acceptor molecule, acceptor atom, score
      P1  H  7997  8008       L1     2  0.65
      P1  H  7997  8009       L1     5  0.16
      P1  H 10752 10763       L1    18  0.16
      P1  H 10752 10764       L1    19  0.02

> <Gold.Chemscore.Hbond.Weighted>
-5.7980

> <Gold.Chemscore.Metal.Weighted>
-0.0000

> <Gold.Chemscore.Lipo.Weighted>
-9.5416

> <Gold.Chemscore.Internal_Hbond.Weighted>
0.0000

> <Gold.Chemscore.DEClash.Weighted>
0.0376

> <Gold.Chemscore.DEInternal.Weighted>
0.2721

> <Gold.Chemscore.Rot.Weighted>
6.0382

> <Gold.Chemscore.Internal.Correction.Weighted>
   9.000000E+99

> <Gold.Protein.RotatedTorsions>
[ 6907 6896 6895 6894 ] final   84.48 input  -60.11 | X-H torsion
[ 7974 7965 7964 7962 ] final -118.28 input  175.53 | X-H torsion
[ 8008 7997 7996 7995 ] final -156.13 input   59.86 | X-H torsion
[ 10167 10162 10161 10158 ] final   66.17 input  -65.29 | X-H torsion
[ 10718 10713 10712 10709 ] final  -77.37 input   66.30 | X-H torsion
[ 10763 10752 10751 10750 ] final   32.26 input  -60.55 | X-H torsion
[ 11005 11000 10999 10996 ] final  127.86 input  -57.11 | X-H torsion

> <Gold.Protein.ActiveResidues>
 VAL166  LYS551  ARG553  GLY616  TRP617  ASP618  TYR619  PRO620  LYS621  CYS622 
 ASP623  PHE694  ASN695  SER759  ASP760  ASP761  ALA762  ILE779  LEU786  VAL792 
 PHE793  MET794  SER795  GLU796  ALA797  LYS798  CYS799  TRP800  GLU811  SER814 

> <Gold.Protein.RotatedAtoms>
  152.5353  134.2734  159.8979 H   0  0  0  0  0  0  0  0  0  0  0  0  # atno 6907 bound_to 6896
  151.2690  133.4258  159.2628 H   0  0  0  0  0  0  0  0  0  0  0  0  # atno 6908 bound_to 6896
  151.0384  134.9605  159.8205 H   0  0  0  0  0  0  0  0  0  0  0  0  # atno 6909 bound_to 6896
  145.0756  140.8390  143.4069 H   0  0  0  0  0  0  0  0  0  0  0  0  # atno 7974 bound_to 7965
  155.7124  140.0780  157.2365 H   0  0  0  0  0  0  0  0  0  0  0  0  # atno 8008 bound_to 7997
  154.4056  140.1627  156.2365 H   0  0  0  0  0  0  0  0  0  0  0  0  # atno 8009 bound_to 7997
  155.9270  140.3394  155.6221 H   0  0  0  0  0  0  0  0  0  0  0  0  # atno 8010 bound_to 7997
  140.1033  144.4884  150.7024 H   0  0  0  0  0  0  0  0  0  0  0  0  # atno 10167 bound_to 10162
  156.0147  130.4489  150.3335 H   0  0  0  0  0  0  0  0  0  0  0  0  # atno 10718 bound_to 10713
  153.0272  135.6418  154.1327 H   0  0  0  0  0  0  0  0  0  0  0  0  # atno 10763 bound_to 10752
  154.1055  135.2856  155.3244 H   0  0  0  0  0  0  0  0  0  0  0  0  # atno 10764 bound_to 10752
  154.6369  135.5473  153.7807 H   0  0  0  0  0  0  0  0  0  0  0  0  # atno 10765 bound_to 10752
  139.9530  134.9618  156.8916 H   0  0  0  0  0  0  0  0  0  0  0  0  # atno 11005 bound_to 11000
  145.1240  139.2675  143.5574 LP  0  0  0  0  0  0  0  0  0  0  0  0  # atno 17320 bound_to 7965
  146.3530  140.0872  142.8614 LP  0  0  0  0  0  0  0  0  0  0  0  0  # atno 17321 bound_to 7965
  140.6966  143.2407  151.4984 LP  0  0  0  0  0  0  0  0  0  0  0  0  # atno 17342 bound_to 10162
  139.5659  144.2043  152.1764 LP  0  0  0  0  0  0  0  0  0  0  0  0  # atno 17343 bound_to 10162
  157.1432  131.0302  151.2918 LP  0  0  0  0  0  0  0  0  0  0  0  0  # atno 17370 bound_to 10713
  157.4454  130.7568  149.7105 LP  0  0  0  0  0  0  0  0  0  0  0  0  # atno 17371 bound_to 10713
  140.5675  134.0475  155.7419 LP  0  0  0  0  0  0  0  0  0  0  0  0  # atno 17394 bound_to 11000
  141.1196  133.9483  157.2755 LP  0  0  0  0  0  0  0  0  0  0  0  0  # atno 17395 bound_to 11000

$$$$
