AV-unprocessed.smi:1027|AV-procd|sdf|4470|dock4
  -GOLD-   22720 2443D 1   1.00000     0.00000
 Structure written by MMmdl.
 35 36  0  0  0  0  0  0  0  0  1 V2000
  147.3730  135.0600  162.8452 C   0  0  0  0  0  0  0  0  0  0  0  0
  145.8559  135.0230  162.5744 C   0  0  0  0  0  0  0  0  0  0  0  0
  145.4533  133.6096  162.1162 C   0  0  0  0  0  0  0  0  0  0  0  0
  145.4092  136.1185  161.5699 C   0  0  1  0  0  0  0  0  0  0  0  0
  145.4911  137.5444  162.1478 C   0  0  0  0  0  0  0  0  0  0  0  0
  146.2231  136.0545  160.3561 N   0  0  0  0  0  0  0  0  0  0  0  0
  147.4636  136.5469  160.2221 C   0  0  0  0  0  0  0  0  0  0  0  0
  148.0765  137.1031  161.1336 O   0  0  0  0  0  0  0  0  0  0  0  0
  147.9321  136.3502  158.9771 N   0  0  0  0  0  0  0  0  0  0  0  0
  149.1920  136.7275  158.4419 C   0  0  0  0  0  0  0  0  0  0  0  0
  150.3350  136.7062  159.1411 N   0  0  0  0  0  0  0  0  0  0  0  0
  151.4169  137.1213  158.3779 N   0  0  0  0  0  0  0  0  0  0  0  0
  151.0629  137.4452  157.1285 C   0  0  0  0  0  0  0  0  0  0  0  0
  152.0537  137.9213  156.1193 C   0  0  0  0  0  0  0  0  0  0  0  0
  151.9848  139.3295  155.5748 C   0  0  0  0  0  0  0  0  0  0  0  0
  151.6638  138.1621  154.6772 C   0  0  0  0  0  0  0  0  0  0  0  0
  149.3468  137.2643  156.7783 S   0  0  0  0  0  0  0  0  0  0  0  0
  147.9416  134.9280  161.9243 H   0  0  0  0  0  0  0  0  0  0  0  0
  147.6686  134.2669  163.5325 H   0  0  0  0  0  0  0  0  0  0  0  0
  147.6846  136.0018  163.2970 H   0  0  0  0  0  0  0  0  0  0  0  0
  145.3544  135.2112  163.5249 H   0  0  0  0  0  0  0  0  0  0  0  0
  145.8689  133.3777  161.1351 H   0  0  0  0  0  0  0  0  0  0  0  0
  144.3716  133.4930  162.0590 H   0  0  0  0  0  0  0  0  0  0  0  0
  145.8139  132.8536  162.8143 H   0  0  0  0  0  0  0  0  0  0  0  0
  144.3693  135.9195  161.3036 H   0  0  0  0  0  0  0  0  0  0  0  0
  144.8063  137.6819  162.9839 H   0  0  0  0  0  0  0  0  0  0  0  0
  145.2233  138.2896  161.3980 H   0  0  0  0  0  0  0  0  0  0  0  0
  146.4982  137.7739  162.4969 H   0  0  0  0  0  0  0  0  0  0  0  0
  145.8008  135.6110  159.5536 H   0  0  0  0  0  0  0  0  0  0  0  0
  147.3148  135.8748  158.3357 H   0  0  0  0  0  0  0  0  0  0  0  0
  153.0367  137.4979  156.3170 H   0  0  0  0  0  0  0  0  0  0  0  0
  151.1557  139.9566  155.8972 H   0  0  0  0  0  0  0  0  0  0  0  0
  152.9259  139.8494  155.4081 H   0  0  0  0  0  0  0  0  0  0  0  0
  152.3914  137.9031  153.9107 H   0  0  0  0  0  0  0  0  0  0  0  0
  150.6219  138.0261  154.3947 H   0  0  0  0  0  0  0  0  0  0  0  0
  1  2  1  0  0  0  0
  1 18  1  0  0  0  0
  1 19  1  0  0  0  0
  1 20  1  0  0  0  0
  2  3  1  0  0  0  0
  2  4  1  0  0  0  0
  2 21  1  0  0  0  0
  3 22  1  0  0  0  0
  3 23  1  0  0  0  0
  3 24  1  0  0  0  0
  4  5  1  0  0  0  0
  4  6  1  0  0  0  0
  4 25  1  0  0  0  0
  5 26  1  0  0  0  0
  5 27  1  0  0  0  0
  5 28  1  0  0  0  0
  6  7  1  0  0  0  0
  6 29  1  0  0  0  0
  7  8  2  0  0  0  0
  7  9  1  0  0  0  0
  9 10  1  0  0  0  0
  9 30  1  0  0  0  0
 10 17  1  0  0  0  0
 10 11  2  0  0  0  0
 11 12  1  0  0  0  0
 12 13  2  0  0  0  0
 13 14  1  0  0  0  0
 13 17  1  0  0  0  0
 14 16  1  0  0  0  0
 14 15  1  0  0  0  0
 14 31  1  0  0  0  0
 15 16  1  0  0  0  0
 15 32  1  0  0  0  0
 15 33  1  0  0  0  0
 16 34  1  0  0  0  0
 16 35  1  0  0  0  0
M  END
> <s_m_source_file>
AV-unprocessed.smi

> <i_m_source_file_index>
1027

> <i_lp_mmshare_version>
43012

> <i_f3d_flags>
0

> <s_epik_input>
W0NIM11bQ0hdKFtDSDNdKVtDQEhdKFtDSDNdKVtOSF1DKD1PKVtOSF1jMW5uYyhzMSlbQ0hdMltDSDJdW0NIMl0y

> <s_epik_cmdline>
J2VwaWtfcHl0aG9uJywgJy1waCcsICc3LjAnLCAnLXRuJywgJzgnLCAnLW1hJywgJzIwMCcsICctbWV0YWxfYmluZGluZycsICctaW1hZScsICc8aW5maWxlLm1hZT4nLCAnLW9tYWUnLCAnPG91dGZpbGUubWFlPic=

> <r_lp_tautomer_probability>
1

> <r_epik_Ionization_Penalty>
0.000943246

> <r_epik_Ionization_Penalty_Charging>
0

> <r_epik_Ionization_Penalty_Neutral>
0.000943246

> <r_epik_State_Penalty>
-0

> <r_epik_Charging_Adjusted_Penalty>
0

> <i_epik_Tot_Q>
0

> <i_epik_Tot_abs_Q>
0

> <r_epik_Metal_State_Penalty>
0.281646

> <b_epik_Metal_Only>
0

> <s_lp_Force_Field>
OPLS_2005

> <r_lp_Energy>
3.72906

> <b_lp_Chiralities_Consistent>
1

> <s_lp_Variant>
AV-unprocessed.smi:1027-2

> <Gold.Version>
5.8.1

> <Gold.Id.Protein>
6NUR|6NUR_protein|mol2

> <Gold.PLP.Fitness>
34.8005

> <Gold.PLP.PLP>
-27.8627

> <Gold.PLP.part.hbond>
-3.0000

> <Gold.PLP.part.metal>
0.0000

> <Gold.PLP.part.buried>
-3.9324

> <Gold.PLP.part.nonpolar>
-21.1610

> <Gold.PLP.part.repulsive>
0.1599

> <Gold.PLP.ligand.clash>
0.0000

> <Gold.PLP.ligand.torsion>
0.6622

> <Gold.PLP.Chemscore.Hbond>
2.7040

> <Gold.PLP.Chemscore.CHOScore>
0.0000

> <Gold.PLP.Chemscore.Metal>
0.0000

> <Gold.Chemscore.Hbonds>
donor molecule, donor type, donor heavy atom, donor atom, acceptor molecule, acceptor atom, score
      P1  H  6896  6908       L1    11  1.00
      P1  H  6931  6943       L1     8  1.00
      P1  H  6934  6947       L1     8  0.49

> <Gold.PLP.Chemscore.Internal.Correction>
0.1502

> <Gold.Rescore>
     Score         DG    S(hbond)    S(metal)    S(lipo)     H(rot)  DE(clash)    DE(int)     intcor
     14.49     -17.19       2.41        0.00      61.78       1.39       0.00       2.70       ----

> <Gold.Chemscore.Fitness>
14.4907

> <Gold.Chemscore.DG>
-17.1922

> <Gold.Chemscore.ZeroCoef>
-5.4800

> <Gold.Chemscore.Hbond>
2.4071

> <Gold.Chemscore.Metal>
0.0000

> <Gold.Chemscore.Lipo>
61.7807

> <Gold.Chemscore.Internal_Hbond>
0.0000

> <Gold.Chemscore.DEClash>
0.0000

> <Gold.Chemscore.DEInternal>
2.7016

> <Gold.Chemscore.Rot>
1.3890

> <Gold.Chemscore.Internal.Correction>
   9.000000E+99

> <Gold.Chemscore.Hbonds>
donor molecule, donor type, donor heavy atom, donor atom, acceptor molecule, acceptor atom, score
      P1  H  6896  6908       L1    11  0.29
      P1  H  6931  6943       L1     8  0.97
      P1  H  6934  6947       L1     8  0.10

> <Gold.Chemscore.Hbond.Weighted>
-8.0397

> <Gold.Chemscore.Metal.Weighted>
-0.0000

> <Gold.Chemscore.Lipo.Weighted>
-7.2283

> <Gold.Chemscore.Internal_Hbond.Weighted>
0.0000

> <Gold.Chemscore.DEClash.Weighted>
0.0000

> <Gold.Chemscore.DEInternal.Weighted>
2.7016

> <Gold.Chemscore.Rot.Weighted>
3.5559

> <Gold.Chemscore.Internal.Correction.Weighted>
   9.000000E+99

> <Gold.Protein.RotatedTorsions>
[ 6907 6896 6895 6894 ] final -159.64 input  -60.11 | X-H torsion
[ 7974 7965 7964 7962 ] final  -92.38 input  175.53 | X-H torsion
[ 8008 7997 7996 7995 ] final -118.76 input   59.86 | X-H torsion
[ 10167 10162 10161 10158 ] final  174.24 input  -65.29 | X-H torsion
[ 10718 10713 10712 10709 ] final   12.45 input   66.30 | X-H torsion
[ 10763 10752 10751 10750 ] final   51.22 input  -60.55 | X-H torsion
[ 11005 11000 10999 10996 ] final -100.69 input  -57.11 | X-H torsion

> <Gold.Protein.ActiveResidues>
 VAL166  LYS551  ARG553  GLY616  TRP617  ASP618  TYR619  PRO620  LYS621  CYS622 
 ASP623  PHE694  ASN695  SER759  ASP760  ASP761  ALA762  ILE779  LEU786  VAL792 
 PHE793  MET794  SER795  GLU796  ALA797  LYS798  CYS799  TRP800  GLU811  SER814 

> <Gold.Protein.RotatedAtoms>
  151.3367  133.3978  159.2667 H   0  0  0  0  0  0  0  0  0  0  0  0  # atno 6907 bound_to 6896
  150.9911  134.9246  159.7910 H   0  0  0  0  0  0  0  0  0  0  0  0  # atno 6908 bound_to 6896
  152.5247  134.3332  159.9243 H   0  0  0  0  0  0  0  0  0  0  0  0  # atno 6909 bound_to 6896
  145.4005  140.9537  143.2290 H   0  0  0  0  0  0  0  0  0  0  0  0  # atno 7974 bound_to 7965
  155.1048  140.0396  157.2707 H   0  0  0  0  0  0  0  0  0  0  0  0  # atno 8008 bound_to 7997
  154.6730  140.2616  155.6962 H   0  0  0  0  0  0  0  0  0  0  0  0  # atno 8009 bound_to 7997
  156.2666  140.2794  156.1246 H   0  0  0  0  0  0  0  0  0  0  0  0  # atno 8010 bound_to 7997
  139.5135  144.3170  152.0239 H   0  0  0  0  0  0  0  0  0  0  0  0  # atno 10167 bound_to 10162
  157.0104  130.6115  149.5707 H   0  0  0  0  0  0  0  0  0  0  0  0  # atno 10718 bound_to 10713
  152.9785  135.5853  154.4380 H   0  0  0  0  0  0  0  0  0  0  0  0  # atno 10763 bound_to 10752
  154.3985  135.2768  155.2113 H   0  0  0  0  0  0  0  0  0  0  0  0  # atno 10764 bound_to 10752
  154.3954  135.6115  153.5921 H   0  0  0  0  0  0  0  0  0  0  0  0  # atno 10765 bound_to 10752
  141.1261  133.8418  157.1134 H   0  0  0  0  0  0  0  0  0  0  0  0  # atno 11005 bound_to 11000
  144.8377  139.5523  143.6914 LP  0  0  0  0  0  0  0  0  0  0  0  0  # atno 17320 bound_to 7965
  146.2754  139.6739  142.9267 LP  0  0  0  0  0  0  0  0  0  0  0  0  # atno 17321 bound_to 7965
  140.2612  144.4065  150.6185 LP  0  0  0  0  0  0  0  0  0  0  0  0  # atno 17342 bound_to 10162
  140.6155  143.2172  151.6799 LP  0  0  0  0  0  0  0  0  0  0  0  0  # atno 17343 bound_to 10162
  156.0138  130.5231  150.8072 LP  0  0  0  0  0  0  0  0  0  0  0  0  # atno 17370 bound_to 10713
  157.5325  131.0937  150.9936 LP  0  0  0  0  0  0  0  0  0  0  0  0  # atno 17371 bound_to 10713
  140.0261  134.9923  157.0688 LP  0  0  0  0  0  0  0  0  0  0  0  0  # atno 17394 bound_to 11000
  140.4361  134.1730  155.7171 LP  0  0  0  0  0  0  0  0  0  0  0  0  # atno 17395 bound_to 11000

$$$$
