#       Name:                AV-unprocessed.smi:2229
#       Creating user name   scv26
#       Creation time:       Fri Mar 27 12:23:45 2020


#       File generated by GOLD software.
#

@<TRIPOS>MOLECULE
AV-unprocessed.smi:2229
    49    50     1
SMALL
NO_CHARGES


@<TRIPOS>ATOM
      1 ****        -4.2889   1.7612   0.9080 C.3            1 S1                 0.0000
      2 ****        -2.7545   1.7535   0.8336 C.3            1 S1                 0.0000
      3 ****        -2.2777   2.5214  -0.4123 C.3            1 S1                 0.0000
      4 ****        -2.2149   0.3089   0.8752 C.3            1 S1                 0.0000
      5 ****        -0.7008   0.2139   1.1323 C.3            1 S1                 0.0000
      6 ****        -0.1602  -1.2262   1.0612 C.3            1 S1                 0.0000
      7 ****        -0.6605  -2.1617   2.1646 C.3            1 S1                 0.0000
      8 ****         0.3341  -3.3193   2.1368 C.3            1 S1                 0.0000
      9 ****         1.6858  -2.6711   1.8202 C.3            1 S1                 0.0000
     10 ****         1.3768  -1.3178   1.1507 C.3            1 S1                 0.0000
     11 ****         1.9779  -1.2333  -0.1772 N.am           1 S1                 0.0000
     12 ****         2.4606  -0.1126  -0.7348 C.2            1 S1                 0.0000
     13 ****         2.5470   0.9607  -0.1369 O.2            1 S1                 0.0000
     14 ****         2.9234  -0.2269  -2.1913 C.3            1 S1                 0.0000
     15 ****         2.5073   0.9217  -3.0006 N.am           1 S1                 0.0000
     16 ****         3.3950   1.8264  -3.5263 C.2            1 S1                 0.0000
     17 ****         2.7791   2.7298  -4.2008 N.2            1 S1                 0.0000
     18 ****         1.3851   2.4138  -4.1240 N.pl3          1 S1                -1.0000
     19 ****         1.2810   1.2946  -3.3738 C.2            1 S1                 0.0000
     20 ****         0.2631   0.6792  -3.0578 O.2            1 S1                 0.0000
     21 ****        -4.7293   1.2463   0.0535 H              1 S1                 0.0000
     22 ****        -4.6777   2.7798   0.9190 H              1 S1                 0.0000
     23 ****        -4.6426   1.2670   1.8133 H              1 S1                 0.0000
     24 ****        -2.3859   2.2798   1.7152 H              1 S1                 0.0000
     25 ****        -2.5720   2.0108  -1.3298 H              1 S1                 0.0000
     26 ****        -1.1945   2.6367  -0.4304 H              1 S1                 0.0000
     27 ****        -2.7044   3.5242  -0.4416 H              1 S1                 0.0000
     28 ****        -2.7312  -0.2406   1.6631 H              1 S1                 0.0000
     29 ****        -2.4639  -0.1975  -0.0583 H              1 S1                 0.0000
     30 ****        -0.1753   0.8091   0.3873 H              1 S1                 0.0000
     31 ****        -0.4600   0.6564   2.0995 H              1 S1                 0.0000
     32 ****        -0.4725  -1.6607   0.1092 H              1 S1                 0.0000
     33 ****        -0.6181  -1.6604   3.1327 H              1 S1                 0.0000
     34 ****        -1.6864  -2.4936   2.0021 H              1 S1                 0.0000
     35 ****         0.3476  -3.8831   3.0700 H              1 S1                 0.0000
     36 ****         0.0647  -4.0097   1.3365 H              1 S1                 0.0000
     37 ****         2.2425  -2.5020   2.7426 H              1 S1                 0.0000
     38 ****         2.2961  -3.3256   1.1961 H              1 S1                 0.0000
     39 ****         1.7585  -0.5280   1.8009 H              1 S1                 0.0000
     40 ****         1.9569  -2.0704  -0.7412 H              1 S1                 0.0000
     41 ****         4.0086  -0.3391  -2.2010 H              1 S1                 0.0000
     42 ****         2.5155  -1.1336  -2.6416 H              1 S1                 0.0000
     43 ****         4.4654   1.7171  -3.3445 H              1 S1                 0.0000
     44 ****         2.2487   1.0281   0.8152 LP             1 S1                 0.0000
     45 ****         2.9154   1.7648  -0.6035 LP             1 S1                 0.0000
     46 ****         3.1921   3.5017  -4.6842 LP             1 S1                 0.0000
     47 ****         0.6337   2.9227  -4.5441 LP             1 S1                 0.0000
     48 ****         0.3312  -0.1440  -2.4941 LP             1 S1                 0.0000
     49 ****        -0.6321   1.0024  -3.3647 LP             1 S1                 0.0000
@<TRIPOS>BOND
    1    1    2 1     
    2    1   21 1     
    3    1   22 1     
    4    1   23 1     
    5    2    3 1     
    6    2    4 1     
    7    2   24 1     
    8    3   25 1     
    9    3   26 1     
   10    3   27 1     
   11    4    5 1     
   12    4   28 1     
   13    4   29 1     
   14    5    6 1     
   15    5   30 1     
   16    5   31 1     
   17    6   10 1     
   18    6    7 1     
   19    6   32 1     
   20    7    8 1     
   21    7   33 1     
   22    7   34 1     
   23    8    9 1     
   24    8   35 1     
   25    8   36 1     
   26    9   10 1     
   27    9   37 1     
   28    9   38 1     
   29   10   11 1     
   30   10   39 1     
   31   11   12 am    
   32   11   40 1     
   33   12   13 2     
   34   12   14 1     
   35   14   15 1     
   36   14   41 1     
   37   14   42 1     
   38   15   19 am    
   39   15   16 1     
   40   16   17 2     
   41   16   43 1     
   42   17   18 1     
   43   18   19 1     
   44   19   20 2     
   45   13   44 1     
   46   13   45 1     
   47   17   46 1     
   48   18   47 1     
   49   20   48 1     
   50   20   49 1     
@<TRIPOS>SUBSTRUCTURE
      1 S1             1
@<TRIPOS>SET
LONE_PAIRS      STATIC     ATOMS    <user>   **** ""
6 44 45 46 47 48 49
DONOR_HYDROGENS      STATIC     ATOMS    <user>   **** ""
1 40
ATOM$BLUE        STATIC     ATOMS    COLORGROUP SYSTEM
6 44 45 46 47 48 49
ATOM$RED        STATIC     ATOMS    COLORGROUP SYSTEM
1 40
