AV-unprocessed.smi:38|AV-procd|sdf|341|dock3
  -GOLD-   2262016173D 1   1.00000     0.00000
 Structure written by MMmdl.
 28 29  0  0  0  0  0  0  0  0  1 V2000
  152.4296  139.9259  156.1142 O   0  0  0  0  0  0  0  0  0  0  0  0
  151.3550  139.8731  155.5192 C   0  0  0  0  0  0  0  0  0  0  0  0
  150.4918  140.9729  155.5286 N   0  0  0  0  0  0  0  0  0  0  0  0
  149.2501  141.0360  154.8934 C   0  0  0  0  0  0  0  0  0  0  0  0
  148.5822  142.0672  154.9560 O   0  0  0  0  0  0  0  0  0  0  0  0
  148.8272  139.8859  154.1903 N   0  0  0  0  0  0  0  0  0  0  0  0
  147.4904  139.8909  153.4848 C   0  0  1  0  0  0  0  0  0  0  0  0
  147.6645  139.6580  151.9834 C   0  0  0  0  0  0  0  0  0  0  0  0
  146.4740  138.7728  151.6800 C   0  0  1  0  0  0  0  0  0  0  0  0
  146.7076  137.9908  150.5264 O   0  0  0  0  0  0  0  0  0  0  0  0
  146.3760  137.9256  152.9515 C   0  0  2  0  0  0  0  0  0  0  0  0
  144.9735  137.3485  153.1961 C   0  0  0  0  0  0  0  0  0  0  0  0
  144.4503  136.8215  151.9957 O   0  0  0  0  0  0  0  0  0  0  0  0
  146.7061  138.8495  153.9887 O   0  0  0  0  0  0  0  0  0  0  0  0
  149.6572  138.7736  154.1450 C   0  0  0  0  0  0  0  0  0  0  0  0
  150.8617  138.7266  154.7619 C   0  0  0  0  0  0  0  0  0  0  0  0
  151.6113  137.6149  154.6717 F   0  0  0  0  0  0  0  0  0  0  0  0
  150.7941  141.7921  156.0352 H   0  0  0  0  0  0  0  0  0  0  0  0
  146.9821  140.8265  153.7226 H   0  0  0  0  0  0  0  0  0  0  0  0
  145.5776  139.3813  151.5502 H   0  0  0  0  0  0  0  0  0  0  0  0
  147.1269  137.1339  152.9198 H   0  0  0  0  0  0  0  0  0  0  0  0
  147.6712  140.5991  151.4327 H   0  0  0  0  0  0  0  0  0  0  0  0
  148.6007  139.1281  151.7971 H   0  0  0  0  0  0  0  0  0  0  0  0
  145.9095  137.9519  150.0215 H   0  0  0  0  0  0  0  0  0  0  0  0
  144.9883  136.5839  153.9735 H   0  0  0  0  0  0  0  0  0  0  0  0
  144.2968  138.1363  153.5282 H   0  0  0  0  0  0  0  0  0  0  0  0
  144.3328  137.5305  151.3822 H   0  0  0  0  0  0  0  0  0  0  0  0
  149.3432  137.9011  153.5925 H   0  0  0  0  0  0  0  0  0  0  0  0
  1  2  2  0  0  0  0
  2 16  1  0  0  0  0
  2  3  1  0  0  0  0
  3 18  1  0  0  0  0
  3  4  1  0  0  0  0
  4  5  2  0  0  0  0
  4  6  1  0  0  0  0
  6  7  1  0  0  0  0
  6 15  1  0  0  0  0
  7 19  1  0  0  0  0
  7 14  1  0  0  0  0
  7  8  1  0  0  0  0
  8  9  1  0  0  0  0
  8 22  1  0  0  0  0
  8 23  1  0  0  0  0
  9 20  1  0  0  0  0
  9 10  1  0  0  0  0
  9 11  1  0  0  0  0
 10 24  1  0  0  0  0
 11 21  1  0  0  0  0
 11 12  1  0  0  0  0
 11 14  1  0  0  0  0
 12 13  1  0  0  0  0
 12 25  1  0  0  0  0
 12 26  1  0  0  0  0
 13 27  1  0  0  0  0
 15 16  2  0  0  0  0
 15 28  1  0  0  0  0
 16 17  1  0  0  0  0
M  END
> <s_m_source_file>
AV-unprocessed.smi

> <i_m_source_file_index>
38

> <i_lp_mmshare_version>
43012

> <i_f3d_flags>
0

> <s_epik_input>
Tz1jMVtuSF1jKD1PKW4oW2NIXWMxRilbQ0BIXTJbQ0gyXVtDQEhdKFtPSF0pW0NASF0oTzIpW0NIMl1bT0hd

> <s_epik_cmdline>
J2VwaWtfcHl0aG9uJywgJy1waCcsICc3LjAnLCAnLXRuJywgJzgnLCAnLW1hJywgJzIwMCcsICctbWV0YWxfYmluZGluZycsICctaW1hZScsICc8aW5maWxlLm1hZT4nLCAnLW9tYWUnLCAnPG91dGZpbGUubWFlPic=

> <r_lp_tautomer_probability>
0.999537

> <r_epik_Ionization_Penalty>
0.0357432

> <r_epik_Ionization_Penalty_Charging>
0.0357431

> <r_epik_Ionization_Penalty_Neutral>
1.19946e-07

> <r_epik_State_Penalty>
0.0298169

> <r_epik_Charging_Adjusted_Penalty>
0.06556

> <i_epik_Tot_Q>
0

> <i_epik_Tot_abs_Q>
0

> <r_epik_Metal_State_Penalty>
2.348

> <b_epik_Metal_Only>
0

> <s_epik_Chemistry_Notes>
This compound contains an acetal/aminal-like group ( X-CH(R)-Y where X, Y are N, S, or O) that may be acid/base labile, releasing an aldehyde.

> <s_lp_Force_Field>
OPLS_2005

> <r_lp_Energy>
27.15

> <b_lp_Chiralities_Consistent>
1

> <s_lp_Variant>
AV-unprocessed.smi:38-7

> <Gold.Version>
5.8.1

> <Gold.Id.Protein>
6NUR|6NUR_protein|mol2

> <Gold.PLP.Fitness>
40.9988

> <Gold.PLP.PLP>
-26.5189

> <Gold.PLP.part.hbond>
-4.3655

> <Gold.PLP.part.metal>
0.0000

> <Gold.PLP.part.buried>
4.8087

> <Gold.PLP.part.nonpolar>
-28.4988

> <Gold.PLP.part.repulsive>
2.3720

> <Gold.PLP.ligand.clash>
0.0000

> <Gold.PLP.ligand.torsion>
0.1569

> <Gold.PLP.Chemscore.Hbond>
3.9280

> <Gold.PLP.Chemscore.CHOScore>
1.0000

> <Gold.PLP.Chemscore.Metal>
0.0000

> <Gold.Chemscore.Hbonds>
donor molecule, donor type, donor heavy atom, donor atom, acceptor molecule, acceptor atom, score
      L1  H    10    24       P1 10171  0.73
      L1  H    13    27       P1 10171  1.00
      P1  H  7954  7966       L1    10  0.99
      P1  H  7997  8008       L1     1  1.00
      L1  C    15    28       P1  7948  1.00

> <Gold.PLP.Chemscore.Internal.Correction>
0.0097

> <Gold.Rescore>
     Score         DG    S(hbond)    S(metal)    S(lipo)     H(rot)  DE(clash)    DE(int)     intcor
     13.90     -16.10       3.85        0.00      44.62       2.91       2.09       0.10       ----

> <Gold.Chemscore.Fitness>
13.9021

> <Gold.Chemscore.DG>
-16.0967

> <Gold.Chemscore.ZeroCoef>
-5.4800

> <Gold.Chemscore.Hbond>
3.8493

> <Gold.Chemscore.Metal>
0.0000

> <Gold.Chemscore.Lipo>
44.6165

> <Gold.Chemscore.Internal_Hbond>
0.0000

> <Gold.Chemscore.DEClash>
2.0903

> <Gold.Chemscore.DEInternal>
0.1043

> <Gold.Chemscore.Rot>
2.9141

> <Gold.Chemscore.Internal.Correction>
   9.000000E+99

> <Gold.Chemscore.Hbonds>
donor molecule, donor type, donor heavy atom, donor atom, acceptor molecule, acceptor atom, score
      L1  H    10    24       P1 10171  0.71
      L1  H    13    27       P1 10171  0.99
      P1  H  7954  7966       L1    10  0.90
      P1  H  7997  8008       L1     1  0.99

> <Gold.Chemscore.Hbond.Weighted>
-12.8566

> <Gold.Chemscore.Metal.Weighted>
-0.0000

> <Gold.Chemscore.Lipo.Weighted>
-5.2201

> <Gold.Chemscore.Internal_Hbond.Weighted>
0.0000

> <Gold.Chemscore.DEClash.Weighted>
2.0903

> <Gold.Chemscore.DEInternal.Weighted>
0.1043

> <Gold.Chemscore.Rot.Weighted>
7.4601

> <Gold.Chemscore.Internal.Correction.Weighted>
   9.000000E+99

> <Gold.Protein.RotatedTorsions>
[ 6907 6896 6895 6894 ] final -119.81 input  -60.11 | X-H torsion
[ 7974 7965 7964 7962 ] final   66.84 input  175.53 | X-H torsion
[ 8008 7997 7996 7995 ] final  -31.97 input   59.86 | X-H torsion
[ 10167 10162 10161 10158 ] final -165.47 input  -65.29 | X-H torsion
[ 10718 10713 10712 10709 ] final  141.33 input   66.30 | X-H torsion
[ 10763 10752 10751 10750 ] final   63.44 input  -60.55 | X-H torsion
[ 11005 11000 10999 10996 ] final   58.64 input  -57.11 | X-H torsion

> <Gold.Protein.ActiveResidues>
 VAL166  LYS551  ARG553  GLY616  TRP617  ASP618  TYR619  PRO620  LYS621  CYS622 
 ASP623  PHE694  ASN695  SER759  ASP760  ASP761  ALA762  ILE779  LEU786  VAL792 
 PHE793  MET794  SER795  GLU796  ALA797  LYS798  CYS799  TRP800  GLU811  SER814 

> <Gold.Protein.RotatedAtoms>
  150.8337  133.8048  159.3087 H   0  0  0  0  0  0  0  0  0  0  0  0  # atno 6907 bound_to 6896
  151.5770  135.1058  160.0018 H   0  0  0  0  0  0  0  0  0  0  0  0  # atno 6908 bound_to 6896
  152.4413  133.7412  159.6698 H   0  0  0  0  0  0  0  0  0  0  0  0  # atno 6909 bound_to 6896
  145.8218  139.3089  143.1039 H   0  0  0  0  0  0  0  0  0  0  0  0  # atno 7974 bound_to 7965
  154.4195  140.1750  156.1651 H   0  0  0  0  0  0  0  0  0  0  0  0  # atno 8008 bound_to 7997
  155.9806  140.3378  155.6635 H   0  0  0  0  0  0  0  0  0  0  0  0  # atno 8009 bound_to 7997
  155.6505  140.0690  157.2579 H   0  0  0  0  0  0  0  0  0  0  0  0  # atno 8010 bound_to 7997
  139.6180  144.0682  152.1906 H   0  0  0  0  0  0  0  0  0  0  0  0  # atno 10167 bound_to 10162
  157.3932  131.1007  151.0625 H   0  0  0  0  0  0  0  0  0  0  0  0  # atno 10718 bound_to 10713
  153.0018  135.5429  154.6352 H   0  0  0  0  0  0  0  0  0  0  0  0  # atno 10763 bound_to 10752
  154.5620  135.2834  155.0912 H   0  0  0  0  0  0  0  0  0  0  0  0  # atno 10764 bound_to 10752
  154.2111  135.6467  153.5168 H   0  0  0  0  0  0  0  0  0  0  0  0  # atno 10765 bound_to 10752
  140.0363  134.5939  155.9440 H   0  0  0  0  0  0  0  0  0  0  0  0  # atno 11005 bound_to 11000
  145.9666  140.8793  143.0183 LP  0  0  0  0  0  0  0  0  0  0  0  0  # atno 17320 bound_to 7965
  144.6747  140.1887  143.7398 LP  0  0  0  0  0  0  0  0  0  0  0  0  # atno 17321 bound_to 7965
  140.0316  144.6076  150.7483 LP  0  0  0  0  0  0  0  0  0  0  0  0  # atno 17342 bound_to 10162
  140.7363  143.2752  151.3765 LP  0  0  0  0  0  0  0  0  0  0  0  0  # atno 17343 bound_to 10162
  157.1651  130.6243  149.5623 LP  0  0  0  0  0  0  0  0  0  0  0  0  # atno 17370 bound_to 10713
  155.9804  130.4804  150.6768 LP  0  0  0  0  0  0  0  0  0  0  0  0  # atno 17371 bound_to 10713
  141.1859  133.6556  156.5216 LP  0  0  0  0  0  0  0  0  0  0  0  0  # atno 17394 bound_to 11000
  140.4143  134.7244  157.4854 LP  0  0  0  0  0  0  0  0  0  0  0  0  # atno 17395 bound_to 11000

$$$$
