AV-unprocessed.smi:1866|AV-procd|sdf|7558|dock6
  -GOLD-   22720 9273D 1   1.00000     0.00000
 Structure written by MMmdl.
 29 30  0  0  0  0  0  0  0  0  2 V2000
  146.5119  133.8891  162.4666 C   0  0  0  0  0  0  0  0  0  0  0  0
  147.1919  134.9848  161.7196 C   0  0  0  0  0  0  0  0  0  0  0  0
  147.4127  136.1904  162.2488 N   0  0  0  0  0  0  0  0  0  0  0  0
  148.0581  137.0404  161.3621 N   0  0  0  0  0  0  0  0  0  0  0  0
  148.3068  136.4708  160.1744 C   0  0  0  0  0  0  0  0  0  0  0  0
  148.9287  137.1239  159.1789 N   0  5  0  0  0  0  0  0  0  0  0  0
  149.6348  136.4336  158.2545 C   0  0  0  0  0  0  0  0  0  0  0  0
  149.5447  135.2268  158.0184 O   0  0  0  0  0  0  0  0  0  0  0  0
  150.5034  137.1904  157.5668 N   0  0  0  0  0  0  0  0  0  0  0  0
  151.3965  136.7472  156.4950 C   0  0  2  0  0  0  0  0  0  0  0  0
  152.3179  137.9257  156.1106 C   0  0  0  0  0  0  0  0  0  0  0  0
  151.5906  138.9849  155.2766 C   0  0  0  0  0  0  0  0  0  0  0  0
  151.0598  138.3540  153.9840 C   0  0  0  0  0  0  0  0  0  0  0  0
  150.4205  137.0594  154.2072 N   0  0  0  0  0  0  0  0  0  0  0  0
  150.5577  136.2676  155.2869 C   0  0  0  0  0  0  0  0  0  0  0  0
  150.0228  135.1612  155.3250 O   0  0  0  0  0  0  0  0  0  0  0  0
  147.7666  134.7949  160.0717 S   0  0  0  0  0  0  0  0  0  0  0  0
  145.4363  134.0645  162.4873 H   0  0  0  0  0  0  0  0  0  0  0  0
  146.8815  133.8448  163.4913 H   0  0  0  0  0  0  0  0  0  0  0  0
  146.7014  132.9289  161.9866 H   0  0  0  0  0  0  0  0  0  0  0  0
  150.5356  138.1716  157.8001 H   0  0  0  0  0  0  0  0  0  0  0  0
  152.0138  135.9208  156.8518 H   0  0  0  0  0  0  0  0  0  0  0  0
  152.7406  138.3809  157.0075 H   0  0  0  0  0  0  0  0  0  0  0  0
  153.1674  137.5462  155.5409 H   0  0  0  0  0  0  0  0  0  0  0  0
  150.7640  139.4053  155.8511 H   0  0  0  0  0  0  0  0  0  0  0  0
  152.2595  139.8136  155.0431 H   0  0  0  0  0  0  0  0  0  0  0  0
  150.3534  139.0261  153.4964 H   0  0  0  0  0  0  0  0  0  0  0  0
  151.8826  138.2006  153.2851 H   0  0  0  0  0  0  0  0  0  0  0  0
  149.8473  136.7087  153.4538 H   0  0  0  0  0  0  0  0  0  0  0  0
  1  2  1  0  0  0  0
  1 18  1  0  0  0  0
  1 19  1  0  0  0  0
  1 20  1  0  0  0  0
  2 17  1  0  0  0  0
  2  3  2  0  0  0  0
  3  4  1  0  0  0  0
  4  5  2  0  0  0  0
  5  6  1  0  0  0  0
  5 17  1  0  0  0  0
  6  7  1  0  0  0  0
  7  8  2  0  0  0  0
  7  9  1  0  0  0  0
  9 10  1  0  0  0  0
  9 21  1  0  0  0  0
 10 15  1  0  0  0  0
 10 11  1  0  0  0  0
 10 22  1  0  0  0  0
 11 12  1  0  0  0  0
 11 23  1  0  0  0  0
 11 24  1  0  0  0  0
 12 13  1  0  0  0  0
 12 25  1  0  0  0  0
 12 26  1  0  0  0  0
 13 14  1  0  0  0  0
 13 27  1  0  0  0  0
 13 28  1  0  0  0  0
 14 15  1  0  0  0  0
 14 29  1  0  0  0  0
 15 16  2  0  0  0  0
M  CHG  1   6  -1
M  END
> <s_m_source_file>
AV-unprocessed.smi

> <i_m_source_file_index>
1866

> <i_lp_mmshare_version>
43012

> <i_f3d_flags>
0

> <s_epik_input>
W0NIM11jMW5uYyhzMSlbTkhdQyg9TylbTkhdW0NAQEhdMltDSDJdW0NIMl1bQ0gyXVtOSF1DMj1P

> <s_epik_cmdline>
J2VwaWtfcHl0aG9uJywgJy1waCcsICc3LjAnLCAnLXRuJywgJzgnLCAnLW1hJywgJzIwMCcsICctbWV0YWxfYmluZGluZycsICctaW1hZScsICc8aW5maWxlLm1hZT4nLCAnLW9tYWUnLCAnPG91dGZpbGUubWFlPic=

> <r_lp_tautomer_probability>
1

> <r_epik_Ionization_Penalty>
3.97471

> <r_epik_Ionization_Penalty_Charging>
3.84029

> <r_epik_Ionization_Penalty_Neutral>
0.134427

> <r_epik_State_Penalty>
3.83938

> <r_epik_Charging_Adjusted_Penalty>
7.67966

> <i_epik_Tot_Q>
-1

> <i_epik_Tot_abs_Q>
1

> <r_epik_Metal_State_Penalty>
0.577306

> <b_epik_Metal_Only>
1

> <s_lp_Force_Field>
OPLS_2005

> <r_lp_Energy>
8.91555

> <b_lp_Chiralities_Consistent>
1

> <s_lp_Variant>
AV-unprocessed.smi:1866-3

> <Gold.Version>
5.8.1

> <Gold.Id.Protein>
6NUR|6NUR_protein|mol2

> <Gold.PLP.Fitness>
37.2520

> <Gold.PLP.PLP>
-26.5389

> <Gold.PLP.part.hbond>
-4.8973

> <Gold.PLP.part.metal>
0.0000

> <Gold.PLP.part.buried>
-4.8404

> <Gold.PLP.part.nonpolar>
-17.1255

> <Gold.PLP.part.repulsive>
0.2170

> <Gold.PLP.ligand.clash>
0.0000

> <Gold.PLP.ligand.torsion>
0.2491

> <Gold.PLP.Chemscore.Hbond>
3.7360

> <Gold.PLP.Chemscore.CHOScore>
0.0000

> <Gold.PLP.Chemscore.Metal>
0.0000

> <Gold.Chemscore.Hbonds>
donor molecule, donor type, donor heavy atom, donor atom, acceptor molecule, acceptor atom, score
      L1  H    14    29       P1  7948  1.00
      P1  H  6896  6907       L1     8  1.00
      P1  H  6931  6943       L1     4  1.00
      P1  H  6934  6947       L1     4  0.39

> <Gold.PLP.Chemscore.Internal.Correction>
0.0033

> <Gold.Rescore>
     Score         DG    S(hbond)    S(metal)    S(lipo)     H(rot)  DE(clash)    DE(int)     intcor
     13.45     -16.62       2.43        0.00      47.87       1.00       0.03       3.14       ----

> <Gold.Chemscore.Fitness>
13.4502

> <Gold.Chemscore.DG>
-16.6224

> <Gold.Chemscore.ZeroCoef>
-5.4800

> <Gold.Chemscore.Hbond>
2.4255

> <Gold.Chemscore.Metal>
0.0000

> <Gold.Chemscore.Lipo>
47.8748

> <Gold.Chemscore.Internal_Hbond>
0.0000

> <Gold.Chemscore.DEClash>
0.0308

> <Gold.Chemscore.DEInternal>
3.1414

> <Gold.Chemscore.Rot>
1.0000

> <Gold.Chemscore.Internal.Correction>
   9.000000E+99

> <Gold.Chemscore.Hbonds>
donor molecule, donor type, donor heavy atom, donor atom, acceptor molecule, acceptor atom, score
      L1  H    14    29       P1  7948  0.30
      P1  H  6896  6907       L1     8  0.24
      P1  H  6931  6943       L1     4  0.95
      P1  H  6934  6947       L1     4  0.23

> <Gold.Chemscore.Hbond.Weighted>
-8.1011

> <Gold.Chemscore.Metal.Weighted>
-0.0000

> <Gold.Chemscore.Lipo.Weighted>
-5.6013

> <Gold.Chemscore.Internal_Hbond.Weighted>
0.0000

> <Gold.Chemscore.DEClash.Weighted>
0.0308

> <Gold.Chemscore.DEInternal.Weighted>
3.1414

> <Gold.Chemscore.Rot.Weighted>
2.5600

> <Gold.Chemscore.Internal.Correction.Weighted>
   9.000000E+99

> <Gold.Protein.RotatedTorsions>
[ 6907 6896 6895 6894 ] final  -75.07 input  -60.11 | X-H torsion
[ 7974 7965 7964 7962 ] final  -60.76 input  175.53 | X-H torsion
[ 8008 7997 7996 7995 ] final  139.26 input   59.86 | X-H torsion
[ 10167 10162 10161 10158 ] final   32.51 input  -65.29 | X-H torsion
[ 10718 10713 10712 10709 ] final   -1.60 input   66.30 | X-H torsion
[ 10763 10752 10751 10750 ] final  -46.37 input  -60.55 | X-H torsion
[ 11005 11000 10999 10996 ] final  -42.15 input  -57.11 | X-H torsion

> <Gold.Protein.ActiveResidues>
 VAL166  LYS551  ARG553  GLY616  TRP617  ASP618  TYR619  PRO620  LYS621  CYS622 
 ASP623  PHE694  ASN695  SER759  ASP760  ASP761  ALA762  ILE779  LEU786  VAL792 
 PHE793  MET794  SER795  GLU796  ALA797  LYS798  CYS799  TRP800  GLU811  SER814 

> <Gold.Protein.RotatedAtoms>
  150.7071  134.4775  159.5454 H   0  0  0  0  0  0  0  0  0  0  0  0  # atno 6907 bound_to 6896
  152.2419  134.8217  160.0468 H   0  0  0  0  0  0  0  0  0  0  0  0  # atno 6908 bound_to 6896
  151.8995  133.3499  159.3863 H   0  0  0  0  0  0  0  0  0  0  0  0  # atno 6909 bound_to 6896
  145.8116  140.8595  143.0179 H   0  0  0  0  0  0  0  0  0  0  0  0  # atno 7974 bound_to 7965
  156.2991  140.2372  156.4208 H   0  0  0  0  0  0  0  0  0  0  0  0  # atno 8008 bound_to 7997
  154.8357  140.0431  157.1527 H   0  0  0  0  0  0  0  0  0  0  0  0  # atno 8009 bound_to 7997
  154.9158  140.2997  155.5245 H   0  0  0  0  0  0  0  0  0  0  0  0  # atno 8010 bound_to 7997
  140.4492  144.1073  150.6188 H   0  0  0  0  0  0  0  0  0  0  0  0  # atno 10167 bound_to 10162
  156.8032  130.5400  149.5719 H   0  0  0  0  0  0  0  0  0  0  0  0  # atno 10718 bound_to 10713
  154.0439  135.6640  153.4793 H   0  0  0  0  0  0  0  0  0  0  0  0  # atno 10763 bound_to 10752
  153.0491  135.5096  154.7816 H   0  0  0  0  0  0  0  0  0  0  0  0  # atno 10764 bound_to 10752
  154.6801  135.3043  154.9591 H   0  0  0  0  0  0  0  0  0  0  0  0  # atno 10765 bound_to 10752
  141.0295  133.6826  156.2554 H   0  0  0  0  0  0  0  0  0  0  0  0  # atno 11005 bound_to 11000
  144.6757  140.0404  143.7481 LP  0  0  0  0  0  0  0  0  0  0  0  0  # atno 17320 bound_to 7965
  145.9771  139.2913  143.1064 LP  0  0  0  0  0  0  0  0  0  0  0  0  # atno 17321 bound_to 7965
  140.4227  143.2604  151.9695 LP  0  0  0  0  0  0  0  0  0  0  0  0  # atno 17342 bound_to 10162
  139.4795  144.5816  151.7923 LP  0  0  0  0  0  0  0  0  0  0  0  0  # atno 17343 bound_to 10162
  156.1089  130.6025  151.0015 LP  0  0  0  0  0  0  0  0  0  0  0  0  # atno 17370 bound_to 10713
  157.6543  131.0892  150.7981 LP  0  0  0  0  0  0  0  0  0  0  0  0  # atno 17371 bound_to 10713
  140.6431  134.5145  157.5571 LP  0  0  0  0  0  0  0  0  0  0  0  0  # atno 17394 bound_to 11000
  139.9198  134.8171  156.1247 LP  0  0  0  0  0  0  0  0  0  0  0  0  # atno 17395 bound_to 11000

$$$$
