AV-unprocessed.smi:944|AV-procd|sdf|4231|dock2
  -GOLD-   22720 2143D 1   1.00000     0.00000
 Structure written by MMmdl.
 28 28  0  0  0  0  0  0  0  0  1 V2000
  150.9301  137.8875  154.3802 C   0  0  0  0  0  0  0  0  0  0  0  0
  150.0529  138.9288  154.8925 N   0  0  0  0  0  0  0  0  0  0  0  0
  150.4682  140.1446  155.2754 C   0  0  0  0  0  0  0  0  0  0  0  0
  151.6461  140.5019  155.2177 O   0  0  0  0  0  0  0  0  0  0  0  0
  149.3804  141.1052  155.7842 C   0  0  2  0  0  0  0  0  0  0  0  0
  148.4432  141.4288  154.6088 C   0  0  0  0  0  0  0  0  0  0  0  0
  149.9731  142.3594  156.2449 N   0  0  0  0  0  0  0  0  0  0  0  0
  151.0051  142.4648  157.0976 C   0  0  0  0  0  0  0  0  0  0  0  0
  151.5727  141.4955  157.6007 O   0  0  0  0  0  0  0  0  0  0  0  0
  151.4688  143.8825  157.4335 C   0  0  0  0  0  0  0  0  0  0  0  0
  151.6918  144.0347  158.8596 N   0  0  0  0  0  0  0  0  0  0  0  0
  152.1716  143.1739  159.7593 C   0  0  0  0  0  0  0  0  0  0  0  0
  152.2290  143.6627  160.9904 N   0  0  0  0  0  0  0  0  0  0  0  0
  151.7356  144.9162  160.7614 C   0  0  0  0  0  0  0  0  0  0  0  0
  151.3978  145.1905  159.5013 N   0  0  0  0  0  0  0  0  0  0  0  0
  150.3492  136.9971  154.1397 H   0  0  0  0  0  0  0  0  0  0  0  0
  151.6821  137.6142  155.1216 H   0  0  0  0  0  0  0  0  0  0  0  0
  151.4384  138.2185  153.4735 H   0  0  0  0  0  0  0  0  0  0  0  0
  149.0698  138.7109  154.9673 H   0  0  0  0  0  0  0  0  0  0  0  0
  148.8104  140.6407  156.5915 H   0  0  0  0  0  0  0  0  0  0  0  0
  147.9642  140.5277  154.2237 H   0  0  0  0  0  0  0  0  0  0  0  0
  148.9753  141.9024  153.7821 H   0  0  0  0  0  0  0  0  0  0  0  0
  147.6494  142.1084  154.9210 H   0  0  0  0  0  0  0  0  0  0  0  0
  149.5740  143.2116  155.8784 H   0  0  0  0  0  0  0  0  0  0  0  0
  152.3983  144.1062  156.9084 H   0  0  0  0  0  0  0  0  0  0  0  0
  150.7265  144.6089  157.0987 H   0  0  0  0  0  0  0  0  0  0  0  0
  152.4817  142.1699  159.5086 H   0  0  0  0  0  0  0  0  0  0  0  0
  151.6213  145.6484  161.5471 H   0  0  0  0  0  0  0  0  0  0  0  0
  1  2  1  0  0  0  0
  1 16  1  0  0  0  0
  1 17  1  0  0  0  0
  1 18  1  0  0  0  0
  2  3  1  0  0  0  0
  2 19  1  0  0  0  0
  3  4  2  0  0  0  0
  3  5  1  0  0  0  0
  5  6  1  0  0  0  0
  5  7  1  0  0  0  0
  5 20  1  0  0  0  0
  6 21  1  0  0  0  0
  6 22  1  0  0  0  0
  6 23  1  0  0  0  0
  7  8  1  0  0  0  0
  7 24  1  0  0  0  0
  8  9  2  0  0  0  0
  8 10  1  0  0  0  0
 10 11  1  0  0  0  0
 10 25  1  0  0  0  0
 10 26  1  0  0  0  0
 11 15  1  0  0  0  0
 11 12  1  0  0  0  0
 12 13  2  0  0  0  0
 12 27  1  0  0  0  0
 13 14  1  0  0  0  0
 14 15  2  0  0  0  0
 14 28  1  0  0  0  0
M  END
> <s_m_source_file>
AV-unprocessed.smi

> <i_m_source_file_index>
944

> <i_lp_mmshare_version>
43012

> <i_f3d_flags>
0

> <s_epik_input>
W0NIM11bTkhdQyg9TylbQ0BIXShbQ0gzXSlbTkhdQyg9TylbQ0gyXW4xW2NIXW5bY0hdbjE=

> <s_epik_cmdline>
J2VwaWtfcHl0aG9uJywgJy1waCcsICc3LjAnLCAnLXRuJywgJzgnLCAnLW1hJywgJzIwMCcsICctbWV0YWxfYmluZGluZycsICctaW1hZScsICc8aW5maWxlLm1hZT4nLCAnLW9tYWUnLCAnPG91dGZpbGUubWFlPic=

> <r_lp_tautomer_probability>
1

> <r_epik_Ionization_Penalty>
7.54354e-06

> <r_epik_Ionization_Penalty_Charging>
0

> <r_epik_Ionization_Penalty_Neutral>
7.54354e-06

> <r_epik_State_Penalty>
-0

> <r_epik_Charging_Adjusted_Penalty>
0

> <i_epik_Tot_Q>
0

> <i_epik_Tot_abs_Q>
0

> <r_epik_Metal_State_Penalty>
-0

> <b_epik_Metal_Only>
0

> <s_lp_Force_Field>
OPLS_2005

> <r_lp_Energy>
4.44665

> <b_lp_Chiralities_Consistent>
1

> <s_lp_Variant>
AV-unprocessed.smi:944-1

> <Gold.Version>
5.8.1

> <Gold.Id.Protein>
6NUR|6NUR_protein|mol2

> <Gold.PLP.Fitness>
36.5911

> <Gold.PLP.PLP>
-32.3110

> <Gold.PLP.part.hbond>
-2.0000

> <Gold.PLP.part.metal>
0.0000

> <Gold.PLP.part.buried>
-6.3864

> <Gold.PLP.part.nonpolar>
-25.3819

> <Gold.PLP.part.repulsive>
0.3821

> <Gold.PLP.ligand.clash>
0.0000

> <Gold.PLP.ligand.torsion>
0.6852

> <Gold.PLP.Chemscore.Hbond>
1.8800

> <Gold.PLP.Chemscore.CHOScore>
0.0000

> <Gold.PLP.Chemscore.Metal>
0.0000

> <Gold.Chemscore.Hbonds>
donor molecule, donor type, donor heavy atom, donor atom, acceptor molecule, acceptor atom, score
      L1  H     7    24       P1  8028  1.00
      P1  H  7989  7998       L1     4  0.68

> <Gold.PLP.Chemscore.Internal.Correction>
0.0105

> <Gold.Rescore>
     Score         DG    S(hbond)    S(metal)    S(lipo)     H(rot)  DE(clash)    DE(int)     intcor
      6.07      -8.25       1.92        0.00      28.86       2.74       0.24       1.94       ----

> <Gold.Chemscore.Fitness>
6.0697

> <Gold.Chemscore.DG>
-8.2474

> <Gold.Chemscore.ZeroCoef>
-5.4800

> <Gold.Chemscore.Hbond>
1.9197

> <Gold.Chemscore.Metal>
0.0000

> <Gold.Chemscore.Lipo>
28.8594

> <Gold.Chemscore.Internal_Hbond>
0.0000

> <Gold.Chemscore.DEClash>
0.2410

> <Gold.Chemscore.DEInternal>
1.9366

> <Gold.Chemscore.Rot>
2.7426

> <Gold.Chemscore.Internal.Correction>
   9.000000E+99

> <Gold.Chemscore.Hbonds>
donor molecule, donor type, donor heavy atom, donor atom, acceptor molecule, acceptor atom, score
      L1  H     7    24       P1  8028  1.00
      P1  H  7989  7998       L1     4  0.12

> <Gold.Chemscore.Hbond.Weighted>
-6.4118

> <Gold.Chemscore.Metal.Weighted>
-0.0000

> <Gold.Chemscore.Lipo.Weighted>
-3.3765

> <Gold.Chemscore.Internal_Hbond.Weighted>
0.0000

> <Gold.Chemscore.DEClash.Weighted>
0.2410

> <Gold.Chemscore.DEInternal.Weighted>
1.9366

> <Gold.Chemscore.Rot.Weighted>
7.0210

> <Gold.Chemscore.Internal.Correction.Weighted>
   9.000000E+99

> <Gold.Protein.RotatedTorsions>
[ 6907 6896 6895 6894 ] final  -51.63 input  -60.11 | X-H torsion
[ 7974 7965 7964 7962 ] final  104.01 input  175.53 | X-H torsion
[ 8008 7997 7996 7995 ] final  -87.64 input   59.86 | X-H torsion
[ 10167 10162 10161 10158 ] final -115.72 input  -65.29 | X-H torsion
[ 10718 10713 10712 10709 ] final -158.06 input   66.30 | X-H torsion
[ 10763 10752 10751 10750 ] final  -71.29 input  -60.55 | X-H torsion
[ 11005 11000 10999 10996 ] final   98.34 input  -57.11 | X-H torsion

> <Gold.Protein.ActiveResidues>
 VAL166  LYS551  ARG553  GLY616  TRP617  ASP618  TYR619  PRO620  LYS621  CYS622 
 ASP623  PHE694  ASN695  SER759  ASP760  ASP761  ALA762  ILE779  LEU786  VAL792 
 PHE793  MET794  SER795  GLU796  ALA797  LYS798  CYS799  TRP800  GLU811  SER814 

> <Gold.Protein.RotatedAtoms>
  150.8593  134.7941  159.7070 H   0  0  0  0  0  0  0  0  0  0  0  0  # atno 6907 bound_to 6896
  152.4635  134.5126  159.9768 H   0  0  0  0  0  0  0  0  0  0  0  0  # atno 6908 bound_to 6896
  151.5233  133.3424  159.2941 H   0  0  0  0  0  0  0  0  0  0  0  0  # atno 6909 bound_to 6896
  145.3384  139.2468  143.3623 H   0  0  0  0  0  0  0  0  0  0  0  0  # atno 7974 bound_to 7965
  154.6655  140.0563  157.0109 H   0  0  0  0  0  0  0  0  0  0  0  0  # atno 8008 bound_to 7997
  155.1165  140.3243  155.4489 H   0  0  0  0  0  0  0  0  0  0  0  0  # atno 8009 bound_to 7997
  156.2636  140.2005  156.6288 H   0  0  0  0  0  0  0  0  0  0  0  0  # atno 8010 bound_to 7997
  140.0871  143.4734  152.1892 H   0  0  0  0  0  0  0  0  0  0  0  0  # atno 10167 bound_to 10162
  156.5489  130.8596  151.2773 H   0  0  0  0  0  0  0  0  0  0  0  0  # atno 10718 bound_to 10713
  154.4296  135.5967  153.6060 H   0  0  0  0  0  0  0  0  0  0  0  0  # atno 10763 bound_to 10752
  152.9798  135.5972  154.3855 H   0  0  0  0  0  0  0  0  0  0  0  0  # atno 10764 bound_to 10752
  154.3691  135.2841  155.2255 H   0  0  0  0  0  0  0  0  0  0  0  0  # atno 10765 bound_to 10752
  139.8772  134.9044  156.4441 H   0  0  0  0  0  0  0  0  0  0  0  0  # atno 11005 bound_to 11000
  146.3017  140.3976  142.8701 LP  0  0  0  0  0  0  0  0  0  0  0  0  # atno 17320 bound_to 7965
  144.8809  140.7399  143.5987 LP  0  0  0  0  0  0  0  0  0  0  0  0  # atno 17321 bound_to 7965
  139.5746  144.7481  151.3799 LP  0  0  0  0  0  0  0  0  0  0  0  0  # atno 17342 bound_to 10162
  140.7048  143.7541  150.7463 LP  0  0  0  0  0  0  0  0  0  0  0  0  # atno 17343 bound_to 10162
  157.7391  130.9826  150.2294 LP  0  0  0  0  0  0  0  0  0  0  0  0  # atno 17370 bound_to 10713
  156.2902  130.3744  149.7849 LP  0  0  0  0  0  0  0  0  0  0  0  0  # atno 17371 bound_to 10713
  140.8978  133.7801  155.9645 LP  0  0  0  0  0  0  0  0  0  0  0  0  # atno 17394 bound_to 11000
  140.8684  134.2756  157.5202 LP  0  0  0  0  0  0  0  0  0  0  0  0  # atno 17395 bound_to 11000

$$$$
