#       Name:                AV-unprocessed.smi:3189
#       Creating user name   scv26
#       Creation time:       Fri Mar 27 18:03:03 2020


#       File generated by GOLD software.
#

@<TRIPOS>MOLECULE
AV-unprocessed.smi:3189
    33    34     1
SMALL
NO_CHARGES


@<TRIPOS>ATOM
      1 ****        -4.5517   1.6852   0.5275 C.3            1 S1                 0.0000
      2 ****        -3.7144   0.4415   0.2941 C.ar           1 S1                 0.0000
      3 ****        -4.4074  -0.6986   0.0809 N.ar           1 S1                 0.0000
      4 ****        -3.7113  -1.8353  -0.1255 C.ar           1 S1                 0.0000
      5 ****        -2.3045  -1.8912  -0.1359 C.ar           1 S1                 0.0000
      6 ****        -1.5757  -0.6958   0.0713 C.ar           1 S1                 0.0000
      7 ****        -0.1551  -0.6416   0.1024 N.am           1 S1                 0.0000
      8 ****         0.7369  -1.4739  -0.4698 C.2            1 S1                 0.0000
      9 ****         0.4443  -2.4355  -1.1776 O.2            1 S1                 0.0000
     10 ****         2.0193  -1.1244  -0.2673 N.am           1 S1                 0.0000
     11 ****         3.1907  -1.7993  -0.7414 C.3            1 S1                 0.0000
     12 ****         4.5131  -1.0843  -0.5711 C.3            1 S1                 0.0000
     13 ****         4.2138  -2.3070   0.2569 C.3            1 S1                 0.0000
     14 ****         3.9980  -2.1978   1.7536 C.3            1 S1                 0.0000
     15 ****        -2.3008   0.4961   0.3048 C.ar           1 S1                 0.0000
     16 ****        -1.4757   1.9924   0.5901 Cl             1 S1                 0.0000
     17 ****        -4.3362   2.4349  -0.2343 H              1 S1                 0.0000
     18 ****        -4.3307   2.1135   1.5057 H              1 S1                 0.0000
     19 ****        -5.6192   1.4636   0.4901 H              1 S1                 0.0000
     20 ****        -4.2941  -2.7312  -0.2804 H              1 S1                 0.0000
     21 ****        -1.8177  -2.8420  -0.2880 H              1 S1                 0.0000
     22 ****         0.2333   0.1701   0.5603 H              1 S1                 0.0000
     23 ****         2.1782  -0.2373   0.1883 H              1 S1                 0.0000
     24 ****         3.0946  -2.3614  -1.6693 H              1 S1                 0.0000
     25 ****         5.2461  -1.1871  -1.3687 H              1 S1                 0.0000
     26 ****         4.5084  -0.1186  -0.0684 H              1 S1                 0.0000
     27 ****         4.7310  -3.2190  -0.0348 H              1 S1                 0.0000
     28 ****         3.5598  -1.2354   2.0196 H              1 S1                 0.0000
     29 ****         4.9499  -2.2971   2.2755 H              1 S1                 0.0000
     30 ****         3.3310  -2.9904   2.0932 H              1 S1                 0.0000
     31 ****        -5.4074  -0.6997   0.0763 LP             1 S1                 0.0000
     32 ****        -0.5155  -2.6456  -1.3638 LP             1 S1                 0.0000
     33 ****         1.1661  -3.0077  -1.5671 LP             1 S1                 0.0000
@<TRIPOS>BOND
    1    1    2 1     
    2    1   17 1     
    3    1   18 1     
    4    1   19 1     
    5    2   15 ar    
    6    2    3 ar    
    7    3    4 ar    
    8    4    5 ar    
    9    4   20 1     
   10    5    6 ar    
   11    5   21 1     
   12    6    7 1     
   13    6   15 ar    
   14    7    8 am    
   15    7   22 1     
   16    8    9 2     
   17    8   10 am    
   18   10   11 1     
   19   10   23 1     
   20   11   13 1     
   21   11   12 1     
   22   11   24 1     
   23   12   13 1     
   24   12   25 1     
   25   12   26 1     
   26   13   14 1     
   27   13   27 1     
   28   14   28 1     
   29   14   29 1     
   30   14   30 1     
   31   15   16 1     
   32    3   31 1     
   33    9   32 1     
   34    9   33 1     
@<TRIPOS>SUBSTRUCTURE
      1 S1             1
@<TRIPOS>SET
LONE_PAIRS      STATIC     ATOMS    <user>   **** ""
3 31 32 33
DONOR_HYDROGENS      STATIC     ATOMS    <user>   **** ""
2 22 23
ATOM$BLUE        STATIC     ATOMS    COLORGROUP SYSTEM
3 31 32 33
ATOM$RED        STATIC     ATOMS    COLORGROUP SYSTEM
2 22 23
