#       Name:                AV-unprocessed.smi:275
#       Creating user name   scv26
#       Creation time:       Thu Mar 26 21:32:28 2020


#       File generated by GOLD software.
#

@<TRIPOS>MOLECULE
AV-unprocessed.smi:275
    73    77     1
SMALL
NO_CHARGES


@<TRIPOS>ATOM
      1 ****        -4.7064  -2.3662   0.3003 C.3            1 S1                 0.0000
      2 ****        -4.0072  -1.5974  -0.8332 C.3            1 S1                 0.0000
      3 ****        -3.2323  -2.6158  -1.6919 C.3            1 S1                 0.0000
      4 ****        -3.0867  -0.4538  -0.3312 C.3            1 S1                 0.0000
      5 ****        -2.6786   0.3250  -1.5038 N.3            1 S1                 0.0000
      6 ****        -1.2856   0.6393  -1.6315 C.ar           1 S1                 0.0000
      7 ****        -0.9269   1.8730  -2.0808 N.ar           1 S1                 0.0000
      8 ****         0.3541   2.2189  -2.2305 C.ar           1 S1                 0.0000
      9 ****         1.4443   1.4875  -2.0061 N.ar           1 S1                 0.0000
     10 ****         1.1099   0.2372  -1.5826 C.ar           1 S1                 0.0000
     11 ****        -0.2090  -0.2643  -1.3775 C.ar           1 S1                 0.0000
     12 ****        -0.1369  -1.5888  -0.9594 N.2            1 S1                 0.0000
     13 ****         1.1399  -1.8490  -0.9077 C.2            1 S1                 0.0000
     14 ****         1.9611  -0.8041  -1.2594 N.pl3          1 S1                 0.0000
     15 ****         3.4131  -0.8116  -1.2913 C.3            1 S1                 0.0000
     16 ****         4.0573   0.0316  -0.1623 C.3            1 S1                 0.0000
     17 ****         3.4738  -0.2882   1.2358 C.3            1 S1                 0.0000
     18 ****         3.7138  -1.6319   1.6011 O.3            1 S1                 0.0000
     19 ****         5.6033  -0.0685  -0.1906 C.3            1 S1                 0.0000
     20 ****         6.2476   0.3826  -1.4896 C.3            1 S1                 0.0000
     21 ****         7.6936   0.6167  -1.0663 C.3            1 S1                 0.0000
     22 ****         7.6298   1.0641   0.2828 O.3            1 S1                 0.0000
     23 ****         6.3248   0.8423   0.8086 C.3            1 S1                 0.0000
     24 ****        -3.5776   1.4193  -1.1581 C.3            1 S1                 0.0000
     25 ****        -3.5937   0.8894   0.2830 C.3            1 S1                 0.0000
     26 ****        -2.6115   1.6239   1.2282 C.3            1 S1                 0.0000
     27 ****        -2.5769   1.0546   2.6536 C.3            1 S1                 0.0000
     28 ****        -3.9641   1.1259   3.2950 C.3            1 S1                 0.0000
     29 ****        -4.9899   0.4083   2.4157 C.3            1 S1                 0.0000
     30 ****        -4.9749   0.9432   0.9681 C.3            1 S1                 0.0000
     31 ****        -4.0083  -2.6255   1.0967 H              1 S1                 0.0000
     32 ****        -5.1450  -3.2951  -0.0655 H              1 S1                 0.0000
     33 ****        -5.5303  -1.8018   0.7290 H              1 S1                 0.0000
     34 ****        -4.7944  -1.1814  -1.4641 H              1 S1                 0.0000
     35 ****        -2.4619  -3.1191  -1.1075 H              1 S1                 0.0000
     36 ****        -2.7482  -2.1445  -2.5473 H              1 S1                 0.0000
     37 ****        -3.8972  -3.3836  -2.0881 H              1 S1                 0.0000
     38 ****        -2.2503  -0.8299   0.2561 H              1 S1                 0.0000
     39 ****         0.5288   3.2250  -2.5820 H              1 S1                 0.0000
     40 ****         1.5195  -2.8141  -0.6047 H              1 S1                 0.0000
     41 ****         3.7528  -1.8463  -1.2277 H              1 S1                 0.0000
     42 ****         3.7238  -0.4449  -2.2700 H              1 S1                 0.0000
     43 ****         3.8017   1.0729  -0.3637 H              1 S1                 0.0000
     44 ****         3.9063   0.3624   1.9956 H              1 S1                 0.0000
     45 ****         2.3998  -0.1038   1.2643 H              1 S1                 0.0000
     46 ****         3.3487  -1.7791   2.4604 H              1 S1                 0.0000
     47 ****         5.9063  -1.0997  -0.0013 H              1 S1                 0.0000
     48 ****         6.1631  -0.3518  -2.2912 H              1 S1                 0.0000
     49 ****         5.8019   1.3174  -1.8334 H              1 S1                 0.0000
     50 ****         8.2549  -0.3182  -1.0953 H              1 S1                 0.0000
     51 ****         8.2041   1.3397  -1.7033 H              1 S1                 0.0000
     52 ****         5.8216   1.8070   0.8881 H              1 S1                 0.0000
     53 ****         6.3760   0.4062   1.8065 H              1 S1                 0.0000
     54 ****        -3.1951   2.4350  -1.2588 H              1 S1                 0.0000
     55 ****        -4.5381   1.3112  -1.6639 H              1 S1                 0.0000
     56 ****        -1.5966   1.5993   0.8338 H              1 S1                 0.0000
     57 ****        -2.8708   2.6824   1.2775 H              1 S1                 0.0000
     58 ****        -2.2301   0.0208   2.6307 H              1 S1                 0.0000
     59 ****        -1.8604   1.6101   3.2590 H              1 S1                 0.0000
     60 ****        -3.9431   0.6803   4.2900 H              1 S1                 0.0000
     61 ****        -4.2562   2.1687   3.4253 H              1 S1                 0.0000
     62 ****        -4.7655  -0.6558   2.4364 H              1 S1                 0.0000
     63 ****        -5.9872   0.5196   2.8421 H              1 S1                 0.0000
     64 ****        -5.3238   1.9766   0.9856 H              1 S1                 0.0000
     65 ****        -5.7182   0.4137   0.3733 H              1 S1                 0.0000
     66 ****        -2.7516  -0.0936  -2.4090 LP             1 S1                 0.0000
     67 ****        -1.6404   2.5370  -2.3044 LP             1 S1                 0.0000
     68 ****         2.3817   1.8126  -2.1316 LP             1 S1                 0.0000
     69 ****        -0.8953  -2.2045  -0.7459 LP             1 S1                 0.0000
     70 ****         4.6984  -1.8059   1.6186 LP             1 S1                 0.0000
     71 ****         3.2789  -2.2438   0.9405 LP             1 S1                 0.0000
     72 ****         7.8393   2.0413   0.3178 LP             1 S1                 0.0000
     73 ****         8.2976   0.5603   0.8307 LP             1 S1                 0.0000
@<TRIPOS>BOND
    1    1    2 1     
    2    1   31 1     
    3    1   32 1     
    4    1   33 1     
    5    2    3 1     
    6    2    4 1     
    7    2   34 1     
    8    3   35 1     
    9    3   36 1     
   10    3   37 1     
   11    4   25 1     
   12    4    5 1     
   13    4   38 1     
   14    5    6 1     
   15    5   24 1     
   16    6   11 ar    
   17    6    7 ar    
   18    7    8 ar    
   19    8    9 ar    
   20    8   39 1     
   21    9   10 ar    
   22   10   14 1     
   23   10   11 ar    
   24   11   12 1     
   25   12   13 2     
   26   13   14 1     
   27   13   40 1     
   28   14   15 1     
   29   15   16 1     
   30   15   41 1     
   31   15   42 1     
   32   16   17 1     
   33   16   19 1     
   34   16   43 1     
   35   17   18 1     
   36   17   44 1     
   37   17   45 1     
   38   18   46 1     
   39   19   23 1     
   40   19   20 1     
   41   19   47 1     
   42   20   21 1     
   43   20   48 1     
   44   20   49 1     
   45   21   22 1     
   46   21   50 1     
   47   21   51 1     
   48   22   23 1     
   49   23   52 1     
   50   23   53 1     
   51   24   25 1     
   52   24   54 1     
   53   24   55 1     
   54   25   30 1     
   55   25   26 1     
   56   26   27 1     
   57   26   56 1     
   58   26   57 1     
   59   27   28 1     
   60   27   58 1     
   61   27   59 1     
   62   28   29 1     
   63   28   60 1     
   64   28   61 1     
   65   29   30 1     
   66   29   62 1     
   67   29   63 1     
   68   30   64 1     
   69   30   65 1     
   70    5   66 1     
   71    7   67 1     
   72    9   68 1     
   73   12   69 1     
   74   18   70 1     
   75   18   71 1     
   76   22   72 1     
   77   22   73 1     
@<TRIPOS>SUBSTRUCTURE
      1 S1             1
@<TRIPOS>SET
LONE_PAIRS      STATIC     ATOMS    <user>   **** ""
8 66 67 68 69 70 71 72 73
DONOR_HYDROGENS      STATIC     ATOMS    <user>   **** ""
1 46
ATOM$BLUE        STATIC     ATOMS    COLORGROUP SYSTEM
8 66 67 68 69 70 71 72 73
ATOM$RED        STATIC     ATOMS    COLORGROUP SYSTEM
1 46
