AV-unprocessed.smi:1780|AV-procd|sdf|7184|dock4
  -GOLD-   22720 8423D 1   1.00000     0.00000
 Structure written by MMmdl.
 43 44  0  0  0  0  0  0  0  0  1 V2000
  143.8350  132.4808  149.1949 C   0  0  0  0  0  0  0  0  0  0  0  0
  143.4771  132.5392  150.6852 C   0  0  0  0  0  0  0  0  0  0  0  0
  143.9700  133.7506  151.3116 N   0  0  0  0  0  0  0  0  0  0  0  0
  145.2707  134.2098  151.3754 C   0  0  0  0  0  0  0  0  0  0  0  0
  145.2131  135.3865  152.0676 C   0  0  0  0  0  0  0  0  0  0  0  0
  146.2590  136.2778  152.4152 N   0  0  0  0  0  0  0  0  0  0  0  0
  146.2230  137.2593  153.3311 C   0  0  0  0  0  0  0  0  0  0  0  0
  145.2418  137.5574  154.0125 O   0  0  0  0  0  0  0  0  0  0  0  0
  147.4044  137.8862  153.4182 N   0  0  0  0  0  0  0  0  0  0  0  0
  147.7057  138.9886  154.3273 C   0  0  0  0  0  0  0  0  0  0  0  0
  149.1642  139.5205  154.2062 C   0  0  1  0  0  0  0  0  0  0  0  0
  149.1576  141.0588  154.3986 C   0  0  0  0  0  0  0  0  0  0  0  0
  150.1114  138.8335  155.1148 N   0  0  0  0  0  0  0  0  0  0  0  0
  149.9224  137.3782  155.1383 C   0  0  0  0  0  0  0  0  0  0  0  0
  150.9239  136.6606  156.0600 C   0  0  0  0  0  0  0  0  0  0  0  0
  152.2517  136.9740  155.6634 O   0  0  0  0  0  0  0  0  0  0  0  0
  152.5029  138.3719  155.7002 C   0  0  0  0  0  0  0  0  0  0  0  0
  151.5136  139.1002  154.7739 C   0  0  0  0  0  0  0  0  0  0  0  0
  143.8451  135.5784  152.3924 C   0  0  0  0  0  0  0  0  0  0  0  0
  143.1000  134.5838  151.9349 N   0  0  0  0  0  0  0  0  0  0  0  0
  143.4781  131.5534  148.7470 H   0  0  0  0  0  0  0  0  0  0  0  0
  144.9144  132.5286  149.0470 H   0  0  0  0  0  0  0  0  0  0  0  0
  143.3840  133.3089  148.6467 H   0  0  0  0  0  0  0  0  0  0  0  0
  142.3956  132.4900  150.8194 H   0  0  0  0  0  0  0  0  0  0  0  0
  143.9007  131.6800  151.2064 H   0  0  0  0  0  0  0  0  0  0  0  0
  146.0928  133.6688  150.9307 H   0  0  0  0  0  0  0  0  0  0  0  0
  147.1284  136.1503  151.9184 H   0  0  0  0  0  0  0  0  0  0  0  0
  148.1545  137.5749  152.8186 H   0  0  0  0  0  0  0  0  0  0  0  0
  146.9999  139.7947  154.1243 H   0  0  0  0  0  0  0  0  0  0  0  0
  147.4847  138.6315  155.3324 H   0  0  0  0  0  0  0  0  0  0  0  0
  149.4913  139.3326  153.1824 H   0  0  0  0  0  0  0  0  0  0  0  0
  148.4292  141.5559  153.7591 H   0  0  0  0  0  0  0  0  0  0  0  0
  150.1130  141.5120  154.1386 H   0  0  0  0  0  0  0  0  0  0  0  0
  148.9255  141.3267  155.4298 H   0  0  0  0  0  0  0  0  0  0  0  0
  148.9275  137.1232  155.4974 H   0  0  0  0  0  0  0  0  0  0  0  0
  150.0084  136.9771  154.1271 H   0  0  0  0  0  0  0  0  0  0  0  0
  150.7678  136.9508  157.1003 H   0  0  0  0  0  0  0  0  0  0  0  0
  150.7822  135.5812  156.0050 H   0  0  0  0  0  0  0  0  0  0  0  0
  152.4163  138.7393  156.7239 H   0  0  0  0  0  0  0  0  0  0  0  0
  153.5280  138.5575  155.3795 H   0  0  0  0  0  0  0  0  0  0  0  0
  151.7049  138.8090  153.7400 H   0  0  0  0  0  0  0  0  0  0  0  0
  151.7324  140.1637  154.8493 H   0  0  0  0  0  0  0  0  0  0  0  0
  143.3774  136.3877  152.9336 H   0  0  0  0  0  0  0  0  0  0  0  0
  1  2  1  0  0  0  0
  1 21  1  0  0  0  0
  1 22  1  0  0  0  0
  1 23  1  0  0  0  0
  2  3  1  0  0  0  0
  2 24  1  0  0  0  0
  2 25  1  0  0  0  0
  3 20  1  0  0  0  0
  3  4  1  0  0  0  0
  4  5  2  0  0  0  0
  4 26  1  0  0  0  0
  5  6  1  0  0  0  0
  5 19  1  0  0  0  0
  6  7  1  0  0  0  0
  6 27  1  0  0  0  0
  7  8  2  0  0  0  0
  7  9  1  0  0  0  0
  9 10  1  0  0  0  0
  9 28  1  0  0  0  0
 10 11  1  0  0  0  0
 10 29  1  0  0  0  0
 10 30  1  0  0  0  0
 11 12  1  0  0  0  0
 11 13  1  0  0  0  0
 11 31  1  0  0  0  0
 12 32  1  0  0  0  0
 12 33  1  0  0  0  0
 12 34  1  0  0  0  0
 13 18  1  0  0  0  0
 13 14  1  0  0  0  0
 14 15  1  0  0  0  0
 14 35  1  0  0  0  0
 14 36  1  0  0  0  0
 15 16  1  0  0  0  0
 15 37  1  0  0  0  0
 15 38  1  0  0  0  0
 16 17  1  0  0  0  0
 17 18  1  0  0  0  0
 17 39  1  0  0  0  0
 17 40  1  0  0  0  0
 18 41  1  0  0  0  0
 18 42  1  0  0  0  0
 19 20  2  0  0  0  0
 19 43  1  0  0  0  0
M  END
> <s_m_source_file>
AV-unprocessed.smi

> <i_m_source_file_index>
1780

> <i_lp_mmshare_version>
43012

> <i_f3d_flags>
0

> <s_epik_input>
W0NIM11bQ0gyXW4xW2NIXWMoW2NIXW4xKVtOSF1DKD1PKVtOSF1bQ0gyXVtDQEhdKFtDSDNdKU4yW0NIMl1bQ0gyXU9bQ0gyXVtDSDJdMg==

> <s_epik_cmdline>
J2VwaWtfcHl0aG9uJywgJy1waCcsICc3LjAnLCAnLXRuJywgJzgnLCAnLW1hJywgJzIwMCcsICctbWV0YWxfYmluZGluZycsICctaW1hZScsICc8aW5maWxlLm1hZT4nLCAnLW9tYWUnLCAnPG91dGZpbGUubWFlPic=

> <r_lp_tautomer_probability>
1

> <r_epik_Ionization_Penalty>
0.242902

> <r_epik_Ionization_Penalty_Charging>
0

> <r_epik_Ionization_Penalty_Neutral>
0.242902

> <r_epik_State_Penalty>
0.233765

> <r_epik_Charging_Adjusted_Penalty>
0.233765

> <i_epik_Tot_Q>
0

> <i_epik_Tot_abs_Q>
0

> <r_epik_Metal_State_Penalty>
0.233759

> <b_epik_Metal_Only>
0

> <s_lp_Force_Field>
OPLS_2005

> <r_lp_Energy>
31.4714

> <b_lp_Chiralities_Consistent>
1

> <s_lp_Variant>
AV-unprocessed.smi:1780-2

> <Gold.Version>
5.8.1

> <Gold.Id.Protein>
6NUR|6NUR_protein|mol2

> <Gold.PLP.Fitness>
40.1241

> <Gold.PLP.PLP>
-32.8993

> <Gold.PLP.part.hbond>
-3.0000

> <Gold.PLP.part.metal>
0.0000

> <Gold.PLP.part.buried>
-4.6341

> <Gold.PLP.part.nonpolar>
-26.9023

> <Gold.PLP.part.repulsive>
0.4853

> <Gold.PLP.ligand.clash>
0.0000

> <Gold.PLP.ligand.torsion>
0.6793

> <Gold.PLP.Chemscore.Hbond>
2.8400

> <Gold.PLP.Chemscore.CHOScore>
0.0000

> <Gold.PLP.Chemscore.Metal>
0.0000

> <Gold.Chemscore.Hbonds>
donor molecule, donor type, donor heavy atom, donor atom, acceptor molecule, acceptor atom, score
      L1  H     6    27       P1  7948  1.00
      L1  H     9    28       P1  7948  1.00
      P1  H 10752 10764       L1    16  0.91

> <Gold.PLP.Chemscore.Internal.Correction>
0.0635

> <Gold.Rescore>
     Score         DG    S(hbond)    S(metal)    S(lipo)     H(rot)  DE(clash)    DE(int)     intcor
     17.50     -19.64       2.86        0.00      74.68       1.61       0.08       2.06       ----

> <Gold.Chemscore.Fitness>
17.4961

> <Gold.Chemscore.DG>
-19.6397

> <Gold.Chemscore.ZeroCoef>
-5.4800

> <Gold.Chemscore.Hbond>
2.8586

> <Gold.Chemscore.Metal>
0.0000

> <Gold.Chemscore.Lipo>
74.6833

> <Gold.Chemscore.Internal_Hbond>
0.0000

> <Gold.Chemscore.DEClash>
0.0789

> <Gold.Chemscore.DEInternal>
2.0647

> <Gold.Chemscore.Rot>
1.6117

> <Gold.Chemscore.Internal.Correction>
   9.000000E+99

> <Gold.Chemscore.Hbonds>
donor molecule, donor type, donor heavy atom, donor atom, acceptor molecule, acceptor atom, score
      L1  H     6    27       P1  7948  0.96
      L1  H     9    28       P1  7948  0.94
      P1  H 10752 10764       L1    16  0.70

> <Gold.Chemscore.Hbond.Weighted>
-9.5478

> <Gold.Chemscore.Metal.Weighted>
-0.0000

> <Gold.Chemscore.Lipo.Weighted>
-8.7379

> <Gold.Chemscore.Internal_Hbond.Weighted>
0.0000

> <Gold.Chemscore.DEClash.Weighted>
0.0789

> <Gold.Chemscore.DEInternal.Weighted>
2.0647

> <Gold.Chemscore.Rot.Weighted>
4.1260

> <Gold.Chemscore.Internal.Correction.Weighted>
   9.000000E+99

> <Gold.Protein.RotatedTorsions>
[ 6907 6896 6895 6894 ] final  -36.75 input  -60.11 | X-H torsion
[ 7974 7965 7964 7962 ] final  -68.53 input  175.53 | X-H torsion
[ 8008 7997 7996 7995 ] final  114.76 input   59.86 | X-H torsion
[ 10167 10162 10161 10158 ] final   68.37 input  -65.29 | X-H torsion
[ 10718 10713 10712 10709 ] final  122.33 input   66.30 | X-H torsion
[ 10763 10752 10751 10750 ] final  -43.99 input  -60.55 | X-H torsion
[ 11005 11000 10999 10996 ] final  -38.68 input  -57.11 | X-H torsion

> <Gold.Protein.ActiveResidues>
 VAL166  LYS551  ARG553  GLY616  TRP617  ASP618  TYR619  PRO620  LYS621  CYS622 
 ASP623  PHE694  ASN695  SER759  ASP760  ASP761  ALA762  ILE779  LEU786  VAL792 
 PHE793  MET794  SER795  GLU796  ALA797  LYS798  CYS799  TRP800  GLU811  SER814 

> <Gold.Protein.RotatedAtoms>
  151.0233  134.9485  159.8071 H   0  0  0  0  0  0  0  0  0  0  0  0  # atno 6907 bound_to 6896
  152.5330  134.2875  159.9040 H   0  0  0  0  0  0  0  0  0  0  0  0  # atno 6908 bound_to 6896
  151.2883  133.4135  159.2665 H   0  0  0  0  0  0  0  0  0  0  0  0  # atno 6909 bound_to 6896
  145.7153  140.9061  143.0659 H   0  0  0  0  0  0  0  0  0  0  0  0  # atno 7974 bound_to 7965
  156.2341  140.2952  156.0265 H   0  0  0  0  0  0  0  0  0  0  0  0  # atno 8008 bound_to 7997
  155.2142  140.0413  157.2955 H   0  0  0  0  0  0  0  0  0  0  0  0  # atno 8009 bound_to 7997
  154.6047  140.2436  155.7754 H   0  0  0  0  0  0  0  0  0  0  0  0  # atno 8010 bound_to 7997
  140.0794  144.5084  150.7172 H   0  0  0  0  0  0  0  0  0  0  0  0  # atno 10167 bound_to 10162
  157.5751  131.1080  150.8295 H   0  0  0  0  0  0  0  0  0  0  0  0  # atno 10718 bound_to 10713
  154.0047  135.6689  153.4761 H   0  0  0  0  0  0  0  0  0  0  0  0  # atno 10763 bound_to 10752
  153.0647  135.5008  154.8169 H   0  0  0  0  0  0  0  0  0  0  0  0  # atno 10764 bound_to 10752
  154.7032  135.3083  154.9274 H   0  0  0  0  0  0  0  0  0  0  0  0  # atno 10765 bound_to 10752
  141.0046  133.6938  156.2085 H   0  0  0  0  0  0  0  0  0  0  0  0  # atno 11005 bound_to 11000
  144.6931  139.9130  143.7464 LP  0  0  0  0  0  0  0  0  0  0  0  0  # atno 17320 bound_to 7965
  146.0675  139.3665  143.0543 LP  0  0  0  0  0  0  0  0  0  0  0  0  # atno 17321 bound_to 7965
  140.7085  143.2487  151.4652 LP  0  0  0  0  0  0  0  0  0  0  0  0  # atno 17342 bound_to 10162
  139.5789  144.1756  152.1941 LP  0  0  0  0  0  0  0  0  0  0  0  0  # atno 17343 bound_to 10162
  156.8756  130.5161  149.5294 LP  0  0  0  0  0  0  0  0  0  0  0  0  # atno 17370 bound_to 10713
  156.0795  130.5809  150.9537 LP  0  0  0  0  0  0  0  0  0  0  0  0  # atno 17371 bound_to 10713
  140.6834  134.4742  157.5589 LP  0  0  0  0  0  0  0  0  0  0  0  0  # atno 17394 bound_to 11000
  139.9056  134.8456  156.1719 LP  0  0  0  0  0  0  0  0  0  0  0  0  # atno 17395 bound_to 11000

$$$$
