AV-unprocessed.smi:1840|AV-procd|sdf|7492|dock2
  -GOLD-   22720 9193D 1   1.00000     0.00000
 Structure written by MMmdl.
 43 44  0  0  0  0  0  0  0  0  1 V2000
  147.8045  140.5452  153.6354 C   0  0  0  0  0  0  0  0  0  0  0  0
  148.5041  139.3641  154.3210 C   0  0  2  0  0  0  0  0  0  0  0  0
  150.0366  139.5533  154.3493 C   0  0  0  0  0  0  0  0  0  0  0  0
  150.4838  140.3253  155.4970 N   0  0  0  0  0  0  0  0  0  0  0  0
  150.1465  141.6162  155.8455 C   0  0  0  0  0  0  0  0  0  0  0  0
  150.7856  141.9002  157.0184 C   0  0  0  0  0  0  0  0  0  0  0  0
  151.5018  140.7061  157.3117 C   0  0  0  0  0  0  0  0  0  0  0  0
  151.3238  139.7671  156.3969 N   0  0  0  0  0  0  0  0  0  0  0  0
  148.1524  138.1272  153.6249 N   0  0  0  0  0  0  0  0  0  0  0  0
  147.1295  137.3219  153.9467 C   0  0  0  0  0  0  0  0  0  0  0  0
  146.2805  137.5858  154.7986 O   0  0  0  0  0  0  0  0  0  0  0  0
  147.1755  136.1697  153.2656 N   0  0  0  0  0  0  0  0  0  0  0  0
  146.2872  135.0262  153.4761 C   0  0  2  0  0  0  0  0  0  0  0  0
  147.0882  133.7684  153.8851 C   0  0  0  0  0  0  0  0  0  0  0  0
  147.9521  133.2325  152.7312 C   0  0  0  0  0  0  0  0  0  0  0  0
  147.0979  132.9553  151.4849 C   0  0  0  0  0  0  0  0  0  0  0  0
  146.3032  134.2011  151.0598 C   0  0  0  0  0  0  0  0  0  0  0  0
  145.4343  134.7452  152.2140 C   0  0  2  0  0  0  0  0  0  0  0  0
  144.6031  135.9620  151.7720 C   0  0  0  0  0  0  0  0  0  0  0  0
  148.0248  141.4814  154.1485 H   0  0  0  0  0  0  0  0  0  0  0  0
  146.7216  140.4160  153.6390 H   0  0  0  0  0  0  0  0  0  0  0  0
  148.1251  140.6507  152.5984 H   0  0  0  0  0  0  0  0  0  0  0  0
  148.1409  139.3278  155.3497 H   0  0  0  0  0  0  0  0  0  0  0  0
  150.5419  138.5857  154.3506 H   0  0  0  0  0  0  0  0  0  0  0  0
  150.3655  140.0730  153.4488 H   0  0  0  0  0  0  0  0  0  0  0  0
  149.4794  142.2138  155.2418 H   0  0  0  0  0  0  0  0  0  0  0  0
  150.7442  142.8195  157.5834 H   0  0  0  0  0  0  0  0  0  0  0  0
  152.1406  140.4949  158.1567 H   0  0  0  0  0  0  0  0  0  0  0  0
  148.7910  137.8153  152.9079 H   0  0  0  0  0  0  0  0  0  0  0  0
  147.9160  136.0474  152.5904 H   0  0  0  0  0  0  0  0  0  0  0  0
  145.6072  135.2787  154.2919 H   0  0  0  0  0  0  0  0  0  0  0  0
  147.7160  133.9736  154.7532 H   0  0  0  0  0  0  0  0  0  0  0  0
  146.3922  132.9897  154.1993 H   0  0  0  0  0  0  0  0  0  0  0  0
  148.7346  133.9530  152.4895 H   0  0  0  0  0  0  0  0  0  0  0  0
  148.4615  132.3202  153.0428 H   0  0  0  0  0  0  0  0  0  0  0  0
  147.7349  132.6227  150.6647 H   0  0  0  0  0  0  0  0  0  0  0  0
  146.4077  132.1363  151.6914 H   0  0  0  0  0  0  0  0  0  0  0  0
  146.9934  134.9728  150.7165 H   0  0  0  0  0  0  0  0  0  0  0  0
  145.6725  133.9535  150.2054 H   0  0  0  0  0  0  0  0  0  0  0  0
  144.7230  133.9608  152.4779 H   0  0  0  0  0  0  0  0  0  0  0  0
  145.2354  136.7840  151.4355 H   0  0  0  0  0  0  0  0  0  0  0  0
  143.9832  136.3308  152.5897 H   0  0  0  0  0  0  0  0  0  0  0  0
  143.9379  135.7016  150.9481 H   0  0  0  0  0  0  0  0  0  0  0  0
  1  2  1  0  0  0  0
  1 20  1  0  0  0  0
  1 21  1  0  0  0  0
  1 22  1  0  0  0  0
  2  3  1  0  0  0  0
  2  9  1  0  0  0  0
  2 23  1  0  0  0  0
  3  4  1  0  0  0  0
  3 24  1  0  0  0  0
  3 25  1  0  0  0  0
  4  8  1  0  0  0  0
  4  5  1  0  0  0  0
  5  6  2  0  0  0  0
  5 26  1  0  0  0  0
  6  7  1  0  0  0  0
  6 27  1  0  0  0  0
  7  8  2  0  0  0  0
  7 28  1  0  0  0  0
  9 10  1  0  0  0  0
  9 29  1  0  0  0  0
 10 11  2  0  0  0  0
 10 12  1  0  0  0  0
 12 13  1  0  0  0  0
 12 30  1  0  0  0  0
 13 18  1  0  0  0  0
 13 14  1  0  0  0  0
 13 31  1  0  0  0  0
 14 15  1  0  0  0  0
 14 32  1  0  0  0  0
 14 33  1  0  0  0  0
 15 16  1  0  0  0  0
 15 34  1  0  0  0  0
 15 35  1  0  0  0  0
 16 17  1  0  0  0  0
 16 36  1  0  0  0  0
 16 37  1  0  0  0  0
 17 18  1  0  0  0  0
 17 38  1  0  0  0  0
 17 39  1  0  0  0  0
 18 19  1  0  0  0  0
 18 40  1  0  0  0  0
 19 41  1  0  0  0  0
 19 42  1  0  0  0  0
 19 43  1  0  0  0  0
M  END
> <s_m_source_file>
AV-unprocessed.smi

> <i_m_source_file_index>
1840

> <i_lp_mmshare_version>
43012

> <i_f3d_flags>
0

> <s_epik_input>
bjFbY0hdW2NIXVtjSF1uMVtDSDJdW0NAQEhdKFtDSDNdKVtOSF1DKD1PKVtOSF1bQ0BASF0yW0NIMl1bQ0gyXVtDSDJdW0NIMl1bQ0BIXTJbQ0gzXQ==

> <s_epik_cmdline>
J2VwaWtfcHl0aG9uJywgJy1waCcsICc3LjAnLCAnLXRuJywgJzgnLCAnLW1hJywgJzIwMCcsICctbWV0YWxfYmluZGluZycsICctaW1hZScsICc8aW5maWxlLm1hZT4nLCAnLW9tYWUnLCAnPG91dGZpbGUubWFlPic=

> <r_lp_tautomer_probability>
1

> <r_epik_Ionization_Penalty>
7.38659e-05

> <r_epik_Ionization_Penalty_Charging>
0

> <r_epik_Ionization_Penalty_Neutral>
7.38659e-05

> <r_epik_State_Penalty>
-0

> <r_epik_Charging_Adjusted_Penalty>
0

> <i_epik_Tot_Q>
0

> <i_epik_Tot_abs_Q>
0

> <r_epik_Metal_State_Penalty>
-0

> <b_epik_Metal_Only>
0

> <s_lp_Force_Field>
OPLS_2005

> <r_lp_Energy>
6.60397

> <b_lp_Chiralities_Consistent>
1

> <s_lp_Variant>
AV-unprocessed.smi:1840-5

> <Gold.Version>
5.8.1

> <Gold.Id.Protein>
6NUR|6NUR_protein|mol2

> <Gold.PLP.Fitness>
36.9814

> <Gold.PLP.PLP>
-29.8933

> <Gold.PLP.part.hbond>
-1.9899

> <Gold.PLP.part.metal>
0.0000

> <Gold.PLP.part.buried>
-2.7323

> <Gold.PLP.part.nonpolar>
-25.7928

> <Gold.PLP.part.repulsive>
0.0672

> <Gold.PLP.ligand.clash>
0.0000

> <Gold.PLP.ligand.torsion>
0.6800

> <Gold.PLP.Chemscore.Hbond>
1.8406

> <Gold.PLP.Chemscore.CHOScore>
0.9701

> <Gold.PLP.Chemscore.Metal>
0.0000

> <Gold.Chemscore.Hbonds>
donor molecule, donor type, donor heavy atom, donor atom, acceptor molecule, acceptor atom, score
      L1  H     9    29       P1  7948  0.72
      L1  H    12    30       P1  7948  0.36
      L1  C     5    26       P1  8028  0.75

> <Gold.PLP.Chemscore.Internal.Correction>
0.0159

> <Gold.Rescore>
     Score         DG    S(hbond)    S(metal)    S(lipo)     H(rot)  DE(clash)    DE(int)     intcor
     14.97     -15.84       1.88        0.00      69.06       1.56       0.12       0.75       ----

> <Gold.Chemscore.Fitness>
14.9664

> <Gold.Chemscore.DG>
-15.8413

> <Gold.Chemscore.ZeroCoef>
-5.4800

> <Gold.Chemscore.Hbond>
1.8768

> <Gold.Chemscore.Metal>
0.0000

> <Gold.Chemscore.Lipo>
69.0627

> <Gold.Chemscore.Internal_Hbond>
0.0000

> <Gold.Chemscore.DEClash>
0.1244

> <Gold.Chemscore.DEInternal>
0.7505

> <Gold.Chemscore.Rot>
1.5576

> <Gold.Chemscore.Internal.Correction>
   9.000000E+99

> <Gold.Chemscore.Hbonds>
donor molecule, donor type, donor heavy atom, donor atom, acceptor molecule, acceptor atom, score
      L1  H     9    29       P1  7948  0.72
      L1  H    12    30       P1  7948  0.35

> <Gold.Chemscore.Hbond.Weighted>
-6.2684

> <Gold.Chemscore.Metal.Weighted>
-0.0000

> <Gold.Chemscore.Lipo.Weighted>
-8.0803

> <Gold.Chemscore.Internal_Hbond.Weighted>
0.0000

> <Gold.Chemscore.DEClash.Weighted>
0.1244

> <Gold.Chemscore.DEInternal.Weighted>
0.7505

> <Gold.Chemscore.Rot.Weighted>
3.9875

> <Gold.Chemscore.Internal.Correction.Weighted>
   9.000000E+99

> <Gold.Protein.RotatedTorsions>
[ 6907 6896 6895 6894 ] final  -92.92 input  -60.11 | X-H torsion
[ 7974 7965 7964 7962 ] final -159.05 input  175.53 | X-H torsion
[ 8008 7997 7996 7995 ] final -103.95 input   59.86 | X-H torsion
[ 10167 10162 10161 10158 ] final   95.59 input  -65.29 | X-H torsion
[ 10718 10713 10712 10709 ] final   73.57 input   66.30 | X-H torsion
[ 10763 10752 10751 10750 ] final  136.05 input  -60.55 | X-H torsion
[ 11005 11000 10999 10996 ] final  116.72 input  -57.11 | X-H torsion

> <Gold.Protein.ActiveResidues>
 VAL166  LYS551  ARG553  GLY616  TRP617  ASP618  TYR619  PRO620  LYS621  CYS622 
 ASP623  PHE694  ASN695  SER759  ASP760  ASP761  ALA762  ILE779  LEU786  VAL792 
 PHE793  MET794  SER795  GLU796  ALA797  LYS798  CYS799  TRP800  GLU811  SER814 

> <Gold.Protein.RotatedAtoms>
  150.6914  134.2047  159.4335 H   0  0  0  0  0  0  0  0  0  0  0  0  # atno 6907 bound_to 6896
  152.0012  134.9925  160.0574 H   0  0  0  0  0  0  0  0  0  0  0  0  # atno 6908 bound_to 6896
  152.1577  133.4527  159.4882 H   0  0  0  0  0  0  0  0  0  0  0  0  # atno 6909 bound_to 6896
  144.7481  140.3740  143.6069 H   0  0  0  0  0  0  0  0  0  0  0  0  # atno 7974 bound_to 7965
  154.8783  140.0420  157.1766 H   0  0  0  0  0  0  0  0  0  0  0  0  # atno 8008 bound_to 7997
  154.8666  140.2952  155.5485 H   0  0  0  0  0  0  0  0  0  0  0  0  # atno 8009 bound_to 7997
  156.2999  140.2437  156.3649 H   0  0  0  0  0  0  0  0  0  0  0  0  # atno 8010 bound_to 7997
  139.7974  144.6828  150.9810 H   0  0  0  0  0  0  0  0  0  0  0  0  # atno 10167 bound_to 10162
  157.6553  130.9635  150.1088 H   0  0  0  0  0  0  0  0  0  0  0  0  # atno 10718 bound_to 10713
  153.8502  135.3080  155.3432 H   0  0  0  0  0  0  0  0  0  0  0  0  # atno 10763 bound_to 10752
  154.7894  135.4791  154.0022 H   0  0  0  0  0  0  0  0  0  0  0  0  # atno 10764 bound_to 10752
  153.1523  135.6845  153.8957 H   0  0  0  0  0  0  0  0  0  0  0  0  # atno 10765 bound_to 10752
  139.9050  134.9601  156.7241 H   0  0  0  0  0  0  0  0  0  0  0  0  # atno 11005 bound_to 11000
  145.7047  139.1670  143.2573 LP  0  0  0  0  0  0  0  0  0  0  0  0  # atno 17320 bound_to 7965
  146.1390  140.7083  142.9376 LP  0  0  0  0  0  0  0  0  0  0  0  0  # atno 17321 bound_to 7965
  140.7820  143.4317  151.0685 LP  0  0  0  0  0  0  0  0  0  0  0  0  # atno 17342 bound_to 10162
  139.7990  143.8110  152.3161 LP  0  0  0  0  0  0  0  0  0  0  0  0  # atno 17343 bound_to 10162
  156.1990  130.3659  149.8812 LP  0  0  0  0  0  0  0  0  0  0  0  0  # atno 17370 bound_to 10713
  156.6721  130.8824  151.3563 LP  0  0  0  0  0  0  0  0  0  0  0  0  # atno 17371 bound_to 10713
  140.6977  133.9334  155.8005 LP  0  0  0  0  0  0  0  0  0  0  0  0  # atno 17394 bound_to 11000
  141.0394  134.0642  157.3920 LP  0  0  0  0  0  0  0  0  0  0  0  0  # atno 17395 bound_to 11000

$$$$
