AV-unprocessed.smi:2087|AV-procd|sdf|8525|dock1
  -GOLD-   2272011243D 1   1.00000     0.00000
 Structure written by MMmdl.
 50 51  0  0  0  0  0  0  0  0  1 V2000
  152.1284  144.1892  158.0219 C   0  0  0  0  0  0  0  0  0  0  0  0
  151.7925  143.0497  158.9991 C   0  0  0  0  0  0  0  0  0  0  0  0
  152.5281  143.1851  160.3436 C   0  0  0  0  0  0  0  0  0  0  0  0
  151.8919  141.6377  158.3698 C   0  0  0  0  0  0  0  0  0  0  0  0
  151.3192  141.4454  157.0333 N   0  0  0  0  0  0  0  0  0  0  0  0
  149.8660  141.5729  157.0765 C   0  0  0  0  0  0  0  0  0  0  0  0
  149.2267  141.3800  155.6925 C   0  0  0  0  0  0  0  0  0  0  0  0
  149.6051  140.1104  155.1756 O   0  0  0  0  0  0  0  0  0  0  0  0
  151.0169  139.9589  155.0513 C   0  0  2  0  0  0  0  0  0  0  0  0
  151.3205  138.5664  154.4726 C   0  0  0  0  0  0  0  0  0  0  0  0
  150.4097  137.5549  154.9986 N   0  0  0  0  0  0  0  0  0  0  0  0
  150.7755  136.4537  155.6720 C   0  0  0  0  0  0  0  0  0  0  0  0
  151.9479  136.1740  155.9269 O   0  0  0  0  0  0  0  0  0  0  0  0
  149.6313  135.5468  156.1453 C   0  0  0  0  0  0  0  0  0  0  0  0
  149.7205  134.1778  155.6194 N   0  0  0  0  0  0  0  0  0  0  0  0
  149.3139  133.9151  154.3235 C   0  0  0  0  0  0  0  0  0  0  0  0
  149.3537  132.6859  153.7649 C   0  0  0  0  0  0  0  0  0  0  0  0
  149.8438  131.5389  154.5187 C   0  0  0  0  0  0  0  0  0  0  0  0
  149.8894  130.3964  154.0599 O   0  0  0  0  0  0  0  0  0  0  0  0
  150.2620  131.8350  155.8364 N   0  0  0  0  0  0  0  0  0  0  0  0
  150.7424  130.7233  156.6308 C   0  0  0  0  0  0  0  0  0  0  0  0
  150.2059  133.1216  156.4215 C   0  0  0  0  0  0  0  0  0  0  0  0
  150.5571  133.3343  157.5843 O   0  0  0  0  0  0  0  0  0  0  0  0
  151.6607  140.1550  156.4393 C   0  0  0  0  0  0  0  0  0  0  0  0
  153.1825  144.1869  157.7435 H   0  0  0  0  0  0  0  0  0  0  0  0
  151.9087  145.1609  158.4650 H   0  0  0  0  0  0  0  0  0  0  0  0
  151.5414  144.1053  157.1069 H   0  0  0  0  0  0  0  0  0  0  0  0
  150.7379  143.1737  159.2500 H   0  0  0  0  0  0  0  0  0  0  0  0
  153.6107  143.1697  160.2358 H   0  0  0  0  0  0  0  0  0  0  0  0
  152.2498  142.3819  161.0265 H   0  0  0  0  0  0  0  0  0  0  0  0
  152.2690  144.1267  160.8287 H   0  0  0  0  0  0  0  0  0  0  0  0
  152.9285  141.2976  158.3842 H   0  0  0  0  0  0  0  0  0  0  0  0
  151.3650  140.9675  159.0507 H   0  0  0  0  0  0  0  0  0  0  0  0
  149.4506  140.8377  157.7678 H   0  0  0  0  0  0  0  0  0  0  0  0
  149.5908  142.5546  157.4637 H   0  0  0  0  0  0  0  0  0  0  0  0
  148.1401  141.4248  155.7667 H   0  0  0  0  0  0  0  0  0  0  0  0
  149.5361  142.1698  155.0063 H   0  0  0  0  0  0  0  0  0  0  0  0
  151.3990  140.7203  154.3683 H   0  0  0  0  0  0  0  0  0  0  0  0
  151.1932  138.5851  153.3898 H   0  0  0  0  0  0  0  0  0  0  0  0
  152.3611  138.2909  154.6541 H   0  0  0  0  0  0  0  0  0  0  0  0
  149.4240  137.7062  154.8412 H   0  0  0  0  0  0  0  0  0  0  0  0
  149.6448  135.5273  157.2358 H   0  0  0  0  0  0  0  0  0  0  0  0
  148.6718  135.9896  155.8715 H   0  0  0  0  0  0  0  0  0  0  0  0
  148.9392  134.7332  153.7255 H   0  0  0  0  0  0  0  0  0  0  0  0
  149.0165  132.5492  152.7479 H   0  0  0  0  0  0  0  0  0  0  0  0
  151.2546  131.0748  157.5259 H   0  0  0  0  0  0  0  0  0  0  0  0
  151.4520  130.1571  156.0248 H   0  0  0  0  0  0  0  0  0  0  0  0
  149.8714  130.1209  156.8931 H   0  0  0  0  0  0  0  0  0  0  0  0
  152.7387  140.0751  156.3197 H   0  0  0  0  0  0  0  0  0  0  0  0
  151.3527  139.3472  157.1050 H   0  0  0  0  0  0  0  0  0  0  0  0
  1  2  1  0  0  0  0
  1 25  1  0  0  0  0
  1 26  1  0  0  0  0
  1 27  1  0  0  0  0
  2  3  1  0  0  0  0
  2  4  1  0  0  0  0
  2 28  1  0  0  0  0
  3 29  1  0  0  0  0
  3 30  1  0  0  0  0
  3 31  1  0  0  0  0
  4  5  1  0  0  0  0
  4 32  1  0  0  0  0
  4 33  1  0  0  0  0
  5 24  1  0  0  0  0
  5  6  1  0  0  0  0
  6  7  1  0  0  0  0
  6 34  1  0  0  0  0
  6 35  1  0  0  0  0
  7  8  1  0  0  0  0
  7 36  1  0  0  0  0
  7 37  1  0  0  0  0
  8  9  1  0  0  0  0
  9 10  1  0  0  0  0
  9 24  1  0  0  0  0
  9 38  1  0  0  0  0
 10 11  1  0  0  0  0
 10 39  1  0  0  0  0
 10 40  1  0  0  0  0
 11 12  1  0  0  0  0
 11 41  1  0  0  0  0
 12 13  2  0  0  0  0
 12 14  1  0  0  0  0
 14 15  1  0  0  0  0
 14 42  1  0  0  0  0
 14 43  1  0  0  0  0
 15 22  1  0  0  0  0
 15 16  1  0  0  0  0
 16 17  2  0  0  0  0
 16 44  1  0  0  0  0
 17 18  1  0  0  0  0
 17 45  1  0  0  0  0
 18 19  2  0  0  0  0
 18 20  1  0  0  0  0
 20 21  1  0  0  0  0
 20 22  1  0  0  0  0
 21 46  1  0  0  0  0
 21 47  1  0  0  0  0
 21 48  1  0  0  0  0
 22 23  2  0  0  0  0
 24 49  1  0  0  0  0
 24 50  1  0  0  0  0
M  END
> <s_m_source_file>
AV-unprocessed.smi

> <i_m_source_file_index>
2087

> <i_lp_mmshare_version>
43012

> <i_f3d_flags>
0

> <s_epik_input>
W0NIM11bQ0hdKFtDSDNdKVtDSDJdTjFbQ0gyXVtDSDJdT1tDQEhdKFtDSDJdMSlbQ0gyXVtOSF1DKD1PKVtDSDJdbjJbY0hdW2NIXWMoPU8pbihbQ0gzXSljMj1P

> <s_epik_cmdline>
J2VwaWtfcHl0aG9uJywgJy1waCcsICc3LjAnLCAnLXRuJywgJzgnLCAnLW1hJywgJzIwMCcsICctbWV0YWxfYmluZGluZycsICctaW1hZScsICc8aW5maWxlLm1hZT4nLCAnLW9tYWUnLCAnPG91dGZpbGUubWFlPic=

> <r_lp_tautomer_probability>
1

> <r_epik_Ionization_Penalty>
1.11669

> <r_epik_Ionization_Penalty_Charging>
1.16423e-08

> <r_epik_Ionization_Penalty_Neutral>
1.11669

> <r_epik_State_Penalty>
1.17516

> <r_epik_Charging_Adjusted_Penalty>
1.17516

> <i_epik_Tot_Q>
0

> <i_epik_Tot_abs_Q>
0

> <r_epik_Metal_State_Penalty>
1.17513

> <b_epik_Metal_Only>
0

> <s_lp_Force_Field>
OPLS_2005

> <r_lp_Energy>
38.2596

> <b_lp_Chiralities_Consistent>
1

> <s_lp_Variant>
AV-unprocessed.smi:2087-6

> <Gold.Version>
5.8.1

> <Gold.Id.Protein>
6NUR|6NUR_protein|mol2

> <Gold.PLP.Fitness>
51.0020

> <Gold.PLP.PLP>
-43.0524

> <Gold.PLP.part.hbond>
-2.0000

> <Gold.PLP.part.metal>
0.0000

> <Gold.PLP.part.buried>
-3.9337

> <Gold.PLP.part.nonpolar>
-38.2204

> <Gold.PLP.part.repulsive>
0.2660

> <Gold.PLP.ligand.clash>
0.0000

> <Gold.PLP.ligand.torsion>
0.5988

> <Gold.PLP.Chemscore.Hbond>
2.0000

> <Gold.PLP.Chemscore.CHOScore>
1.0000

> <Gold.PLP.Chemscore.Metal>
0.0000

> <Gold.Chemscore.Hbonds>
donor molecule, donor type, donor heavy atom, donor atom, acceptor molecule, acceptor atom, score
      P1  H  6896  6907       L1    23  1.00
      P1  H 10752 10764       L1    13  0.99
      L1  C    16    44       P1  7948  1.00

> <Gold.PLP.Chemscore.Internal.Correction>
0.1472

> <Gold.Rescore>
     Score         DG    S(hbond)    S(metal)    S(lipo)     H(rot)  DE(clash)    DE(int)     intcor
     17.36     -17.81       1.99        0.00      95.87       2.16       0.13       0.32       ----

> <Gold.Chemscore.Fitness>
17.3633

> <Gold.Chemscore.DG>
-17.8111

> <Gold.Chemscore.ZeroCoef>
-5.4800

> <Gold.Chemscore.Hbond>
1.9920

> <Gold.Chemscore.Metal>
0.0000

> <Gold.Chemscore.Lipo>
95.8740

> <Gold.Chemscore.Internal_Hbond>
0.0000

> <Gold.Chemscore.DEClash>
0.1321

> <Gold.Chemscore.DEInternal>
0.3157

> <Gold.Chemscore.Rot>
2.1638

> <Gold.Chemscore.Internal.Correction>
   9.000000E+99

> <Gold.Chemscore.Hbonds>
donor molecule, donor type, donor heavy atom, donor atom, acceptor molecule, acceptor atom, score
      P1  H  6896  6907       L1    23  0.94
      P1  H 10752 10764       L1    13  0.92

> <Gold.Chemscore.Hbond.Weighted>
-6.6532

> <Gold.Chemscore.Metal.Weighted>
-0.0000

> <Gold.Chemscore.Lipo.Weighted>
-11.2173

> <Gold.Chemscore.Internal_Hbond.Weighted>
0.0000

> <Gold.Chemscore.DEClash.Weighted>
0.1321

> <Gold.Chemscore.DEInternal.Weighted>
0.3157

> <Gold.Chemscore.Rot.Weighted>
5.5393

> <Gold.Chemscore.Internal.Correction.Weighted>
   9.000000E+99

> <Gold.Protein.RotatedTorsions>
[ 6907 6896 6895 6894 ] final -137.59 input  -60.11 | X-H torsion
[ 7974 7965 7964 7962 ] final -128.51 input  175.53 | X-H torsion
[ 8008 7997 7996 7995 ] final   67.27 input   59.86 | X-H torsion
[ 10167 10162 10161 10158 ] final    7.17 input  -65.29 | X-H torsion
[ 10718 10713 10712 10709 ] final  -11.84 input   66.30 | X-H torsion
[ 10763 10752 10751 10750 ] final  -55.59 input  -60.55 | X-H torsion
[ 11005 11000 10999 10996 ] final -135.49 input  -57.11 | X-H torsion

> <Gold.Protein.ActiveResidues>
 VAL166  LYS551  ARG553  GLY616  TRP617  ASP618  TYR619  PRO620  LYS621  CYS622 
 ASP623  PHE694  ASN695  SER759  ASP760  ASP761  ALA762  ILE779  LEU786  VAL792 
 PHE793  MET794  SER795  GLU796  ALA797  LYS798  CYS799  TRP800  GLU811  SER814 

> <Gold.Protein.RotatedAtoms>
  151.0244  133.5847  159.2667 H   0  0  0  0  0  0  0  0  0  0  0  0  # atno 6907 bound_to 6896
  151.2952  135.0752  159.9228 H   0  0  0  0  0  0  0  0  0  0  0  0  # atno 6908 bound_to 6896
  152.5330  133.9935  159.7916 H   0  0  0  0  0  0  0  0  0  0  0  0  # atno 6909 bound_to 6896
  144.9663  140.7499  143.4698 H   0  0  0  0  0  0  0  0  0  0  0  0  # atno 7974 bound_to 7965
  155.6903  140.3496  155.4891 H   0  0  0  0  0  0  0  0  0  0  0  0  # atno 8008 bound_to 7997
  155.9530  140.1123  157.0983 H   0  0  0  0  0  0  0  0  0  0  0  0  # atno 8009 bound_to 7997
  154.4126  140.1190  156.5064 H   0  0  0  0  0  0  0  0  0  0  0  0  # atno 8010 bound_to 7997
  140.6387  143.7826  150.7396 H   0  0  0  0  0  0  0  0  0  0  0  0  # atno 10167 bound_to 10162
  156.6533  130.4961  149.6055 H   0  0  0  0  0  0  0  0  0  0  0  0  # atno 10718 bound_to 10713
  154.1932  135.6423  153.5066 H   0  0  0  0  0  0  0  0  0  0  0  0  # atno 10763 bound_to 10752
  153.0030  135.5433  154.6393 H   0  0  0  0  0  0  0  0  0  0  0  0  # atno 10764 bound_to 10752
  154.5787  135.2923  155.0727 H   0  0  0  0  0  0  0  0  0  0  0  0  # atno 10765 bound_to 10752
  140.8893  134.1832  157.4538 H   0  0  0  0  0  0  0  0  0  0  0  0  # atno 11005 bound_to 11000
  145.2625  139.1986  143.4884 LP  0  0  0  0  0  0  0  0  0  0  0  0  # atno 17320 bound_to 7965
  146.3369  140.2557  142.8600 LP  0  0  0  0  0  0  0  0  0  0  0  0  # atno 17321 bound_to 7965
  140.1453  143.4405  152.2167 LP  0  0  0  0  0  0  0  0  0  0  0  0  # atno 17342 bound_to 10162
  139.5596  144.7397  151.4193 LP  0  0  0  0  0  0  0  0  0  0  0  0  # atno 17343 bound_to 10162
  156.2068  130.6654  151.1226 LP  0  0  0  0  0  0  0  0  0  0  0  0  # atno 17370 bound_to 10713
  157.7134  131.0722  150.6418 LP  0  0  0  0  0  0  0  0  0  0  0  0  # atno 17371 bound_to 10713
  139.8728  134.9851  156.5270 LP  0  0  0  0  0  0  0  0  0  0  0  0  # atno 17394 bound_to 11000
  140.8366  133.8237  155.9035 LP  0  0  0  0  0  0  0  0  0  0  0  0  # atno 17395 bound_to 11000

$$$$
