AV-unprocessed.smi:1126|AV-procd|sdf|4839|dock7
  -GOLD-   22720 3403D 1   1.00000     0.00000
 Structure written by MMmdl.
 47 48  0  0  0  0  0  0  0  0  1 V2000
  152.0438  142.7565  158.2271 C   0  0  0  0  0  0  0  0  0  0  0  0
  151.5945  141.4407  158.4988 O   0  0  0  0  0  0  0  0  0  0  0  0
  150.6242  140.9940  157.5657 C   0  0  0  0  0  0  0  0  0  0  0  0
  151.2977  140.6018  156.2396 C   0  0  0  0  0  0  0  0  0  0  0  0
  150.3949  140.3766  155.1087 N   0  0  0  0  0  0  0  0  0  0  0  0
  149.3910  141.4348  154.9676 C   0  0  0  0  0  0  0  0  0  0  0  0
  148.4624  141.2183  153.7599 C   0  0  0  0  0  0  0  0  0  0  0  0
  147.7604  139.8469  153.8388 C   0  0  0  0  0  0  0  0  0  0  0  0
  146.8815  139.5517  152.6095 C   0  0  0  0  0  0  0  0  0  0  0  0
  145.9642  138.4487  152.8619 N   0  0  0  0  0  0  0  0  0  0  0  0
  145.7890  137.4015  152.0434 C   0  0  0  0  0  0  0  0  0  0  0  0
  146.4088  137.2521  150.9906 O   0  0  0  0  0  0  0  0  0  0  0  0
  144.7550  136.3621  152.4781 C   0  0  0  0  0  0  0  0  0  0  0  0
  144.9872  135.0875  151.8224 N   0  0  0  0  0  0  0  0  0  0  0  0
  144.1310  134.3746  151.0099 C   0  0  0  0  0  0  0  0  0  0  0  0
  144.7781  133.2321  150.6320 C   0  0  0  0  0  0  0  0  0  0  0  0
  144.2853  132.1214  149.7500 C   0  0  0  0  0  0  0  0  0  0  0  0
  146.0433  133.3402  151.2761 C   0  0  0  0  0  0  0  0  0  0  0  0
  146.1664  134.4496  151.9867 N   0  0  0  0  0  0  0  0  0  0  0  0
  148.8246  138.7533  154.0401 C   0  0  0  0  0  0  0  0  0  0  0  0
  149.7278  139.0812  155.2402 C   0  0  0  0  0  0  0  0  0  0  0  0
  152.7759  143.0554  158.9770 H   0  0  0  0  0  0  0  0  0  0  0  0
  151.2187  143.4692  158.2594 H   0  0  0  0  0  0  0  0  0  0  0  0
  152.5204  142.8162  157.2477 H   0  0  0  0  0  0  0  0  0  0  0  0
  150.0527  140.1551  157.9666 H   0  0  0  0  0  0  0  0  0  0  0  0
  149.9188  141.8056  157.3805 H   0  0  0  0  0  0  0  0  0  0  0  0
  151.9677  141.4211  155.9766 H   0  0  0  0  0  0  0  0  0  0  0  0
  151.9399  139.7332  156.3924 H   0  0  0  0  0  0  0  0  0  0  0  0
  148.7957  141.5051  155.8794 H   0  0  0  0  0  0  0  0  0  0  0  0
  149.8796  142.3995  154.8400 H   0  0  0  0  0  0  0  0  0  0  0  0
  147.7283  142.0235  153.7213 H   0  0  0  0  0  0  0  0  0  0  0  0
  149.0434  141.2847  152.8390 H   0  0  0  0  0  0  0  0  0  0  0  0
  147.1162  139.8492  154.7197 H   0  0  0  0  0  0  0  0  0  0  0  0
  146.3084  140.4386  152.3343 H   0  0  0  0  0  0  0  0  0  0  0  0
  147.5122  139.3018  151.7548 H   0  0  0  0  0  0  0  0  0  0  0  0
  145.4091  138.4944  153.7046 H   0  0  0  0  0  0  0  0  0  0  0  0
  144.8051  136.2144  153.5576 H   0  0  0  0  0  0  0  0  0  0  0  0
  143.7480  136.7149  152.2489 H   0  0  0  0  0  0  0  0  0  0  0  0
  143.1411  134.7357  150.7723 H   0  0  0  0  0  0  0  0  0  0  0  0
  144.5777  131.1433  150.1324 H   0  0  0  0  0  0  0  0  0  0  0  0
  144.6857  132.2047  148.7397 H   0  0  0  0  0  0  0  0  0  0  0  0
  143.1983  132.1213  149.6662 H   0  0  0  0  0  0  0  0  0  0  0  0
  146.8720  132.6482  151.2483 H   0  0  0  0  0  0  0  0  0  0  0  0
  148.3453  137.7862  154.1948 H   0  0  0  0  0  0  0  0  0  0  0  0
  149.4355  138.6572  153.1413 H   0  0  0  0  0  0  0  0  0  0  0  0
  150.4746  138.2925  155.3388 H   0  0  0  0  0  0  0  0  0  0  0  0
  149.1363  139.0605  156.1571 H   0  0  0  0  0  0  0  0  0  0  0  0
  1  2  1  0  0  0  0
  1 22  1  0  0  0  0
  1 23  1  0  0  0  0
  1 24  1  0  0  0  0
  2  3  1  0  0  0  0
  3  4  1  0  0  0  0
  3 25  1  0  0  0  0
  3 26  1  0  0  0  0
  4  5  1  0  0  0  0
  4 27  1  0  0  0  0
  4 28  1  0  0  0  0
  5 21  1  0  0  0  0
  5  6  1  0  0  0  0
  6  7  1  0  0  0  0
  6 29  1  0  0  0  0
  6 30  1  0  0  0  0
  7  8  1  0  0  0  0
  7 31  1  0  0  0  0
  7 32  1  0  0  0  0
  8  9  1  0  0  0  0
  8 20  1  0  0  0  0
  8 33  1  0  0  0  0
  9 10  1  0  0  0  0
  9 34  1  0  0  0  0
  9 35  1  0  0  0  0
 10 11  1  0  0  0  0
 10 36  1  0  0  0  0
 11 12  2  0  0  0  0
 11 13  1  0  0  0  0
 13 14  1  0  0  0  0
 13 37  1  0  0  0  0
 13 38  1  0  0  0  0
 14 19  1  0  0  0  0
 14 15  1  0  0  0  0
 15 16  2  0  0  0  0
 15 39  1  0  0  0  0
 16 17  1  0  0  0  0
 16 18  1  0  0  0  0
 17 40  1  0  0  0  0
 17 41  1  0  0  0  0
 17 42  1  0  0  0  0
 18 19  2  0  0  0  0
 18 43  1  0  0  0  0
 20 21  1  0  0  0  0
 20 44  1  0  0  0  0
 20 45  1  0  0  0  0
 21 46  1  0  0  0  0
 21 47  1  0  0  0  0
M  END
> <s_m_source_file>
AV-unprocessed.smi

> <i_m_source_file_index>
1126

> <i_lp_mmshare_version>
43012

> <i_f3d_flags>
0

> <s_epik_input>
W0NIM11PW0NIMl1bQ0gyXU4xW0NIMl1bQ0gyXVtDSF0oW0NIMl1bQ0gyXTEpW0NIMl1bTkhdQyg9TylbQ0gyXW4yW2NIXWMoW0NIM10pW2NIXW4y

> <s_epik_cmdline>
J2VwaWtfcHl0aG9uJywgJy1waCcsICc3LjAnLCAnLXRuJywgJzgnLCAnLW1hJywgJzIwMCcsICctbWV0YWxfYmluZGluZycsICctaW1hZScsICc8aW5maWxlLm1hZT4nLCAnLW9tYWUnLCAnPG91dGZpbGUubWFlPic=

> <r_lp_tautomer_probability>
1

> <r_epik_Ionization_Penalty>
2.42913

> <r_epik_Ionization_Penalty_Charging>
0

> <r_epik_Ionization_Penalty_Neutral>
2.42913

> <r_epik_State_Penalty>
2.58903

> <r_epik_Charging_Adjusted_Penalty>
2.58903

> <i_epik_Tot_Q>
0

> <i_epik_Tot_abs_Q>
0

> <r_epik_Metal_State_Penalty>
2.58902

> <b_epik_Metal_Only>
0

> <s_lp_Force_Field>
OPLS_2005

> <r_lp_Energy>
26.3674

> <b_lp_Chiralities_Consistent>
1

> <s_lp_Variant>
AV-unprocessed.smi:1126-3

> <Gold.Version>
5.8.1

> <Gold.Id.Protein>
6NUR|6NUR_protein|mol2

> <Gold.PLP.Fitness>
45.6625

> <Gold.PLP.PLP>
-36.0154

> <Gold.PLP.part.hbond>
-2.7605

> <Gold.PLP.part.metal>
0.0000

> <Gold.PLP.part.buried>
-0.4506

> <Gold.PLP.part.nonpolar>
-35.9179

> <Gold.PLP.part.repulsive>
3.6937

> <Gold.PLP.ligand.clash>
0.0000

> <Gold.PLP.ligand.torsion>
0.6564

> <Gold.PLP.Chemscore.Hbond>
1.9920

> <Gold.PLP.Chemscore.CHOScore>
1.6169

> <Gold.PLP.Chemscore.Metal>
0.0000

> <Gold.Chemscore.Hbonds>
donor molecule, donor type, donor heavy atom, donor atom, acceptor molecule, acceptor atom, score
      P1  H  7954  7966       L1    12  0.70
      P1  H  7989  7998       L1     5  0.82
      L1  C    15    39       P1 10186  0.97
      L1  C    18    43       P1 10747  0.01

> <Gold.PLP.Chemscore.Internal.Correction>
0.1331

> <Gold.Rescore>
     Score         DG    S(hbond)    S(metal)    S(lipo)     H(rot)  DE(clash)    DE(int)     intcor
     12.73     -15.33       1.06        0.00      98.25       2.03       1.90       0.70       ----

> <Gold.Chemscore.Fitness>
12.7302

> <Gold.Chemscore.DG>
-15.3347

> <Gold.Chemscore.ZeroCoef>
-5.4800

> <Gold.Chemscore.Hbond>
1.0620

> <Gold.Chemscore.Metal>
0.0000

> <Gold.Chemscore.Lipo>
98.2464

> <Gold.Chemscore.Internal_Hbond>
0.0000

> <Gold.Chemscore.DEClash>
1.9001

> <Gold.Chemscore.DEInternal>
0.7044

> <Gold.Chemscore.Rot>
2.0263

> <Gold.Chemscore.Internal.Correction>
   9.000000E+99

> <Gold.Chemscore.Hbonds>
donor molecule, donor type, donor heavy atom, donor atom, acceptor molecule, acceptor atom, score
      P1  H  7954  7966       L1    12  0.68
      P1  H  7989  7998       L1     5  0.05

> <Gold.Chemscore.Hbond.Weighted>
-3.5471

> <Gold.Chemscore.Metal.Weighted>
-0.0000

> <Gold.Chemscore.Lipo.Weighted>
-11.4948

> <Gold.Chemscore.Internal_Hbond.Weighted>
0.0000

> <Gold.Chemscore.DEClash.Weighted>
1.9001

> <Gold.Chemscore.DEInternal.Weighted>
0.7044

> <Gold.Chemscore.Rot.Weighted>
5.1872

> <Gold.Chemscore.Internal.Correction.Weighted>
   9.000000E+99

> <Gold.Protein.RotatedTorsions>
[ 6907 6896 6895 6894 ] final -179.03 input  -60.11 | X-H torsion
[ 7974 7965 7964 7962 ] final   -0.49 input  175.53 | X-H torsion
[ 8008 7997 7996 7995 ] final  137.41 input   59.86 | X-H torsion
[ 10167 10162 10161 10158 ] final    9.85 input  -65.29 | X-H torsion
[ 10718 10713 10712 10709 ] final   13.96 input   66.30 | X-H torsion
[ 10763 10752 10751 10750 ] final   -2.45 input  -60.55 | X-H torsion
[ 11005 11000 10999 10996 ] final    0.84 input  -57.11 | X-H torsion

> <Gold.Protein.ActiveResidues>
 VAL166  LYS551  ARG553  GLY616  TRP617  ASP618  TYR619  PRO620  LYS621  CYS622 
 ASP623  PHE694  ASN695  SER759  ASP760  ASP761  ALA762  ILE779  LEU786  VAL792 
 PHE793  MET794  SER795  GLU796  ALA797  LYS798  CYS799  TRP800  GLU811  SER814 

> <Gold.Protein.RotatedAtoms>
  151.6468  133.3323  159.3142 H   0  0  0  0  0  0  0  0  0  0  0  0  # atno 6907 bound_to 6896
  150.7980  134.7058  159.6585 H   0  0  0  0  0  0  0  0  0  0  0  0  # atno 6908 bound_to 6896
  152.4069  134.6195  160.0098 H   0  0  0  0  0  0  0  0  0  0  0  0  # atno 6909 bound_to 6896
  146.2427  140.1277  142.8338 H   0  0  0  0  0  0  0  0  0  0  0  0  # atno 7974 bound_to 7965
  156.3002  140.2420  156.3905 H   0  0  0  0  0  0  0  0  0  0  0  0  # atno 8008 bound_to 7997
  154.8618  140.0419  157.1690 H   0  0  0  0  0  0  0  0  0  0  0  0  # atno 8009 bound_to 7997
  154.8888  140.2960  155.5386 H   0  0  0  0  0  0  0  0  0  0  0  0  # atno 8010 bound_to 7997
  140.6230  143.8163  150.7198 H   0  0  0  0  0  0  0  0  0  0  0  0  # atno 10167 bound_to 10162
  157.0322  130.6197  149.5737 H   0  0  0  0  0  0  0  0  0  0  0  0  # atno 10718 bound_to 10713
  153.3582  135.6989  153.6734 H   0  0  0  0  0  0  0  0  0  0  0  0  # atno 10763 bound_to 10752
  153.5433  135.3568  155.2728 H   0  0  0  0  0  0  0  0  0  0  0  0  # atno 10764 bound_to 10752
  154.8664  135.4209  154.2833 H   0  0  0  0  0  0  0  0  0  0  0  0  # atno 10765 bound_to 10752
  140.6221  133.9652  155.8230 H   0  0  0  0  0  0  0  0  0  0  0  0  # atno 11005 bound_to 11000
  145.0353  140.8903  143.5085 LP  0  0  0  0  0  0  0  0  0  0  0  0  # atno 17320 bound_to 7965
  145.1348  139.2609  143.5521 LP  0  0  0  0  0  0  0  0  0  0  0  0  # atno 17321 bound_to 7965
  140.1757  143.4157  152.1969 LP  0  0  0  0  0  0  0  0  0  0  0  0  # atno 17342 bound_to 10162
  139.5455  144.7294  151.4597 LP  0  0  0  0  0  0  0  0  0  0  0  0  # atno 17343 bound_to 10162
  156.0065  130.5153  150.7848 LP  0  0  0  0  0  0  0  0  0  0  0  0  # atno 17370 bound_to 10713
  157.5168  131.0929  151.0128 LP  0  0  0  0  0  0  0  0  0  0  0  0  # atno 17371 bound_to 10713
  141.0735  134.0170  157.3492 LP  0  0  0  0  0  0  0  0  0  0  0  0  # atno 17394 bound_to 11000
  139.9149  135.0195  156.7841 LP  0  0  0  0  0  0  0  0  0  0  0  0  # atno 17395 bound_to 11000

$$$$
