AV-unprocessed.smi:17|AV-procd|sdf|101|dock1
  -GOLD-   2262015243D 1   1.00000     0.00000
 Structure written by MMmdl.
 57 59  0  0  0  0  0  0  0  0  1 V2000
  147.2250  136.3118  154.5164 C   0  0  0  0  0  0  0  0  0  0  0  0
  146.3897  137.2885  155.3564 C   0  0  0  0  0  0  0  0  0  0  0  0
  147.1836  137.9518  156.3951 N   0  0  0  0  0  0  0  0  0  0  0  0
  148.1819  138.7948  156.0138 C   0  0  0  0  0  0  0  0  0  0  0  0
  148.7174  138.6326  154.7747 N   0  0  0  0  0  0  0  0  0  0  0  0
  149.6902  139.4384  154.3422 C   0  0  0  0  0  0  0  0  0  0  0  0
  150.2763  140.4521  154.9787 N   0  0  0  0  0  0  0  0  0  0  0  0
  149.7625  140.6122  156.2309 C   0  0  0  0  0  0  0  0  0  0  0  0
  148.7247  139.8366  156.8250 C   0  0  0  0  0  0  0  0  0  0  0  0
  148.4915  140.2891  158.1201 N   0  0  0  0  0  0  0  0  0  0  0  0
  149.3263  141.2795  158.2742 C   0  0  0  0  0  0  0  0  0  0  0  0
  150.1318  141.5381  157.1902 N   0  0  0  0  0  0  0  0  0  0  0  0
  151.1497  142.5691  157.0964 C   0  0  0  0  0  0  0  0  0  0  0  0
  151.6210  143.0522  158.4940 C   0  0  2  0  0  0  0  0  0  0  0  0
  151.7101  144.5965  158.5052 C   0  0  0  0  0  0  0  0  0  0  0  0
  150.4737  145.2010  158.1882 O   0  0  0  0  0  0  0  0  0  0  0  0
  152.9518  142.3650  158.9042 C   0  0  1  0  0  0  0  0  0  0  0  0
  153.4068  142.6103  160.3326 C   0  0  0  0  0  0  0  0  0  0  0  0
  154.4013  141.4785  160.5558 C   0  0  0  0  0  0  0  0  0  0  0  0
  153.8927  140.3790  159.8121 O   0  0  0  0  0  0  0  0  0  0  0  0
  152.9011  140.8306  158.8944 C   0  0  0  0  0  0  0  0  0  0  0  0
  146.9649  137.6661  157.8176 C   0  0  2  0  0  0  0  0  0  0  0  0
  147.1997  136.1789  158.1298 C   0  0  0  0  0  0  0  0  0  0  0  0
  145.5830  138.1420  158.3157 C   0  0  0  0  0  0  0  0  0  0  0  0
  145.3732  137.9815  160.1488 S   0  0  0  0  0  0  0  0  0  0  0  0
  143.9239  136.8564  160.2927 C   0  0  0  0  0  0  0  0  0  0  0  0
  146.5429  137.2637  160.6771 O   0  0  0  0  0  0  0  0  0  0  0  0
  145.0002  139.2876  160.7139 O   0  0  0  0  0  0  0  0  0  0  0  0
  146.6023  135.8120  153.7745 H   0  0  0  0  0  0  0  0  0  0  0  0
  147.6808  135.5420  155.1395 H   0  0  0  0  0  0  0  0  0  0  0  0
  148.0242  136.8274  153.9831 H   0  0  0  0  0  0  0  0  0  0  0  0
  145.9169  138.0272  154.7091 H   0  0  0  0  0  0  0  0  0  0  0  0
  145.5714  136.7379  155.8183 H   0  0  0  0  0  0  0  0  0  0  0  0
  150.0508  139.2427  153.3431 H   0  0  0  0  0  0  0  0  0  0  0  0
  149.3857  141.8462  159.1922 H   0  0  0  0  0  0  0  0  0  0  0  0
  151.9788  142.1883  156.5001 H   0  0  0  0  0  0  0  0  0  0  0  0
  150.7360  143.3890  156.5079 H   0  0  0  0  0  0  0  0  0  0  0  0
  150.8639  142.7679  159.2277 H   0  0  0  0  0  0  0  0  0  0  0  0
  152.0622  144.9601  159.4711 H   0  0  0  0  0  0  0  0  0  0  0  0
  152.4234  144.9409  157.7557 H   0  0  0  0  0  0  0  0  0  0  0  0
  150.1229  144.7829  157.4165 H   0  0  0  0  0  0  0  0  0  0  0  0
  153.7484  142.6896  158.2326 H   0  0  0  0  0  0  0  0  0  0  0  0
  153.8600  143.5911  160.4785 H   0  0  0  0  0  0  0  0  0  0  0  0
  152.5682  142.5120  161.0238 H   0  0  0  0  0  0  0  0  0  0  0  0
  155.3795  141.7481  160.1558 H   0  0  0  0  0  0  0  0  0  0  0  0
  154.5220  141.2277  161.6099 H   0  0  0  0  0  0  0  0  0  0  0  0
  151.9308  140.4710  159.2393 H   0  0  0  0  0  0  0  0  0  0  0  0
  153.0804  140.4135  157.9036 H   0  0  0  0  0  0  0  0  0  0  0  0
  147.6881  138.2205  158.4116 H   0  0  0  0  0  0  0  0  0  0  0  0
  147.1279  135.9881  159.2007 H   0  0  0  0  0  0  0  0  0  0  0  0
  148.1918  135.8619  157.8073 H   0  0  0  0  0  0  0  0  0  0  0  0
  146.4682  135.5422  157.6321 H   0  0  0  0  0  0  0  0  0  0  0  0
  145.3538  139.1650  158.0200 H   0  0  0  0  0  0  0  0  0  0  0  0
  144.8135  137.5121  157.8686 H   0  0  0  0  0  0  0  0  0  0  0  0
  143.7631  136.6121  161.3424 H   0  0  0  0  0  0  0  0  0  0  0  0
  144.1141  135.9398  159.7356 H   0  0  0  0  0  0  0  0  0  0  0  0
  143.0323  137.3418  159.9028 H   0  0  0  0  0  0  0  0  0  0  0  0
  1  2  1  0  0  0  0
  1 29  1  0  0  0  0
  1 30  1  0  0  0  0
  1 31  1  0  0  0  0
  2  3  1  0  0  0  0
  2 32  1  0  0  0  0
  2 33  1  0  0  0  0
  3  4  1  0  0  0  0
  3 22  1  0  0  0  0
  4  9  1  0  0  0  0
  4  5  2  0  0  0  0
  5  6  1  0  0  0  0
  6  7  2  0  0  0  0
  6 34  1  0  0  0  0
  7  8  1  0  0  0  0
  8 12  1  0  0  0  0
  8  9  2  0  0  0  0
  9 10  1  0  0  0  0
 10 11  2  0  0  0  0
 11 12  1  0  0  0  0
 11 35  1  0  0  0  0
 12 13  1  0  0  0  0
 13 14  1  0  0  0  0
 13 36  1  0  0  0  0
 13 37  1  0  0  0  0
 14 15  1  0  0  0  0
 14 17  1  0  0  0  0
 14 38  1  0  0  0  0
 15 16  1  0  0  0  0
 15 39  1  0  0  0  0
 15 40  1  0  0  0  0
 16 41  1  0  0  0  0
 17 21  1  0  0  0  0
 17 18  1  0  0  0  0
 17 42  1  0  0  0  0
 18 19  1  0  0  0  0
 18 43  1  0  0  0  0
 18 44  1  0  0  0  0
 19 20  1  0  0  0  0
 19 45  1  0  0  0  0
 19 46  1  0  0  0  0
 20 21  1  0  0  0  0
 21 47  1  0  0  0  0
 21 48  1  0  0  0  0
 22 23  1  0  0  0  0
 22 24  1  0  0  0  0
 22 49  1  0  0  0  0
 23 50  1  0  0  0  0
 23 51  1  0  0  0  0
 23 52  1  0  0  0  0
 24 25  1  0  0  0  0
 24 53  1  0  0  0  0
 24 54  1  0  0  0  0
 25 26  1  0  0  0  0
 25 27  2  0  0  0  0
 25 28  2  0  0  0  0
 26 55  1  0  0  0  0
 26 56  1  0  0  0  0
 26 57  1  0  0  0  0
M  END
> <s_m_source_file>
AV-unprocessed.smi

> <i_m_source_file_index>
17

> <i_lp_mmshare_version>
43012

> <i_f3d_flags>
0

> <s_epik_input>
W0NIM11TKD1PKSg9TylbQ0gyXVtDQEBIXShbQ0gzXSlOKFtDSDJdW0NIM10pYyhuW2NIXW4xKWMoYzEyKW5bY0hdbjJbQ0gyXVtDQEhdKFtDSDJdW09IXSlbQ0BASF0zW0NIMl1bQ0gyXU9bQ0gyXTM=

> <s_epik_cmdline>
J2VwaWtfcHl0aG9uJywgJy1waCcsICc3LjAnLCAnLXRuJywgJzgnLCAnLW1hJywgJzIwMCcsICctbWV0YWxfYmluZGluZycsICctaW1hZScsICc8aW5maWxlLm1hZT4nLCAnLW9tYWUnLCAnPG91dGZpbGUubWFlPic=

> <r_lp_tautomer_probability>
1

> <r_epik_Ionization_Penalty>
0.00119955

> <r_epik_Ionization_Penalty_Charging>
0

> <r_epik_Ionization_Penalty_Neutral>
0.00119955

> <r_epik_State_Penalty>
0.000665399

> <r_epik_Charging_Adjusted_Penalty>
0.000665399

> <i_epik_Tot_Q>
0

> <i_epik_Tot_abs_Q>
0

> <r_epik_Metal_State_Penalty>
-0

> <b_epik_Metal_Only>
0

> <s_lp_Force_Field>
OPLS_2005

> <r_lp_Energy>
37.2201

> <b_lp_Chiralities_Consistent>
1

> <s_lp_Variant>
AV-unprocessed.smi:17-3

> <Gold.Version>
5.8.1

> <Gold.Id.Protein>
6NUR|6NUR_protein|mol2

> <Gold.PLP.Fitness>
45.7943

> <Gold.PLP.PLP>
-35.6609

> <Gold.PLP.part.hbond>
-5.8125

> <Gold.PLP.part.metal>
0.0000

> <Gold.PLP.part.buried>
-2.5099

> <Gold.PLP.part.nonpolar>
-27.5628

> <Gold.PLP.part.repulsive>
0.2048

> <Gold.PLP.ligand.clash>
0.0000

> <Gold.PLP.ligand.torsion>
1.2952

> <Gold.PLP.Chemscore.Hbond>
2.7476

> <Gold.PLP.Chemscore.CHOScore>
1.0000

> <Gold.PLP.Chemscore.Metal>
0.0000

> <Gold.Chemscore.Hbonds>
donor molecule, donor type, donor heavy atom, donor atom, acceptor molecule, acceptor atom, score
      L1  H    16    41       P1  8028  0.69
      P1  H  6934  6947       L1    27  0.05
      P1  H  7989  7998       L1     7  0.77
      L1  C     6    34       P1  7957  1.00

> <Gold.PLP.Chemscore.Internal.Correction>
1.4811

> <Gold.Rescore>
     Score         DG    S(hbond)    S(metal)    S(lipo)     H(rot)  DE(clash)    DE(int)     intcor
      6.37     -11.53       1.83        0.00      76.11       3.51       0.41       4.75       ----

> <Gold.Chemscore.Fitness>
6.3689

> <Gold.Chemscore.DG>
-11.5288

> <Gold.Chemscore.ZeroCoef>
-5.4800

> <Gold.Chemscore.Hbond>
1.8320

> <Gold.Chemscore.Metal>
0.0000

> <Gold.Chemscore.Lipo>
76.1111

> <Gold.Chemscore.Internal_Hbond>
0.0000

> <Gold.Chemscore.DEClash>
0.4110

> <Gold.Chemscore.DEInternal>
4.7490

> <Gold.Chemscore.Rot>
3.5059

> <Gold.Chemscore.Internal.Correction>
   9.000000E+99

> <Gold.Chemscore.Hbonds>
donor molecule, donor type, donor heavy atom, donor atom, acceptor molecule, acceptor atom, score
      L1  H    16    41       P1  8028  0.11
      P1  H  7989  7998       L1     7  0.10

> <Gold.Chemscore.Hbond.Weighted>
-6.1188

> <Gold.Chemscore.Metal.Weighted>
-0.0000

> <Gold.Chemscore.Lipo.Weighted>
-8.9050

> <Gold.Chemscore.Internal_Hbond.Weighted>
0.0000

> <Gold.Chemscore.DEClash.Weighted>
0.4110

> <Gold.Chemscore.DEInternal.Weighted>
4.7490

> <Gold.Chemscore.Rot.Weighted>
8.9750

> <Gold.Chemscore.Internal.Correction.Weighted>
   9.000000E+99

> <Gold.Protein.RotatedTorsions>
[ 6907 6896 6895 6894 ] final  130.19 input  -60.11 | X-H torsion
[ 7974 7965 7964 7962 ] final   98.95 input  175.53 | X-H torsion
[ 8008 7997 7996 7995 ] final  169.81 input   59.86 | X-H torsion
[ 10167 10162 10161 10158 ] final -115.42 input  -65.29 | X-H torsion
[ 10718 10713 10712 10709 ] final -115.71 input   66.30 | X-H torsion
[ 10763 10752 10751 10750 ] final  106.36 input  -60.55 | X-H torsion
[ 11005 11000 10999 10996 ] final  122.14 input  -57.11 | X-H torsion

> <Gold.Protein.ActiveResidues>
 VAL166  LYS551  ARG553  GLY616  TRP617  ASP618  TYR619  PRO620  LYS621  CYS622 
 ASP623  PHE694  ASN695  SER759  ASP760  ASP761  ALA762  ILE779  LEU786  VAL792 
 PHE793  MET794  SER795  GLU796  ALA797  LYS798  CYS799  TRP800  GLU811  SER814 

> <Gold.Protein.RotatedAtoms>
  152.3550  133.6226  159.5972 H   0  0  0  0  0  0  0  0  0  0  0  0  # atno 6907 bound_to 6896
  150.7563  133.9514  159.3496 H   0  0  0  0  0  0  0  0  0  0  0  0  # atno 6908 bound_to 6896
  151.7360  135.0865  160.0359 H   0  0  0  0  0  0  0  0  0  0  0  0  # atno 6909 bound_to 6896
  145.4053  139.2341  143.3278 H   0  0  0  0  0  0  0  0  0  0  0  0  # atno 7974 bound_to 7965
  156.1423  140.1554  156.8901 H   0  0  0  0  0  0  0  0  0  0  0  0  # atno 8008 bound_to 7997
  154.4998  140.0828  156.7812 H   0  0  0  0  0  0  0  0  0  0  0  0  # atno 8009 bound_to 7997
  155.4055  140.3416  155.4262 H   0  0  0  0  0  0  0  0  0  0  0  0  # atno 8010 bound_to 7997
  140.0903  143.4706  152.1874 H   0  0  0  0  0  0  0  0  0  0  0  0  # atno 10167 bound_to 10162
  156.0914  130.6096  150.8942 H   0  0  0  0  0  0  0  0  0  0  0  0  # atno 10718 bound_to 10713
  153.3919  135.3879  155.1929 H   0  0  0  0  0  0  0  0  0  0  0  0  # atno 10763 bound_to 10752
  154.8720  135.3750  154.4727 H   0  0  0  0  0  0  0  0  0  0  0  0  # atno 10764 bound_to 10752
  153.5214  135.7087  153.5791 H   0  0  0  0  0  0  0  0  0  0  0  0  # atno 10765 bound_to 10752
  139.9255  134.9640  156.8064 H   0  0  0  0  0  0  0  0  0  0  0  0  # atno 11005 bound_to 11000
  146.2732  140.4756  142.8806 LP  0  0  0  0  0  0  0  0  0  0  0  0  # atno 17320 bound_to 7965
  144.8346  140.6761  143.6269 LP  0  0  0  0  0  0  0  0  0  0  0  0  # atno 17321 bound_to 7965
  139.5729  144.7472  151.3843 LP  0  0  0  0  0  0  0  0  0  0  0  0  # atno 17342 bound_to 10162
  140.7032  143.7579  150.7438 LP  0  0  0  0  0  0  0  0  0  0  0  0  # atno 17343 bound_to 10162
  157.6064  131.0939  150.8871 LP  0  0  0  0  0  0  0  0  0  0  0  0  # atno 17370 bound_to 10713
  156.9019  130.5249  149.5282 LP  0  0  0  0  0  0  0  0  0  0  0  0  # atno 17371 bound_to 10713
  140.6348  133.9873  155.7679 LP  0  0  0  0  0  0  0  0  0  0  0  0  # atno 17394 bound_to 11000
  141.0810  134.0062  157.3386 LP  0  0  0  0  0  0  0  0  0  0  0  0  # atno 17395 bound_to 11000

$$$$
