AV-unprocessed.smi:489|AV-procd|sdf|2702|dock7
  -GOLD-   2262023143D 1   1.00000     0.00000
 Structure written by MMmdl.
 42 43  0  0  0  0  0  0  0  0  1 V2000
  151.5719  142.2237  157.7811 C   0  0  0  0  0  0  0  0  0  0  0  0
  151.7328  140.7782  157.3944 C   0  0  0  0  0  0  0  0  0  0  0  0
  151.4028  140.4604  156.1858 N   0  0  0  0  0  0  0  0  0  0  0  0
  151.5141  139.1620  155.7270 N   0  0  0  0  0  0  0  0  0  0  0  0
  151.1110  138.9853  154.3242 C   0  0  0  0  0  0  0  0  0  0  0  0
  149.6897  139.4989  154.0514 C   0  0  0  0  0  0  0  0  0  0  0  0
  149.3789  140.6368  154.4125 O   0  0  0  0  0  0  0  0  0  0  0  0
  148.8770  138.6226  153.4173 N   0  0  0  0  0  0  0  0  0  0  0  0
  147.5987  138.7443  152.9881 C   0  0  0  0  0  0  0  0  0  0  0  0
  146.9768  139.7907  153.1645 O   0  0  0  0  0  0  0  0  0  0  0  0
  147.0504  137.6756  152.3795 N   0  0  0  0  0  0  0  0  0  0  0  0
  145.6742  137.5887  151.8996 C   0  0  0  0  0  0  0  0  0  0  0  0
  144.6586  137.5467  153.0616 C   0  0  0  0  0  0  0  0  0  0  0  0
  143.7296  136.3669  152.7725 C   0  0  0  0  0  0  0  0  0  0  0  0
  144.5973  135.3893  151.9865 C   0  0  0  0  0  0  0  0  0  0  0  0
  145.4640  136.2877  151.1034 C   0  0  0  0  0  0  0  0  0  0  0  0
  151.9455  138.1077  156.4780 C   0  0  0  0  0  0  0  0  0  0  0  0
  152.0074  136.9600  156.0341 O   0  0  0  0  0  0  0  0  0  0  0  0
  152.3251  138.4763  157.8438 C   0  0  0  0  0  0  0  0  0  0  0  0
  152.8023  137.4052  158.6576 C   0  0  0  0  0  0  0  0  0  0  0  0
  153.1690  136.5307  159.3216 N   0  0  0  0  0  0  0  0  0  0  0  0
  152.2312  139.7496  158.3021 C   0  0  0  0  0  0  0  0  0  0  0  0
  152.6114  140.1837  159.7110 C   0  0  0  0  0  0  0  0  0  0  0  0
  150.8299  142.3311  158.5725 H   0  0  0  0  0  0  0  0  0  0  0  0
  151.2464  142.8365  156.9392 H   0  0  0  0  0  0  0  0  0  0  0  0
  152.5141  142.6362  158.1419 H   0  0  0  0  0  0  0  0  0  0  0  0
  151.8271  139.4857  153.6691 H   0  0  0  0  0  0  0  0  0  0  0  0
  151.1466  137.9308  154.0454 H   0  0  0  0  0  0  0  0  0  0  0  0
  149.2949  137.7234  153.2272 H   0  0  0  0  0  0  0  0  0  0  0  0
  147.6326  136.8613  152.2430 H   0  0  0  0  0  0  0  0  0  0  0  0
  145.4693  138.4396  151.2474 H   0  0  0  0  0  0  0  0  0  0  0  0
  145.1666  137.3715  154.0114 H   0  0  0  0  0  0  0  0  0  0  0  0
  144.1091  138.4833  153.1602 H   0  0  0  0  0  0  0  0  0  0  0  0
  143.3149  135.9273  153.6800 H   0  0  0  0  0  0  0  0  0  0  0  0
  142.8964  136.6985  152.1513 H   0  0  0  0  0  0  0  0  0  0  0  0
  145.2308  134.8259  152.6731 H   0  0  0  0  0  0  0  0  0  0  0  0
  144.0098  134.6741  151.4104 H   0  0  0  0  0  0  0  0  0  0  0  0
  144.9221  136.5143  150.1839 H   0  0  0  0  0  0  0  0  0  0  0  0
  146.3960  135.8007  150.8129 H   0  0  0  0  0  0  0  0  0  0  0  0
  152.9050  139.3423  160.3375 H   0  0  0  0  0  0  0  0  0  0  0  0
  151.7720  140.6766  160.2024 H   0  0  0  0  0  0  0  0  0  0  0  0
  153.4498  140.8801  159.6807 H   0  0  0  0  0  0  0  0  0  0  0  0
  1  2  1  0  0  0  0
  1 24  1  0  0  0  0
  1 25  1  0  0  0  0
  1 26  1  0  0  0  0
  2 22  1  0  0  0  0
  2  3  2  0  0  0  0
  3  4  1  0  0  0  0
  4  5  1  0  0  0  0
  4 17  1  0  0  0  0
  5  6  1  0  0  0  0
  5 27  1  0  0  0  0
  5 28  1  0  0  0  0
  6  7  2  0  0  0  0
  6  8  1  0  0  0  0
  8  9  1  0  0  0  0
  8 29  1  0  0  0  0
  9 10  2  0  0  0  0
  9 11  1  0  0  0  0
 11 12  1  0  0  0  0
 11 30  1  0  0  0  0
 12 16  1  0  0  0  0
 12 13  1  0  0  0  0
 12 31  1  0  0  0  0
 13 14  1  0  0  0  0
 13 32  1  0  0  0  0
 13 33  1  0  0  0  0
 14 15  1  0  0  0  0
 14 34  1  0  0  0  0
 14 35  1  0  0  0  0
 15 16  1  0  0  0  0
 15 36  1  0  0  0  0
 15 37  1  0  0  0  0
 16 38  1  0  0  0  0
 16 39  1  0  0  0  0
 17 18  2  0  0  0  0
 17 19  1  0  0  0  0
 19 20  1  0  0  0  0
 19 22  2  0  0  0  0
 20 21  3  0  0  0  0
 22 23  1  0  0  0  0
 23 40  1  0  0  0  0
 23 41  1  0  0  0  0
 23 42  1  0  0  0  0
M  END
> <s_m_source_file>
AV-unprocessed.smi

> <i_m_source_file_index>
489

> <i_lp_mmshare_version>
43012

> <i_f3d_flags>
0

> <s_epik_input>
TiNDYyhjMVtDSDNdKWMoPU8pbihuYzFbQ0gzXSlbQ0gyXUMoPU8pW05IXUMoPU8pW05IXVtDSF0yW0NIMl1bQ0gyXVtDSDJdW0NIMl0y

> <s_epik_cmdline>
J2VwaWtfcHl0aG9uJywgJy1waCcsICc3LjAnLCAnLXRuJywgJzgnLCAnLW1hJywgJzIwMCcsICctbWV0YWxfYmluZGluZycsICctaW1hZScsICc8aW5maWxlLm1hZT4nLCAnLW9tYWUnLCAnPG91dGZpbGUubWFlPic=

> <r_lp_tautomer_probability>
1

> <r_epik_Ionization_Penalty>
3.28905e-05

> <r_epik_Ionization_Penalty_Charging>
1.69167e-11

> <r_epik_Ionization_Penalty_Neutral>
3.28905e-05

> <r_epik_State_Penalty>
-0

> <r_epik_Charging_Adjusted_Penalty>
1.69167e-11

> <i_epik_Tot_Q>
0

> <i_epik_Tot_abs_Q>
0

> <r_epik_Metal_State_Penalty>
-0

> <b_epik_Metal_Only>
0

> <s_lp_Force_Field>
OPLS_2005

> <r_lp_Energy>
37.6869

> <b_lp_Chiralities_Consistent>
1

> <s_lp_Variant>
AV-unprocessed.smi:489-1

> <Gold.Version>
5.8.1

> <Gold.Id.Protein>
6NUR|6NUR_protein|mol2

> <Gold.PLP.Fitness>
42.2824

> <Gold.PLP.PLP>
-31.5318

> <Gold.PLP.part.hbond>
-4.8705

> <Gold.PLP.part.metal>
0.0000

> <Gold.PLP.part.buried>
0.1513

> <Gold.PLP.part.nonpolar>
-26.4210

> <Gold.PLP.part.repulsive>
0.4586

> <Gold.PLP.ligand.clash>
0.0000

> <Gold.PLP.ligand.torsion>
0.1727

> <Gold.PLP.Chemscore.Hbond>
3.6940

> <Gold.PLP.Chemscore.CHOScore>
0.0000

> <Gold.PLP.Chemscore.Metal>
0.0000

> <Gold.Chemscore.Hbonds>
donor molecule, donor type, donor heavy atom, donor atom, acceptor molecule, acceptor atom, score
      L1  H     8    29       P1  7948  0.70
      L1  H    11    30       P1  7948  0.93
      P1  H  6896  6909       L1    21  1.00
      P1  H 10752 10765       L1    18  0.83

> <Gold.PLP.Chemscore.Internal.Correction>
0.0139

> <Gold.Rescore>
     Score         DG    S(hbond)    S(metal)    S(lipo)     H(rot)  DE(clash)    DE(int)     intcor
     16.30     -20.08       3.43        0.00      62.10       1.61       0.62       3.16       ----

> <Gold.Chemscore.Fitness>
16.3004

> <Gold.Chemscore.DG>
-20.0813

> <Gold.Chemscore.ZeroCoef>
-5.4800

> <Gold.Chemscore.Hbond>
3.4321

> <Gold.Chemscore.Metal>
0.0000

> <Gold.Chemscore.Lipo>
62.0968

> <Gold.Chemscore.Internal_Hbond>
0.0000

> <Gold.Chemscore.DEClash>
0.6199

> <Gold.Chemscore.DEInternal>
3.1610

> <Gold.Chemscore.Rot>
1.6122

> <Gold.Chemscore.Internal.Correction>
   9.000000E+99

> <Gold.Chemscore.Hbonds>
donor molecule, donor type, donor heavy atom, donor atom, acceptor molecule, acceptor atom, score
      L1  H     8    29       P1  7948  0.65
      L1  H    11    30       P1  7948  0.84
      P1  H  6896  6909       L1    21  0.94
      P1  H 10752 10765       L1    18  0.80

> <Gold.Chemscore.Hbond.Weighted>
-11.4632

> <Gold.Chemscore.Metal.Weighted>
-0.0000

> <Gold.Chemscore.Lipo.Weighted>
-7.2653

> <Gold.Chemscore.Internal_Hbond.Weighted>
0.0000

> <Gold.Chemscore.DEClash.Weighted>
0.6199

> <Gold.Chemscore.DEInternal.Weighted>
3.1610

> <Gold.Chemscore.Rot.Weighted>
4.1272

> <Gold.Chemscore.Internal.Correction.Weighted>
   9.000000E+99

> <Gold.Protein.RotatedTorsions>
[ 6907 6896 6895 6894 ] final  153.44 input  -60.11 | X-H torsion
[ 7974 7965 7964 7962 ] final   43.90 input  175.53 | X-H torsion
[ 8008 7997 7996 7995 ] final   72.51 input   59.86 | X-H torsion
[ 10167 10162 10161 10158 ] final  138.78 input  -65.29 | X-H torsion
[ 10718 10713 10712 10709 ] final -118.15 input   66.30 | X-H torsion
[ 10763 10752 10751 10750 ] final -152.55 input  -60.55 | X-H torsion
[ 11005 11000 10999 10996 ] final   33.80 input  -57.11 | X-H torsion

> <Gold.Protein.ActiveResidues>
 VAL166  LYS551  ARG553  GLY616  TRP617  ASP618  TYR619  PRO620  LYS621  CYS622 
 ASP623  PHE694  ASN695  SER759  ASP760  ASP761  ALA762  ILE779  LEU786  VAL792 
 PHE793  MET794  SER795  GLU796  ALA797  LYS798  CYS799  TRP800  GLU811  SER814 

> <Gold.Protein.RotatedAtoms>
  152.0726  133.4114  159.4465 H   0  0  0  0  0  0  0  0  0  0  0  0  # atno 6907 bound_to 6896
  150.6863  134.3074  159.4741 H   0  0  0  0  0  0  0  0  0  0  0  0  # atno 6908 bound_to 6896
  152.0907  134.9408  160.0622 H   0  0  0  0  0  0  0  0  0  0  0  0  # atno 6909 bound_to 6896
  146.0615  139.5134  142.9655 H   0  0  0  0  0  0  0  0  0  0  0  0  # atno 7974 bound_to 7965
  155.7699  140.3484  155.5241 H   0  0  0  0  0  0  0  0  0  0  0  0  # atno 8008 bound_to 7997
  155.8832  140.1005  157.1492 H   0  0  0  0  0  0  0  0  0  0  0  0  # atno 8009 bound_to 7997
  154.4026  140.1318  156.4209 H   0  0  0  0  0  0  0  0  0  0  0  0  # atno 8010 bound_to 7997
  139.5100  144.6334  151.5760 H   0  0  0  0  0  0  0  0  0  0  0  0  # atno 10167 bound_to 10162
  156.1085  130.6230  150.9254 H   0  0  0  0  0  0  0  0  0  0  0  0  # atno 10718 bound_to 10713
  154.7986  135.3233  154.7605 H   0  0  0  0  0  0  0  0  0  0  0  0  # atno 10763 bound_to 10752
  153.8277  135.6882  153.4823 H   0  0  0  0  0  0  0  0  0  0  0  0  # atno 10764 bound_to 10752
  153.1691  135.4630  154.9821 H   0  0  0  0  0  0  0  0  0  0  0  0  # atno 10765 bound_to 10752
  140.2594  134.3210  155.7863 H   0  0  0  0  0  0  0  0  0  0  0  0  # atno 11005 bound_to 11000
  145.6552  141.0254  143.1739 LP  0  0  0  0  0  0  0  0  0  0  0  0  # atno 17320 bound_to 7965
  144.7178  139.8137  143.7393 LP  0  0  0  0  0  0  0  0  0  0  0  0  # atno 17321 bound_to 7965
  140.6074  143.9499  150.6428 LP  0  0  0  0  0  0  0  0  0  0  0  0  # atno 17342 bound_to 10162
  140.2731  143.3442  152.1220 LP  0  0  0  0  0  0  0  0  0  0  0  0  # atno 17343 bound_to 10162
  157.6264  131.0925  150.8525 LP  0  0  0  0  0  0  0  0  0  0  0  0  # atno 17370 bound_to 10713
  156.8640  130.5123  149.5301 LP  0  0  0  0  0  0  0  0  0  0  0  0  # atno 17371 bound_to 10713
  141.2192  133.7401  156.9163 LP  0  0  0  0  0  0  0  0  0  0  0  0  # atno 17394 bound_to 11000
  140.1479  134.9250  157.2554 LP  0  0  0  0  0  0  0  0  0  0  0  0  # atno 17395 bound_to 11000

$$$$
