AV-unprocessed.smi:1274|AV-procd|sdf|5340|dock9
  -GOLD-   22720 4473D 1   1.00000     0.00000
 Structure written by MMmdl.
 37 38  0  0  0  0  0  0  0  0  1 V2000
  151.4202  138.9934  158.6125 O   0  0  0  0  0  0  0  0  0  0  0  0
  152.6593  139.6641  158.1909 S   0  0  0  0  0  0  0  0  0  0  0  0
  153.9497  138.9586  158.2235 O   0  0  0  0  0  0  0  0  0  0  0  0
  152.4466  140.3044  156.6025 N   0  0  0  0  0  0  0  0  0  0  0  0
  151.1032  140.6267  156.1169 C   0  0  0  0  0  0  0  0  0  0  0  0
  150.4402  139.4189  155.4304 C   0  0  0  0  0  0  0  0  0  0  0  0
  149.2016  139.7976  154.6376 C   0  0  0  0  0  0  0  0  0  0  0  0
  148.7314  141.1266  154.6207 C   0  0  0  0  0  0  0  0  0  0  0  0
  147.5672  141.4248  153.8866 C   0  0  0  0  0  0  0  0  0  0  0  0
  146.9214  140.3777  153.1991 C   0  0  0  0  0  0  0  0  0  0  0  0
  147.3632  139.1017  153.2065 N   0  0  0  0  0  0  0  0  0  0  0  0
  148.4814  138.8250  153.9109 C   0  0  0  0  0  0  0  0  0  0  0  0
  152.8032  141.1480  159.0733 N   0  0  0  0  0  0  0  0  0  0  0  0
  151.7986  142.1976  158.7941 C   0  0  0  0  0  0  0  0  0  0  0  0
  152.2301  143.5602  159.3602 C   0  0  0  0  0  0  0  0  0  0  0  0
  152.5393  143.4644  160.8563 C   0  0  0  0  0  0  0  0  0  0  0  0
  153.6079  142.3915  161.0815 C   0  0  0  0  0  0  0  0  0  0  0  0
  153.1724  141.0362  160.4988 C   0  0  0  0  0  0  0  0  0  0  0  0
  153.0079  139.8069  155.9116 H   0  0  0  0  0  0  0  0  0  0  0  0
  150.4980  140.9436  156.9667 H   0  0  0  0  0  0  0  0  0  0  0  0
  151.1587  141.4758  155.4352 H   0  0  0  0  0  0  0  0  0  0  0  0
  151.1556  138.9510  154.7530 H   0  0  0  0  0  0  0  0  0  0  0  0
  150.1840  138.6535  156.1626 H   0  0  0  0  0  0  0  0  0  0  0  0
  149.2498  141.9030  155.1641 H   0  0  0  0  0  0  0  0  0  0  0  0
  147.1768  142.4311  153.8527 H   0  0  0  0  0  0  0  0  0  0  0  0
  146.0253  140.5704  152.6280 H   0  0  0  0  0  0  0  0  0  0  0  0
  148.8037  137.7943  153.9011 H   0  0  0  0  0  0  0  0  0  0  0  0
  151.6414  142.2904  157.7201 H   0  0  0  0  0  0  0  0  0  0  0  0
  150.8430  141.8954  159.2244 H   0  0  0  0  0  0  0  0  0  0  0  0
  153.1110  143.9164  158.8244 H   0  0  0  0  0  0  0  0  0  0  0  0
  151.4456  144.2974  159.1887 H   0  0  0  0  0  0  0  0  0  0  0  0
  152.8837  144.4275  161.2342 H   0  0  0  0  0  0  0  0  0  0  0  0
  151.6337  143.2123  161.4096 H   0  0  0  0  0  0  0  0  0  0  0  0
  154.5442  142.7043  160.6175 H   0  0  0  0  0  0  0  0  0  0  0  0
  153.8110  142.2878  162.1477 H   0  0  0  0  0  0  0  0  0  0  0  0
  152.3215  140.6391  161.0540 H   0  0  0  0  0  0  0  0  0  0  0  0
  153.9853  140.3186  160.6115 H   0  0  0  0  0  0  0  0  0  0  0  0
  1  2  2  0  0  0  0
  2  3  2  0  0  0  0
  2  4  1  0  0  0  0
  2 13  1  0  0  0  0
  4  5  1  0  0  0  0
  4 19  1  0  0  0  0
  5  6  1  0  0  0  0
  5 20  1  0  0  0  0
  5 21  1  0  0  0  0
  6  7  1  0  0  0  0
  6 22  1  0  0  0  0
  6 23  1  0  0  0  0
  7 12  1  0  0  0  0
  7  8  2  0  0  0  0
  8  9  1  0  0  0  0
  8 24  1  0  0  0  0
  9 10  2  0  0  0  0
  9 25  1  0  0  0  0
 10 11  1  0  0  0  0
 10 26  1  0  0  0  0
 11 12  2  0  0  0  0
 12 27  1  0  0  0  0
 13 18  1  0  0  0  0
 13 14  1  0  0  0  0
 14 15  1  0  0  0  0
 14 28  1  0  0  0  0
 14 29  1  0  0  0  0
 15 16  1  0  0  0  0
 15 30  1  0  0  0  0
 15 31  1  0  0  0  0
 16 17  1  0  0  0  0
 16 32  1  0  0  0  0
 16 33  1  0  0  0  0
 17 18  1  0  0  0  0
 17 34  1  0  0  0  0
 17 35  1  0  0  0  0
 18 36  1  0  0  0  0
 18 37  1  0  0  0  0
M  END
> <s_m_source_file>
AV-unprocessed.smi

> <i_m_source_file_index>
1274

> <i_lp_mmshare_version>
43012

> <i_f3d_flags>
0

> <s_epik_input>
W0NIMl0xW0NIMl1bQ0gyXVtDSDJdW0NIMl1OMVMoPU8pKD1PKVtOSF1bQ0gyXVtDSDJdYzJbY0hdW2NIXVtjSF1uW2NIXTI=

> <s_epik_cmdline>
J2VwaWtfcHl0aG9uJywgJy1waCcsICc3LjAnLCAnLXRuJywgJzgnLCAnLW1hJywgJzIwMCcsICctbWV0YWxfYmluZGluZycsICctaW1hZScsICc8aW5maWxlLm1hZT4nLCAnLW9tYWUnLCAnPG91dGZpbGUubWFlPic=

> <r_epik_Ionization_Penalty>
0.0259724

> <r_epik_Ionization_Penalty_Charging>
0

> <r_epik_Ionization_Penalty_Neutral>
0.0259724

> <r_epik_State_Penalty>
0.0167858

> <r_epik_Charging_Adjusted_Penalty>
0.0167858

> <i_epik_Tot_Q>
0

> <i_epik_Tot_abs_Q>
0

> <r_epik_Metal_State_Penalty>
0.268382

> <b_epik_Metal_Only>
0

> <s_lp_Force_Field>
OPLS_2005

> <r_lp_Energy>
7.33886

> <b_lp_Chiralities_Consistent>
1

> <s_lp_Variant>
AV-unprocessed.smi:1274-1

> <Gold.Version>
5.8.1

> <Gold.Id.Protein>
6NUR|6NUR_protein|mol2

> <Gold.PLP.Fitness>
42.2845

> <Gold.PLP.PLP>
-34.6888

> <Gold.PLP.part.hbond>
-2.0000

> <Gold.PLP.part.metal>
0.0000

> <Gold.PLP.part.buried>
-1.6827

> <Gold.PLP.part.nonpolar>
-31.9922

> <Gold.PLP.part.repulsive>
0.2443

> <Gold.PLP.ligand.clash>
0.0000

> <Gold.PLP.ligand.torsion>
1.0819

> <Gold.PLP.Chemscore.Hbond>
1.0000

> <Gold.PLP.Chemscore.CHOScore>
2.0000

> <Gold.PLP.Chemscore.Metal>
0.0000

> <Gold.Chemscore.Hbonds>
donor molecule, donor type, donor heavy atom, donor atom, acceptor molecule, acceptor atom, score
      P1  H  7997  8009       L1     3  0.90
      L1  C    10    26       P1 10175  1.00
      L1  C    12    27       P1  7948  0.88

> <Gold.PLP.Chemscore.Internal.Correction>
0.7595

> <Gold.Rescore>
     Score         DG    S(hbond)    S(metal)    S(lipo)     H(rot)  DE(clash)    DE(int)     intcor
     12.43     -13.55       0.14        0.00     101.81       1.69       0.05       1.07       ----

> <Gold.Chemscore.Fitness>
12.4294

> <Gold.Chemscore.DG>
-13.5504

> <Gold.Chemscore.ZeroCoef>
-5.4800

> <Gold.Chemscore.Hbond>
0.1446

> <Gold.Chemscore.Metal>
0.0000

> <Gold.Chemscore.Lipo>
101.8076

> <Gold.Chemscore.Internal_Hbond>
0.0000

> <Gold.Chemscore.DEClash>
0.0476

> <Gold.Chemscore.DEInternal>
1.0734

> <Gold.Chemscore.Rot>
1.6891

> <Gold.Chemscore.Internal.Correction>
   9.000000E+99

> <Gold.Chemscore.Hbonds>
donor molecule, donor type, donor heavy atom, donor atom, acceptor molecule, acceptor atom, score
      P1  H  7997  8009       L1     3  0.18

> <Gold.Chemscore.Hbond.Weighted>
-0.4830

> <Gold.Chemscore.Metal.Weighted>
-0.0000

> <Gold.Chemscore.Lipo.Weighted>
-11.9115

> <Gold.Chemscore.Internal_Hbond.Weighted>
0.0000

> <Gold.Chemscore.DEClash.Weighted>
0.0476

> <Gold.Chemscore.DEInternal.Weighted>
1.0734

> <Gold.Chemscore.Rot.Weighted>
4.3241

> <Gold.Chemscore.Internal.Correction.Weighted>
   9.000000E+99

> <Gold.Protein.RotatedTorsions>
[ 6907 6896 6895 6894 ] final  136.71 input  -60.11 | X-H torsion
[ 7974 7965 7964 7962 ] final    3.97 input  175.53 | X-H torsion
[ 8008 7997 7996 7995 ] final  137.77 input   59.86 | X-H torsion
[ 10167 10162 10161 10158 ] final -129.59 input  -65.29 | X-H torsion
[ 10718 10713 10712 10709 ] final -124.13 input   66.30 | X-H torsion
[ 10763 10752 10751 10750 ] final -176.89 input  -60.55 | X-H torsion
[ 11005 11000 10999 10996 ] final    5.77 input  -57.11 | X-H torsion

> <Gold.Protein.ActiveResidues>
 VAL166  LYS551  ARG553  GLY616  TRP617  ASP618  TYR619  PRO620  LYS621  CYS622 
 ASP623  PHE694  ASN695  SER759  ASP760  ASP761  ALA762  ILE779  LEU786  VAL792 
 PHE793  MET794  SER795  GLU796  ALA797  LYS798  CYS799  TRP800  GLU811  SER814 

> <Gold.Protein.RotatedAtoms>
  152.2863  133.5518  159.5528 H   0  0  0  0  0  0  0  0  0  0  0  0  # atno 6907 bound_to 6896
  150.7216  134.0493  159.3801 H   0  0  0  0  0  0  0  0  0  0  0  0  # atno 6908 bound_to 6896
  151.8401  135.0593  160.0498 H   0  0  0  0  0  0  0  0  0  0  0  0  # atno 6909 bound_to 6896
  146.2444  140.0605  142.8369 H   0  0  0  0  0  0  0  0  0  0  0  0  # atno 7974 bound_to 7965
  156.3001  140.2411  156.3964 H   0  0  0  0  0  0  0  0  0  0  0  0  # atno 8008 bound_to 7997
  154.8567  140.0421  157.1659 H   0  0  0  0  0  0  0  0  0  0  0  0  # atno 8009 bound_to 7997
  154.8940  140.2967  155.5358 H   0  0  0  0  0  0  0  0  0  0  0  0  # atno 8010 bound_to 7997
  139.9382  143.6193  152.2511 H   0  0  0  0  0  0  0  0  0  0  0  0  # atno 10167 bound_to 10162
  156.1561  130.6569  150.9983 H   0  0  0  0  0  0  0  0  0  0  0  0  # atno 10718 bound_to 10713
  154.5668  135.2824  155.0866 H   0  0  0  0  0  0  0  0  0  0  0  0  # atno 10763 bound_to 10752
  154.2254  135.6384  153.5162 H   0  0  0  0  0  0  0  0  0  0  0  0  # atno 10764 bound_to 10752
  153.0045  135.5524  154.6279 H   0  0  0  0  0  0  0  0  0  0  0  0  # atno 10765 bound_to 10752
  140.5670  134.0138  155.7993 H   0  0  0  0  0  0  0  0  0  0  0  0  # atno 11005 bound_to 11000
  145.0904  140.9280  143.4772 LP  0  0  0  0  0  0  0  0  0  0  0  0  # atno 17320 bound_to 7965
  145.0777  139.2983  143.5799 LP  0  0  0  0  0  0  0  0  0  0  0  0  # atno 17321 bound_to 7965
  139.6726  144.7660  151.1755 LP  0  0  0  0  0  0  0  0  0  0  0  0  # atno 17342 bound_to 10162
  140.7618  143.5842  150.8863 LP  0  0  0  0  0  0  0  0  0  0  0  0  # atno 17343 bound_to 10162
  157.6696  131.0864  150.7645 LP  0  0  0  0  0  0  0  0  0  0  0  0  # atno 17370 bound_to 10713
  156.7710  130.4829  149.5418 LP  0  0  0  0  0  0  0  0  0  0  0  0  # atno 17371 bound_to 10713
  141.1080  133.9663  157.2962 LP  0  0  0  0  0  0  0  0  0  0  0  0  # atno 17394 bound_to 11000
  139.9380  135.0194  156.8618 LP  0  0  0  0  0  0  0  0  0  0  0  0  # atno 17395 bound_to 11000

$$$$
