AV-unprocessed.smi:1621|AV-procd|sdf|6494|dock4
  -GOLD-   22720 7153D 1   1.00000     0.00000
 Structure written by MMmdl.
 39 40  0  0  0  0  0  0  0  0  2 V2000
  145.1922  137.4735  154.1064 C   0  0  0  0  0  0  0  0  0  0  0  0
  145.6419  138.8461  153.7903 N   0  3  2  0  0  0  0  0  0  0  0  0
  146.7547  138.8657  152.8083 C   0  0  0  0  0  0  0  0  0  0  0  0
  147.1276  140.3084  152.4177 C   0  0  0  0  0  0  0  0  0  0  0  0
  147.4678  141.1765  153.6451 C   0  0  2  0  0  0  0  0  0  0  0  0
  148.8523  140.8239  154.2394 C   0  0  0  0  0  0  0  0  0  0  0  0
  149.3591  141.8675  155.1264 N   0  0  0  0  0  0  0  0  0  0  0  0
  150.1289  141.6657  156.2062 C   0  0  0  0  0  0  0  0  0  0  0  0
  150.5050  140.5513  156.5687 O   0  0  0  0  0  0  0  0  0  0  0  0
  150.4208  142.8282  156.8154 N   0  0  0  0  0  0  0  0  0  0  0  0
  151.1722  143.0632  158.0005 C   0  0  0  0  0  0  0  0  0  0  0  0
  151.3656  144.4051  158.3893 C   0  0  0  0  0  0  0  0  0  0  0  0
  152.0945  144.6756  159.5647 C   0  0  0  0  0  0  0  0  0  0  0  0
  152.6187  143.7117  160.3500 N   0  0  0  0  0  0  0  0  0  0  0  0
  152.4255  142.4275  159.9827 C   0  0  0  0  0  0  0  0  0  0  0  0
  151.7118  142.0482  158.8281 C   0  0  0  0  0  0  0  0  0  0  0  0
  146.2987  141.0880  154.6497 C   0  0  0  0  0  0  0  0  0  0  0  0
  145.9549  139.6322  155.0089 C   0  0  0  0  0  0  0  0  0  0  0  0
  145.9826  136.9056  154.5990 H   0  0  0  0  0  0  0  0  0  0  0  0
  144.9042  136.9436  153.1977 H   0  0  0  0  0  0  0  0  0  0  0  0
  144.3245  137.4964  154.7664 H   0  0  0  0  0  0  0  0  0  0  0  0
  147.6188  138.3440  153.2220 H   0  0  0  0  0  0  0  0  0  0  0  0
  146.4573  138.3163  151.9141 H   0  0  0  0  0  0  0  0  0  0  0  0
  147.9609  140.3023  151.7141 H   0  0  0  0  0  0  0  0  0  0  0  0
  146.2883  140.7576  151.8849 H   0  0  0  0  0  0  0  0  0  0  0  0
  147.5290  142.2109  153.3039 H   0  0  0  0  0  0  0  0  0  0  0  0
  148.8306  139.8603  154.7493 H   0  0  0  0  0  0  0  0  0  0  0  0
  149.5749  140.7132  153.4305 H   0  0  0  0  0  0  0  0  0  0  0  0
  149.1018  142.8174  154.9000 H   0  0  0  0  0  0  0  0  0  0  0  0
  150.0773  143.6602  156.3586 H   0  0  0  0  0  0  0  0  0  0  0  0
  150.9665  145.2177  157.7996 H   0  0  0  0  0  0  0  0  0  0  0  0
  152.2592  145.6945  159.8827 H   0  0  0  0  0  0  0  0  0  0  0  0
  152.8493  141.6765  160.6327 H   0  0  0  0  0  0  0  0  0  0  0  0
  151.5915  140.9979  158.6162 H   0  0  0  0  0  0  0  0  0  0  0  0
  146.5108  141.6586  155.5533 H   0  0  0  0  0  0  0  0  0  0  0  0
  145.4173  141.5571  154.2100 H   0  0  0  0  0  0  0  0  0  0  0  0
  145.0944  139.6203  155.6789 H   0  0  0  0  0  0  0  0  0  0  0  0
  146.7789  139.1637  155.5482 H   0  0  0  0  0  0  0  0  0  0  0  0
  144.8606  139.3072  153.3461 H   0  0  0  0  0  0  0  0  0  0  0  0
  1  2  1  0  0  0  0
  1 19  1  0  0  0  0
  1 20  1  0  0  0  0
  1 21  1  0  0  0  0
  2 18  1  0  0  0  0
  2  3  1  0  0  0  0
  2 39  1  0  0  0  0
  3  4  1  0  0  0  0
  3 22  1  0  0  0  0
  3 23  1  0  0  0  0
  4  5  1  0  0  0  0
  4 24  1  0  0  0  0
  4 25  1  0  0  0  0
  5  6  1  0  0  0  0
  5 17  1  0  0  0  0
  5 26  1  0  0  0  0
  6  7  1  0  0  0  0
  6 27  1  0  0  0  0
  6 28  1  0  0  0  0
  7  8  1  0  0  0  0
  7 29  1  0  0  0  0
  8  9  2  0  0  0  0
  8 10  1  0  0  0  0
 10 11  1  0  0  0  0
 10 30  1  0  0  0  0
 11 16  1  0  0  0  0
 11 12  2  0  0  0  0
 12 13  1  0  0  0  0
 12 31  1  0  0  0  0
 13 14  2  0  0  0  0
 13 32  1  0  0  0  0
 14 15  1  0  0  0  0
 15 16  2  0  0  0  0
 15 33  1  0  0  0  0
 16 34  1  0  0  0  0
 17 18  1  0  0  0  0
 17 35  1  0  0  0  0
 17 36  1  0  0  0  0
 18 37  1  0  0  0  0
 18 38  1  0  0  0  0
M  CHG  1   2   1
M  END
> <s_m_source_file>
AV-unprocessed.smi

> <i_m_source_file_index>
1621

> <i_lp_mmshare_version>
43012

> <i_f3d_flags>
0

> <s_epik_input>
W0NIM11OMVtDSDJdW0NIMl1bQ0hdKFtDSDJdW0NIMl0xKVtDSDJdW05IXUMoPU8pW05IXWMyW2NIXVtjSF1uW2NIXVtjSF0y

> <s_epik_cmdline>
J2VwaWtfcHl0aG9uJywgJy1waCcsICc3LjAnLCAnLXRuJywgJzgnLCAnLW1hJywgJzIwMCcsICctbWV0YWxfYmluZGluZycsICctaW1hZScsICc8aW5maWxlLm1hZT4nLCAnLW9tYWUnLCAnPG91dGZpbGUubWFlPic=

> <r_epik_Ionization_Penalty>
0.107254

> <r_epik_Ionization_Penalty_Charging>
0.00106265

> <r_epik_Ionization_Penalty_Neutral>
0.106191

> <r_epik_State_Penalty>
0.0960133

> <r_epik_Charging_Adjusted_Penalty>
0.0970759

> <i_epik_Tot_Q>
1

> <i_epik_Tot_abs_Q>
1

> <r_epik_Metal_State_Penalty>
0.0813061

> <b_epik_Metal_Only>
0

> <s_lp_Force_Field>
OPLS_2005

> <r_lp_Energy>
22.9743

> <b_lp_Chiralities_Consistent>
1

> <s_lp_Variant>
AV-unprocessed.smi:1621-2

> <Gold.Version>
5.8.1

> <Gold.Id.Protein>
6NUR|6NUR_protein|mol2

> <Gold.PLP.Fitness>
47.3901

> <Gold.PLP.PLP>
-36.1437

> <Gold.PLP.part.hbond>
-3.0000

> <Gold.PLP.part.metal>
0.0000

> <Gold.PLP.part.buried>
-3.2762

> <Gold.PLP.part.nonpolar>
-30.4360

> <Gold.PLP.part.repulsive>
0.2891

> <Gold.PLP.ligand.clash>
0.0000

> <Gold.PLP.ligand.torsion>
0.2954

> <Gold.PLP.Chemscore.Hbond>
3.9440

> <Gold.PLP.Chemscore.CHOScore>
0.0000

> <Gold.PLP.Chemscore.Metal>
0.0000

> <Gold.Chemscore.Hbonds>
donor molecule, donor type, donor heavy atom, donor atom, acceptor molecule, acceptor atom, score
      L1  H     2    39       P1 10175  2.00
      L1  H     7    29       P1  8028  0.87
      L1  H    10    30       P1  8028  1.00

> <Gold.PLP.Chemscore.Internal.Correction>
0.0051

> <Gold.Rescore>
     Score         DG    S(hbond)    S(metal)    S(lipo)     H(rot)  DE(clash)    DE(int)     intcor
     21.70     -23.32       2.94        0.00      95.75       1.25       0.18       1.45       ----

> <Gold.Chemscore.Fitness>
21.6954

> <Gold.Chemscore.DG>
-23.3212

> <Gold.Chemscore.ZeroCoef>
-5.4800

> <Gold.Chemscore.Hbond>
2.9443

> <Gold.Chemscore.Metal>
0.0000

> <Gold.Chemscore.Lipo>
95.7478

> <Gold.Chemscore.Internal_Hbond>
0.0000

> <Gold.Chemscore.DEClash>
0.1769

> <Gold.Chemscore.DEInternal>
1.4489

> <Gold.Chemscore.Rot>
1.2482

> <Gold.Chemscore.Internal.Correction>
   9.000000E+99

> <Gold.Chemscore.Hbonds>
donor molecule, donor type, donor heavy atom, donor atom, acceptor molecule, acceptor atom, score
      L1  H     2    39       P1 10175  1.00
      L1  H     7    29       P1  8028  0.82
      L1  H    10    30       P1  8028  0.99

> <Gold.Chemscore.Hbond.Weighted>
-9.8341

> <Gold.Chemscore.Metal.Weighted>
-0.0000

> <Gold.Chemscore.Lipo.Weighted>
-11.2025

> <Gold.Chemscore.Internal_Hbond.Weighted>
0.0000

> <Gold.Chemscore.DEClash.Weighted>
0.1769

> <Gold.Chemscore.DEInternal.Weighted>
1.4489

> <Gold.Chemscore.Rot.Weighted>
3.1954

> <Gold.Chemscore.Internal.Correction.Weighted>
   9.000000E+99

> <Gold.Protein.RotatedTorsions>
[ 6907 6896 6895 6894 ] final -113.85 input  -60.11 | X-H torsion
[ 7974 7965 7964 7962 ] final   -5.22 input  175.53 | X-H torsion
[ 8008 7997 7996 7995 ] final   83.23 input   59.86 | X-H torsion
[ 10167 10162 10161 10158 ] final  157.33 input  -65.29 | X-H torsion
[ 10718 10713 10712 10709 ] final   76.18 input   66.30 | X-H torsion
[ 10763 10752 10751 10750 ] final -117.29 input  -60.55 | X-H torsion
[ 11005 11000 10999 10996 ] final  -60.79 input  -57.11 | X-H torsion

> <Gold.Protein.ActiveResidues>
 VAL166  LYS551  ARG553  GLY616  TRP617  ASP618  TYR619  PRO620  LYS621  CYS622 
 ASP623  PHE694  ASN695  SER759  ASP760  ASP761  ALA762  ILE779  LEU786  VAL792 
 PHE793  MET794  SER795  GLU796  ALA797  LYS798  CYS799  TRP800  GLU811  SER814 

> <Gold.Protein.RotatedAtoms>
  150.7859  133.8885  159.3306 H   0  0  0  0  0  0  0  0  0  0  0  0  # atno 6907 bound_to 6896
  151.6736  135.0970  160.0212 H   0  0  0  0  0  0  0  0  0  0  0  0  # atno 6908 bound_to 6896
  152.3922  133.6657  159.6282 H   0  0  0  0  0  0  0  0  0  0  0  0  # atno 6909 bound_to 6896
  146.2357  140.1988  142.8333 H   0  0  0  0  0  0  0  0  0  0  0  0  # atno 7974 bound_to 7965
  155.9212  140.3421  155.6174 H   0  0  0  0  0  0  0  0  0  0  0  0  # atno 8008 bound_to 7997
  155.7271  140.0791  157.2324 H   0  0  0  0  0  0  0  0  0  0  0  0  # atno 8009 bound_to 7997
  154.4070  140.1595  156.2454 H   0  0  0  0  0  0  0  0  0  0  0  0  # atno 8010 bound_to 7997
  139.4823  144.4927  151.8284 H   0  0  0  0  0  0  0  0  0  0  0  0  # atno 10167 bound_to 10162
  157.6663  130.9762  150.1459 H   0  0  0  0  0  0  0  0  0  0  0  0  # atno 10718 bound_to 10713
  154.8550  135.4315  154.1956 H   0  0  0  0  0  0  0  0  0  0  0  0  # atno 10763 bound_to 10752
  153.3015  135.6969  153.7205 H   0  0  0  0  0  0  0  0  0  0  0  0  # atno 10764 bound_to 10752
  153.6333  135.3481  155.3023 H   0  0  0  0  0  0  0  0  0  0  0  0  # atno 10765 bound_to 10752
  141.1300  133.6625  156.5277 H   0  0  0  0  0  0  0  0  0  0  0  0  # atno 11005 bound_to 11000
  144.9799  140.8449  143.5404 LP  0  0  0  0  0  0  0  0  0  0  0  0  # atno 17320 bound_to 7965
  145.1980  139.2267  143.5208 LP  0  0  0  0  0  0  0  0  0  0  0  0  # atno 17321 bound_to 7965
  140.4413  144.1982  150.5891 LP  0  0  0  0  0  0  0  0  0  0  0  0  # atno 17342 bound_to 10162
  140.4680  143.2423  151.9129 LP  0  0  0  0  0  0  0  0  0  0  0  0  # atno 17343 bound_to 10162
  156.2270  130.3679  149.8488 LP  0  0  0  0  0  0  0  0  0  0  0  0  # atno 17370 bound_to 10713
  156.6325  130.8672  151.3498 LP  0  0  0  0  0  0  0  0  0  0  0  0  # atno 17371 bound_to 10713
  140.4241  134.7161  157.4906 LP  0  0  0  0  0  0  0  0  0  0  0  0  # atno 17394 bound_to 11000
  140.0339  134.6365  155.9069 LP  0  0  0  0  0  0  0  0  0  0  0  0  # atno 17395 bound_to 11000

$$$$
