AV-unprocessed.smi:278|AV-procd|sdf|2092|dock5
  -GOLD-   2262021373D 1   1.00000     0.00000
 Structure written by MMmdl.
 50 54  0  0  0  0  0  0  0  0  1 V2000
  152.8920  139.3190  156.9867 O   0  0  0  0  0  0  0  0  0  0  0  0
  151.4262  139.4145  156.9152 S   0  0  0  0  0  0  0  0  0  0  0  0
  150.5766  138.3282  157.4277 O   0  0  0  0  0  0  0  0  0  0  0  0
  150.8950  140.9984  157.6746 C   0  0  0  0  0  0  0  0  0  0  0  0
  150.5737  141.9467  156.5117 C   0  0  0  0  0  0  0  0  0  0  0  0
  150.1076  141.1197  155.2998 C   0  0  2  0  0  0  0  0  0  0  0  0
  148.6798  140.5782  155.4273 C   0  0  0  0  0  0  0  0  0  0  0  0
  148.6686  139.3479  154.6482 N   0  0  0  0  0  0  0  0  0  0  0  0
  147.5995  138.5096  154.6778 C   0  0  0  0  0  0  0  0  0  0  0  0
  147.1657  138.0390  155.8777 N   0  0  0  0  0  0  0  0  0  0  0  0
  146.1235  137.2061  155.9448 C   0  0  0  0  0  0  0  0  0  0  0  0
  145.3740  136.7265  154.9515 N   0  0  0  0  0  0  0  0  0  0  0  0
  145.7909  137.2054  153.7454 C   0  0  0  0  0  0  0  0  0  0  0  0
  146.8806  138.0946  153.5181 C   0  0  0  0  0  0  0  0  0  0  0  0
  146.9855  138.3651  152.1574 N   0  0  0  0  0  0  0  0  0  0  0  0
  146.0278  137.6659  151.6132 C   0  0  0  0  0  0  0  0  0  0  0  0
  145.2678  136.9324  152.4945 N   0  0  0  0  0  0  0  0  0  0  0  0
  144.1583  136.0564  152.1664 C   0  0  0  0  0  0  0  0  0  0  0  0
  144.3733  134.6048  152.6461 C   0  0  1  0  0  0  0  0  0  0  0  0
  143.0950  134.0265  152.8175 O   0  0  0  0  0  0  0  0  0  0  0  0
  145.2015  133.7289  151.6788 C   0  0  2  0  0  0  0  0  0  0  0  0
  144.5576  133.5069  150.3094 C   0  0  0  0  0  0  0  0  0  0  0  0
  145.2390  132.2464  149.8050 C   0  0  0  0  0  0  0  0  0  0  0  0
  145.7482  131.5701  151.0806 C   0  0  0  0  0  0  0  0  0  0  0  0
  145.2955  132.3915  152.1480 O   0  0  0  0  0  0  0  0  0  0  0  0
  150.0182  138.8084  154.5403 C   0  0  0  0  0  0  0  0  0  0  0  0
  150.9464  139.8459  155.1882 C   0  0  2  0  0  0  0  0  0  0  0  0
  150.1859  141.6990  154.3788 H   0  0  0  0  0  0  0  0  0  0  0  0
  151.8593  140.0042  154.6134 H   0  0  0  0  0  0  0  0  0  0  0  0
  150.0046  140.8018  158.2717 H   0  0  0  0  0  0  0  0  0  0  0  0
  151.6749  141.3814  158.3328 H   0  0  0  0  0  0  0  0  0  0  0  0
  149.8407  142.7021  156.7967 H   0  0  0  0  0  0  0  0  0  0  0  0
  151.4844  142.4797  156.2355 H   0  0  0  0  0  0  0  0  0  0  0  0
  148.4376  140.3512  156.4665 H   0  0  0  0  0  0  0  0  0  0  0  0
  147.9464  141.2940  155.0546 H   0  0  0  0  0  0  0  0  0  0  0  0
  145.8525  136.8749  156.9364 H   0  0  0  0  0  0  0  0  0  0  0  0
  145.8567  137.6573  150.5464 H   0  0  0  0  0  0  0  0  0  0  0  0
  143.2533  136.4724  152.6112 H   0  0  0  0  0  0  0  0  0  0  0  0
  144.0128  136.0781  151.0853 H   0  0  0  0  0  0  0  0  0  0  0  0
  144.8591  134.6154  153.6225 H   0  0  0  0  0  0  0  0  0  0  0  0
  143.1168  133.4737  153.5837 H   0  0  0  0  0  0  0  0  0  0  0  0
  146.2061  134.1385  151.5553 H   0  0  0  0  0  0  0  0  0  0  0  0
  143.4879  133.3241  150.4232 H   0  0  0  0  0  0  0  0  0  0  0  0
  144.6861  134.3544  149.6357 H   0  0  0  0  0  0  0  0  0  0  0  0
  144.5487  131.6124  149.2478 H   0  0  0  0  0  0  0  0  0  0  0  0
  146.0750  132.4926  149.1493 H   0  0  0  0  0  0  0  0  0  0  0  0
  145.3694  130.5543  151.1941 H   0  0  0  0  0  0  0  0  0  0  0  0
  146.8382  131.5307  151.0893 H   0  0  0  0  0  0  0  0  0  0  0  0
  150.1131  137.8270  155.0056 H   0  0  0  0  0  0  0  0  0  0  0  0
  150.2614  138.6987  153.4829 H   0  0  0  0  0  0  0  0  0  0  0  0
  1  2  2  0  0  0  0
  2 27  1  0  0  0  0
  2  3  2  0  0  0  0
  2  4  1  0  0  0  0
  4  5  1  0  0  0  0
  4 30  1  0  0  0  0
  4 31  1  0  0  0  0
  5  6  1  0  0  0  0
  5 32  1  0  0  0  0
  5 33  1  0  0  0  0
  6 28  1  0  0  0  0
  6 27  1  0  0  0  0
  6  7  1  0  0  0  0
  7  8  1  0  0  0  0
  7 34  1  0  0  0  0
  7 35  1  0  0  0  0
  8  9  1  0  0  0  0
  8 26  1  0  0  0  0
  9 14  1  0  0  0  0
  9 10  2  0  0  0  0
 10 11  1  0  0  0  0
 11 12  2  0  0  0  0
 11 36  1  0  0  0  0
 12 13  1  0  0  0  0
 13 17  1  0  0  0  0
 13 14  2  0  0  0  0
 14 15  1  0  0  0  0
 15 16  2  0  0  0  0
 16 17  1  0  0  0  0
 16 37  1  0  0  0  0
 17 18  1  0  0  0  0
 18 19  1  0  0  0  0
 18 38  1  0  0  0  0
 18 39  1  0  0  0  0
 19 20  1  0  0  0  0
 19 21  1  0  0  0  0
 19 40  1  0  0  0  0
 20 41  1  0  0  0  0
 21 25  1  0  0  0  0
 21 22  1  0  0  0  0
 21 42  1  0  0  0  0
 22 23  1  0  0  0  0
 22 43  1  0  0  0  0
 22 44  1  0  0  0  0
 23 24  1  0  0  0  0
 23 45  1  0  0  0  0
 23 46  1  0  0  0  0
 24 25  1  0  0  0  0
 24 47  1  0  0  0  0
 24 48  1  0  0  0  0
 26 27  1  0  0  0  0
 26 49  1  0  0  0  0
 26 50  1  0  0  0  0
 27 29  1  0  0  0  0
M  END
> <s_m_source_file>
AV-unprocessed.smi

> <i_m_source_file_index>
278

> <i_lp_mmshare_version>
43012

> <i_f3d_flags>
0

> <s_epik_input>
W0NIMl0xW0NIMl1TKD1PKSg9TylbQ0BASF0oW0NAQEhdMTIpW0NIMl1OKFtDSDJdMiljKG5bY0hdbjMpYyhjMzQpbltjSF1uNFtDSDJdW0NASF0oW09IXSlbQ0BASF01W0NIMl1bQ0gyXVtDSDJdTzU=

> <s_epik_cmdline>
J2VwaWtfcHl0aG9uJywgJy1waCcsICc3LjAnLCAnLXRuJywgJzgnLCAnLW1hJywgJzIwMCcsICctbWV0YWxfYmluZGluZycsICctaW1hZScsICc8aW5maWxlLm1hZT4nLCAnLW9tYWUnLCAnPG91dGZpbGUubWFlPic=

> <r_lp_tautomer_probability>
1

> <r_epik_Ionization_Penalty>
0.000636766

> <r_epik_Ionization_Penalty_Charging>
0

> <r_epik_Ionization_Penalty_Neutral>
0.000636766

> <r_epik_State_Penalty>
0.000329976

> <r_epik_Charging_Adjusted_Penalty>
0.000329976

> <i_epik_Tot_Q>
0

> <i_epik_Tot_abs_Q>
0

> <r_epik_Metal_State_Penalty>
-0

> <b_epik_Metal_Only>
0

> <s_lp_Force_Field>
OPLS_2005

> <r_lp_Energy>
49.0353

> <b_lp_Chiralities_Consistent>
1

> <s_lp_Variant>
AV-unprocessed.smi:278-6

> <Gold.Version>
5.8.1

> <Gold.Id.Protein>
6NUR|6NUR_protein|mol2

> <Gold.PLP.Fitness>
41.7945

> <Gold.PLP.PLP>
-35.7754

> <Gold.PLP.part.hbond>
-2.0000

> <Gold.PLP.part.metal>
0.0000

> <Gold.PLP.part.buried>
-2.6303

> <Gold.PLP.part.nonpolar>
-32.8267

> <Gold.PLP.part.repulsive>
0.9316

> <Gold.PLP.ligand.clash>
0.0000

> <Gold.PLP.ligand.torsion>
1.5461

> <Gold.PLP.Chemscore.Hbond>
1.9913

> <Gold.PLP.Chemscore.CHOScore>
0.9446

> <Gold.PLP.Chemscore.Metal>
0.0000

> <Gold.Chemscore.Hbonds>
donor molecule, donor type, donor heavy atom, donor atom, acceptor molecule, acceptor atom, score
      L1  H    20    41       P1 10957  0.75
      P1  H  7997  8010       L1     1  1.00
      L1  C    16    37       P1 10171  0.75

> <Gold.PLP.Chemscore.Internal.Correction>
0.3038

> <Gold.Rescore>
     Score         DG    S(hbond)    S(metal)    S(lipo)     H(rot)  DE(clash)    DE(int)     intcor
     13.95     -15.59       1.98        0.00      76.46       2.13       0.17       1.47       ----

> <Gold.Chemscore.Fitness>
13.9452

> <Gold.Chemscore.DG>
-15.5870

> <Gold.Chemscore.ZeroCoef>
-5.4800

> <Gold.Chemscore.Hbond>
1.9838

> <Gold.Chemscore.Metal>
0.0000

> <Gold.Chemscore.Lipo>
76.4597

> <Gold.Chemscore.Internal_Hbond>
0.0000

> <Gold.Chemscore.DEClash>
0.1728

> <Gold.Chemscore.DEInternal>
1.4690

> <Gold.Chemscore.Rot>
2.1346

> <Gold.Chemscore.Internal.Correction>
   9.000000E+99

> <Gold.Chemscore.Hbonds>
donor molecule, donor type, donor heavy atom, donor atom, acceptor molecule, acceptor atom, score
      L1  H    20    41       P1 10957  0.73
      P1  H  7997  8010       L1     1  1.00

> <Gold.Chemscore.Hbond.Weighted>
-6.6259

> <Gold.Chemscore.Metal.Weighted>
-0.0000

> <Gold.Chemscore.Lipo.Weighted>
-8.9458

> <Gold.Chemscore.Internal_Hbond.Weighted>
0.0000

> <Gold.Chemscore.DEClash.Weighted>
0.1728

> <Gold.Chemscore.DEInternal.Weighted>
1.4690

> <Gold.Chemscore.Rot.Weighted>
5.4646

> <Gold.Chemscore.Internal.Correction.Weighted>
   9.000000E+99

> <Gold.Protein.RotatedTorsions>
[ 6907 6896 6895 6894 ] final   56.23 input  -60.11 | X-H torsion
[ 7974 7965 7964 7962 ] final  -27.82 input  175.53 | X-H torsion
[ 8008 7997 7996 7995 ] final   64.53 input   59.86 | X-H torsion
[ 10167 10162 10161 10158 ] final  -66.46 input  -65.29 | X-H torsion
[ 10718 10713 10712 10709 ] final  -73.88 input   66.30 | X-H torsion
[ 10763 10752 10751 10750 ] final   -7.74 input  -60.55 | X-H torsion
[ 11005 11000 10999 10996 ] final -176.03 input  -57.11 | X-H torsion

> <Gold.Protein.ActiveResidues>
 VAL166  LYS551  ARG553  GLY616  TRP617  ASP618  TYR619  PRO620  LYS621  CYS622 
 ASP623  PHE694  ASN695  SER759  ASP760  ASP761  ALA762  ILE779  LEU786  VAL792 
 PHE793  MET794  SER795  GLU796  ALA797  LYS798  CYS799  TRP800  GLU811  SER814 

> <Gold.Protein.RotatedAtoms>
  152.3615  134.6864  160.0205 H   0  0  0  0  0  0  0  0  0  0  0  0  # atno 6907 bound_to 6896
  151.7186  133.3308  159.3317 H   0  0  0  0  0  0  0  0  0  0  0  0  # atno 6908 bound_to 6896
  150.7608  134.6402  159.6278 H   0  0  0  0  0  0  0  0  0  0  0  0  # atno 6909 bound_to 6896
  146.1331  140.5202  142.8684 H   0  0  0  0  0  0  0  0  0  0  0  0  # atno 7974 bound_to 7965
  155.6475  140.3497  155.4736 H   0  0  0  0  0  0  0  0  0  0  0  0  # atno 8008 bound_to 7997
  155.9875  140.1187  157.0692 H   0  0  0  0  0  0  0  0  0  0  0  0  # atno 8009 bound_to 7997
  154.4209  140.1126  156.5506 H   0  0  0  0  0  0  0  0  0  0  0  0  # atno 8010 bound_to 7997
  140.5655  143.2314  151.6643 H   0  0  0  0  0  0  0  0  0  0  0  0  # atno 10167 bound_to 10162
  156.0263  130.4404  150.2808 H   0  0  0  0  0  0  0  0  0  0  0  0  # atno 10718 bound_to 10713
  153.4306  135.7012  153.6233 H   0  0  0  0  0  0  0  0  0  0  0  0  # atno 10763 bound_to 10752
  153.4649  135.3728  155.2359 H   0  0  0  0  0  0  0  0  0  0  0  0  # atno 10764 bound_to 10752
  154.8725  135.4029  154.3689 H   0  0  0  0  0  0  0  0  0  0  0  0  # atno 10765 bound_to 10752
  140.4566  134.6294  157.4824 H   0  0  0  0  0  0  0  0  0  0  0  0  # atno 11005 bound_to 11000
  144.7711  140.5640  143.6669 LP  0  0  0  0  0  0  0  0  0  0  0  0  # atno 17320 bound_to 7965
  145.5216  139.1476  143.3549 LP  0  0  0  0  0  0  0  0  0  0  0  0  # atno 17321 bound_to 7965
  139.5091  144.3589  152.0581 LP  0  0  0  0  0  0  0  0  0  0  0  0  # atno 17342 bound_to 10162
  140.2720  144.3953  150.6148 LP  0  0  0  0  0  0  0  0  0  0  0  0  # atno 17343 bound_to 10162
  157.0912  131.0170  151.3121 LP  0  0  0  0  0  0  0  0  0  0  0  0  # atno 17370 bound_to 10713
  157.4853  130.7789  149.7454 LP  0  0  0  0  0  0  0  0  0  0  0  0  # atno 17371 bound_to 10713
  139.9972  134.6892  155.9590 LP  0  0  0  0  0  0  0  0  0  0  0  0  # atno 17394 bound_to 11000
  141.1640  133.6537  156.4416 LP  0  0  0  0  0  0  0  0  0  0  0  0  # atno 17395 bound_to 11000

$$$$
