#       Name:                AV-unprocessed.smi:2934
#       Creating user name   scv26
#       Creation time:       Fri Mar 27 16:14:52 2020


#       File generated by GOLD software.
#

@<TRIPOS>MOLECULE
AV-unprocessed.smi:2934
    48    49     1
SMALL
NO_CHARGES


@<TRIPOS>ATOM
      1 ****        -3.5304   1.3628  -2.1472 C.3            1 S1                 0.0000
      2 ****        -2.5312   0.3013  -1.9941 N.am           1 S1                 0.0000
      3 ****        -1.2159   0.6459  -2.0071 C.2            1 S1                 0.0000
      4 ****        -0.8313   1.8142  -1.9319 O.2            1 S1                 0.0000
      5 ****        -0.3567  -0.3845  -2.1319 N.am           1 S1                 0.0000
      6 ****         1.1020  -0.2895  -2.1321 C.3            1 S1                 0.0000
      7 ****         1.7372  -0.8924  -0.8624 C.3            1 S1                 0.0000
      8 ****         1.3536  -0.1590   0.4274 C.2            1 S1                 0.0000
      9 ****         0.2376  -0.3208   0.9217 O.2            1 S1                 0.0000
     10 ****         2.2924   0.6310   0.9693 N.am           1 S1                 0.0000
     11 ****         2.1253   1.4196   2.1872 C.3            1 S1                 0.0000
     12 ****         3.1363   2.5813   2.2304 C.3            1 S1                 0.0000
     13 ****         3.7543   2.5513   3.6291 C.3            1 S1                 0.0000
     14 ****         3.7128   1.0793   4.0257 C.3            1 S1                 0.0000
     15 ****         2.3896   0.5740   3.4494 C.3            1 S1                 0.0000
     16 ****        -3.0121  -1.0371  -1.8624 C.ar           1 S1                 0.0000
     17 ****        -2.6530  -1.8562  -0.7641 C.ar           1 S1                 0.0000
     18 ****        -3.1634  -3.1675  -0.6760 C.ar           1 S1                 0.0000
     19 ****        -4.0279  -3.6404  -1.6834 C.ar           1 S1                 0.0000
     20 ****        -4.3634  -2.7863  -2.7524 C.ar           1 S1                 0.0000
     21 ****        -3.8536  -1.5358  -2.7999 N.pl3          1 S1                 1.0000
     22 ****        -4.5490   0.9820  -2.0620 H              1 S1                 0.0000
     23 ****        -3.4359   1.8421  -3.1226 H              1 S1                 0.0000
     24 ****        -3.4108   2.1260  -1.3767 H              1 S1                 0.0000
     25 ****        -0.7451  -1.3133  -2.2083 H              1 S1                 0.0000
     26 ****         1.4649  -0.8334  -3.0044 H              1 S1                 0.0000
     27 ****         1.4389   0.7403  -2.2638 H              1 S1                 0.0000
     28 ****         1.4425  -1.9380  -0.7640 H              1 S1                 0.0000
     29 ****         2.8229  -0.8949  -0.9679 H              1 S1                 0.0000
     30 ****         3.1848   0.6991   0.5017 H              1 S1                 0.0000
     31 ****         1.1118   1.8236   2.2274 H              1 S1                 0.0000
     32 ****         3.9265   2.4320   1.4926 H              1 S1                 0.0000
     33 ****         2.6696   3.5421   2.0108 H              1 S1                 0.0000
     34 ****         4.7625   2.9657   3.6527 H              1 S1                 0.0000
     35 ****         3.1384   3.1330   4.3162 H              1 S1                 0.0000
     36 ****         4.5441   0.5495   3.5586 H              1 S1                 0.0000
     37 ****         3.7859   0.9318   5.1036 H              1 S1                 0.0000
     38 ****         1.5925   0.7515   4.1725 H              1 S1                 0.0000
     39 ****         2.4125  -0.4998   3.2583 H              1 S1                 0.0000
     40 ****        -1.9970  -1.4843   0.0095 H              1 S1                 0.0000
     41 ****        -2.8963  -3.8017   0.1564 H              1 S1                 0.0000
     42 ****        -4.4305  -4.6417  -1.6350 H              1 S1                 0.0000
     43 ****        -5.0199  -3.0630  -3.5646 H              1 S1                 0.0000
     44 ****        -4.1144  -0.9387  -3.5853 H              1 S1                 0.0000
     45 ****        -1.4976   2.5561  -1.8575 LP             1 S1                 0.0000
     46 ****         0.1471   2.0203  -1.9453 LP             1 S1                 0.0000
     47 ****        -0.4205  -0.9317   0.4815 LP             1 S1                 0.0000
     48 ****        -0.0108   0.1587   1.7633 LP             1 S1                 0.0000
@<TRIPOS>BOND
    1    1    2 1     
    2    1   22 1     
    3    1   23 1     
    4    1   24 1     
    5    2    3 am    
    6    2   16 1     
    7    3    4 2     
    8    3    5 am    
    9    5    6 1     
   10    5   25 1     
   11    6    7 1     
   12    6   26 1     
   13    6   27 1     
   14    7    8 1     
   15    7   28 1     
   16    7   29 1     
   17    8    9 2     
   18    8   10 am    
   19   10   11 1     
   20   10   30 1     
   21   11   15 1     
   22   11   12 1     
   23   11   31 1     
   24   12   13 1     
   25   12   32 1     
   26   12   33 1     
   27   13   14 1     
   28   13   34 1     
   29   13   35 1     
   30   14   15 1     
   31   14   36 1     
   32   14   37 1     
   33   15   38 1     
   34   15   39 1     
   35   16   21 ar    
   36   16   17 ar    
   37   17   18 ar    
   38   17   40 1     
   39   18   19 ar    
   40   18   41 1     
   41   19   20 ar    
   42   19   42 1     
   43   20   21 ar    
   44   20   43 1     
   45   21   44 1     
   46    4   45 1     
   47    4   46 1     
   48    9   47 1     
   49    9   48 1     
@<TRIPOS>SUBSTRUCTURE
      1 S1             1
@<TRIPOS>SET
LONE_PAIRS      STATIC     ATOMS    <user>   **** ""
4 45 46 47 48
DONOR_HYDROGENS      STATIC     ATOMS    <user>   **** ""
3 25 30 44
ATOM$BLUE        STATIC     ATOMS    COLORGROUP SYSTEM
4 45 46 47 48
ATOM$RED        STATIC     ATOMS    COLORGROUP SYSTEM
3 25 30 44
