#       Name:                AV-unprocessed.smi:1671
#       Creating user name   scv26
#       Creation time:       Fri Mar 27 07:43:24 2020


#       File generated by GOLD software.
#

@<TRIPOS>MOLECULE
AV-unprocessed.smi:1671
    50    51     1
SMALL
NO_CHARGES


@<TRIPOS>ATOM
      1 ****        -2.9236  -5.6143  -2.9414 C.3            1 S1                 0.0000
      2 ****        -2.1160  -6.0876  -1.3882 S.3            1 S1                 0.0000
      3 ****        -2.1592  -4.5121  -0.4826 C.3            1 S1                 0.0000
      4 ****        -1.9040  -4.7517   1.0138 C.3            1 S1                 0.0000
      5 ****        -1.1654  -3.4948  -1.0565 C.2            1 S1                 0.0000
      6 ****         0.0412  -3.6130  -0.8406 O.2            1 S1                 0.0000
      7 ****        -1.6853  -2.4987  -1.7909 N.am           1 S1                 0.0000
      8 ****        -0.9120  -1.4324  -2.4193 C.3            1 S1                 0.0000
      9 ****        -0.4482  -0.3421  -1.4630 C.ar           1 S1                 0.0000
     10 ****        -1.1773   0.0035  -0.3057 C.ar           1 S1                 0.0000
     11 ****        -0.6884   1.0244   0.5312 C.ar           1 S1                 0.0000
     12 ****         0.5187   1.6796   0.1897 C.ar           1 S1                 0.0000
     13 ****         1.0306   2.7020   1.0183 N.3            1 S1                 0.0000
     14 ****         1.1765   2.3576   2.4302 C.3            1 S1                 0.0000
     15 ****         1.4406   3.6223   3.2642 C.3            1 S1                 0.0000
     16 ****         2.5691   4.3166   2.7430 O.3            1 S1                 0.0000
     17 ****         2.3631   4.7439   1.3996 C.3            1 S1                 0.0000
     18 ****         3.5860   5.5554   0.9593 C.3            1 S1                 0.0000
     19 ****         2.1357   3.5101   0.5056 C.3            1 S1                 0.0000
     20 ****         1.2077   1.3550  -0.9322 N.ar           1 S1                 0.0000
     21 ****         0.7359   0.3739  -1.7297 C.ar           1 S1                 0.0000
     22 ****        -3.0172  -6.4829  -3.5929 H              1 S1                 0.0000
     23 ****        -2.3417  -4.8559  -3.4648 H              1 S1                 0.0000
     24 ****        -3.9208  -5.2188  -2.7484 H              1 S1                 0.0000
     25 ****        -3.1687  -4.1100  -0.5819 H              1 S1                 0.0000
     26 ****        -1.9128  -3.8154   1.5732 H              1 S1                 0.0000
     27 ****        -0.9411  -5.2348   1.1852 H              1 S1                 0.0000
     28 ****        -2.6746  -5.3940   1.4406 H              1 S1                 0.0000
     29 ****        -2.6861  -2.4775  -1.9236 H              1 S1                 0.0000
     30 ****        -0.0509  -1.8611  -2.9350 H              1 S1                 0.0000
     31 ****        -1.5317  -0.9710  -3.1881 H              1 S1                 0.0000
     32 ****        -2.1003  -0.4991  -0.0565 H              1 S1                 0.0000
     33 ****        -1.2491   1.3002   1.4119 H              1 S1                 0.0000
     34 ****         0.2918   1.8558   2.8195 H              1 S1                 0.0000
     35 ****         2.0090   1.6608   2.5369 H              1 S1                 0.0000
     36 ****         0.5666   4.2757   3.2674 H              1 S1                 0.0000
     37 ****         1.6391   3.3522   4.3014 H              1 S1                 0.0000
     38 ****         1.4853   5.3916   1.3609 H              1 S1                 0.0000
     39 ****         3.4721   5.9126  -0.0645 H              1 S1                 0.0000
     40 ****         4.4952   4.9555   1.0052 H              1 S1                 0.0000
     41 ****         3.7280   6.4253   1.6010 H              1 S1                 0.0000
     42 ****         3.0396   2.9002   0.4680 H              1 S1                 0.0000
     43 ****         1.9202   3.8373  -0.5124 H              1 S1                 0.0000
     44 ****         1.3244   0.1545  -2.6085 H              1 S1                 0.0000
     45 ****         0.3779  -4.3756  -0.2883 LP             1 S1                 0.0000
     46 ****         0.6842  -2.9464  -1.2176 LP             1 S1                 0.0000
     47 ****         0.2600   3.3378   0.9728 LP             1 S1                 0.0000
     48 ****         3.3623   3.7083   2.7697 LP             1 S1                 0.0000
     49 ****         2.7452   5.1191   3.3130 LP             1 S1                 0.0000
     50 ****         2.0531   1.8357  -1.1652 LP             1 S1                 0.0000
@<TRIPOS>BOND
    1    1    2 1     
    2    1   22 1     
    3    1   23 1     
    4    1   24 1     
    5    2    3 1     
    6    3    4 1     
    7    3    5 1     
    8    3   25 1     
    9    4   26 1     
   10    4   27 1     
   11    4   28 1     
   12    5    6 2     
   13    5    7 am    
   14    7    8 1     
   15    7   29 1     
   16    8    9 1     
   17    8   30 1     
   18    8   31 1     
   19    9   21 ar    
   20    9   10 ar    
   21   10   11 ar    
   22   10   32 1     
   23   11   12 ar    
   24   11   33 1     
   25   12   13 1     
   26   12   20 ar    
   27   13   19 1     
   28   13   14 1     
   29   14   15 1     
   30   14   34 1     
   31   14   35 1     
   32   15   16 1     
   33   15   36 1     
   34   15   37 1     
   35   16   17 1     
   36   17   18 1     
   37   17   19 1     
   38   17   38 1     
   39   18   39 1     
   40   18   40 1     
   41   18   41 1     
   42   19   42 1     
   43   19   43 1     
   44   20   21 ar    
   45   21   44 1     
   46    6   45 1     
   47    6   46 1     
   48   13   47 1     
   49   16   48 1     
   50   16   49 1     
   51   20   50 1     
@<TRIPOS>SUBSTRUCTURE
      1 S1             1
@<TRIPOS>SET
LONE_PAIRS      STATIC     ATOMS    <user>   **** ""
6 45 46 47 48 49 50
DONOR_HYDROGENS      STATIC     ATOMS    <user>   **** ""
1 29
ATOM$BLUE        STATIC     ATOMS    COLORGROUP SYSTEM
6 45 46 47 48 49 50
ATOM$RED        STATIC     ATOMS    COLORGROUP SYSTEM
1 29
