AV-unprocessed.smi:1026|AV-procd|sdf|4468|dock3
  -GOLD-   22720 2443D 1   1.00000     0.00000
 Structure written by MMmdl.
 40 41  0  0  0  0  0  0  0  0  1 V2000
  151.6843  144.4919  158.6953 C   0  0  0  0  0  0  0  0  0  0  0  0
  152.3237  144.9511  160.0101 C   0  0  0  0  0  0  0  0  0  0  0  0
  153.1153  143.8719  160.6697 C   0  0  0  0  0  0  0  0  0  0  0  0
  153.1009  142.5986  160.2672 N   0  0  0  0  0  0  0  0  0  0  0  0
  153.8964  141.7709  161.0656 C   0  0  0  0  0  0  0  0  0  0  0  0
  154.0031  140.3095  160.7511 C   0  0  0  0  0  0  0  0  0  0  0  0
  152.9763  139.8637  159.6968 C   0  0  0  0  0  0  0  0  0  0  0  0
  151.6259  140.2813  160.0551 N   0  0  0  0  0  0  0  0  0  0  0  0
  150.5370  140.1100  159.2863 C   0  0  0  0  0  0  0  0  0  0  0  0
  150.5652  139.5615  158.1863 O   0  0  0  0  0  0  0  0  0  0  0  0
  149.3926  140.5849  159.8107 N   0  0  0  0  0  0  0  0  0  0  0  0
  148.0445  140.5595  159.2385 C   0  0  0  0  0  0  0  0  0  0  0  0
  148.0584  141.1188  157.7999 C   0  0  0  0  0  0  0  0  0  0  0  0
  146.6758  141.0629  157.1339 C   0  0  0  0  0  0  0  0  0  0  0  0
  145.4709  142.0817  158.0280 S   0  0  0  0  0  0  0  0  0  0  0  0
  145.6394  141.3218  159.6656 C   0  0  0  0  0  0  0  0  0  0  0  0
  147.0959  141.3610  160.1506 C   0  0  0  0  0  0  0  0  0  0  0  0
  154.5116  142.4406  162.0939 C   0  0  0  0  0  0  0  0  0  0  0  0
  154.1081  144.1357  162.0988 S   0  0  0  0  0  0  0  0  0  0  0  0
  151.1166  145.3013  158.2361 H   0  0  0  0  0  0  0  0  0  0  0  0
  151.0024  143.6574  158.8600 H   0  0  0  0  0  0  0  0  0  0  0  0
  152.4427  144.1700  157.9810 H   0  0  0  0  0  0  0  0  0  0  0  0
  152.9762  145.8060  159.8282 H   0  0  0  0  0  0  0  0  0  0  0  0
  151.5512  145.2895  160.7012 H   0  0  0  0  0  0  0  0  0  0  0  0
  155.0085  140.0783  160.3976 H   0  0  0  0  0  0  0  0  0  0  0  0
  153.8684  139.7287  161.6644 H   0  0  0  0  0  0  0  0  0  0  0  0
  153.2401  140.2565  158.7132 H   0  0  0  0  0  0  0  0  0  0  0  0
  152.9830  138.7770  159.6086 H   0  0  0  0  0  0  0  0  0  0  0  0
  151.5101  140.7382  160.9478 H   0  0  0  0  0  0  0  0  0  0  0  0
  149.4659  141.0026  160.7272 H   0  0  0  0  0  0  0  0  0  0  0  0
  147.6838  139.5295  159.2166 H   0  0  0  0  0  0  0  0  0  0  0  0
  148.4216  142.1475  157.8030 H   0  0  0  0  0  0  0  0  0  0  0  0
  148.7617  140.5514  157.1893 H   0  0  0  0  0  0  0  0  0  0  0  0
  146.7379  141.4204  156.1062 H   0  0  0  0  0  0  0  0  0  0  0  0
  146.3137  140.0353  157.0940 H   0  0  0  0  0  0  0  0  0  0  0  0
  144.9951  141.8549  160.3650 H   0  0  0  0  0  0  0  0  0  0  0  0
  145.2796  140.2933  159.6199 H   0  0  0  0  0  0  0  0  0  0  0  0
  147.1388  140.9567  161.1628 H   0  0  0  0  0  0  0  0  0  0  0  0
  147.4299  142.3971  160.2218 H   0  0  0  0  0  0  0  0  0  0  0  0
  155.1725  142.0406  162.8485 H   0  0  0  0  0  0  0  0  0  0  0  0
  1  2  1  0  0  0  0
  1 20  1  0  0  0  0
  1 21  1  0  0  0  0
  1 22  1  0  0  0  0
  2  3  1  0  0  0  0
  2 23  1  0  0  0  0
  2 24  1  0  0  0  0
  3 19  1  0  0  0  0
  3  4  2  0  0  0  0
  4  5  1  0  0  0  0
  5  6  1  0  0  0  0
  5 18  2  0  0  0  0
  6  7  1  0  0  0  0
  6 25  1  0  0  0  0
  6 26  1  0  0  0  0
  7  8  1  0  0  0  0
  7 27  1  0  0  0  0
  7 28  1  0  0  0  0
  8  9  1  0  0  0  0
  8 29  1  0  0  0  0
  9 10  2  0  0  0  0
  9 11  1  0  0  0  0
 11 12  1  0  0  0  0
 11 30  1  0  0  0  0
 12 17  1  0  0  0  0
 12 13  1  0  0  0  0
 12 31  1  0  0  0  0
 13 14  1  0  0  0  0
 13 32  1  0  0  0  0
 13 33  1  0  0  0  0
 14 15  1  0  0  0  0
 14 34  1  0  0  0  0
 14 35  1  0  0  0  0
 15 16  1  0  0  0  0
 16 17  1  0  0  0  0
 16 36  1  0  0  0  0
 16 37  1  0  0  0  0
 17 38  1  0  0  0  0
 17 39  1  0  0  0  0
 18 19  1  0  0  0  0
 18 40  1  0  0  0  0
M  END
> <s_m_source_file>
AV-unprocessed.smi

> <i_m_source_file_index>
1026

> <i_lp_mmshare_version>
43012

> <i_f3d_flags>
0

> <s_epik_input>
W0NIM11bQ0gyXWMxbmMoW2NIXXMxKVtDSDJdW0NIMl1bTkhdQyg9TylbTkhdW0NIXTJbQ0gyXVtDSDJdU1tDSDJdW0NIMl0y

> <s_epik_cmdline>
J2VwaWtfcHl0aG9uJywgJy1waCcsICc3LjAnLCAnLXRuJywgJzgnLCAnLW1hJywgJzIwMCcsICctbWV0YWxfYmluZGluZycsICctaW1hZScsICc8aW5maWxlLm1hZT4nLCAnLW9tYWUnLCAnPG91dGZpbGUubWFlPic=

> <r_epik_Ionization_Penalty>
0.00199316

> <r_epik_Ionization_Penalty_Charging>
0

> <r_epik_Ionization_Penalty_Neutral>
0.00199316

> <r_epik_State_Penalty>
0.00132065

> <r_epik_Charging_Adjusted_Penalty>
0.00132065

> <i_epik_Tot_Q>
0

> <i_epik_Tot_abs_Q>
0

> <r_epik_Metal_State_Penalty>
-0

> <b_epik_Metal_Only>
0

> <s_lp_Force_Field>
OPLS_2005

> <r_lp_Energy>
4.0728

> <b_lp_Chiralities_Consistent>
1

> <s_lp_Variant>
AV-unprocessed.smi:1026-1

> <Gold.Version>
5.8.1

> <Gold.Id.Protein>
6NUR|6NUR_protein|mol2

> <Gold.PLP.Fitness>
44.7337

> <Gold.PLP.PLP>
-42.2080

> <Gold.PLP.part.hbond>
-1.0000

> <Gold.PLP.part.metal>
0.0000

> <Gold.PLP.part.buried>
-2.2890

> <Gold.PLP.part.nonpolar>
-37.2085

> <Gold.PLP.part.repulsive>
0.2105

> <Gold.PLP.ligand.clash>
0.0000

> <Gold.PLP.ligand.torsion>
0.2567

> <Gold.PLP.Chemscore.Hbond>
1.0000

> <Gold.PLP.Chemscore.CHOScore>
0.0000

> <Gold.PLP.Chemscore.Metal>
0.0000

> <Gold.PLP.Chemscore.Internal.Correction>
0.0391

> <Gold.Rescore>
     Score         DG    S(hbond)    S(metal)    S(lipo)     H(rot)  DE(clash)    DE(int)     intcor
     18.09     -18.62       1.00        0.00     118.33       1.58       0.22       0.31       ----

> <Gold.Chemscore.Fitness>
18.0856

> <Gold.Chemscore.DG>
-18.6161

> <Gold.Chemscore.ZeroCoef>
-5.4800

> <Gold.Chemscore.Hbond>
0.9965

> <Gold.Chemscore.Metal>
0.0000

> <Gold.Chemscore.Lipo>
118.3292

> <Gold.Chemscore.Internal_Hbond>
0.0000

> <Gold.Chemscore.DEClash>
0.2241

> <Gold.Chemscore.DEInternal>
0.3065

> <Gold.Chemscore.Rot>
1.5768

> <Gold.Chemscore.Internal.Correction>
   9.000000E+99

> <Gold.Chemscore.Hbond.Weighted>
-3.3283

> <Gold.Chemscore.Metal.Weighted>
-0.0000

> <Gold.Chemscore.Lipo.Weighted>
-13.8445

> <Gold.Chemscore.Internal_Hbond.Weighted>
0.0000

> <Gold.Chemscore.DEClash.Weighted>
0.2241

> <Gold.Chemscore.DEInternal.Weighted>
0.3065

> <Gold.Chemscore.Rot.Weighted>
4.0367

> <Gold.Chemscore.Internal.Correction.Weighted>
   9.000000E+99

> <Gold.Protein.RotatedTorsions>
[ 6907 6896 6895 6894 ] final  175.03 input  -60.11 | X-H torsion
[ 7974 7965 7964 7962 ] final   19.76 input  175.53 | X-H torsion
[ 8008 7997 7996 7995 ] final  -63.74 input   59.86 | X-H torsion
[ 10167 10162 10161 10158 ] final  174.67 input  -65.29 | X-H torsion
[ 10718 10713 10712 10709 ] final  -47.25 input   66.30 | X-H torsion
[ 10763 10752 10751 10750 ] final -173.90 input  -60.55 | X-H torsion
[ 11005 11000 10999 10996 ] final   72.02 input  -57.11 | X-H torsion

> <Gold.Protein.ActiveResidues>
 VAL166  LYS551  ARG553  GLY616  TRP617  ASP618  TYR619  PRO620  LYS621  CYS622 
 ASP623  PHE694  ASN695  SER759  ASP760  ASP761  ALA762  ILE779  LEU786  VAL792 
 PHE793  MET794  SER795  GLU796  ALA797  LYS798  CYS799  TRP800  GLU811  SER814 

> <Gold.Protein.RotatedAtoms>
  151.7428  133.3323  159.3370 H   0  0  0  0  0  0  0  0  0  0  0  0  # atno 6907 bound_to 6896
  150.7566  134.6263  159.6172 H   0  0  0  0  0  0  0  0  0  0  0  0  # atno 6908 bound_to 6896
  152.3519  134.6995  160.0285 H   0  0  0  0  0  0  0  0  0  0  0  0  # atno 6909 bound_to 6896
  146.2137  139.8267  142.8668 H   0  0  0  0  0  0  0  0  0  0  0  0  # atno 7974 bound_to 7965
  154.4571  140.0968  156.6789 H   0  0  0  0  0  0  0  0  0  0  0  0  # atno 8008 bound_to 7997
  155.5104  140.3476  155.4369 H   0  0  0  0  0  0  0  0  0  0  0  0  # atno 8009 bound_to 7997
  156.0800  140.1370  156.9713 H   0  0  0  0  0  0  0  0  0  0  0  0  # atno 8010 bound_to 7997
  139.5150  144.3119  152.0283 H   0  0  0  0  0  0  0  0  0  0  0  0  # atno 10167 bound_to 10162
  156.2103  130.4160  149.9124 H   0  0  0  0  0  0  0  0  0  0  0  0  # atno 10718 bound_to 10713
  154.6025  135.2856  155.0520 H   0  0  0  0  0  0  0  0  0  0  0  0  # atno 10763 bound_to 10752
  154.1779  135.6461  153.5030 H   0  0  0  0  0  0  0  0  0  0  0  0  # atno 10764 bound_to 10752
  153.0162  135.5416  154.6750 H   0  0  0  0  0  0  0  0  0  0  0  0  # atno 10765 bound_to 10752
  139.9512  134.7223  156.0857 H   0  0  0  0  0  0  0  0  0  0  0  0  # atno 11005 bound_to 11000
  145.3040  141.0202  143.3592 LP  0  0  0  0  0  0  0  0  0  0  0  0  # atno 17320 bound_to 7965
  144.8985  139.4680  143.6644 LP  0  0  0  0  0  0  0  0  0  0  0  0  # atno 17321 bound_to 7965
  140.2564  144.4114  150.6202 LP  0  0  0  0  0  0  0  0  0  0  0  0  # atno 17342 bound_to 10162
  140.6189  143.2174  151.6736 LP  0  0  0  0  0  0  0  0  0  0  0  0  # atno 17343 bound_to 10162
  156.6804  130.8856  151.3575 LP  0  0  0  0  0  0  0  0  0  0  0  0  # atno 17370 bound_to 10713
  157.7034  130.9358  150.0856 LP  0  0  0  0  0  0  0  0  0  0  0  0  # atno 17371 bound_to 10713
  141.1176  133.6623  156.3132 LP  0  0  0  0  0  0  0  0  0  0  0  0  # atno 17394 bound_to 11000
  140.5714  134.5837  157.5458 LP  0  0  0  0  0  0  0  0  0  0  0  0  # atno 17395 bound_to 11000

$$$$
