AV-unprocessed.smi:1295|AV-procd|sdf|5406|dock2
  -GOLD-   22720 4563D 1   1.00000     0.00000
 Structure written by MMmdl.
 43 44  0  0  0  0  0  0  0  0  1 V2000
  147.2414  141.3114  152.9808 C   0  0  0  0  0  0  0  0  0  0  0  0
  147.9667  140.9939  154.2705 C   0  0  0  0  0  0  0  0  0  0  0  0
  149.1449  140.2891  154.0874 N   0  0  0  0  0  0  0  0  0  0  0  0
  149.8800  139.9537  155.2107 C   0  0  0  0  0  0  0  0  0  0  0  0
  151.1577  139.1839  154.9228 C   0  0  0  0  0  0  0  0  0  0  0  0
  149.4593  140.2987  156.4542 C   0  0  0  0  0  0  0  0  0  0  0  0
  150.2400  139.9412  157.7176 C   0  0  0  0  0  0  0  0  0  0  0  0
  151.6147  140.6005  157.8505 C   0  0  0  0  0  0  0  0  0  0  0  0
  152.5818  140.1415  157.2431 O   0  0  0  0  0  0  0  0  0  0  0  0
  151.6810  141.6794  158.6457 N   0  0  0  0  0  0  0  0  0  0  0  0
  152.8688  142.4983  158.8959 C   0  0  1  0  0  0  0  0  0  0  0  0
  152.5645  143.9698  158.5501 C   0  0  0  0  0  0  0  0  0  0  0  0
  151.5867  144.6115  159.5499 C   0  0  0  0  0  0  0  0  0  0  0  0
  152.0975  144.4767  160.9922 C   0  0  0  0  0  0  0  0  0  0  0  0
  152.3832  143.0097  161.3513 C   0  0  0  0  0  0  0  0  0  0  0  0
  153.3699  142.3630  160.3570 C   0  0  1  0  0  0  0  0  0  0  0  0
  153.7018  140.9138  160.7524 C   0  0  0  0  0  0  0  0  0  0  0  0
  148.1866  141.0467  156.5871 C   0  0  0  0  0  0  0  0  0  0  0  0
  147.7456  141.3781  157.6868 O   0  0  0  0  0  0  0  0  0  0  0  0
  147.4827  141.3687  155.4154 N   0  0  0  0  0  0  0  0  0  0  0  0
  149.4915  140.0092  153.1811 H   0  0  0  0  0  0  0  0  0  0  0  0
  146.4072  141.9911  153.1596 H   0  0  0  0  0  0  0  0  0  0  0  0
  146.8487  140.3980  152.5335 H   0  0  0  0  0  0  0  0  0  0  0  0
  147.9176  141.7843  152.2677 H   0  0  0  0  0  0  0  0  0  0  0  0
  152.0262  139.7413  155.2736 H   0  0  0  0  0  0  0  0  0  0  0  0
  151.2859  139.0034  153.8549 H   0  0  0  0  0  0  0  0  0  0  0  0
  151.1422  138.2163  155.4252 H   0  0  0  0  0  0  0  0  0  0  0  0
  150.3715  138.8622  157.8014 H   0  0  0  0  0  0  0  0  0  0  0  0
  149.6315  140.2124  158.5812 H   0  0  0  0  0  0  0  0  0  0  0  0
  150.8314  141.9731  159.1057 H   0  0  0  0  0  0  0  0  0  0  0  0
  153.6727  142.1745  158.2326 H   0  0  0  0  0  0  0  0  0  0  0  0
  153.4961  144.5371  158.5501 H   0  0  0  0  0  0  0  0  0  0  0  0
  152.1659  144.0444  157.5375 H   0  0  0  0  0  0  0  0  0  0  0  0
  151.4441  145.6642  159.3044 H   0  0  0  0  0  0  0  0  0  0  0  0
  150.6063  144.1414  159.4634 H   0  0  0  0  0  0  0  0  0  0  0  0
  153.0074  145.0659  161.1135 H   0  0  0  0  0  0  0  0  0  0  0  0
  151.3661  144.8929  161.6854 H   0  0  0  0  0  0  0  0  0  0  0  0
  152.7878  142.9573  162.3627 H   0  0  0  0  0  0  0  0  0  0  0  0
  151.4481  142.4482  161.3671 H   0  0  0  0  0  0  0  0  0  0  0  0
  154.3039  142.9229  160.4237 H   0  0  0  0  0  0  0  0  0  0  0  0
  152.8107  140.2861  160.7739 H   0  0  0  0  0  0  0  0  0  0  0  0
  154.1542  140.8736  161.7435 H   0  0  0  0  0  0  0  0  0  0  0  0
  154.4073  140.4682  160.0508 H   0  0  0  0  0  0  0  0  0  0  0  0
  1 22  1  0  0  0  0
  1 23  1  0  0  0  0
  1 24  1  0  0  0  0
  1  2  1  0  0  0  0
  2  3  1  0  0  0  0
  2 20  2  0  0  0  0
  3  4  1  0  0  0  0
  3 21  1  0  0  0  0
  4  6  2  0  0  0  0
  4  5  1  0  0  0  0
  5 25  1  0  0  0  0
  5 26  1  0  0  0  0
  5 27  1  0  0  0  0
  6 18  1  0  0  0  0
  6  7  1  0  0  0  0
  7  8  1  0  0  0  0
  7 28  1  0  0  0  0
  7 29  1  0  0  0  0
  8  9  2  0  0  0  0
  8 10  1  0  0  0  0
 10 11  1  0  0  0  0
 10 30  1  0  0  0  0
 11 16  1  0  0  0  0
 11 12  1  0  0  0  0
 11 31  1  0  0  0  0
 12 13  1  0  0  0  0
 12 32  1  0  0  0  0
 12 33  1  0  0  0  0
 13 14  1  0  0  0  0
 13 34  1  0  0  0  0
 13 35  1  0  0  0  0
 14 15  1  0  0  0  0
 14 36  1  0  0  0  0
 14 37  1  0  0  0  0
 15 16  1  0  0  0  0
 15 38  1  0  0  0  0
 15 39  1  0  0  0  0
 16 17  1  0  0  0  0
 16 40  1  0  0  0  0
 17 41  1  0  0  0  0
 17 42  1  0  0  0  0
 17 43  1  0  0  0  0
 18 19  2  0  0  0  0
 18 20  1  0  0  0  0
M  END
> <s_m_source_file>
AV-unprocessed.smi

> <i_m_source_file_index>
1295

> <i_lp_mmshare_version>
43012

> <i_f3d_flags>
0

> <s_epik_input>
W0NIM11jMW5jKFtDSDNdKWMoYyg9TylbbkhdMSlbQ0gyXUMoPU8pW05IXVtDQEBIXTJbQ0gyXVtDSDJdW0NIMl1bQ0gyXVtDQEhdMltDSDNd

> <s_epik_cmdline>
J2VwaWtfcHl0aG9uJywgJy1waCcsICc3LjAnLCAnLXRuJywgJzgnLCAnLW1hJywgJzIwMCcsICctbWV0YWxfYmluZGluZycsICctaW1hZScsICc8aW5maWxlLm1hZT4nLCAnLW9tYWUnLCAnPG91dGZpbGUubWFlPic=

> <r_lp_tautomer_probability>
0.156392

> <r_epik_Ionization_Penalty>
0.0136057

> <r_epik_Ionization_Penalty_Charging>
0.0134742

> <r_epik_Ionization_Penalty_Neutral>
0.000131572

> <r_epik_State_Penalty>
1.15342

> <r_epik_Charging_Adjusted_Penalty>
1.16689

> <i_epik_Tot_Q>
0

> <i_epik_Tot_abs_Q>
0

> <r_epik_Metal_State_Penalty>
1.31351

> <b_epik_Metal_Only>
0

> <s_lp_Force_Field>
OPLS_2005

> <r_lp_Energy>
15.3468

> <b_lp_Chiralities_Consistent>
1

> <s_lp_Variant>
AV-unprocessed.smi:1295-6

> <Gold.Version>
5.8.1

> <Gold.Id.Protein>
6NUR|6NUR_protein|mol2

> <Gold.PLP.Fitness>
47.1204

> <Gold.PLP.PLP>
-41.8254

> <Gold.PLP.part.hbond>
-2.0000

> <Gold.PLP.part.metal>
0.0000

> <Gold.PLP.part.buried>
-5.0628

> <Gold.PLP.part.nonpolar>
-34.0893

> <Gold.PLP.part.repulsive>
0.4014

> <Gold.PLP.ligand.clash>
0.0000

> <Gold.PLP.ligand.torsion>
0.3452

> <Gold.PLP.Chemscore.Hbond>
1.9913

> <Gold.PLP.Chemscore.CHOScore>
0.0000

> <Gold.PLP.Chemscore.Metal>
0.0000

> <Gold.Chemscore.Hbonds>
donor molecule, donor type, donor heavy atom, donor atom, acceptor molecule, acceptor atom, score
      L1  H     3    21       P1  7957  1.00
      P1  H  7997  8009       L1     9  1.00

> <Gold.PLP.Chemscore.Internal.Correction>
0.0117

> <Gold.Rescore>
     Score         DG    S(hbond)    S(metal)    S(lipo)     H(rot)  DE(clash)    DE(int)     intcor
     19.28     -20.78       1.83        0.00     110.94       1.48       0.30       1.19       ----

> <Gold.Chemscore.Fitness>
19.2821

> <Gold.Chemscore.DG>
-20.7804

> <Gold.Chemscore.ZeroCoef>
-5.4800

> <Gold.Chemscore.Hbond>
1.8294

> <Gold.Chemscore.Metal>
0.0000

> <Gold.Chemscore.Lipo>
110.9357

> <Gold.Chemscore.Internal_Hbond>
0.0000

> <Gold.Chemscore.DEClash>
0.3033

> <Gold.Chemscore.DEInternal>
1.1950

> <Gold.Chemscore.Rot>
1.4801

> <Gold.Chemscore.Internal.Correction>
   9.000000E+99

> <Gold.Chemscore.Hbonds>
donor molecule, donor type, donor heavy atom, donor atom, acceptor molecule, acceptor atom, score
      L1  H     3    21       P1  7957  0.92
      P1  H  7997  8009       L1     9  0.97

> <Gold.Chemscore.Hbond.Weighted>
-6.1101

> <Gold.Chemscore.Metal.Weighted>
-0.0000

> <Gold.Chemscore.Lipo.Weighted>
-12.9795

> <Gold.Chemscore.Internal_Hbond.Weighted>
0.0000

> <Gold.Chemscore.DEClash.Weighted>
0.3033

> <Gold.Chemscore.DEInternal.Weighted>
1.1950

> <Gold.Chemscore.Rot.Weighted>
3.7891

> <Gold.Chemscore.Internal.Correction.Weighted>
   9.000000E+99

> <Gold.Protein.RotatedTorsions>
[ 6907 6896 6895 6894 ] final  113.93 input  -60.11 | X-H torsion
[ 7974 7965 7964 7962 ] final  -31.12 input  175.53 | X-H torsion
[ 8008 7997 7996 7995 ] final -179.62 input   59.86 | X-H torsion
[ 10167 10162 10161 10158 ] final  166.13 input  -65.29 | X-H torsion
[ 10718 10713 10712 10709 ] final  -99.33 input   66.30 | X-H torsion
[ 10763 10752 10751 10750 ] final  128.81 input  -60.55 | X-H torsion
[ 11005 11000 10999 10996 ] final  108.47 input  -57.11 | X-H torsion

> <Gold.Protein.ActiveResidues>
 VAL166  LYS551  ARG553  GLY616  TRP617  ASP618  TYR619  PRO620  LYS621  CYS622 
 ASP623  PHE694  ASN695  SER759  ASP760  ASP761  ALA762  ILE779  LEU786  VAL792 
 PHE793  MET794  SER795  GLU796  ALA797  LYS798  CYS799  TRP800  GLU811  SER814 

> <Gold.Protein.RotatedAtoms>
  152.4832  133.8307  159.7101 H   0  0  0  0  0  0  0  0  0  0  0  0  # atno 6907 bound_to 6896
  150.8898  133.7249  159.2914 H   0  0  0  0  0  0  0  0  0  0  0  0  # atno 6908 bound_to 6896
  151.4726  135.1050  159.9808 H   0  0  0  0  0  0  0  0  0  0  0  0  # atno 6909 bound_to 6896
  146.1091  140.5627  142.8786 H   0  0  0  0  0  0  0  0  0  0  0  0  # atno 7974 bound_to 7965
  156.0326  140.1285  157.0242 H   0  0  0  0  0  0  0  0  0  0  0  0  # atno 8008 bound_to 7997
  154.4356  140.1046  156.6191 H   0  0  0  0  0  0  0  0  0  0  0  0  # atno 8009 bound_to 7997
  155.5785  140.3467  155.4536 H   0  0  0  0  0  0  0  0  0  0  0  0  # atno 8010 bound_to 7997
  139.4918  144.4060  151.9355 H   0  0  0  0  0  0  0  0  0  0  0  0  # atno 10167 bound_to 10162
  156.0131  130.5277  150.6654 H   0  0  0  0  0  0  0  0  0  0  0  0  # atno 10718 bound_to 10713
  153.7315  135.3238  155.3287 H   0  0  0  0  0  0  0  0  0  0  0  0  # atno 10763 bound_to 10752
  154.8324  135.4523  154.1117 H   0  0  0  0  0  0  0  0  0  0  0  0  # atno 10764 bound_to 10752
  153.2265  135.6955  153.8020 H   0  0  0  0  0  0  0  0  0  0  0  0  # atno 10765 bound_to 10752
  139.8845  134.9431  156.5978 H   0  0  0  0  0  0  0  0  0  0  0  0  # atno 11005 bound_to 11000
  144.7496  140.5158  143.6811 LP  0  0  0  0  0  0  0  0  0  0  0  0  # atno 17320 bound_to 7965
  145.5699  139.1483  143.3294 LP  0  0  0  0  0  0  0  0  0  0  0  0  # atno 17321 bound_to 7965
  140.3500  144.3100  150.5951 LP  0  0  0  0  0  0  0  0  0  0  0  0  # atno 17342 bound_to 10162
  140.5493  143.2209  151.7954 LP  0  0  0  0  0  0  0  0  0  0  0  0  # atno 17343 bound_to 10162
  157.4388  131.0858  151.0965 LP  0  0  0  0  0  0  0  0  0  0  0  0  # atno 17370 bound_to 10713
  157.1515  130.6186  149.5584 LP  0  0  0  0  0  0  0  0  0  0  0  0  # atno 17371 bound_to 10713
  140.7907  133.8585  155.8643 LP  0  0  0  0  0  0  0  0  0  0  0  0  # atno 17394 bound_to 11000
  140.9680  134.1569  157.4600 LP  0  0  0  0  0  0  0  0  0  0  0  0  # atno 17395 bound_to 11000

$$$$
