#       Name:                AV-unprocessed.smi:1795
#       Creating user name   scv26
#       Creation time:       Fri Mar 27 08:49:52 2020


#       File generated by GOLD software.
#

@<TRIPOS>MOLECULE
AV-unprocessed.smi:1795
    54    55     1
SMALL
NO_CHARGES


@<TRIPOS>ATOM
      1 ****        -0.1196  -2.8302  -4.2152 C.3            1 S1                 0.0000
      2 ****        -1.0288  -1.7145  -3.6874 C.3            1 S1                 0.0000
      3 ****        -0.4600  -1.0565  -2.4155 C.3            1 S1                 0.0000
      4 ****        -1.3927  -0.0371  -1.8578 N.4            1 S1                 1.0000
      5 ****        -0.8999   0.6490  -0.6161 C.3            1 S1                 0.0000
      6 ****        -1.7968   1.8590  -0.2571 C.3            1 S1                 0.0000
      7 ****         0.5873   1.0971  -0.7155 C.3            1 S1                 0.0000
      8 ****         1.0684   1.7755   0.4853 N.am           1 S1                 0.0000
      9 ****         1.3852   1.1667   1.6384 C.2            1 S1                 0.0000
     10 ****         1.2851  -0.0495   1.8055 O.2            1 S1                 0.0000
     11 ****         1.8635   2.0804   2.7757 C.3            1 S1                 0.0000
     12 ****         2.7218   1.3891   3.7521 N.am           1 S1                 0.0000
     13 ****         2.1138   0.9470   4.9443 C.2            1 S1                 0.0000
     14 ****         2.8058   0.3036   5.8980 C.2            1 S1                 0.0000
     15 ****         4.2132   0.0673   5.6783 C.2            1 S1                 0.0000
     16 ****         4.8040   0.4835   4.5404 C.2            1 S1                 0.0000
     17 ****         4.0509   1.1849   3.4942 C.2            1 S1                 0.0000
     18 ****         4.5811   1.5651   2.4496 O.2            1 S1                 0.0000
     19 ****        -2.7438  -0.6414  -1.6895 C.3            1 S1                 0.0000
     20 ****        -3.2380  -1.2991  -2.9910 C.3            1 S1                 0.0000
     21 ****        -4.5961  -1.9868  -2.8108 C.3            1 S1                 0.0000
     22 ****        -2.2974  -2.2820  -3.3971 O.3            1 S1                 0.0000
     23 ****         0.8696  -2.4462  -4.4658 H              1 S1                 0.0000
     24 ****        -0.5381  -3.2808  -5.1155 H              1 S1                 0.0000
     25 ****         0.0058  -3.6211  -3.4752 H              1 S1                 0.0000
     26 ****        -1.1410  -0.9627  -4.4708 H              1 S1                 0.0000
     27 ****        -0.2528  -1.8124  -1.6560 H              1 S1                 0.0000
     28 ****         0.4886  -0.6003  -2.6941 H              1 S1                 0.0000
     29 ****        -0.9692  -0.0744   0.1981 H              1 S1                 0.0000
     30 ****        -1.4269   2.3997   0.6136 H              1 S1                 0.0000
     31 ****        -2.8126   1.5666   0.0022 H              1 S1                 0.0000
     32 ****        -1.8502   2.5688  -1.0832 H              1 S1                 0.0000
     33 ****         1.2540   0.2510  -0.8823 H              1 S1                 0.0000
     34 ****         0.7194   1.7726  -1.5615 H              1 S1                 0.0000
     35 ****         1.1766   2.7783   0.4326 H              1 S1                 0.0000
     36 ****         2.3923   2.9391   2.3574 H              1 S1                 0.0000
     37 ****         0.9835   2.4989   3.2663 H              1 S1                 0.0000
     38 ****         1.0572   1.1563   5.0284 H              1 S1                 0.0000
     39 ****         2.3220  -0.0320   6.8036 H              1 S1                 0.0000
     40 ****         4.7947  -0.4471   6.4292 H              1 S1                 0.0000
     41 ****         5.8577   0.2965   4.3926 H              1 S1                 0.0000
     42 ****        -2.7127  -1.3792  -0.8858 H              1 S1                 0.0000
     43 ****        -3.4758   0.1113  -1.4045 H              1 S1                 0.0000
     44 ****        -3.3348  -0.5436  -3.7729 H              1 S1                 0.0000
     45 ****        -5.3608  -1.2721  -2.5060 H              1 S1                 0.0000
     46 ****        -4.5463  -2.7681  -2.0517 H              1 S1                 0.0000
     47 ****        -4.9261  -2.4484  -3.7418 H              1 S1                 0.0000
     48 ****        -1.4798   0.6782  -2.5656 H              1 S1                 0.0000
     49 ****         0.9547  -0.6308   1.0619 LP             1 S1                 0.0000
     50 ****         1.5342  -0.4556   2.6847 LP             1 S1                 0.0000
     51 ****         4.0378   2.0397   1.7571 LP             1 S1                 0.0000
     52 ****         5.5548   1.3992   2.2939 LP             1 S1                 0.0000
     53 ****        -2.1914  -2.9511  -2.6615 LP             1 S1                 0.0000
     54 ****        -2.6419  -2.7396  -4.2168 LP             1 S1                 0.0000
@<TRIPOS>BOND
    1    1    2 1     
    2    1   23 1     
    3    1   24 1     
    4    1   25 1     
    5    2   22 1     
    6    2    3 1     
    7    2   26 1     
    8    3    4 1     
    9    3   27 1     
   10    3   28 1     
   11    4    5 1     
   12    4   19 1     
   13    4   48 1     
   14    5    6 1     
   15    5    7 1     
   16    5   29 1     
   17    6   30 1     
   18    6   31 1     
   19    6   32 1     
   20    7    8 1     
   21    7   33 1     
   22    7   34 1     
   23    8    9 am    
   24    8   35 1     
   25    9   10 2     
   26    9   11 1     
   27   11   12 1     
   28   11   36 1     
   29   11   37 1     
   30   12   17 am    
   31   12   13 1     
   32   13   14 2     
   33   13   38 1     
   34   14   15 1     
   35   14   39 1     
   36   15   16 2     
   37   15   40 1     
   38   16   17 1     
   39   16   41 1     
   40   17   18 2     
   41   19   20 1     
   42   19   42 1     
   43   19   43 1     
   44   20   21 1     
   45   20   22 1     
   46   20   44 1     
   47   21   45 1     
   48   21   46 1     
   49   21   47 1     
   50   10   49 1     
   51   10   50 1     
   52   18   51 1     
   53   18   52 1     
   54   22   53 1     
   55   22   54 1     
@<TRIPOS>SUBSTRUCTURE
      1 S1             1
@<TRIPOS>SET
LONE_PAIRS      STATIC     ATOMS    <user>   **** ""
6 49 50 51 52 53 54
DONOR_HYDROGENS      STATIC     ATOMS    <user>   **** ""
2 48 35
ATOM$BLUE        STATIC     ATOMS    COLORGROUP SYSTEM
6 49 50 51 52 53 54
ATOM$RED        STATIC     ATOMS    COLORGROUP SYSTEM
2 48 35
