#       Name:                AV-unprocessed.smi:3019
#       Creating user name   scv26
#       Creation time:       Fri Mar 27 16:43:11 2020


#       File generated by GOLD software.
#

@<TRIPOS>MOLECULE
AV-unprocessed.smi:3019
    35    36     1
SMALL
NO_CHARGES


@<TRIPOS>ATOM
      1 ****        -3.5719   0.9540   1.5569 C.3            1 S1                 0.0000
      2 ****        -2.9795   1.5751   0.2850 C.3            1 S1                 0.0000
      3 ****        -3.5459   0.9645  -1.0045 C.3            1 S1                 0.0000
      4 ****        -1.4636   1.5399   0.3011 C.2            1 S1                 0.0000
      5 ****        -0.6523   2.6113   0.3551 N.pl3          1 S1                -1.0000
      6 ****         0.6055   2.2193   0.3605 N.2            1 S1                 0.0000
      7 ****         0.5630   0.8787   0.3186 C.2            1 S1                 0.0000
      8 ****         1.7854  -0.0164   0.2645 C.3            1 S1                 0.0000
      9 ****         2.2261  -0.2603  -1.1934 C.3            1 S1                 0.0000
     10 ****         3.3975  -1.1354  -1.2410 N.3            1 S1                 0.0000
     11 ****         3.1517  -2.3859  -0.5268 C.3            1 S1                 0.0000
     12 ****         2.6978  -2.0956   0.9139 C.3            1 S1                 0.0000
     13 ****         1.5354  -1.2752   0.8879 O.3            1 S1                 0.0000
     14 ****        -0.7061   0.4471   0.2735 N.2            1 S1                 0.0000
     15 ****        -3.1995   1.4596   2.4482 H              1 S1                 0.0000
     16 ****        -3.3104  -0.1013   1.6392 H              1 S1                 0.0000
     17 ****        -4.6593   1.0301   1.5625 H              1 S1                 0.0000
     18 ****        -3.2613   2.6289   0.2858 H              1 S1                 0.0000
     19 ****        -3.1534   1.4752  -1.8843 H              1 S1                 0.0000
     20 ****        -4.6328   1.0428  -1.0327 H              1 S1                 0.0000
     21 ****        -3.2852  -0.0909  -1.0882 H              1 S1                 0.0000
     22 ****         2.5825   0.4931   0.8094 H              1 S1                 0.0000
     23 ****         1.4049  -0.7109  -1.7525 H              1 S1                 0.0000
     24 ****         2.4525   0.6887  -1.6802 H              1 S1                 0.0000
     25 ****         2.3837  -2.9629  -1.0433 H              1 S1                 0.0000
     26 ****         4.0539  -2.9977  -0.5202 H              1 S1                 0.0000
     27 ****         2.4595  -3.0276   1.4265 H              1 S1                 0.0000
     28 ****         3.4913  -1.6118   1.4858 H              1 S1                 0.0000
     29 ****         3.6293  -1.3366  -2.2084 H              1 S1                 0.0000
     30 ****        -0.9580   3.5629   0.3865 LP             1 S1                 0.0000
     31 ****         1.4201   2.7986   0.3897 LP             1 S1                 0.0000
     32 ****         4.1602  -0.6657  -0.7963 LP             1 S1                 0.0000
     33 ****         0.8162  -1.7499   0.3806 LP             1 S1                 0.0000
     34 ****         1.2313  -1.1159   1.8271 LP             1 S1                 0.0000
     35 ****        -1.0186  -0.5017   0.2284 LP             1 S1                 0.0000
@<TRIPOS>BOND
    1    1    2 1     
    2    1   15 1     
    3    1   16 1     
    4    1   17 1     
    5    2    3 1     
    6    2    4 1     
    7    2   18 1     
    8    3   19 1     
    9    3   20 1     
   10    3   21 1     
   11    4   14 2     
   12    4    5 1     
   13    5    6 1     
   14    6    7 2     
   15    7    8 1     
   16    7   14 1     
   17    8   13 1     
   18    8    9 1     
   19    8   22 1     
   20    9   10 1     
   21    9   23 1     
   22    9   24 1     
   23   10   11 1     
   24   10   29 1     
   25   11   12 1     
   26   11   25 1     
   27   11   26 1     
   28   12   13 1     
   29   12   27 1     
   30   12   28 1     
   31    5   30 1     
   32    6   31 1     
   33   10   32 1     
   34   13   33 1     
   35   13   34 1     
   36   14   35 1     
@<TRIPOS>SUBSTRUCTURE
      1 S1             1
@<TRIPOS>SET
LONE_PAIRS      STATIC     ATOMS    <user>   **** ""
6 30 31 32 33 34 35
DONOR_HYDROGENS      STATIC     ATOMS    <user>   **** ""
1 29
ATOM$BLUE        STATIC     ATOMS    COLORGROUP SYSTEM
6 30 31 32 33 34 35
ATOM$RED        STATIC     ATOMS    COLORGROUP SYSTEM
1 29
