AV-unprocessed.smi:1199|AV-procd|sdf|5019|dock10
  -GOLD-   22720 4 43D 1   1.00000     0.00000
 Structure written by MMmdl.
 41 42  0  0  0  0  0  0  0  0  1 V2000
  151.1670  139.2624  156.5272 C   0  0  0  0  0  0  0  0  0  0  0  0
  150.5898  139.2782  157.9506 C   0  0  1  0  0  0  0  0  0  0  0  0
  150.2316  140.7102  158.4064 C   0  0  0  0  0  0  0  0  0  0  0  0
  151.3197  141.6895  158.3369 N   0  0  0  0  0  0  0  0  0  0  0  0
  152.1106  141.7547  159.5653 C   0  0  0  0  0  0  0  0  0  0  0  0
  153.2174  142.8203  159.4889 C   0  0  0  0  0  0  0  0  0  0  0  0
  152.6448  144.0867  159.1826 O   0  0  0  0  0  0  0  0  0  0  0  0
  151.9174  144.0746  157.9589 C   0  0  0  0  0  0  0  0  0  0  0  0
  150.8000  143.0202  158.0380 C   0  0  0  0  0  0  0  0  0  0  0  0
  149.3935  138.4404  157.9829 N   0  0  0  0  0  0  0  0  0  0  0  0
  149.2295  137.3428  158.7368 C   0  0  0  0  0  0  0  0  0  0  0  0
  150.1248  136.8514  159.4242 O   0  0  0  0  0  0  0  0  0  0  0  0
  147.8328  136.7111  158.7145 C   0  0  0  0  0  0  0  0  0  0  0  0
  147.4485  136.2158  160.0431 N   0  0  0  0  0  0  0  0  0  0  0  0
  147.3678  137.2115  161.0064 N   0  0  0  0  0  0  0  0  0  0  0  0
  147.0868  136.9068  162.2278 C   0  0  0  0  0  0  0  0  0  0  0  0
  147.0254  137.9235  163.1488 O   0  0  0  0  0  0  0  0  0  0  0  0
  146.8421  135.5367  162.6197 C   0  0  0  0  0  0  0  0  0  0  0  0
  146.9169  134.5745  161.6741 C   0  0  0  0  0  0  0  0  0  0  0  0
  147.2399  134.8840  160.2800 C   0  0  0  0  0  0  0  0  0  0  0  0
  147.3234  134.0253  159.4024 O   0  0  0  0  0  0  0  0  0  0  0  0
  147.0950  138.7213  162.6473 H   0  0  0  0  0  0  0  0  0  0  0  0
  152.0788  139.8575  156.4673 H   0  0  0  0  0  0  0  0  0  0  0  0
  150.4575  139.6663  155.8044 H   0  0  0  0  0  0  0  0  0  0  0  0
  151.4196  138.2479  156.2170 H   0  0  0  0  0  0  0  0  0  0  0  0
  151.3571  138.8844  158.6200 H   0  0  0  0  0  0  0  0  0  0  0  0
  149.4301  141.0662  157.7577 H   0  0  0  0  0  0  0  0  0  0  0  0
  149.8017  140.6918  159.4094 H   0  0  0  0  0  0  0  0  0  0  0  0
  151.4604  141.9666  160.4155 H   0  0  0  0  0  0  0  0  0  0  0  0
  152.5835  140.7940  159.7603 H   0  0  0  0  0  0  0  0  0  0  0  0
  153.7450  142.8863  160.4407 H   0  0  0  0  0  0  0  0  0  0  0  0
  153.9562  142.5551  158.7309 H   0  0  0  0  0  0  0  0  0  0  0  0
  151.4943  145.0642  157.7860 H   0  0  0  0  0  0  0  0  0  0  0  0
  152.5913  143.8632  157.1271 H   0  0  0  0  0  0  0  0  0  0  0  0
  150.2567  143.0018  157.0925 H   0  0  0  0  0  0  0  0  0  0  0  0
  150.0818  143.3167  158.8041 H   0  0  0  0  0  0  0  0  0  0  0  0
  148.6041  138.7601  157.4407 H   0  0  0  0  0  0  0  0  0  0  0  0
  147.0971  137.4416  158.3714 H   0  0  0  0  0  0  0  0  0  0  0  0
  147.8190  135.9145  157.9690 H   0  0  0  0  0  0  0  0  0  0  0  0
  146.6056  135.2981  163.6461 H   0  0  0  0  0  0  0  0  0  0  0  0
  146.7373  133.5468  161.9535 H   0  0  0  0  0  0  0  0  0  0  0  0
  1  2  1  0  0  0  0
  1 23  1  0  0  0  0
  1 24  1  0  0  0  0
  1 25  1  0  0  0  0
  2  3  1  0  0  0  0
  2 10  1  0  0  0  0
  2 26  1  0  0  0  0
  3  4  1  0  0  0  0
  3 27  1  0  0  0  0
  3 28  1  0  0  0  0
  4  9  1  0  0  0  0
  4  5  1  0  0  0  0
  5  6  1  0  0  0  0
  5 29  1  0  0  0  0
  5 30  1  0  0  0  0
  6  7  1  0  0  0  0
  6 31  1  0  0  0  0
  6 32  1  0  0  0  0
  7  8  1  0  0  0  0
  8  9  1  0  0  0  0
  8 33  1  0  0  0  0
  8 34  1  0  0  0  0
  9 35  1  0  0  0  0
  9 36  1  0  0  0  0
 10 11  1  0  0  0  0
 10 37  1  0  0  0  0
 11 12  2  0  0  0  0
 11 13  1  0  0  0  0
 13 38  1  0  0  0  0
 13 39  1  0  0  0  0
 13 14  1  0  0  0  0
 14 15  1  0  0  0  0
 14 20  1  0  0  0  0
 15 16  2  0  0  0  0
 16 17  1  0  0  0  0
 16 18  1  0  0  0  0
 17 22  1  0  0  0  0
 18 40  1  0  0  0  0
 18 19  2  0  0  0  0
 19 41  1  0  0  0  0
 19 20  1  0  0  0  0
 20 21  2  0  0  0  0
M  END
> <s_m_source_file>
AV-unprocessed.smi

> <i_m_source_file_index>
1199

> <i_lp_mmshare_version>
43012

> <i_f3d_flags>
0

> <s_epik_input>
W0NIMl0xW0NIMl1PW0NIMl1bQ0gyXU4xW0NIMl1bQ0BASF0oW0NIM10pW05IXUMoPU8pW0NIMl1uMltuSF1jKD1PKVtjSF1bY0hdYzI9Tw==

> <s_epik_cmdline>
J2VwaWtfcHl0aG9uJywgJy1waCcsICc3LjAnLCAnLXRuJywgJzgnLCAnLW1hJywgJzIwMCcsICctbWV0YWxfYmluZGluZycsICctaW1hZScsICc8aW5maWxlLm1hZT4nLCAnLW9tYWUnLCAnPG91dGZpbGUubWFlPic=

> <r_epik_Ionization_Penalty>
2.36432

> <r_epik_Ionization_Penalty_Charging>
3.67277e-08

> <r_epik_Ionization_Penalty_Neutral>
2.36432

> <r_epik_State_Penalty>
1.96081

> <r_epik_Charging_Adjusted_Penalty>
1.96081

> <i_epik_Tot_Q>
0

> <i_epik_Tot_abs_Q>
0

> <r_epik_Metal_State_Penalty>
1.96081

> <b_epik_Metal_Only>
0

> <s_lp_Force_Field>
OPLS_2005

> <r_lp_Energy>
38.3542

> <b_lp_Chiralities_Consistent>
1

> <s_lp_Variant>
AV-unprocessed.smi:1199-6

> <Gold.Version>
5.8.1

> <Gold.Id.Protein>
6NUR|6NUR_protein|mol2

> <Gold.PLP.Fitness>
45.5150

> <Gold.PLP.PLP>
-40.6626

> <Gold.PLP.part.hbond>
-4.8381

> <Gold.PLP.part.metal>
0.0000

> <Gold.PLP.part.buried>
-5.2744

> <Gold.PLP.part.nonpolar>
-32.0721

> <Gold.PLP.part.repulsive>
0.1227

> <Gold.PLP.ligand.clash>
0.0000

> <Gold.PLP.ligand.torsion>
0.7265

> <Gold.PLP.Chemscore.Hbond>
2.0980

> <Gold.PLP.Chemscore.CHOScore>
0.0000

> <Gold.PLP.Chemscore.Metal>
0.0000

> <Gold.Chemscore.Hbonds>
donor molecule, donor type, donor heavy atom, donor atom, acceptor molecule, acceptor atom, score
      P1  H  6896  6908       L1    12  0.91
      P1  H  6931  6943       L1    15  0.11
      P1  H  6934  6947       L1    15  1.00

> <Gold.PLP.Chemscore.Internal.Correction>
0.0114

> <Gold.Rescore>
     Score         DG    S(hbond)    S(metal)    S(lipo)     H(rot)  DE(clash)    DE(int)     intcor
     12.10     -12.70       1.74        0.00      76.58       2.94       0.03       0.57       ----

> <Gold.Chemscore.Fitness>
12.0987

> <Gold.Chemscore.DG>
-12.7004

> <Gold.Chemscore.ZeroCoef>
-5.4800

> <Gold.Chemscore.Hbond>
1.7356

> <Gold.Chemscore.Metal>
0.0000

> <Gold.Chemscore.Lipo>
76.5773

> <Gold.Chemscore.Internal_Hbond>
0.0000

> <Gold.Chemscore.DEClash>
0.0342

> <Gold.Chemscore.DEInternal>
0.5675

> <Gold.Chemscore.Rot>
2.9437

> <Gold.Chemscore.Internal.Correction>
   9.000000E+99

> <Gold.Chemscore.Hbonds>
donor molecule, donor type, donor heavy atom, donor atom, acceptor molecule, acceptor atom, score
      P1  H  6896  6908       L1    12  0.87
      P1  H  6934  6947       L1    15  0.43

> <Gold.Chemscore.Hbond.Weighted>
-5.7968

> <Gold.Chemscore.Metal.Weighted>
-0.0000

> <Gold.Chemscore.Lipo.Weighted>
-8.9595

> <Gold.Chemscore.Internal_Hbond.Weighted>
0.0000

> <Gold.Chemscore.DEClash.Weighted>
0.0342

> <Gold.Chemscore.DEInternal.Weighted>
0.5675

> <Gold.Chemscore.Rot.Weighted>
7.5359

> <Gold.Chemscore.Internal.Correction.Weighted>
   9.000000E+99

> <Gold.Protein.RotatedTorsions>
[ 6907 6896 6895 6894 ] final -155.92 input  -60.11 | X-H torsion
[ 7974 7965 7964 7962 ] final -118.38 input  175.53 | X-H torsion
[ 8008 7997 7996 7995 ] final -145.97 input   59.86 | X-H torsion
[ 10167 10162 10161 10158 ] final  -65.69 input  -65.29 | X-H torsion
[ 10718 10713 10712 10709 ] final  119.89 input   66.30 | X-H torsion
[ 10763 10752 10751 10750 ] final  -80.48 input  -60.55 | X-H torsion
[ 11005 11000 10999 10996 ] final   88.23 input  -57.11 | X-H torsion

> <Gold.Protein.ActiveResidues>
 VAL166  LYS551  ARG553  GLY616  TRP617  ASP618  TYR619  PRO620  LYS621  CYS622 
 ASP623  PHE694  ASN695  SER759  ASP760  ASP761  ALA762  ILE779  LEU786  VAL792 
 PHE793  MET794  SER795  GLU796  ALA797  LYS798  CYS799  TRP800  GLU811  SER814 

> <Gold.Protein.RotatedAtoms>
  151.2797  133.4215  159.2625 H   0  0  0  0  0  0  0  0  0  0  0  0  # atno 6907 bound_to 6896
  151.0371  134.9581  159.8152 H   0  0  0  0  0  0  0  0  0  0  0  0  # atno 6908 bound_to 6896
  152.5358  134.2756  159.9041 H   0  0  0  0  0  0  0  0  0  0  0  0  # atno 6909 bound_to 6896
  145.0744  140.8382  143.4076 H   0  0  0  0  0  0  0  0  0  0  0  0  # atno 7974 bound_to 7965
  155.5518  140.0617  157.2848 H   0  0  0  0  0  0  0  0  0  0  0  0  # atno 8008 bound_to 7997
  154.4418  140.1901  156.0739 H   0  0  0  0  0  0  0  0  0  0  0  0  # atno 8009 bound_to 7997
  156.0511  140.3284  155.7355 H   0  0  0  0  0  0  0  0  0  0  0  0  # atno 8010 bound_to 7997
  140.5711  143.2318  151.6536 H   0  0  0  0  0  0  0  0  0  0  0  0  # atno 10167 bound_to 10162
  157.5930  131.1062  150.7959 H   0  0  0  0  0  0  0  0  0  0  0  0  # atno 10718 bound_to 10713
  154.5518  135.5659  153.6928 H   0  0  0  0  0  0  0  0  0  0  0  0  # atno 10763 bound_to 10752
  152.9992  135.6252  154.2364 H   0  0  0  0  0  0  0  0  0  0  0  0  # atno 10764 bound_to 10752
  154.2299  135.2866  155.2873 H   0  0  0  0  0  0  0  0  0  0  0  0  # atno 10765 bound_to 10752
  139.8901  134.8474  156.2971 H   0  0  0  0  0  0  0  0  0  0  0  0  # atno 11005 bound_to 11000
  145.1253  139.2667  143.5567 LP  0  0  0  0  0  0  0  0  0  0  0  0  # atno 17320 bound_to 7965
  146.3529  140.0889  142.8613 LP  0  0  0  0  0  0  0  0  0  0  0  0  # atno 17321 bound_to 7965
  139.5118  144.3497  152.0664 LP  0  0  0  0  0  0  0  0  0  0  0  0  # atno 17342 bound_to 10162
  140.2634  144.4042  150.6177 LP  0  0  0  0  0  0  0  0  0  0  0  0  # atno 17343 bound_to 10162
  156.8377  130.5037  149.5324 LP  0  0  0  0  0  0  0  0  0  0  0  0  # atno 17370 bound_to 10713
  156.0987  130.5952  150.9858 LP  0  0  0  0  0  0  0  0  0  0  0  0  # atno 17371 bound_to 10713
  140.9938  133.7192  156.0855 LP  0  0  0  0  0  0  0  0  0  0  0  0  # atno 17394 bound_to 11000
  140.7589  134.3961  157.5529 LP  0  0  0  0  0  0  0  0  0  0  0  0  # atno 17395 bound_to 11000

$$$$
