AV-unprocessed.smi:2252|AV-procd|sdf|9113|dock7
  -GOLD-   2272012313D 1   1.00000     0.00000
 Structure written by MMmdl.
 44 46  0  0  0  0  0  0  0  0  1 V2000
  151.2820  145.8128  159.9456 C   0  0  0  0  0  0  0  0  0  0  0  0
  151.7485  144.6286  160.6410 N   0  0  0  0  0  0  0  0  0  0  0  0
  151.9954  144.5266  162.0037 C   0  0  0  0  0  0  0  0  0  0  0  0
  152.4100  143.2370  162.2334 C   0  0  0  0  0  0  0  0  0  0  0  0
  152.4263  142.5364  161.0320 N   0  0  0  0  0  0  0  0  0  0  0  0
  152.0310  143.4190  160.1195 C   0  0  0  0  0  0  0  0  0  0  0  0
  151.8792  143.0999  158.6650 C   0  0  0  0  0  0  0  0  0  0  0  0
  150.4200  143.1993  158.1908 C   0  0  0  0  0  0  0  0  0  0  0  0
  150.2646  142.6901  156.8339 N   0  0  0  0  0  0  0  0  0  0  0  0
  149.6022  141.5694  156.5067 C   0  0  0  0  0  0  0  0  0  0  0  0
  149.0677  140.8353  157.3391 O   0  0  0  0  0  0  0  0  0  0  0  0
  149.5396  141.2158  155.0101 C   0  0  2  0  0  0  0  0  0  0  0  0
  148.0685  140.9939  154.5956 C   0  0  0  0  0  0  0  0  0  0  0  0
  147.6722  140.9281  153.1355 C   0  0  0  0  0  0  0  0  0  0  0  0
  147.2646  142.1147  153.9660 C   0  0  0  0  0  0  0  0  0  0  0  0
  150.3713  140.0371  154.6628 N   0  0  0  0  0  0  0  0  0  0  0  0
  149.7309  138.7415  154.8852 C   0  0  0  0  0  0  0  0  0  0  0  0
  150.8844  137.7397  154.8086 C   0  0  0  0  0  0  0  0  0  0  0  0
  152.1314  138.5547  155.1377 C   0  0  0  0  0  0  0  0  0  0  0  0
  151.6071  139.9588  155.4358 C   0  0  0  0  0  0  0  0  0  0  0  0
  150.9913  146.5800  160.6637 H   0  0  0  0  0  0  0  0  0  0  0  0
  150.4192  145.5664  159.3262 H   0  0  0  0  0  0  0  0  0  0  0  0
  152.0780  146.2048  159.3124 H   0  0  0  0  0  0  0  0  0  0  0  0
  151.8568  145.3570  162.6803 H   0  0  0  0  0  0  0  0  0  0  0  0
  152.6950  142.7635  163.1612 H   0  0  0  0  0  0  0  0  0  0  0  0
  152.5202  143.7619  158.0820 H   0  0  0  0  0  0  0  0  0  0  0  0
  152.2542  142.0902  158.4925 H   0  0  0  0  0  0  0  0  0  0  0  0
  149.7745  142.6184  158.8502 H   0  0  0  0  0  0  0  0  0  0  0  0
  150.0680  144.2313  158.2426 H   0  0  0  0  0  0  0  0  0  0  0  0
  150.6802  143.2321  156.0900 H   0  0  0  0  0  0  0  0  0  0  0  0
  149.9242  142.0776  154.4602 H   0  0  0  0  0  0  0  0  0  0  0  0
  147.5093  140.3558  155.2784 H   0  0  0  0  0  0  0  0  0  0  0  0
  148.4505  141.0808  152.3905 H   0  0  0  0  0  0  0  0  0  0  0  0
  146.8976  140.2156  152.8595 H   0  0  0  0  0  0  0  0  0  0  0  0
  146.2168  142.1978  154.2475 H   0  0  0  0  0  0  0  0  0  0  0  0
  147.7696  143.0583  153.7684 H   0  0  0  0  0  0  0  0  0  0  0  0
  149.2780  138.7136  155.8781 H   0  0  0  0  0  0  0  0  0  0  0  0
  148.9553  138.5240  154.1499 H   0  0  0  0  0  0  0  0  0  0  0  0
  150.7389  136.9115  155.5028 H   0  0  0  0  0  0  0  0  0  0  0  0
  150.9642  137.3214  153.8045 H   0  0  0  0  0  0  0  0  0  0  0  0
  152.6866  138.1434  155.9813 H   0  0  0  0  0  0  0  0  0  0  0  0
  152.8013  138.5751  154.2770 H   0  0  0  0  0  0  0  0  0  0  0  0
  152.3238  140.7312  155.1547 H   0  0  0  0  0  0  0  0  0  0  0  0
  151.3952  140.0607  156.5019 H   0  0  0  0  0  0  0  0  0  0  0  0
  1  2  1  0  0  0  0
  1 21  1  0  0  0  0
  1 22  1  0  0  0  0
  1 23  1  0  0  0  0
  2  6  1  0  0  0  0
  2  3  1  0  0  0  0
  3  4  2  0  0  0  0
  3 24  1  0  0  0  0
  4  5  1  0  0  0  0
  4 25  1  0  0  0  0
  5  6  2  0  0  0  0
  6  7  1  0  0  0  0
  7  8  1  0  0  0  0
  7 26  1  0  0  0  0
  7 27  1  0  0  0  0
  8  9  1  0  0  0  0
  8 28  1  0  0  0  0
  8 29  1  0  0  0  0
  9 10  1  0  0  0  0
  9 30  1  0  0  0  0
 10 11  2  0  0  0  0
 10 12  1  0  0  0  0
 12 13  1  0  0  0  0
 12 16  1  0  0  0  0
 12 31  1  0  0  0  0
 13 15  1  0  0  0  0
 13 14  1  0  0  0  0
 13 32  1  0  0  0  0
 14 15  1  0  0  0  0
 14 33  1  0  0  0  0
 14 34  1  0  0  0  0
 15 35  1  0  0  0  0
 15 36  1  0  0  0  0
 16 20  1  0  0  0  0
 16 17  1  0  0  0  0
 17 18  1  0  0  0  0
 17 37  1  0  0  0  0
 17 38  1  0  0  0  0
 18 19  1  0  0  0  0
 18 39  1  0  0  0  0
 18 40  1  0  0  0  0
 19 20  1  0  0  0  0
 19 41  1  0  0  0  0
 19 42  1  0  0  0  0
 20 43  1  0  0  0  0
 20 44  1  0  0  0  0
M  END
> <s_m_source_file>
AV-unprocessed.smi

> <i_m_source_file_index>
2252

> <i_lp_mmshare_version>
43012

> <i_f3d_flags>
0

> <s_epik_input>
W0NIM11uMVtjSF1bY0hdbmMxW0NIMl1bQ0gyXVtOSF1DKD1PKVtDQEhdKFtDSF0yW0NIMl1bQ0gyXTIpTjNbQ0gyXVtDSDJdW0NIMl1bQ0gyXTM=

> <s_epik_cmdline>
J2VwaWtfcHl0aG9uJywgJy1waCcsICc3LjAnLCAnLXRuJywgJzgnLCAnLW1hJywgJzIwMCcsICctbWV0YWxfYmluZGluZycsICctaW1hZScsICc8aW5maWxlLm1hZT4nLCAnLW9tYWUnLCAnPG91dGZpbGUubWFlPic=

> <r_epik_Ionization_Penalty>
3.7689

> <r_epik_Ionization_Penalty_Charging>
1.29411

> <r_epik_Ionization_Penalty_Neutral>
2.4748

> <r_epik_State_Penalty>
3.85943

> <r_epik_Charging_Adjusted_Penalty>
5.15353

> <i_epik_Tot_Q>
0

> <i_epik_Tot_abs_Q>
0

> <r_epik_Metal_State_Penalty>
2.88358

> <b_epik_Metal_Only>
1

> <s_lp_Force_Field>
OPLS_2005

> <r_lp_Energy>
30.6984

> <b_lp_Chiralities_Consistent>
1

> <s_lp_Variant>
AV-unprocessed.smi:2252-11

> <Gold.Version>
5.8.1

> <Gold.Id.Protein>
6NUR|6NUR_protein|mol2

> <Gold.PLP.Fitness>
50.1188

> <Gold.PLP.PLP>
-51.4964

> <Gold.PLP.part.hbond>
-2.0000

> <Gold.PLP.part.metal>
0.0000

> <Gold.PLP.part.buried>
-5.0462

> <Gold.PLP.part.nonpolar>
-44.5840

> <Gold.PLP.part.repulsive>
0.1796

> <Gold.PLP.ligand.clash>
0.0000

> <Gold.PLP.ligand.torsion>
1.2803

> <Gold.PLP.Chemscore.Hbond>
0.0000

> <Gold.PLP.Chemscore.CHOScore>
0.0000

> <Gold.PLP.Chemscore.Metal>
0.0000

> <Gold.PLP.Chemscore.Internal.Correction>
1.1831

> <Gold.Rescore>
     Score         DG    S(hbond)    S(metal)    S(lipo)     H(rot)  DE(clash)    DE(int)     intcor
     12.27     -13.42       0.01        0.00     108.47       1.86       0.15       1.00       ----

> <Gold.Chemscore.Fitness>
12.2667

> <Gold.Chemscore.DG>
-13.4244

> <Gold.Chemscore.ZeroCoef>
-5.4800

> <Gold.Chemscore.Hbond>
0.0058

> <Gold.Chemscore.Metal>
0.0000

> <Gold.Chemscore.Lipo>
108.4749

> <Gold.Chemscore.Internal_Hbond>
0.0000

> <Gold.Chemscore.DEClash>
0.1550

> <Gold.Chemscore.DEInternal>
1.0028

> <Gold.Chemscore.Rot>
1.8619

> <Gold.Chemscore.Internal.Correction>
   9.000000E+99

> <Gold.Chemscore.Hbonds>
donor molecule, donor type, donor heavy atom, donor atom, acceptor molecule, acceptor atom, score
      L1  H     9    30       P1  8028  0.01

> <Gold.Chemscore.Hbond.Weighted>
-0.0194

> <Gold.Chemscore.Metal.Weighted>
-0.0000

> <Gold.Chemscore.Lipo.Weighted>
-12.6916

> <Gold.Chemscore.Internal_Hbond.Weighted>
0.0000

> <Gold.Chemscore.DEClash.Weighted>
0.1550

> <Gold.Chemscore.DEInternal.Weighted>
1.0028

> <Gold.Chemscore.Rot.Weighted>
4.7665

> <Gold.Chemscore.Internal.Correction.Weighted>
   9.000000E+99

> <Gold.Protein.RotatedTorsions>
[ 6907 6896 6895 6894 ] final   -5.73 input  -60.11 | X-H torsion
[ 7974 7965 7964 7962 ] final   63.72 input  175.53 | X-H torsion
[ 8008 7997 7996 7995 ] final  -28.23 input   59.86 | X-H torsion
[ 10167 10162 10161 10158 ] final    4.24 input  -65.29 | X-H torsion
[ 10718 10713 10712 10709 ] final   92.87 input   66.30 | X-H torsion
[ 10763 10752 10751 10750 ] final -117.45 input  -60.55 | X-H torsion
[ 11005 11000 10999 10996 ] final  123.07 input  -57.11 | X-H torsion

> <Gold.Protein.ActiveResidues>
 VAL166  LYS551  ARG553  GLY616  TRP617  ASP618  TYR619  PRO620  LYS621  CYS622 
 ASP623  PHE694  ASN695  SER759  ASP760  ASP761  ALA762  ILE779  LEU786  VAL792 
 PHE793  MET794  SER795  GLU796  ALA797  LYS798  CYS799  TRP800  GLU811  SER814 

> <Gold.Protein.RotatedAtoms>
  151.4769  135.1049  159.9766 H   0  0  0  0  0  0  0  0  0  0  0  0  # atno 6907 bound_to 6896
  152.4795  133.8214  159.7066 H   0  0  0  0  0  0  0  0  0  0  0  0  # atno 6908 bound_to 6896
  150.8856  133.7251  159.2946 H   0  0  0  0  0  0  0  0  0  0  0  0  # atno 6909 bound_to 6896
  145.8585  139.3300  143.0833 H   0  0  0  0  0  0  0  0  0  0  0  0  # atno 7974 bound_to 7965
  154.4341  140.1851  156.1057 H   0  0  0  0  0  0  0  0  0  0  0  0  # atno 8008 bound_to 7997
  156.0257  140.3336  155.7060 H   0  0  0  0  0  0  0  0  0  0  0  0  # atno 8009 bound_to 7997
  155.5912  140.0631  157.2749 H   0  0  0  0  0  0  0  0  0  0  0  0  # atno 8010 bound_to 7997
  140.6545  143.7463  150.7630 H   0  0  0  0  0  0  0  0  0  0  0  0  # atno 10167 bound_to 10162
  157.6957  131.0458  150.3947 H   0  0  0  0  0  0  0  0  0  0  0  0  # atno 10718 bound_to 10713
  154.8555  135.4309  154.1981 H   0  0  0  0  0  0  0  0  0  0  0  0  # atno 10763 bound_to 10752
  153.3034  135.6970  153.7188 H   0  0  0  0  0  0  0  0  0  0  0  0  # atno 10764 bound_to 10752
  153.6309  135.3485  155.3015 H   0  0  0  0  0  0  0  0  0  0  0  0  # atno 10765 bound_to 10752
  139.9296  134.9641  156.8205 H   0  0  0  0  0  0  0  0  0  0  0  0  # atno 11005 bound_to 11000
  145.9275  140.9072  143.0373 LP  0  0  0  0  0  0  0  0  0  0  0  0  # atno 17320 bound_to 7965
  144.6727  140.1373  143.7439 LP  0  0  0  0  0  0  0  0  0  0  0  0  # atno 17321 bound_to 7965
  140.1120  143.4691  152.2365 LP  0  0  0  0  0  0  0  0  0  0  0  0  # atno 17342 bound_to 10162
  139.5765  144.7490  151.3752 LP  0  0  0  0  0  0  0  0  0  0  0  0  # atno 17343 bound_to 10162
  156.4347  130.3979  149.6737 LP  0  0  0  0  0  0  0  0  0  0  0  0  # atno 17370 bound_to 10713
  156.3942  130.7642  151.2645 LP  0  0  0  0  0  0  0  0  0  0  0  0  # atno 17371 bound_to 10713
  140.6238  133.9969  155.7630 LP  0  0  0  0  0  0  0  0  0  0  0  0  # atno 17394 bound_to 11000
  141.0877  133.9965  157.3288 LP  0  0  0  0  0  0  0  0  0  0  0  0  # atno 17395 bound_to 11000

$$$$
