AV-unprocessed.smi:1464|AV-procd|sdf|5937|dock6
  -GOLD-   22720 6 23D 1   1.00000     0.00000
 Structure written by MMmdl.
 40 41  0  0  0  0  0  0  0  0  2 V2000
  153.0171  142.6316  162.5265 C   0  0  0  0  0  0  0  0  0  0  0  0
  152.9050  143.2447  161.1184 C   0  0  2  0  0  0  0  0  0  0  0  0
  152.0543  144.5293  161.1837 C   0  0  0  0  0  0  0  0  0  0  0  0
  151.9366  145.2055  159.8137 C   0  0  0  0  0  0  0  0  0  0  0  0
  151.3415  144.2385  158.7864 C   0  0  0  0  0  0  0  0  0  0  0  0
  152.1765  142.9482  158.6816 C   0  0  2  0  0  0  0  0  0  0  0  0
  151.5469  142.0457  157.7188 N   0  0  0  0  0  0  0  0  0  0  0  0
  150.2591  141.6684  157.7299 C   0  0  0  0  0  0  0  0  0  0  0  0
  149.4539  142.0500  158.5810 O   0  0  0  0  0  0  0  0  0  0  0  0
  149.8391  140.7164  156.5984 C   0  0  0  0  0  0  0  0  0  0  0  0
  148.7281  141.2114  155.7722 N   0  0  0  0  0  0  0  0  0  0  0  0
  147.5516  141.6065  156.5421 N   0  5  0  0  0  0  0  0  0  0  0  0
  146.4522  142.0623  155.8850 C   0  0  0  0  0  0  0  0  0  0  0  0
  145.4211  142.3973  156.4634 O   0  0  0  0  0  0  0  0  0  0  0  0
  146.5117  142.1572  154.4358 C   0  0  0  0  0  0  0  0  0  0  0  0
  147.6191  141.8063  153.7526 C   0  0  0  0  0  0  0  0  0  0  0  0
  148.8185  141.3082  154.4148 C   0  0  0  0  0  0  0  0  0  0  0  0
  149.8365  140.9944  153.7975 O   0  0  0  0  0  0  0  0  0  0  0  0
  152.3422  142.2524  160.0604 C   0  0  1  0  0  0  0  0  0  0  0  0
  153.2124  140.9819  159.9372 C   0  0  0  0  0  0  0  0  0  0  0  0
  152.0582  142.2390  162.8660 H   0  0  0  0  0  0  0  0  0  0  0  0
  153.3438  143.3767  163.2523 H   0  0  0  0  0  0  0  0  0  0  0  0
  153.7452  141.8220  162.5623 H   0  0  0  0  0  0  0  0  0  0  0  0
  153.9104  143.5334  160.8076 H   0  0  0  0  0  0  0  0  0  0  0  0
  151.0575  144.2940  161.5592 H   0  0  0  0  0  0  0  0  0  0  0  0
  152.4920  145.2320  161.8937 H   0  0  0  0  0  0  0  0  0  0  0  0
  151.3135  146.0969  159.8899 H   0  0  0  0  0  0  0  0  0  0  0  0
  152.9196  145.5405  159.4800 H   0  0  0  0  0  0  0  0  0  0  0  0
  150.3162  143.9951  159.0691 H   0  0  0  0  0  0  0  0  0  0  0  0
  151.2854  144.7308  157.8145 H   0  0  0  0  0  0  0  0  0  0  0  0
  153.1734  143.2124  158.3225 H   0  0  0  0  0  0  0  0  0  0  0  0
  152.1351  141.6851  156.9819 H   0  0  0  0  0  0  0  0  0  0  0  0
  150.7141  140.5222  155.9750 H   0  0  0  0  0  0  0  0  0  0  0  0
  149.5725  139.7512  157.0325 H   0  0  0  0  0  0  0  0  0  0  0  0
  145.6494  142.5188  153.8952 H   0  0  0  0  0  0  0  0  0  0  0  0
  147.6184  141.8937  152.6763 H   0  0  0  0  0  0  0  0  0  0  0  0
  151.3519  141.9385  160.3947 H   0  0  0  0  0  0  0  0  0  0  0  0
  154.2321  141.2300  159.6412 H   0  0  0  0  0  0  0  0  0  0  0  0
  152.8158  140.2879  159.1964 H   0  0  0  0  0  0  0  0  0  0  0  0
  153.2605  140.4280  160.8737 H   0  0  0  0  0  0  0  0  0  0  0  0
  1  2  1  0  0  0  0
  1 21  1  0  0  0  0
  1 22  1  0  0  0  0
  1 23  1  0  0  0  0
  2 19  1  0  0  0  0
  2  3  1  0  0  0  0
  2 24  1  0  0  0  0
  3  4  1  0  0  0  0
  3 25  1  0  0  0  0
  3 26  1  0  0  0  0
  4  5  1  0  0  0  0
  4 27  1  0  0  0  0
  4 28  1  0  0  0  0
  5  6  1  0  0  0  0
  5 29  1  0  0  0  0
  5 30  1  0  0  0  0
  6  7  1  0  0  0  0
  6 19  1  0  0  0  0
  6 31  1  0  0  0  0
  7  8  1  0  0  0  0
  7 32  1  0  0  0  0
  8  9  2  0  0  0  0
  8 10  1  0  0  0  0
 10 33  1  0  0  0  0
 10 34  1  0  0  0  0
 10 11  1  0  0  0  0
 11 12  1  0  0  0  0
 11 17  1  0  0  0  0
 12 13  1  0  0  0  0
 13 14  2  0  0  0  0
 13 15  1  0  0  0  0
 15 35  1  0  0  0  0
 15 16  2  0  0  0  0
 16 36  1  0  0  0  0
 16 17  1  0  0  0  0
 17 18  2  0  0  0  0
 19 20  1  0  0  0  0
 19 37  1  0  0  0  0
 20 38  1  0  0  0  0
 20 39  1  0  0  0  0
 20 40  1  0  0  0  0
M  CHG  1  12  -1
M  END
> <s_m_source_file>
AV-unprocessed.smi

> <i_m_source_file_index>
1464

> <i_lp_mmshare_version>
43012

> <i_f3d_flags>
0

> <s_epik_input>
W0NIM11bQ0BASF0xW0NIMl1bQ0gyXVtDSDJdW0NASF0oW0NASF0xW0NIM10pW05IXUMoPU8pW0NIMl1uMltuSF1jKD1PKVtjSF1bY0hdYzI9Tw==

> <s_epik_cmdline>
J2VwaWtfcHl0aG9uJywgJy1waCcsICc3LjAnLCAnLXRuJywgJzgnLCAnLW1hJywgJzIwMCcsICctbWV0YWxfYmluZGluZycsICctaW1hZScsICc8aW5maWxlLm1hZT4nLCAnLW9tYWUnLCAnPG91dGZpbGUubWFlPic=

> <r_lp_tautomer_probability>
1

> <r_epik_Ionization_Penalty>
0.101366

> <r_epik_Ionization_Penalty_Charging>
0.101366

> <r_epik_Ionization_Penalty_Neutral>
1.90469e-08

> <r_epik_State_Penalty>
0.035861

> <r_epik_Charging_Adjusted_Penalty>
0.137227

> <i_epik_Tot_Q>
-1

> <i_epik_Tot_abs_Q>
1

> <r_epik_Metal_State_Penalty>
0.035861

> <b_epik_Metal_Only>
0

> <s_lp_Force_Field>
OPLS_2005

> <r_lp_Energy>
28.4396

> <b_lp_Chiralities_Consistent>
1

> <s_lp_Variant>
AV-unprocessed.smi:1464-3

> <Gold.Version>
5.8.1

> <Gold.Id.Protein>
6NUR|6NUR_protein|mol2

> <Gold.PLP.Fitness>
48.1635

> <Gold.PLP.PLP>
-44.6107

> <Gold.PLP.part.hbond>
-2.3479

> <Gold.PLP.part.metal>
0.0000

> <Gold.PLP.part.buried>
-5.8040

> <Gold.PLP.part.nonpolar>
-37.8023

> <Gold.PLP.part.repulsive>
2.4274

> <Gold.PLP.ligand.clash>
0.0000

> <Gold.PLP.ligand.torsion>
0.1481

> <Gold.PLP.Chemscore.Hbond>
1.2800

> <Gold.PLP.Chemscore.CHOScore>
0.0000

> <Gold.PLP.Chemscore.Metal>
0.0000

> <Gold.Chemscore.Hbonds>
donor molecule, donor type, donor heavy atom, donor atom, acceptor molecule, acceptor atom, score
      P1  H  7989  7998       L1    18  0.38
      P1  H  8011  8017       L1    18  0.90

> <Gold.PLP.Chemscore.Internal.Correction>
0.0090

> <Gold.Rescore>
     Score         DG    S(hbond)    S(metal)    S(lipo)     H(rot)  DE(clash)    DE(int)     intcor
     14.17     -18.02       1.14        0.00     110.71       1.64       1.39       2.46       ----

> <Gold.Chemscore.Fitness>
14.1673

> <Gold.Chemscore.DG>
-18.0208

> <Gold.Chemscore.ZeroCoef>
-5.4800

> <Gold.Chemscore.Hbond>
1.1365

> <Gold.Chemscore.Metal>
0.0000

> <Gold.Chemscore.Lipo>
110.7074

> <Gold.Chemscore.Internal_Hbond>
0.0000

> <Gold.Chemscore.DEClash>
1.3895

> <Gold.Chemscore.DEInternal>
2.4640

> <Gold.Chemscore.Rot>
1.6438

> <Gold.Chemscore.Internal.Correction>
   9.000000E+99

> <Gold.Chemscore.Hbonds>
donor molecule, donor type, donor heavy atom, donor atom, acceptor molecule, acceptor atom, score
      P1  H  7989  7998       L1    18  0.38
      P1  H  8011  8017       L1    18  0.21

> <Gold.Chemscore.Hbond.Weighted>
-3.7961

> <Gold.Chemscore.Metal.Weighted>
-0.0000

> <Gold.Chemscore.Lipo.Weighted>
-12.9528

> <Gold.Chemscore.Internal_Hbond.Weighted>
0.0000

> <Gold.Chemscore.DEClash.Weighted>
1.3895

> <Gold.Chemscore.DEInternal.Weighted>
2.4640

> <Gold.Chemscore.Rot.Weighted>
4.2080

> <Gold.Chemscore.Internal.Correction.Weighted>
   9.000000E+99

> <Gold.Protein.RotatedTorsions>
[ 6907 6896 6895 6894 ] final -149.44 input  -60.11 | X-H torsion
[ 7974 7965 7964 7962 ] final -109.43 input  175.53 | X-H torsion
[ 8008 7997 7996 7995 ] final -173.30 input   59.86 | X-H torsion
[ 10167 10162 10161 10158 ] final  161.89 input  -65.29 | X-H torsion
[ 10718 10713 10712 10709 ] final  149.05 input   66.30 | X-H torsion
[ 10763 10752 10751 10750 ] final  -88.05 input  -60.55 | X-H torsion
[ 11005 11000 10999 10996 ] final  172.57 input  -57.11 | X-H torsion

> <Gold.Protein.ActiveResidues>
 VAL166  LYS551  ARG553  GLY616  TRP617  ASP618  TYR619  PRO620  LYS621  CYS622 
 ASP623  PHE694  ASN695  SER759  ASP760  ASP761  ALA762  ILE779  LEU786  VAL792 
 PHE793  MET794  SER795  GLU796  ALA797  LYS798  CYS799  TRP800  GLU811  SER814 

> <Gold.Protein.RotatedAtoms>
  151.1841  133.4707  159.2594 H   0  0  0  0  0  0  0  0  0  0  0  0  # atno 6907 bound_to 6896
  151.1229  135.0089  159.8557 H   0  0  0  0  0  0  0  0  0  0  0  0  # atno 6908 bound_to 6896
  152.5457  134.1751  159.8665 H   0  0  0  0  0  0  0  0  0  0  0  0  # atno 6909 bound_to 6896
  145.1807  140.8969  143.3482 H   0  0  0  0  0  0  0  0  0  0  0  0  # atno 7974 bound_to 7965
  155.9557  140.1135  157.0939 H   0  0  0  0  0  0  0  0  0  0  0  0  # atno 8008 bound_to 7997
  154.4120  140.1192  156.5178 H   0  0  0  0  0  0  0  0  0  0  0  0  # atno 8009 bound_to 7997
  155.6785  140.3473  155.4848 H   0  0  0  0  0  0  0  0  0  0  0  0  # atno 8010 bound_to 7997
  139.4854  144.4491  151.8853 H   0  0  0  0  0  0  0  0  0  0  0  0  # atno 10167 bound_to 10162
  157.3010  131.0870  151.1390 H   0  0  0  0  0  0  0  0  0  0  0  0  # atno 10718 bound_to 10713
  154.6403  135.5391  153.7782 H   0  0  0  0  0  0  0  0  0  0  0  0  # atno 10763 bound_to 10752
  153.0330  135.6457  154.1170 H   0  0  0  0  0  0  0  0  0  0  0  0  # atno 10764 bound_to 10752
  154.1094  135.2927  155.3214 H   0  0  0  0  0  0  0  0  0  0  0  0  # atno 10765 bound_to 10752
  140.3312  134.7356  157.4135 H   0  0  0  0  0  0  0  0  0  0  0  0  # atno 11005 bound_to 11000
  145.0140  139.3484  143.6106 LP  0  0  0  0  0  0  0  0  0  0  0  0  # atno 17320 bound_to 7965
  146.3453  139.9413  142.8740 LP  0  0  0  0  0  0  0  0  0  0  0  0  # atno 17321 bound_to 7965
  140.3947  144.2570  150.5897 LP  0  0  0  0  0  0  0  0  0  0  0  0  # atno 17342 bound_to 10162
  140.5113  143.2290  151.8531 LP  0  0  0  0  0  0  0  0  0  0  0  0  # atno 17343 bound_to 10162
  157.2749  130.6722  149.6037 LP  0  0  0  0  0  0  0  0  0  0  0  0  # atno 17370 bound_to 10713
  155.9671  130.4467  150.5553 LP  0  0  0  0  0  0  0  0  0  0  0  0  # atno 17371 bound_to 10713
  140.0859  134.5667  155.8492 LP  0  0  0  0  0  0  0  0  0  0  0  0  # atno 17394 bound_to 11000
  141.2063  133.6654  156.6233 LP  0  0  0  0  0  0  0  0  0  0  0  0  # atno 17395 bound_to 11000

$$$$
