AV-unprocessed.smi:3228|AV-procd|sdf|12320|dock6
  -GOLD-   2272018173D 1   1.00000     0.00000
 Structure written by MMmdl.
 31 32  0  0  0  0  0  0  0  0  1 V2000
  151.2875  141.0291  157.6088 O   0  0  0  0  0  0  0  0  0  0  0  0
  150.7067  141.9914  157.1058 C   0  0  0  0  0  0  0  0  0  0  0  0
  150.0718  141.9362  155.9262 N   0  0  0  0  0  0  0  0  0  0  0  0
  149.9808  140.7509  155.0800 C   0  0  0  0  0  0  0  0  0  0  0  0
  148.5291  140.4610  154.6427 C   0  0  1  0  0  0  0  0  0  0  0  0
  148.0087  141.3353  153.4939 C   0  0  0  0  0  0  0  0  0  0  0  0
  146.8591  140.5426  152.8529 C   0  0  0  0  0  0  0  0  0  0  0  0
  146.9058  139.1315  153.4604 C   0  0  0  0  0  0  0  0  0  0  0  0
  148.2566  139.0236  154.1750 C   0  0  1  0  0  0  0  0  0  0  0  0
  149.2332  138.5834  153.2494 O   0  0  0  0  0  0  0  0  0  0  0  0
  150.6184  143.2178  157.6501 N   0  0  0  0  0  0  0  0  0  0  0  0
  151.1639  143.6735  158.8791 C   0  0  0  0  0  0  0  0  0  0  0  0
  151.9593  142.9429  159.6697 N   0  0  0  0  0  0  0  0  0  0  0  0
  152.3497  143.6441  160.8132 C   0  0  0  0  0  0  0  0  0  0  0  0
  151.8394  144.9169  160.8773 C   0  0  0  0  0  0  0  0  0  0  0  0
  150.8420  145.2875  159.4961 S   0  0  0  0  0  0  0  0  0  0  0  0
  149.6204  142.7730  155.5868 H   0  0  0  0  0  0  0  0  0  0  0  0
  150.6153  140.9194  154.2097 H   0  0  0  0  0  0  0  0  0  0  0  0
  150.3973  139.8885  155.6028 H   0  0  0  0  0  0  0  0  0  0  0  0
  147.8771  140.6354  155.5007 H   0  0  0  0  0  0  0  0  0  0  0  0
  147.6885  142.3187  153.8399 H   0  0  0  0  0  0  0  0  0  0  0  0
  148.7971  141.4898  152.7560 H   0  0  0  0  0  0  0  0  0  0  0  0
  145.8954  141.0125  153.0510 H   0  0  0  0  0  0  0  0  0  0  0  0
  146.9859  140.5043  151.7704 H   0  0  0  0  0  0  0  0  0  0  0  0
  146.1059  139.0370  154.1963 H   0  0  0  0  0  0  0  0  0  0  0  0
  146.7512  138.3475  152.7178 H   0  0  0  0  0  0  0  0  0  0  0  0
  148.2204  138.3224  155.0094 H   0  0  0  0  0  0  0  0  0  0  0  0
  148.9501  137.7589  152.8846 H   0  0  0  0  0  0  0  0  0  0  0  0
  150.1021  143.9067  157.1234 H   0  0  0  0  0  0  0  0  0  0  0  0
  152.9939  143.1593  161.5320 H   0  0  0  0  0  0  0  0  0  0  0  0
  151.9896  145.6555  161.6506 H   0  0  0  0  0  0  0  0  0  0  0  0
  1  2  2  0  0  0  0
  2  3  1  0  0  0  0
  2 11  1  0  0  0  0
  3  4  1  0  0  0  0
  3 17  1  0  0  0  0
  4  5  1  0  0  0  0
  4 18  1  0  0  0  0
  4 19  1  0  0  0  0
  5  9  1  0  0  0  0
  5  6  1  0  0  0  0
  5 20  1  0  0  0  0
  6  7  1  0  0  0  0
  6 21  1  0  0  0  0
  6 22  1  0  0  0  0
  7  8  1  0  0  0  0
  7 23  1  0  0  0  0
  7 24  1  0  0  0  0
  8  9  1  0  0  0  0
  8 25  1  0  0  0  0
  8 26  1  0  0  0  0
  9 10  1  0  0  0  0
  9 27  1  0  0  0  0
 10 28  1  0  0  0  0
 11 12  1  0  0  0  0
 11 29  1  0  0  0  0
 12 16  1  0  0  0  0
 12 13  2  0  0  0  0
 13 14  1  0  0  0  0
 14 15  2  0  0  0  0
 14 30  1  0  0  0  0
 15 16  1  0  0  0  0
 15 31  1  0  0  0  0
M  END
> <s_m_source_file>
AV-unprocessed.smi

> <i_m_source_file_index>
3228

> <i_lp_mmshare_version>
43012

> <i_f3d_flags>
0

> <s_epik_input>
czFbY0hdW2NIXW5jMVtOSF1DKD1PKVtOSF1bQ0gyXVtDQEBIXTJbQ0gyXVtDSDJdW0NIMl1bQ0BIXTJbT0hd

> <s_epik_cmdline>
J2VwaWtfcHl0aG9uJywgJy1waCcsICc3LjAnLCAnLXRuJywgJzgnLCAnLW1hJywgJzIwMCcsICctbWV0YWxfYmluZGluZycsICctaW1hZScsICc8aW5maWxlLm1hZT4nLCAnLW9tYWUnLCAnPG91dGZpbGUubWFlPic=

> <r_lp_tautomer_probability>
0.999

> <r_epik_Ionization_Penalty>
0.000399498

> <r_epik_Ionization_Penalty_Charging>
0

> <r_epik_Ionization_Penalty_Neutral>
0.000399498

> <r_epik_State_Penalty>
0.000177984

> <r_epik_Charging_Adjusted_Penalty>
0.000177984

> <i_epik_Tot_Q>
0

> <i_epik_Tot_abs_Q>
0

> <r_epik_Metal_State_Penalty>
0.0060793

> <b_epik_Metal_Only>
0

> <s_lp_Force_Field>
OPLS_2005

> <r_lp_Energy>
23.3764

> <b_lp_Chiralities_Consistent>
1

> <s_lp_Variant>
AV-unprocessed.smi:3228-2

> <Gold.Version>
5.8.1

> <Gold.Id.Protein>
6NUR|6NUR_protein|mol2

> <Gold.PLP.Fitness>
41.2912

> <Gold.PLP.PLP>
-32.7419

> <Gold.PLP.part.hbond>
-3.6974

> <Gold.PLP.part.metal>
0.0000

> <Gold.PLP.part.buried>
-2.2545

> <Gold.PLP.part.nonpolar>
-26.3666

> <Gold.PLP.part.repulsive>
0.1492

> <Gold.PLP.ligand.clash>
0.0000

> <Gold.PLP.ligand.torsion>
0.2263

> <Gold.PLP.Chemscore.Hbond>
3.0000

> <Gold.PLP.Chemscore.CHOScore>
0.0000

> <Gold.PLP.Chemscore.Metal>
0.0000

> <Gold.Chemscore.Hbonds>
donor molecule, donor type, donor heavy atom, donor atom, acceptor molecule, acceptor atom, score
      L1  H     3    17       P1  8028  0.88
      L1  H    10    28       P1  7948  1.00
      L1  H    11    29       P1  8028  0.94

> <Gold.PLP.Chemscore.Internal.Correction>
0.0018

> <Gold.Rescore>
     Score         DG    S(hbond)    S(metal)    S(lipo)     H(rot)  DE(clash)    DE(int)     intcor
     16.98     -18.96       2.87        0.00      74.53       1.88       0.46       1.52       ----

> <Gold.Chemscore.Fitness>
16.9767

> <Gold.Chemscore.DG>
-18.9640

> <Gold.Chemscore.ZeroCoef>
-5.4800

> <Gold.Chemscore.Hbond>
2.8661

> <Gold.Chemscore.Metal>
0.0000

> <Gold.Chemscore.Lipo>
74.5317

> <Gold.Chemscore.Internal_Hbond>
0.0000

> <Gold.Chemscore.DEClash>
0.4641

> <Gold.Chemscore.DEInternal>
1.5232

> <Gold.Chemscore.Rot>
1.8786

> <Gold.Chemscore.Internal.Correction>
   9.000000E+99

> <Gold.Chemscore.Hbonds>
donor molecule, donor type, donor heavy atom, donor atom, acceptor molecule, acceptor atom, score
      L1  H     3    17       P1  8028  0.85
      L1  H    10    28       P1  7948  0.99
      L1  H    11    29       P1  8028  0.85

> <Gold.Chemscore.Hbond.Weighted>
-9.5729

> <Gold.Chemscore.Metal.Weighted>
-0.0000

> <Gold.Chemscore.Lipo.Weighted>
-8.7202

> <Gold.Chemscore.Internal_Hbond.Weighted>
0.0000

> <Gold.Chemscore.DEClash.Weighted>
0.4641

> <Gold.Chemscore.DEInternal.Weighted>
1.5232

> <Gold.Chemscore.Rot.Weighted>
4.8091

> <Gold.Chemscore.Internal.Correction.Weighted>
   9.000000E+99

> <Gold.Protein.RotatedTorsions>
[ 6907 6896 6895 6894 ] final   96.26 input  -60.11 | X-H torsion
[ 7974 7965 7964 7962 ] final   46.33 input  175.53 | X-H torsion
[ 8008 7997 7996 7995 ] final  -78.53 input   59.86 | X-H torsion
[ 10167 10162 10161 10158 ] final  -28.90 input  -65.29 | X-H torsion
[ 10718 10713 10712 10709 ] final  172.26 input   66.30 | X-H torsion
[ 10763 10752 10751 10750 ] final  -32.32 input  -60.55 | X-H torsion
[ 11005 11000 10999 10996 ] final   60.53 input  -57.11 | X-H torsion

> <Gold.Protein.ActiveResidues>
 VAL166  LYS551  ARG553  GLY616  TRP617  ASP618  TYR619  PRO620  LYS621  CYS622 
 ASP623  PHE694  ASN695  SER759  ASP760  ASP761  ALA762  ILE779  LEU786  VAL792 
 PHE793  MET794  SER795  GLU796  ALA797  LYS798  CYS799  TRP800  GLU811  SER814 

> <Gold.Protein.RotatedAtoms>
  152.5436  134.0914  159.8278 H   0  0  0  0  0  0  0  0  0  0  0  0  # atno 6907 bound_to 6896
  151.1003  133.5241  159.2617 H   0  0  0  0  0  0  0  0  0  0  0  0  # atno 6908 bound_to 6896
  151.1999  135.0447  159.8922 H   0  0  0  0  0  0  0  0  0  0  0  0  # atno 6909 bound_to 6896
  146.0399  139.4867  142.9784 H   0  0  0  0  0  0  0  0  0  0  0  0  # atno 7974 bound_to 7965
  154.5698  140.0693  156.8947 H   0  0  0  0  0  0  0  0  0  0  0  0  # atno 8008 bound_to 7997
  155.2655  140.3361  155.4251 H   0  0  0  0  0  0  0  0  0  0  0  0  # atno 8009 bound_to 7997
  156.2109  140.1759  156.7682 H   0  0  0  0  0  0  0  0  0  0  0  0  # atno 8010 bound_to 7997
  140.7266  143.3972  151.1326 H   0  0  0  0  0  0  0  0  0  0  0  0  # atno 10167 bound_to 10162
  156.9816  131.0120  151.2880 H   0  0  0  0  0  0  0  0  0  0  0  0  # atno 10718 bound_to 10713
  153.8118  135.6881  153.4840 H   0  0  0  0  0  0  0  0  0  0  0  0  # atno 10763 bound_to 10752
  153.1624  135.4575  154.9788 H   0  0  0  0  0  0  0  0  0  0  0  0  # atno 10764 bound_to 10752
  154.7964  135.3321  154.7598 H   0  0  0  0  0  0  0  0  0  0  0  0  # atno 10765 bound_to 10752
  140.0225  134.6132  155.9619 H   0  0  0  0  0  0  0  0  0  0  0  0  # atno 11005 bound_to 11000
  145.6901  141.0166  143.1560 LP  0  0  0  0  0  0  0  0  0  0  0  0  # atno 17320 bound_to 7965
  144.7069  139.8523  143.7427 LP  0  0  0  0  0  0  0  0  0  0  0  0  # atno 17321 bound_to 7965
  139.7587  143.8669  152.3095 LP  0  0  0  0  0  0  0  0  0  0  0  0  # atno 17342 bound_to 10162
  139.8547  144.7147  150.9171 LP  0  0  0  0  0  0  0  0  0  0  0  0  # atno 17343 bound_to 10162
  157.5522  130.8190  149.8159 LP  0  0  0  0  0  0  0  0  0  0  0  0  # atno 17370 bound_to 10713
  156.0242  130.3785  150.1871 LP  0  0  0  0  0  0  0  0  0  0  0  0  # atno 17371 bound_to 10713
  141.1782  133.6543  156.4915 LP  0  0  0  0  0  0  0  0  0  0  0  0  # atno 17394 bound_to 11000
  140.4363  134.7056  157.4968 LP  0  0  0  0  0  0  0  0  0  0  0  0  # atno 17395 bound_to 11000

$$$$
