AV-unprocessed.smi:1203|AV-procd|sdf|5033|dock10
  -GOLD-   22720 4 53D 1   1.00000     0.00000
 Structure written by MMmdl.
 39 40  0  0  0  0  0  0  0  0  1 V2000
  145.5100  141.3368  157.7880 C   0  0  0  0  0  0  0  0  0  0  0  0
  146.5049  139.9380  157.1290 S   0  0  0  0  0  0  0  0  0  0  0  0
  147.5691  139.6343  158.0975 O   0  0  0  0  0  0  0  0  0  0  0  0
  145.5993  138.8709  156.6764 O   0  0  0  0  0  0  0  0  0  0  0  0
  147.2539  140.6268  155.7288 N   0  0  0  0  0  0  0  0  0  0  0  0
  146.4011  141.2941  154.7328 C   0  0  0  0  0  0  0  0  0  0  0  0
  147.1147  141.1303  153.3921 C   0  0  0  0  0  0  0  0  0  0  0  0
  147.8842  139.8292  153.5709 C   0  0  0  0  0  0  0  0  0  0  0  0
  148.3106  139.8580  155.0492 C   0  0  1  0  0  0  0  0  0  0  0  0
  149.7110  140.4466  155.2860 C   0  0  0  0  0  0  0  0  0  0  0  0
  150.7187  139.8988  154.8369 O   0  0  0  0  0  0  0  0  0  0  0  0
  149.7558  141.5816  155.9974 N   0  0  0  0  0  0  0  0  0  0  0  0
  150.9757  142.3057  156.3314 C   0  0  0  0  0  0  0  0  0  0  0  0
  151.4524  141.9790  157.7565 C   0  0  0  0  0  0  0  0  0  0  0  0
  151.6484  143.2108  158.6236 C   0  0  0  0  0  0  0  0  0  0  0  0
  152.0987  143.0916  159.9544 C   0  0  0  0  0  0  0  0  0  0  0  0
  152.2546  144.2594  160.7254 C   0  0  0  0  0  0  0  0  0  0  0  0
  151.9546  145.5009  160.1298 C   0  0  0  0  0  0  0  0  0  0  0  0
  151.5272  145.6278  158.8553 N   0  0  0  0  0  0  0  0  0  0  0  0
  151.3806  144.5030  158.1228 C   0  0  0  0  0  0  0  0  0  0  0  0
  145.0114  141.0245  158.7052 H   0  0  0  0  0  0  0  0  0  0  0  0
  144.7612  141.6335  157.0543 H   0  0  0  0  0  0  0  0  0  0  0  0
  146.1656  142.1808  158.0012 H   0  0  0  0  0  0  0  0  0  0  0  0
  145.4274  140.8042  154.6981 H   0  0  0  0  0  0  0  0  0  0  0  0
  146.2451  142.3408  154.9953 H   0  0  0  0  0  0  0  0  0  0  0  0
  146.4261  141.1026  152.5474 H   0  0  0  0  0  0  0  0  0  0  0  0
  147.8088  141.9568  153.2347 H   0  0  0  0  0  0  0  0  0  0  0  0
  147.2188  138.9817  153.4005 H   0  0  0  0  0  0  0  0  0  0  0  0
  148.7118  139.7325  152.8669 H   0  0  0  0  0  0  0  0  0  0  0  0
  148.3175  138.8336  155.4254 H   0  0  0  0  0  0  0  0  0  0  0  0
  148.8845  141.9706  156.3295 H   0  0  0  0  0  0  0  0  0  0  0  0
  151.7484  142.0353  155.6103 H   0  0  0  0  0  0  0  0  0  0  0  0
  150.8123  143.3802  156.2351 H   0  0  0  0  0  0  0  0  0  0  0  0
  150.7334  141.3186  158.2425 H   0  0  0  0  0  0  0  0  0  0  0  0
  152.3900  141.4235  157.7084 H   0  0  0  0  0  0  0  0  0  0  0  0
  152.3167  142.1225  160.3790 H   0  0  0  0  0  0  0  0  0  0  0  0
  152.5948  144.2056  161.7489 H   0  0  0  0  0  0  0  0  0  0  0  0
  152.0620  146.4166  160.6923 H   0  0  0  0  0  0  0  0  0  0  0  0
  151.0340  144.6396  157.1089 H   0  0  0  0  0  0  0  0  0  0  0  0
  1  2  1  0  0  0  0
  1 21  1  0  0  0  0
  1 22  1  0  0  0  0
  1 23  1  0  0  0  0
  2  3  2  0  0  0  0
  2  4  2  0  0  0  0
  2  5  1  0  0  0  0
  5  9  1  0  0  0  0
  5  6  1  0  0  0  0
  6  7  1  0  0  0  0
  6 24  1  0  0  0  0
  6 25  1  0  0  0  0
  7  8  1  0  0  0  0
  7 26  1  0  0  0  0
  7 27  1  0  0  0  0
  8  9  1  0  0  0  0
  8 28  1  0  0  0  0
  8 29  1  0  0  0  0
  9 10  1  0  0  0  0
  9 30  1  0  0  0  0
 10 11  2  0  0  0  0
 10 12  1  0  0  0  0
 12 13  1  0  0  0  0
 12 31  1  0  0  0  0
 13 14  1  0  0  0  0
 13 32  1  0  0  0  0
 13 33  1  0  0  0  0
 14 15  1  0  0  0  0
 14 34  1  0  0  0  0
 14 35  1  0  0  0  0
 15 20  1  0  0  0  0
 15 16  2  0  0  0  0
 16 17  1  0  0  0  0
 16 36  1  0  0  0  0
 17 18  2  0  0  0  0
 17 37  1  0  0  0  0
 18 19  1  0  0  0  0
 18 38  1  0  0  0  0
 19 20  2  0  0  0  0
 20 39  1  0  0  0  0
M  END
> <s_m_source_file>
AV-unprocessed.smi

> <i_m_source_file_index>
1203

> <i_lp_mmshare_version>
43012

> <i_f3d_flags>
0

> <s_epik_input>
W0NIM11TKD1PKSg9TylOMVtDSDJdW0NIMl1bQ0gyXVtDQEhdMUMoPU8pW05IXVtDSDJdW0NIMl1jMltjSF1bY0hdW2NIXW5bY0hdMg==

> <s_epik_cmdline>
J2VwaWtfcHl0aG9uJywgJy1waCcsICc3LjAnLCAnLXRuJywgJzgnLCAnLW1hJywgJzIwMCcsICctbWV0YWxfYmluZGluZycsICctaW1hZScsICc8aW5maWxlLm1hZT4nLCAnLW9tYWUnLCAnPG91dGZpbGUubWFlPic=

> <r_epik_Ionization_Penalty>
0.0126915

> <r_epik_Ionization_Penalty_Charging>
0

> <r_epik_Ionization_Penalty_Neutral>
0.0126915

> <r_epik_State_Penalty>
0.0098379

> <r_epik_Charging_Adjusted_Penalty>
0.0098379

> <i_epik_Tot_Q>
0

> <i_epik_Tot_abs_Q>
0

> <r_epik_Metal_State_Penalty>
0.00962905

> <b_epik_Metal_Only>
0

> <s_lp_Force_Field>
OPLS_2005

> <r_lp_Energy>
6.50252

> <b_lp_Chiralities_Consistent>
1

> <s_lp_Variant>
AV-unprocessed.smi:1203-1

> <Gold.Version>
5.8.1

> <Gold.Id.Protein>
6NUR|6NUR_protein|mol2

> <Gold.PLP.Fitness>
39.3977

> <Gold.PLP.PLP>
-34.4813

> <Gold.PLP.part.hbond>
-3.1495

> <Gold.PLP.part.metal>
0.0000

> <Gold.PLP.part.buried>
-3.9214

> <Gold.PLP.part.nonpolar>
-27.4143

> <Gold.PLP.part.repulsive>
0.3306

> <Gold.PLP.ligand.clash>
0.0000

> <Gold.PLP.ligand.torsion>
0.7967

> <Gold.PLP.Chemscore.Hbond>
1.0000

> <Gold.PLP.Chemscore.CHOScore>
0.9961

> <Gold.PLP.Chemscore.Metal>
0.0000

> <Gold.Chemscore.Hbonds>
donor molecule, donor type, donor heavy atom, donor atom, acceptor molecule, acceptor atom, score
      P1  H  7989  7998       L1    11  1.00
      L1  C    20    39       P1  8028  0.94

> <Gold.PLP.Chemscore.Internal.Correction>
0.5215

> <Gold.Rescore>
     Score         DG    S(hbond)    S(metal)    S(lipo)     H(rot)  DE(clash)    DE(int)     intcor
     14.43     -15.25       0.99        0.00      96.80       1.90       0.06       0.76       ----

> <Gold.Chemscore.Fitness>
14.4257

> <Gold.Chemscore.DG>
-15.2457

> <Gold.Chemscore.ZeroCoef>
-5.4800

> <Gold.Chemscore.Hbond>
0.9886

> <Gold.Chemscore.Metal>
0.0000

> <Gold.Chemscore.Lipo>
96.7970

> <Gold.Chemscore.Internal_Hbond>
0.0000

> <Gold.Chemscore.DEClash>
0.0555

> <Gold.Chemscore.DEInternal>
0.7645

> <Gold.Chemscore.Rot>
1.8990

> <Gold.Chemscore.Internal.Correction>
   9.000000E+99

> <Gold.Chemscore.Hbonds>
donor molecule, donor type, donor heavy atom, donor atom, acceptor molecule, acceptor atom, score
      P1  H  7989  7998       L1    11  0.91

> <Gold.Chemscore.Hbond.Weighted>
-3.3018

> <Gold.Chemscore.Metal.Weighted>
-0.0000

> <Gold.Chemscore.Lipo.Weighted>
-11.3253

> <Gold.Chemscore.Internal_Hbond.Weighted>
0.0000

> <Gold.Chemscore.DEClash.Weighted>
0.0555

> <Gold.Chemscore.DEInternal.Weighted>
0.7645

> <Gold.Chemscore.Rot.Weighted>
4.8613

> <Gold.Chemscore.Internal.Correction.Weighted>
   9.000000E+99

> <Gold.Protein.RotatedTorsions>
[ 6907 6896 6895 6894 ] final   -5.80 input  -60.11 | X-H torsion
[ 7974 7965 7964 7962 ] final  137.39 input  175.53 | X-H torsion
[ 8008 7997 7996 7995 ] final  102.06 input   59.86 | X-H torsion
[ 10167 10162 10161 10158 ] final  124.26 input  -65.29 | X-H torsion
[ 10718 10713 10712 10709 ] final  -48.92 input   66.30 | X-H torsion
[ 10763 10752 10751 10750 ] final  -55.25 input  -60.55 | X-H torsion
[ 11005 11000 10999 10996 ] final -175.78 input  -57.11 | X-H torsion

> <Gold.Protein.ActiveResidues>
 VAL166  LYS551  ARG553  GLY616  TRP617  ASP618  TYR619  PRO620  LYS621  CYS622 
 ASP623  PHE694  ASN695  SER759  ASP760  ASP761  ALA762  ILE779  LEU786  VAL792 
 PHE793  MET794  SER795  GLU796  ALA797  LYS798  CYS799  TRP800  GLU811  SER814 

> <Gold.Protein.RotatedAtoms>
  151.4757  135.1049  159.9763 H   0  0  0  0  0  0  0  0  0  0  0  0  # atno 6907 bound_to 6896
  152.4799  133.8224  159.7071 H   0  0  0  0  0  0  0  0  0  0  0  0  # atno 6908 bound_to 6896
  150.8863  133.7242  159.2944 H   0  0  0  0  0  0  0  0  0  0  0  0  # atno 6909 bound_to 6896
  144.9472  139.4861  143.5543 H   0  0  0  0  0  0  0  0  0  0  0  0  # atno 7974 bound_to 7965
  156.1358  140.3187  155.8418 H   0  0  0  0  0  0  0  0  0  0  0  0  # atno 8008 bound_to 7997
  155.4247  140.0514  157.3040 H   0  0  0  0  0  0  0  0  0  0  0  0  # atno 8009 bound_to 7997
  154.4935  140.2102  155.9509 H   0  0  0  0  0  0  0  0  0  0  0  0  # atno 8010 bound_to 7997
  139.5752  144.6959  151.3672 H   0  0  0  0  0  0  0  0  0  0  0  0  # atno 10167 bound_to 10162
  156.1942  130.4154  149.9329 H   0  0  0  0  0  0  0  0  0  0  0  0  # atno 10718 bound_to 10713
  154.1878  135.6432  153.5052 H   0  0  0  0  0  0  0  0  0  0  0  0  # atno 10763 bound_to 10752
  153.0042  135.5421  154.6446 H   0  0  0  0  0  0  0  0  0  0  0  0  # atno 10764 bound_to 10752
  154.5827  135.2927  155.0689 H   0  0  0  0  0  0  0  0  0  0  0  0  # atno 10765 bound_to 10752
  140.4594  134.6268  157.4836 H   0  0  0  0  0  0  0  0  0  0  0  0  # atno 11005 bound_to 11000
  146.3308  139.8533  142.8869 LP  0  0  0  0  0  0  0  0  0  0  0  0  # atno 17320 bound_to 7965
  145.2899  141.0164  143.3669 LP  0  0  0  0  0  0  0  0  0  0  0  0  # atno 17321 bound_to 7965
  140.7035  143.7573  150.7442 LP  0  0  0  0  0  0  0  0  0  0  0  0  # atno 17342 bound_to 10162
  140.1090  143.4716  152.2381 LP  0  0  0  0  0  0  0  0  0  0  0  0  # atno 17343 bound_to 10162
  156.7060  130.8951  151.3604 LP  0  0  0  0  0  0  0  0  0  0  0  0  # atno 17370 bound_to 10713
  157.6947  130.9270  150.0612 LP  0  0  0  0  0  0  0  0  0  0  0  0  # atno 17371 bound_to 10713
  139.9955  134.6918  155.9617 LP  0  0  0  0  0  0  0  0  0  0  0  0  # atno 17394 bound_to 11000
  141.1628  133.6538  156.4376 LP  0  0  0  0  0  0  0  0  0  0  0  0  # atno 17395 bound_to 11000

$$$$
