AV-unprocessed.smi:1615|AV-procd|sdf|6481|dock5
  -GOLD-   22720 7143D 1   1.00000     0.00000
 Structure written by MMmdl.
 32 33  0  0  0  0  0  0  0  0  1 V2000
  152.4502  139.9419  155.1484 O   0  0  0  0  0  0  0  0  0  0  0  0
  151.3448  139.8426  155.6798 C   0  0  0  0  0  0  0  0  0  0  0  0
  150.2863  138.9224  155.0711 C   0  0  0  0  0  0  0  0  0  0  0  0
  149.1367  139.6822  154.6128 N   0  0  0  0  0  0  0  0  0  0  0  0
  148.9349  141.0482  154.6758 C   0  0  0  0  0  0  0  0  0  0  0  0
  147.7078  141.2595  154.1258 C   0  0  0  0  0  0  0  0  0  0  0  0
  146.8310  142.9337  153.9088 Br  0  0  0  0  0  0  0  0  0  0  0  0
  147.2126  139.9857  153.7481 C   0  0  0  0  0  0  0  0  0  0  0  0
  148.0857  139.0346  154.0461 N   0  0  0  0  0  0  0  0  0  0  0  0
  150.9903  140.5009  156.7949 N   0  0  0  0  0  0  0  0  0  0  0  0
  151.8423  141.3996  157.5681 C   0  0  0  0  0  0  0  0  0  0  0  0
  151.9140  140.9116  159.0275 C   0  0  0  0  0  0  0  0  0  0  0  0
  152.7247  141.8780  159.9060 C   0  0  0  0  0  0  0  0  0  0  0  0
  152.1623  143.3060  159.8287 C   0  0  0  0  0  0  0  0  0  0  0  0
  152.1032  143.7986  158.3742 C   0  0  0  0  0  0  0  0  0  0  0  0
  151.2912  142.8365  157.4918 C   0  0  0  0  0  0  0  0  0  0  0  0
  150.7052  138.3712  154.2279 H   0  0  0  0  0  0  0  0  0  0  0  0
  149.9645  138.1846  155.8079 H   0  0  0  0  0  0  0  0  0  0  0  0
  149.6603  141.7292  155.0960 H   0  0  0  0  0  0  0  0  0  0  0  0
  146.2748  139.7248  153.2803 H   0  0  0  0  0  0  0  0  0  0  0  0
  150.0555  140.3556  157.1476 H   0  0  0  0  0  0  0  0  0  0  0  0
  152.8562  141.4043  157.1639 H   0  0  0  0  0  0  0  0  0  0  0  0
  150.9069  140.8137  159.4352 H   0  0  0  0  0  0  0  0  0  0  0  0
  152.3606  139.9171  159.0666 H   0  0  0  0  0  0  0  0  0  0  0  0
  152.7213  141.5322  160.9399 H   0  0  0  0  0  0  0  0  0  0  0  0
  153.7666  141.8781  159.5833 H   0  0  0  0  0  0  0  0  0  0  0  0
  151.1629  143.3304  160.2648 H   0  0  0  0  0  0  0  0  0  0  0  0
  152.7767  143.9808  160.4255 H   0  0  0  0  0  0  0  0  0  0  0  0
  151.6656  144.7964  158.3368 H   0  0  0  0  0  0  0  0  0  0  0  0
  153.1157  143.8901  157.9786 H   0  0  0  0  0  0  0  0  0  0  0  0
  151.3036  143.1867  156.4588 H   0  0  0  0  0  0  0  0  0  0  0  0
  150.2479  142.8504  157.8104 H   0  0  0  0  0  0  0  0  0  0  0  0
  1  2  2  0  0  0  0
  2  3  1  0  0  0  0
  2 10  1  0  0  0  0
  3  4  1  0  0  0  0
  3 17  1  0  0  0  0
  3 18  1  0  0  0  0
  4  9  1  0  0  0  0
  4  5  1  0  0  0  0
  5  6  2  0  0  0  0
  5 19  1  0  0  0  0
  6  7  1  0  0  0  0
  6  8  1  0  0  0  0
  8  9  2  0  0  0  0
  8 20  1  0  0  0  0
 10 11  1  0  0  0  0
 10 21  1  0  0  0  0
 11 16  1  0  0  0  0
 11 12  1  0  0  0  0
 11 22  1  0  0  0  0
 12 13  1  0  0  0  0
 12 23  1  0  0  0  0
 12 24  1  0  0  0  0
 13 14  1  0  0  0  0
 13 25  1  0  0  0  0
 13 26  1  0  0  0  0
 14 15  1  0  0  0  0
 14 27  1  0  0  0  0
 14 28  1  0  0  0  0
 15 16  1  0  0  0  0
 15 29  1  0  0  0  0
 15 30  1  0  0  0  0
 16 31  1  0  0  0  0
 16 32  1  0  0  0  0
M  END
> <s_m_source_file>
AV-unprocessed.smi

> <i_m_source_file_index>
1615

> <i_lp_mmshare_version>
43012

> <i_f3d_flags>
0

> <s_epik_input>
bjFbY0hdYyhCcilbY0hdbjFbQ0gyXUMoPU8pW05IXVtDSF0yW0NIMl1bQ0gyXVtDSDJdW0NIMl1bQ0gyXTI=

> <s_epik_cmdline>
J2VwaWtfcHl0aG9uJywgJy1waCcsICc3LjAnLCAnLXRuJywgJzgnLCAnLW1hJywgJzIwMCcsICctbWV0YWxfYmluZGluZycsICctaW1hZScsICc8aW5maWxlLm1hZT4nLCAnLW9tYWUnLCAnPG91dGZpbGUubWFlPic=

> <r_lp_tautomer_probability>
1

> <r_epik_Ionization_Penalty>
2.45271e-07

> <r_epik_Ionization_Penalty_Charging>
0

> <r_epik_Ionization_Penalty_Neutral>
2.45271e-07

> <r_epik_State_Penalty>
-0

> <r_epik_Charging_Adjusted_Penalty>
0

> <i_epik_Tot_Q>
0

> <i_epik_Tot_abs_Q>
0

> <r_epik_Metal_State_Penalty>
-0

> <b_epik_Metal_Only>
0

> <s_lp_Force_Field>
OPLS_2005

> <r_lp_Energy>
11.9835

> <b_lp_Chiralities_Consistent>
1

> <s_lp_Variant>
AV-unprocessed.smi:1615-1

> <Gold.Version>
5.8.1

> <Gold.Id.Protein>
6NUR|6NUR_protein|mol2

> <Gold.PLP.Fitness>
40.4472

> <Gold.PLP.PLP>
-36.5640

> <Gold.PLP.part.hbond>
-1.7120

> <Gold.PLP.part.metal>
0.0000

> <Gold.PLP.part.buried>
-3.2940

> <Gold.PLP.part.nonpolar>
-30.9555

> <Gold.PLP.part.repulsive>
0.2735

> <Gold.PLP.ligand.clash>
0.0000

> <Gold.PLP.ligand.torsion>
0.0419

> <Gold.PLP.Chemscore.Hbond>
1.1094

> <Gold.PLP.Chemscore.CHOScore>
0.2106

> <Gold.PLP.Chemscore.Metal>
0.0000

> <Gold.Chemscore.Hbonds>
donor molecule, donor type, donor heavy atom, donor atom, acceptor molecule, acceptor atom, score
      P1  H  7989  7998       L1     1  0.40
      P1  H  7997  8009       L1     1  0.73
      L1  C     8    20       P1 10175  0.29

> <Gold.PLP.Chemscore.Internal.Correction>
0.0071

> <Gold.Rescore>
     Score         DG    S(hbond)    S(metal)    S(lipo)     H(rot)  DE(clash)    DE(int)     intcor
     14.66     -16.19       0.98        0.00      94.02       1.40       0.40       1.13       ----

> <Gold.Chemscore.Fitness>
14.6555

> <Gold.Chemscore.DG>
-16.1891

> <Gold.Chemscore.ZeroCoef>
-5.4800

> <Gold.Chemscore.Hbond>
0.9832

> <Gold.Chemscore.Metal>
0.0000

> <Gold.Chemscore.Lipo>
94.0151

> <Gold.Chemscore.Internal_Hbond>
0.0000

> <Gold.Chemscore.DEClash>
0.4023

> <Gold.Chemscore.DEInternal>
1.1313

> <Gold.Chemscore.Rot>
1.3963

> <Gold.Chemscore.Internal.Correction>
   9.000000E+99

> <Gold.Chemscore.Hbonds>
donor molecule, donor type, donor heavy atom, donor atom, acceptor molecule, acceptor atom, score
      P1  H  7989  7998       L1     1  0.03
      P1  H  7997  8009       L1     1  0.73

> <Gold.Chemscore.Hbond.Weighted>
-3.2839

> <Gold.Chemscore.Metal.Weighted>
-0.0000

> <Gold.Chemscore.Lipo.Weighted>
-10.9998

> <Gold.Chemscore.Internal_Hbond.Weighted>
0.0000

> <Gold.Chemscore.DEClash.Weighted>
0.4023

> <Gold.Chemscore.DEInternal.Weighted>
1.1313

> <Gold.Chemscore.Rot.Weighted>
3.5746

> <Gold.Chemscore.Internal.Correction.Weighted>
   9.000000E+99

> <Gold.Protein.RotatedTorsions>
[ 6907 6896 6895 6894 ] final  -76.36 input  -60.11 | X-H torsion
[ 7974 7965 7964 7962 ] final  107.23 input  175.53 | X-H torsion
[ 8008 7997 7996 7995 ] final -138.18 input   59.86 | X-H torsion
[ 10167 10162 10161 10158 ] final -106.57 input  -65.29 | X-H torsion
[ 10718 10713 10712 10709 ] final  -66.38 input   66.30 | X-H torsion
[ 10763 10752 10751 10750 ] final  -25.11 input  -60.55 | X-H torsion
[ 11005 11000 10999 10996 ] final  108.68 input  -57.11 | X-H torsion

> <Gold.Protein.ActiveResidues>
 VAL166  LYS551  ARG553  GLY616  TRP617  ASP618  TYR619  PRO620  LYS621  CYS622 
 ASP623  PHE694  ASN695  SER759  ASP760  ASP761  ALA762  ILE779  LEU786  VAL792 
 PHE793  MET794  SER795  GLU796  ALA797  LYS798  CYS799  TRP800  GLU811  SER814 

> <Gold.Protein.RotatedAtoms>
  150.7030  134.4584  159.5368 H   0  0  0  0  0  0  0  0  0  0  0  0  # atno 6907 bound_to 6896
  152.2263  134.8362  160.0488 H   0  0  0  0  0  0  0  0  0  0  0  0  # atno 6908 bound_to 6896
  151.9194  133.3546  159.3928 H   0  0  0  0  0  0  0  0  0  0  0  0  # atno 6909 bound_to 6896
  145.2963  139.2584  143.3838 H   0  0  0  0  0  0  0  0  0  0  0  0  # atno 7974 bound_to 7965
  155.4240  140.0520  157.3023 H   0  0  0  0  0  0  0  0  0  0  0  0  # atno 8008 bound_to 7997
  154.4890  140.2112  155.9550 H   0  0  0  0  0  0  0  0  0  0  0  0  # atno 8009 bound_to 7997
  156.1315  140.3171  155.8361 H   0  0  0  0  0  0  0  0  0  0  0  0  # atno 8010 bound_to 7997
  140.1864  143.3926  152.1241 H   0  0  0  0  0  0  0  0  0  0  0  0  # atno 10167 bound_to 10162
  156.0615  130.4261  150.1701 H   0  0  0  0  0  0  0  0  0  0  0  0  # atno 10718 bound_to 10713
  153.6946  135.6960  153.5080 H   0  0  0  0  0  0  0  0  0  0  0  0  # atno 10763 bound_to 10752
  153.2388  135.4313  155.0674 H   0  0  0  0  0  0  0  0  0  0  0  0  # atno 10764 bound_to 10752
  154.8362  135.3502  154.6487 H   0  0  0  0  0  0  0  0  0  0  0  0  # atno 10765 bound_to 10752
  139.8848  134.9437  156.6009 H   0  0  0  0  0  0  0  0  0  0  0  0  # atno 11005 bound_to 11000
  146.3167  140.3467  142.8652 LP  0  0  0  0  0  0  0  0  0  0  0  0  # atno 17320 bound_to 7965
  144.9130  140.7780  143.5795 LP  0  0  0  0  0  0  0  0  0  0  0  0  # atno 17321 bound_to 7965
  139.5274  144.7119  151.5178 LP  0  0  0  0  0  0  0  0  0  0  0  0  # atno 17342 bound_to 10162
  140.6485  143.8744  150.6762 LP  0  0  0  0  0  0  0  0  0  0  0  0  # atno 17343 bound_to 10162
  156.9768  130.9852  151.3446 LP  0  0  0  0  0  0  0  0  0  0  0  0  # atno 17370 bound_to 10713
  157.5627  130.8257  149.8287 LP  0  0  0  0  0  0  0  0  0  0  0  0  # atno 17371 bound_to 10713
  140.7884  133.8602  155.8625 LP  0  0  0  0  0  0  0  0  0  0  0  0  # atno 17394 bound_to 11000
  140.9699  134.1545  157.4585 LP  0  0  0  0  0  0  0  0  0  0  0  0  # atno 17395 bound_to 11000

$$$$
