AV-unprocessed.smi:282|AV-procd|sdf|2122|dock8
  -GOLD-   2262021423D 1   1.00000     0.00000
 Structure written by MMmdl.
 65 69  0  0  0  0  0  0  0  0  2 V2000
  146.4226  131.4917  155.8327 C   0  0  0  0  0  0  0  0  0  0  0  0
  147.7460  131.2849  155.0825 C   0  0  0  0  0  0  0  0  0  0  0  0
  147.7602  131.8725  153.6455 C   0  0  1  0  0  0  0  0  0  0  0  0
  146.6653  131.2035  152.7809 C   0  0  0  0  0  0  0  0  0  0  0  0
  146.5613  131.8066  151.4274 N   0  3  1  0  0  0  0  0  0  0  0  0
  145.5605  131.1374  150.5549 C   0  0  0  0  0  0  0  0  0  0  0  0
  144.1141  131.5133  150.9334 C   0  0  0  0  0  0  0  0  0  0  0  0
  143.9238  133.0365  150.9502 C   0  0  0  0  0  0  0  0  0  0  0  0
  144.9698  133.6983  151.8588 C   0  0  0  0  0  0  0  0  0  0  0  0
  146.3990  133.2861  151.4440 C   0  0  1  0  0  0  0  0  0  0  0  0
  147.4842  133.9431  152.3114 C   0  0  0  0  0  0  0  0  0  0  0  0
  147.5780  133.3320  153.6343 N   0  0  0  0  0  0  0  0  0  0  0  0
  148.3989  134.0740  154.4149 C   0  0  0  0  0  0  0  0  0  0  0  0
  149.5142  133.5187  154.9586 N   0  0  0  0  0  0  0  0  0  0  0  0
  150.3294  134.2636  155.7117 C   0  0  0  0  0  0  0  0  0  0  0  0
  150.2207  135.5544  156.0336 N   0  0  0  0  0  0  0  0  0  0  0  0
  149.1073  136.1150  155.4807 C   0  0  0  0  0  0  0  0  0  0  0  0
  148.1564  135.4514  154.6569 C   0  0  0  0  0  0  0  0  0  0  0  0
  147.1655  136.3381  154.2583 N   0  0  0  0  0  0  0  0  0  0  0  0
  147.5118  137.4661  154.8161 C   0  0  0  0  0  0  0  0  0  0  0  0
  148.6534  137.4191  155.5871 N   0  0  0  0  0  0  0  0  0  0  0  0
  149.2589  138.5266  156.3152 C   0  0  0  0  0  0  0  0  0  0  0  0
  150.0204  139.5684  155.4343 C   0  0  0  0  0  0  0  0  0  0  0  0
  148.9920  140.3076  154.5323 C   0  0  0  0  0  0  0  0  0  0  0  0
  149.5554  140.8303  153.3453 O   0  0  0  0  0  0  0  0  0  0  0  0
  150.7941  140.5977  156.2984 C   0  0  0  0  0  0  0  0  0  0  0  0
  152.0021  139.9735  157.0215 C   0  0  0  0  0  0  0  0  0  0  0  0
  152.8721  139.3636  156.0765 O   0  0  0  0  0  0  0  0  0  0  0  0
  152.2568  138.2941  155.3694 C   0  0  0  0  0  0  0  0  0  0  0  0
  151.0590  138.8213  154.5570 C   0  0  0  0  0  0  0  0  0  0  0  0
  146.4353  130.9617  156.7853 H   0  0  0  0  0  0  0  0  0  0  0  0
  145.5791  131.1120  155.2555 H   0  0  0  0  0  0  0  0  0  0  0  0
  146.2384  132.5430  156.0522 H   0  0  0  0  0  0  0  0  0  0  0  0
  148.5645  131.7098  155.6648 H   0  0  0  0  0  0  0  0  0  0  0  0
  147.9268  130.2109  155.0598 H   0  0  0  0  0  0  0  0  0  0  0  0
  148.7288  131.6588  153.1905 H   0  0  0  0  0  0  0  0  0  0  0  0
  146.8799  130.1418  152.6611 H   0  0  0  0  0  0  0  0  0  0  0  0
  145.7051  131.2728  153.2923 H   0  0  0  0  0  0  0  0  0  0  0  0
  145.7531  131.4348  149.5232 H   0  0  0  0  0  0  0  0  0  0  0  0
  145.6962  130.0556  150.5910 H   0  0  0  0  0  0  0  0  0  0  0  0
  143.4187  131.0628  150.2248 H   0  0  0  0  0  0  0  0  0  0  0  0
  143.8600  131.1000  151.9099 H   0  0  0  0  0  0  0  0  0  0  0  0
  144.0187  133.4285  149.9367 H   0  0  0  0  0  0  0  0  0  0  0  0
  142.9178  133.2876  151.2881 H   0  0  0  0  0  0  0  0  0  0  0  0
  144.8655  134.7824  151.8041 H   0  0  0  0  0  0  0  0  0  0  0  0
  144.7801  133.4278  152.8981 H   0  0  0  0  0  0  0  0  0  0  0  0
  146.5520  133.6361  150.4220 H   0  0  0  0  0  0  0  0  0  0  0  0
  148.4513  133.8430  151.8157 H   0  0  0  0  0  0  0  0  0  0  0  0
  147.2882  135.0135  152.3957 H   0  0  0  0  0  0  0  0  0  0  0  0
  151.1929  133.7534  156.1129 H   0  0  0  0  0  0  0  0  0  0  0  0
  146.9335  138.3699  154.6878 H   0  0  0  0  0  0  0  0  0  0  0  0
  148.4737  138.9991  156.9032 H   0  0  0  0  0  0  0  0  0  0  0  0
  149.9457  138.0979  157.0465 H   0  0  0  0  0  0  0  0  0  0  0  0
  148.1811  139.6348  154.2514 H   0  0  0  0  0  0  0  0  0  0  0  0
  148.5403  141.1451  155.0634 H   0  0  0  0  0  0  0  0  0  0  0  0
  149.4428  140.1951  152.6547 H   0  0  0  0  0  0  0  0  0  0  0  0
  151.1755  141.3995  155.6656 H   0  0  0  0  0  0  0  0  0  0  0  0
  150.1331  141.0831  157.0157 H   0  0  0  0  0  0  0  0  0  0  0  0
  152.5548  140.7485  157.5525 H   0  0  0  0  0  0  0  0  0  0  0  0
  151.6948  139.2439  157.7702 H   0  0  0  0  0  0  0  0  0  0  0  0
  152.9938  137.8566  154.6959 H   0  0  0  0  0  0  0  0  0  0  0  0
  151.9629  137.5033  156.0599 H   0  0  0  0  0  0  0  0  0  0  0  0
  150.5837  138.0008  154.0183 H   0  0  0  0  0  0  0  0  0  0  0  0
  151.4584  139.4876  153.7923 H   0  0  0  0  0  0  0  0  0  0  0  0
  147.4595  131.6357  150.9982 H   0  0  0  0  0  0  0  0  0  0  0  0
  1  2  1  0  0  0  0
  1 31  1  0  0  0  0
  1 32  1  0  0  0  0
  1 33  1  0  0  0  0
  2  3  1  0  0  0  0
  2 34  1  0  0  0  0
  2 35  1  0  0  0  0
  3 12  1  0  0  0  0
  3  4  1  0  0  0  0
  3 36  1  0  0  0  0
  4  5  1  0  0  0  0
  4 37  1  0  0  0  0
  4 38  1  0  0  0  0
  5 10  1  0  0  0  0
  5  6  1  0  0  0  0
  5 65  1  0  0  0  0
  6  7  1  0  0  0  0
  6 39  1  0  0  0  0
  6 40  1  0  0  0  0
  7  8  1  0  0  0  0
  7 41  1  0  0  0  0
  7 42  1  0  0  0  0
  8  9  1  0  0  0  0
  8 43  1  0  0  0  0
  8 44  1  0  0  0  0
  9 10  1  0  0  0  0
  9 45  1  0  0  0  0
  9 46  1  0  0  0  0
 10 11  1  0  0  0  0
 10 47  1  0  0  0  0
 11 12  1  0  0  0  0
 11 48  1  0  0  0  0
 11 49  1  0  0  0  0
 12 13  1  0  0  0  0
 13 18  1  0  0  0  0
 13 14  2  0  0  0  0
 14 15  1  0  0  0  0
 15 16  2  0  0  0  0
 15 50  1  0  0  0  0
 16 17  1  0  0  0  0
 17 21  1  0  0  0  0
 17 18  2  0  0  0  0
 18 19  1  0  0  0  0
 19 20  2  0  0  0  0
 20 21  1  0  0  0  0
 20 51  1  0  0  0  0
 21 22  1  0  0  0  0
 22 23  1  0  0  0  0
 22 52  1  0  0  0  0
 22 53  1  0  0  0  0
 23 30  1  0  0  0  0
 23 24  1  0  0  0  0
 23 26  1  0  0  0  0
 24 25  1  0  0  0  0
 24 54  1  0  0  0  0
 24 55  1  0  0  0  0
 25 56  1  0  0  0  0
 26 27  1  0  0  0  0
 26 57  1  0  0  0  0
 26 58  1  0  0  0  0
 27 28  1  0  0  0  0
 27 59  1  0  0  0  0
 27 60  1  0  0  0  0
 28 29  1  0  0  0  0
 29 30  1  0  0  0  0
 29 61  1  0  0  0  0
 29 62  1  0  0  0  0
 30 63  1  0  0  0  0
 30 64  1  0  0  0  0
M  CHG  1   5   1
M  END
> <s_m_source_file>
AV-unprocessed.smi

> <i_m_source_file_index>
282

> <i_lp_mmshare_version>
43012

> <i_f3d_flags>
0

> <s_epik_input>
W0NIMl0xW0NIMl1bQ0gyXVtDSDJdW0NAQEhdKE4xMilbQ0gyXU4oW0NAQEhdKFtDSDJdMilbQ0gyXVtDSDNdKWMobltjSF1uMyljKGMzNCluW2NIXW40W0NIMl1DNShbQ0gyXVtPSF0pW0NIMl1bQ0gyXU9bQ0gyXVtDSDJdNQ==

> <s_epik_cmdline>
J2VwaWtfcHl0aG9uJywgJy1waCcsICc3LjAnLCAnLXRuJywgJzgnLCAnLW1hJywgJzIwMCcsICctbWV0YWxfYmluZGluZycsICctaW1hZScsICc8aW5maWxlLm1hZT4nLCAnLW9tYWUnLCAnPG91dGZpbGUubWFlPic=

> <r_lp_tautomer_probability>
1

> <r_epik_Ionization_Penalty>
0.00308583

> <r_epik_Ionization_Penalty_Charging>
0.00300384

> <r_epik_Ionization_Penalty_Neutral>
8.19894e-05

> <r_epik_State_Penalty>
-0

> <r_epik_Charging_Adjusted_Penalty>
0.00300384

> <i_epik_Tot_Q>
1

> <i_epik_Tot_abs_Q>
1

> <r_epik_Metal_State_Penalty>
-0

> <b_epik_Metal_Only>
0

> <s_lp_Force_Field>
OPLS_2005

> <r_lp_Energy>
60.0912

> <b_lp_Chiralities_Consistent>
1

> <s_lp_Variant>
AV-unprocessed.smi:282-6

> <Gold.Version>
5.8.1

> <Gold.Id.Protein>
6NUR|6NUR_protein|mol2

> <Gold.PLP.Fitness>
49.4626

> <Gold.PLP.PLP>
-38.5674

> <Gold.PLP.part.hbond>
-4.3690

> <Gold.PLP.part.metal>
0.0000

> <Gold.PLP.part.buried>
-4.3955

> <Gold.PLP.part.nonpolar>
-31.5216

> <Gold.PLP.part.repulsive>
1.1304

> <Gold.PLP.ligand.clash>
0.0000

> <Gold.PLP.ligand.torsion>
0.7765

> <Gold.PLP.Chemscore.Hbond>
4.0618

> <Gold.PLP.Chemscore.CHOScore>
0.0000

> <Gold.PLP.Chemscore.Metal>
0.0000

> <Gold.Chemscore.Hbonds>
donor molecule, donor type, donor heavy atom, donor atom, acceptor molecule, acceptor atom, score
      L1  H     5    65       P1 10747  1.00
      L1  H    25    56       P1  7957  0.78
      P1  H  7989  7998       L1    25  0.27
      P1  H  7997  8008       L1    28  1.00
      P1  H  8011  8017       L1    25  1.00

> <Gold.PLP.Chemscore.Internal.Correction>
0.2626

> <Gold.Rescore>
     Score         DG    S(hbond)    S(metal)    S(lipo)     H(rot)  DE(clash)    DE(int)     intcor
     18.28     -21.92       3.23        0.00     101.96       2.46       1.42       2.22       ----

> <Gold.Chemscore.Fitness>
18.2778

> <Gold.Chemscore.DG>
-21.9212

> <Gold.Chemscore.ZeroCoef>
-5.4800

> <Gold.Chemscore.Hbond>
3.2344

> <Gold.Chemscore.Metal>
0.0000

> <Gold.Chemscore.Lipo>
101.9644

> <Gold.Chemscore.Internal_Hbond>
0.0000

> <Gold.Chemscore.DEClash>
1.4235

> <Gold.Chemscore.DEInternal>
2.2199

> <Gold.Chemscore.Rot>
2.4576

> <Gold.Chemscore.Internal.Correction>
   9.000000E+99

> <Gold.Chemscore.Hbonds>
donor molecule, donor type, donor heavy atom, donor atom, acceptor molecule, acceptor atom, score
      L1  H     5    65       P1 10747  1.00
      L1  H    25    56       P1  7957  0.73
      P1  H  7989  7998       L1    25  0.05
      P1  H  7997  8008       L1    28  0.70
      P1  H  8011  8017       L1    25  0.25

> <Gold.Chemscore.Hbond.Weighted>
-10.8029

> <Gold.Chemscore.Metal.Weighted>
-0.0000

> <Gold.Chemscore.Lipo.Weighted>
-11.9298

> <Gold.Chemscore.Internal_Hbond.Weighted>
0.0000

> <Gold.Chemscore.DEClash.Weighted>
1.4235

> <Gold.Chemscore.DEInternal.Weighted>
2.2199

> <Gold.Chemscore.Rot.Weighted>
6.2915

> <Gold.Chemscore.Internal.Correction.Weighted>
   9.000000E+99

> <Gold.Protein.RotatedTorsions>
[ 6907 6896 6895 6894 ] final   51.37 input  -60.11 | X-H torsion
[ 7974 7965 7964 7962 ] final  166.75 input  175.53 | X-H torsion
[ 8008 7997 7996 7995 ] final  -28.15 input   59.86 | X-H torsion
[ 10167 10162 10161 10158 ] final   60.82 input  -65.29 | X-H torsion
[ 10718 10713 10712 10709 ] final -143.20 input   66.30 | X-H torsion
[ 10763 10752 10751 10750 ] final -130.95 input  -60.55 | X-H torsion
[ 11005 11000 10999 10996 ] final  103.97 input  -57.11 | X-H torsion

> <Gold.Protein.ActiveResidues>
 VAL166  LYS551  ARG553  GLY616  TRP617  ASP618  TYR619  PRO620  LYS621  CYS622 
 ASP623  PHE694  ASN695  SER759  ASP760  ASP761  ALA762  ILE779  LEU786  VAL792 
 PHE793  MET794  SER795  GLU796  ALA797  LYS798  CYS799  TRP800  GLU811  SER814 

> <Gold.Protein.RotatedAtoms>
  152.3119  134.7487  160.0334 H   0  0  0  0  0  0  0  0  0  0  0  0  # atno 6907 bound_to 6896
  151.7965  133.3360  159.3522 H   0  0  0  0  0  0  0  0  0  0  0  0  # atno 6908 bound_to 6896
  150.7324  134.5724  159.5941 H   0  0  0  0  0  0  0  0  0  0  0  0  # atno 6909 bound_to 6896
  144.7450  139.8661  143.6385 H   0  0  0  0  0  0  0  0  0  0  0  0  # atno 7974 bound_to 7965
  154.4345  140.1853  156.1044 H   0  0  0  0  0  0  0  0  0  0  0  0  # atno 8008 bound_to 7997
  156.0267  140.3335  155.7070 H   0  0  0  0  0  0  0  0  0  0  0  0  # atno 8009 bound_to 7997
  155.5898  140.0630  157.2752 H   0  0  0  0  0  0  0  0  0  0  0  0  # atno 8010 bound_to 7997
  140.1615  144.4366  150.6707 H   0  0  0  0  0  0  0  0  0  0  0  0  # atno 10167 bound_to 10162
  156.3551  130.7708  151.1867 H   0  0  0  0  0  0  0  0  0  0  0  0  # atno 10718 bound_to 10713
  154.8753  135.3846  154.4167 H   0  0  0  0  0  0  0  0  0  0  0  0  # atno 10763 bound_to 10752
  153.4875  135.7030  153.5908 H   0  0  0  0  0  0  0  0  0  0  0  0  # atno 10764 bound_to 10752
  153.4296  135.3882  155.2129 H   0  0  0  0  0  0  0  0  0  0  0  0  # atno 10765 bound_to 10752
  139.8788  134.9283  156.5290 H   0  0  0  0  0  0  0  0  0  0  0  0  # atno 11005 bound_to 11000
  146.1313  139.4349  143.0167 LP  0  0  0  0  0  0  0  0  0  0  0  0  # atno 17320 bound_to 7965
  145.7158  141.0091  143.1429 LP  0  0  0  0  0  0  0  0  0  0  0  0  # atno 17321 bound_to 7965
  140.6640  143.2261  151.5788 LP  0  0  0  0  0  0  0  0  0  0  0  0  # atno 17342 bound_to 10162
  139.5379  144.2729  152.1290 LP  0  0  0  0  0  0  0  0  0  0  0  0  # atno 17343 bound_to 10162
  157.7466  131.0416  150.4656 LP  0  0  0  0  0  0  0  0  0  0  0  0  # atno 17370 bound_to 10713
  156.4857  130.4084  149.6435 LP  0  0  0  0  0  0  0  0  0  0  0  0  # atno 17371 bound_to 10713
  140.8395  133.8216  155.9061 LP  0  0  0  0  0  0  0  0  0  0  0  0  # atno 17394 bound_to 11000
  140.9251  134.2092  157.4901 LP  0  0  0  0  0  0  0  0  0  0  0  0  # atno 17395 bound_to 11000

$$$$
