#       Name:                AV-unprocessed.smi:916
#       Creating user name   scv26
#       Creation time:       Fri Mar 27 02:06:32 2020


#       File generated by GOLD software.
#

@<TRIPOS>MOLECULE
AV-unprocessed.smi:916
    48    49     1
SMALL
NO_CHARGES


@<TRIPOS>ATOM
      1 ****        -4.3113   5.3659   0.5598 C.3            1 S1                 0.0000
      2 ****        -4.7435   4.4918  -0.6228 C.3            1 S1                 0.0000
      3 ****        -4.6885   3.0294  -0.2997 C.2            1 S1                 0.0000
      4 ****        -5.7505   2.2086  -0.0076 C.2            1 S1                 0.0000
      5 ****        -5.2441   0.5710   0.3103 S.3            1 S1                 0.0000
      6 ****        -3.5835   1.0725   0.0342 C.2            1 S1                 0.0000
      7 ****        -2.4979   0.1634   0.1318 N.am           1 S1                 0.0000
      8 ****        -1.1858   0.4182  -0.0151 C.2            1 S1                 0.0000
      9 ****        -0.6962   1.5229  -0.2523 O.2            1 S1                 0.0000
     10 ****        -0.4554  -0.6951   0.1323 N.am           1 S1                 0.0000
     11 ****         0.9971  -0.7468   0.0211 C.3            1 S1                 0.0000
     12 ****         1.5108  -2.2050   0.0157 C.3            1 S1                 0.0000
     13 ****         1.0323  -2.9877  -1.2003 C.3            1 S1                 0.0000
     14 ****         2.0944  -2.6871  -2.2605 C.3            1 S1                 0.0000
     15 ****         3.2090  -2.1425  -1.5600 O.3            1 S1                 0.0000
     16 ****         3.0328  -2.3455  -0.1638 C.3            1 S1                 0.0000
     17 ****         3.9398  -1.4064   0.6639 C.3            1 S1                 0.0000
     18 ****         5.4200  -1.6096   0.3017 C.3            1 S1                 0.0000
     19 ****         3.7390  -1.6059   2.1759 C.3            1 S1                 0.0000
     20 ****        -3.4568   2.3680  -0.2740 N.2            1 S1                 0.0000
     21 ****        -4.3654   6.4235   0.3011 H              1 S1                 0.0000
     22 ****        -3.2847   5.1483   0.8561 H              1 S1                 0.0000
     23 ****        -4.9522   5.2010   1.4263 H              1 S1                 0.0000
     24 ****        -5.7542   4.7706  -0.9230 H              1 S1                 0.0000
     25 ****        -4.1071   4.7078  -1.4817 H              1 S1                 0.0000
     26 ****        -6.7977   2.4680   0.0395 H              1 S1                 0.0000
     27 ****        -2.7499  -0.7919   0.3380 H              1 S1                 0.0000
     28 ****        -0.9326  -1.5628   0.3273 H              1 S1                 0.0000
     29 ****         1.3164  -0.2277  -0.8844 H              1 S1                 0.0000
     30 ****         1.4126  -0.1967   0.8654 H              1 S1                 0.0000
     31 ****         1.1892  -2.6951   0.9356 H              1 S1                 0.0000
     32 ****         1.0398  -4.0544  -0.9716 H              1 S1                 0.0000
     33 ****         0.0250  -2.7335  -1.5307 H              1 S1                 0.0000
     34 ****         2.3810  -3.5884  -2.8028 H              1 S1                 0.0000
     35 ****         1.7376  -1.9538  -2.9841 H              1 S1                 0.0000
     36 ****         3.3126  -3.3792   0.0506 H              1 S1                 0.0000
     37 ****         3.6925  -0.3728   0.4211 H              1 S1                 0.0000
     38 ****         5.7424  -2.6309   0.5063 H              1 S1                 0.0000
     39 ****         6.0604  -0.9375   0.8736 H              1 S1                 0.0000
     40 ****         5.6015  -1.4088  -0.7545 H              1 S1                 0.0000
     41 ****         3.9789  -2.6269   2.4743 H              1 S1                 0.0000
     42 ****         2.7111  -1.4062   2.4776 H              1 S1                 0.0000
     43 ****         4.3794  -0.9345   2.7482 H              1 S1                 0.0000
     44 ****        -1.2893   2.3220  -0.3510 LP             1 S1                 0.0000
     45 ****         0.2946   1.6210  -0.3462 LP             1 S1                 0.0000
     46 ****         3.2759  -1.1628  -1.7491 LP             1 S1                 0.0000
     47 ****         4.0471  -2.5979  -1.8604 LP             1 S1                 0.0000
     48 ****        -2.5814   2.8126  -0.4642 LP             1 S1                 0.0000
@<TRIPOS>BOND
    1    1    2 1     
    2    1   21 1     
    3    1   22 1     
    4    1   23 1     
    5    2    3 1     
    6    2   24 1     
    7    2   25 1     
    8    3   20 1     
    9    3    4 2     
   10    4    5 1     
   11    4   26 1     
   12    5    6 1     
   13    6    7 1     
   14    6   20 2     
   15    7    8 am    
   16    7   27 1     
   17    8    9 2     
   18    8   10 am    
   19   10   11 1     
   20   10   28 1     
   21   11   12 1     
   22   11   29 1     
   23   11   30 1     
   24   12   16 1     
   25   12   13 1     
   26   12   31 1     
   27   13   14 1     
   28   13   32 1     
   29   13   33 1     
   30   14   15 1     
   31   14   34 1     
   32   14   35 1     
   33   15   16 1     
   34   16   17 1     
   35   16   36 1     
   36   17   18 1     
   37   17   19 1     
   38   17   37 1     
   39   18   38 1     
   40   18   39 1     
   41   18   40 1     
   42   19   41 1     
   43   19   42 1     
   44   19   43 1     
   45    9   44 1     
   46    9   45 1     
   47   15   46 1     
   48   15   47 1     
   49   20   48 1     
@<TRIPOS>SUBSTRUCTURE
      1 S1             1
@<TRIPOS>SET
LONE_PAIRS      STATIC     ATOMS    <user>   **** ""
5 44 45 46 47 48
DONOR_HYDROGENS      STATIC     ATOMS    <user>   **** ""
2 27 28
ATOM$BLUE        STATIC     ATOMS    COLORGROUP SYSTEM
5 44 45 46 47 48
ATOM$RED        STATIC     ATOMS    COLORGROUP SYSTEM
2 27 28
