#       Name:                AV-unprocessed.smi:2001
#       Creating user name   scv26
#       Creation time:       Fri Mar 27 10:33:24 2020


#       File generated by GOLD software.
#

@<TRIPOS>MOLECULE
AV-unprocessed.smi:2001
    60    61     1
SMALL
NO_CHARGES


@<TRIPOS>ATOM
      1 ****        -6.5092  -0.5256  -3.1708 C.3            1 S1                 0.0000
      2 ****        -6.3064   0.0432  -1.8897 O.3            1 S1                 0.0000
      3 ****        -5.3218  -0.6445  -1.1359 C.3            1 S1                 0.0000
      4 ****        -5.1423   0.0320   0.2334 C.3            1 S1                 0.0000
      5 ****        -4.4865   1.3397   0.1151 N.am           1 S1                 0.0000
      6 ****        -3.1024   1.2799   0.1503 N.2            1 S1                 0.0000
      7 ****        -2.4018   2.3623   0.0414 C.2            1 S1                 0.0000
      8 ****        -0.9129   2.3426   0.0820 C.2            1 S1                 0.0000
      9 ****        -0.2441   3.3715  -0.0297 O.2            1 S1                 0.0000
     10 ****        -0.3538   1.1321   0.2532 N.am           1 S1                 0.0000
     11 ****         1.0805   0.8982   0.3447 C.3            1 S1                 0.0000
     12 ****         1.3725  -0.5849   0.6234 C.3            1 S1                 0.0000
     13 ****         2.8225  -0.8489   0.7988 N.4            1 S1                 1.0000
     14 ****         3.0839  -2.1030   1.5441 C.3            1 S1                 0.0000
     15 ****         4.5941  -2.3090   1.7750 C.3            1 S1                 0.0000
     16 ****         5.1842  -1.3763   2.8477 C.3            1 S1                 0.0000
     17 ****         5.2992  -2.2229   0.5366 O.3            1 S1                 0.0000
     18 ****         5.0921  -1.0138  -0.1889 C.3            1 S1                 0.0000
     19 ****         5.9148  -1.0905  -1.4800 C.3            1 S1                 0.0000
     20 ****         3.5890  -0.8373  -0.4704 C.3            1 S1                 0.0000
     21 ****        -3.0472   3.6536  -0.1226 C.2            1 S1                 0.0000
     22 ****        -4.3970   3.6970  -0.1503 C.2            1 S1                 0.0000
     23 ****        -5.2143   2.4892  -0.0240 C.2            1 S1                 0.0000
     24 ****        -6.4445   2.5072  -0.0422 O.2            1 S1                 0.0000
     25 ****        -7.2764   0.0368  -3.7029 H              1 S1                 0.0000
     26 ****        -6.8433  -1.5611  -3.0955 H              1 S1                 0.0000
     27 ****        -5.5953  -0.4943  -3.7650 H              1 S1                 0.0000
     28 ****        -5.6382  -1.6782  -0.9904 H              1 S1                 0.0000
     29 ****        -4.3737  -0.6696  -1.6756 H              1 S1                 0.0000
     30 ****        -6.1031   0.1095   0.7450 H              1 S1                 0.0000
     31 ****        -4.5330  -0.6129   0.8689 H              1 S1                 0.0000
     32 ****        -0.9641   0.3313   0.3347 H              1 S1                 0.0000
     33 ****         1.5420   1.2193  -0.5893 H              1 S1                 0.0000
     34 ****         1.4981   1.5157   1.1418 H              1 S1                 0.0000
     35 ****         0.8474  -0.8678   1.5372 H              1 S1                 0.0000
     36 ****         0.9730  -1.2169  -0.1716 H              1 S1                 0.0000
     37 ****         2.5616  -2.0898   2.5018 H              1 S1                 0.0000
     38 ****         2.6804  -2.9433   0.9768 H              1 S1                 0.0000
     39 ****         4.7384  -3.3289   2.1327 H              1 S1                 0.0000
     40 ****         4.7199  -1.5605   3.8168 H              1 S1                 0.0000
     41 ****         5.0321  -0.3235   2.6117 H              1 S1                 0.0000
     42 ****         6.2558  -1.5425   2.9599 H              1 S1                 0.0000
     43 ****         5.4574  -0.1670   0.3924 H              1 S1                 0.0000
     44 ****         5.7969  -0.1850  -2.0760 H              1 S1                 0.0000
     45 ****         5.6093  -1.9379  -2.0944 H              1 S1                 0.0000
     46 ****         6.9764  -1.2051  -1.2595 H              1 S1                 0.0000
     47 ****         3.2292  -1.6362  -1.1212 H              1 S1                 0.0000
     48 ****         3.4331   0.1010  -1.0014 H              1 S1                 0.0000
     49 ****        -2.4697   4.5615  -0.2195 H              1 S1                 0.0000
     50 ****        -4.8897   4.6507  -0.2707 H              1 S1                 0.0000
     51 ****         3.1844  -0.0995   1.3715 H              1 S1                 0.0000
     52 ****        -7.1705   0.0166  -1.3872 LP             1 S1                 0.0000
     53 ****        -6.0163   0.9934  -2.0037 LP             1 S1                 0.0000
     54 ****        -2.6439   0.3980   0.2602 LP             1 S1                 0.0000
     55 ****        -0.6997   4.2533  -0.1518 LP             1 S1                 0.0000
     56 ****         0.7544   3.3248   0.0017 LP             1 S1                 0.0000
     57 ****         5.0074  -2.9854  -0.0407 LP             1 S1                 0.0000
     58 ****         6.2770  -2.3059   0.7294 LP             1 S1                 0.0000
     59 ****        -6.9584   1.6541   0.0472 LP             1 S1                 0.0000
     60 ****        -6.9303   3.3750  -0.1464 LP             1 S1                 0.0000
@<TRIPOS>BOND
    1    1    2 1     
    2    1   25 1     
    3    1   26 1     
    4    1   27 1     
    5    2    3 1     
    6    3    4 1     
    7    3   28 1     
    8    3   29 1     
    9    4    5 1     
   10    4   30 1     
   11    4   31 1     
   12    5   23 am    
   13    5    6 1     
   14    6    7 2     
   15    7    8 1     
   16    7   21 1     
   17    8    9 2     
   18    8   10 am    
   19   10   11 1     
   20   10   32 1     
   21   11   12 1     
   22   11   33 1     
   23   11   34 1     
   24   12   13 1     
   25   12   35 1     
   26   12   36 1     
   27   13   20 1     
   28   13   14 1     
   29   13   51 1     
   30   14   15 1     
   31   14   37 1     
   32   14   38 1     
   33   15   16 1     
   34   15   17 1     
   35   15   39 1     
   36   16   40 1     
   37   16   41 1     
   38   16   42 1     
   39   17   18 1     
   40   18   19 1     
   41   18   20 1     
   42   18   43 1     
   43   19   44 1     
   44   19   45 1     
   45   19   46 1     
   46   20   47 1     
   47   20   48 1     
   48   21   22 2     
   49   21   49 1     
   50   22   23 1     
   51   22   50 1     
   52   23   24 2     
   53    2   52 1     
   54    2   53 1     
   55    6   54 1     
   56    9   55 1     
   57    9   56 1     
   58   17   57 1     
   59   17   58 1     
   60   24   59 1     
   61   24   60 1     
@<TRIPOS>SUBSTRUCTURE
      1 S1             1
@<TRIPOS>SET
LONE_PAIRS      STATIC     ATOMS    <user>   **** ""
9 52 53 54 55 56 57 58 59 60
DONOR_HYDROGENS      STATIC     ATOMS    <user>   **** ""
2 32 51
ATOM$BLUE        STATIC     ATOMS    COLORGROUP SYSTEM
9 52 53 54 55 56 57 58 59 60
ATOM$RED        STATIC     ATOMS    COLORGROUP SYSTEM
2 32 51
