AV-unprocessed.smi:2721|AV-procd|sdf|10500|dock5
  -GOLD-   2272014543D 1   1.00000     0.00000
 Structure written by MMmdl.
 29 30  0  0  0  0  0  0  0  0  2 V2000
  148.4162  141.1647  154.1238 C   0  0  0  0  0  0  0  0  0  0  0  0
  149.4756  141.1682  155.1098 N   0  0  0  0  0  0  0  0  0  0  0  0
  149.5233  141.8265  156.3196 C   0  0  0  0  0  0  0  0  0  0  0  0
  150.7251  141.5312  156.9007 C   0  0  0  0  0  0  0  0  0  0  0  0
  151.2648  141.9762  158.2349 C   0  0  1  0  0  0  0  0  0  0  0  0
  152.5608  141.4182  158.4442 O   0  0  0  0  0  0  0  0  0  0  0  0
  153.1160  141.7027  159.7238 C   0  0  0  0  0  0  0  0  0  0  0  0
  153.3115  143.2175  159.8768 C   0  0  0  0  0  0  0  0  0  0  0  0
  151.9817  143.9456  159.6607 C   0  0  0  0  0  0  0  0  0  0  0  0
  151.3605  143.5197  158.3217 C   0  0  2  0  0  0  0  0  0  0  0  0
  150.0408  144.1559  158.1466 N   0  3  0  0  0  0  0  0  0  0  0  0
  151.3470  140.6709  155.9509 C   0  0  0  0  0  0  0  0  0  0  0  0
  150.5978  140.4554  154.8829 N   0  0  0  0  0  0  0  0  0  0  0  0
  150.6111  141.6134  159.0306 H   0  0  0  0  0  0  0  0  0  0  0  0
  152.0008  143.8777  157.5139 H   0  0  0  0  0  0  0  0  0  0  0  0
  147.5143  141.6119  154.5428 H   0  0  0  0  0  0  0  0  0  0  0  0
  148.1942  140.1413  153.8193 H   0  0  0  0  0  0  0  0  0  0  0  0
  148.7254  141.7396  153.2505 H   0  0  0  0  0  0  0  0  0  0  0  0
  148.7068  142.4435  156.6654 H   0  0  0  0  0  0  0  0  0  0  0  0
  152.4704  141.3094  160.5104 H   0  0  0  0  0  0  0  0  0  0  0  0
  154.0742  141.1906  159.8131 H   0  0  0  0  0  0  0  0  0  0  0  0
  153.7139  143.4492  160.8633 H   0  0  0  0  0  0  0  0  0  0  0  0
  154.0455  143.5661  159.1490 H   0  0  0  0  0  0  0  0  0  0  0  0
  151.3018  143.7079  160.4804 H   0  0  0  0  0  0  0  0  0  0  0  0
  152.1386  145.0247  159.6856 H   0  0  0  0  0  0  0  0  0  0  0  0
  149.3656  143.7085  158.7501 H   0  0  0  0  0  0  0  0  0  0  0  0
  149.7474  144.0600  157.1847 H   0  0  0  0  0  0  0  0  0  0  0  0
  152.3147  140.1953  156.0091 H   0  0  0  0  0  0  0  0  0  0  0  0
  150.1046  145.1361  158.3814 H   0  0  0  0  0  0  0  0  0  0  0  0
  1  2  1  0  0  0  0
  1 16  1  0  0  0  0
  1 17  1  0  0  0  0
  1 18  1  0  0  0  0
  2 13  1  0  0  0  0
  2  3  1  0  0  0  0
  3  4  2  0  0  0  0
  3 19  1  0  0  0  0
  4  5  1  0  0  0  0
  4 12  1  0  0  0  0
  5 14  1  0  0  0  0
  5 10  1  0  0  0  0
  5  6  1  0  0  0  0
  6  7  1  0  0  0  0
  7  8  1  0  0  0  0
  7 20  1  0  0  0  0
  7 21  1  0  0  0  0
  8  9  1  0  0  0  0
  8 22  1  0  0  0  0
  8 23  1  0  0  0  0
  9 10  1  0  0  0  0
  9 24  1  0  0  0  0
  9 25  1  0  0  0  0
 10 15  1  0  0  0  0
 10 11  1  0  0  0  0
 11 26  1  0  0  0  0
 11 27  1  0  0  0  0
 11 29  1  0  0  0  0
 12 13  2  0  0  0  0
 12 28  1  0  0  0  0
M  CHG  1  11   1
M  END
> <s_m_source_file>
AV-unprocessed.smi

> <i_m_source_file_index>
2721

> <i_lp_mmshare_version>
43012

> <i_f3d_flags>
0

> <s_epik_input>
W0NIM11uMVtjSF1jKFtjSF1uMSlbQ0BIXTJPW0NIMl1bQ0gyXVtDSDJdW0NAQEhdMltOSDJd

> <s_epik_cmdline>
J2VwaWtfcHl0aG9uJywgJy1waCcsICc3LjAnLCAnLXRuJywgJzgnLCAnLW1hJywgJzIwMCcsICctbWV0YWxfYmluZGluZycsICctaW1hZScsICc8aW5maWxlLm1hZT4nLCAnLW9tYWUnLCAnPG91dGZpbGUubWFlPic=

> <r_lp_tautomer_probability>
1

> <r_epik_Ionization_Penalty>
0.0061467

> <r_epik_Ionization_Penalty_Charging>
0.00611941

> <r_epik_Ionization_Penalty_Neutral>
2.72888e-05

> <r_epik_State_Penalty>
0.00451057

> <r_epik_Charging_Adjusted_Penalty>
0.01063

> <i_epik_Tot_Q>
1

> <i_epik_Tot_abs_Q>
1

> <r_epik_Metal_State_Penalty>
-0

> <b_epik_Metal_Only>
0

> <s_lp_Force_Field>
OPLS_2005

> <r_lp_Energy>
11.0235

> <b_lp_Chiralities_Consistent>
1

> <s_lp_Variant>
AV-unprocessed.smi:2721-1

> <Gold.Version>
5.8.1

> <Gold.Id.Protein>
6NUR|6NUR_protein|mol2

> <Gold.PLP.Fitness>
41.3617

> <Gold.PLP.PLP>
-30.4296

> <Gold.PLP.part.hbond>
-3.0000

> <Gold.PLP.part.metal>
0.0000

> <Gold.PLP.part.buried>
-0.7328

> <Gold.PLP.part.nonpolar>
-26.5653

> <Gold.PLP.part.repulsive>
0.1575

> <Gold.PLP.ligand.clash>
0.0000

> <Gold.PLP.ligand.torsion>
0.0025

> <Gold.PLP.Chemscore.Hbond>
3.0000

> <Gold.PLP.Chemscore.CHOScore>
0.6447

> <Gold.PLP.Chemscore.Metal>
0.0000

> <Gold.Chemscore.Hbonds>
donor molecule, donor type, donor heavy atom, donor atom, acceptor molecule, acceptor atom, score
      L1  H    11    27       P1  8028  1.98
      P1  H  7989  7998       L1    13  1.00
      L1  C     3    19       P1  8028  0.61

> <Gold.PLP.Chemscore.Internal.Correction>
0.0029

> <Gold.Rescore>
     Score         DG    S(hbond)    S(metal)    S(lipo)     H(rot)  DE(clash)    DE(int)     intcor
     16.20     -17.15       1.43        0.00      80.75       1.00       0.11       0.84       ----

> <Gold.Chemscore.Fitness>
16.2026

> <Gold.Chemscore.DG>
-17.1527

> <Gold.Chemscore.ZeroCoef>
-5.4800

> <Gold.Chemscore.Hbond>
1.4326

> <Gold.Chemscore.Metal>
0.0000

> <Gold.Chemscore.Lipo>
80.7500

> <Gold.Chemscore.Internal_Hbond>
0.0000

> <Gold.Chemscore.DEClash>
0.1137

> <Gold.Chemscore.DEInternal>
0.8364

> <Gold.Chemscore.Rot>
1.0000

> <Gold.Chemscore.Internal.Correction>
   9.000000E+99

> <Gold.Chemscore.Hbonds>
donor molecule, donor type, donor heavy atom, donor atom, acceptor molecule, acceptor atom, score
      L1  H    11    27       P1  8028  0.62
      P1  H  7989  7998       L1    13  0.47

> <Gold.Chemscore.Hbond.Weighted>
-4.7849

> <Gold.Chemscore.Metal.Weighted>
-0.0000

> <Gold.Chemscore.Lipo.Weighted>
-9.4477

> <Gold.Chemscore.Internal_Hbond.Weighted>
0.0000

> <Gold.Chemscore.DEClash.Weighted>
0.1137

> <Gold.Chemscore.DEInternal.Weighted>
0.8364

> <Gold.Chemscore.Rot.Weighted>
2.5600

> <Gold.Chemscore.Internal.Correction.Weighted>
   9.000000E+99

> <Gold.Protein.RotatedTorsions>
[ 6907 6896 6895 6894 ] final  115.45 input  -60.11 | X-H torsion
[ 7974 7965 7964 7962 ] final   99.40 input  175.53 | X-H torsion
[ 8008 7997 7996 7995 ] final   48.48 input   59.86 | X-H torsion
[ 10167 10162 10161 10158 ] final   48.40 input  -65.29 | X-H torsion
[ 10718 10713 10712 10709 ] final   24.89 input   66.30 | X-H torsion
[ 10763 10752 10751 10750 ] final  179.46 input  -60.55 | X-H torsion
[ 11005 11000 10999 10996 ] final  -78.59 input  -57.11 | X-H torsion

> <Gold.Protein.ActiveResidues>
 VAL166  LYS551  ARG553  GLY616  TRP617  ASP618  TYR619  PRO620  LYS621  CYS622 
 ASP623  PHE694  ASN695  SER759  ASP760  ASP761  ALA762  ILE779  LEU786  VAL792 
 PHE793  MET794  SER795  GLU796  ALA797  LYS798  CYS799  TRP800  GLU811  SER814 

> <Gold.Protein.RotatedAtoms>
  152.4741  133.8097  159.6996 H   0  0  0  0  0  0  0  0  0  0  0  0  # atno 6907 bound_to 6896
  150.8747  133.7446  159.2957 H   0  0  0  0  0  0  0  0  0  0  0  0  # atno 6908 bound_to 6896
  151.4970  135.1063  159.9871 H   0  0  0  0  0  0  0  0  0  0  0  0  # atno 6909 bound_to 6896
  145.3994  139.2350  143.3308 H   0  0  0  0  0  0  0  0  0  0  0  0  # atno 7974 bound_to 7965
  155.3863  140.3431  155.4249 H   0  0  0  0  0  0  0  0  0  0  0  0  # atno 8008 bound_to 7997
  156.1582  140.1592  156.8690 H   0  0  0  0  0  0  0  0  0  0  0  0  # atno 8009 bound_to 7997
  154.5115  140.0789  156.7980 H   0  0  0  0  0  0  0  0  0  0  0  0  # atno 8010 bound_to 7997
  140.2937  144.3016  150.6234 H   0  0  0  0  0  0  0  0  0  0  0  0  # atno 10167 bound_to 10162
  157.1860  130.6824  149.6131 H   0  0  0  0  0  0  0  0  0  0  0  0  # atno 10718 bound_to 10713
  154.5209  135.2794  155.1263 H   0  0  0  0  0  0  0  0  0  0  0  0  # atno 10763 bound_to 10752
  154.2821  135.6283  153.5355 H   0  0  0  0  0  0  0  0  0  0  0  0  # atno 10764 bound_to 10752
  152.9936  135.5653  154.5698 H   0  0  0  0  0  0  0  0  0  0  0  0  # atno 10765 bound_to 10752
  141.1665  133.7070  156.7995 H   0  0  0  0  0  0  0  0  0  0  0  0  # atno 11005 bound_to 11000
  146.2759  140.4689  142.8795 LP  0  0  0  0  0  0  0  0  0  0  0  0  # atno 17320 bound_to 7965
  144.8384  140.6819  143.6245 LP  0  0  0  0  0  0  0  0  0  0  0  0  # atno 17321 bound_to 7965
  140.5710  143.2181  151.7598 LP  0  0  0  0  0  0  0  0  0  0  0  0  # atno 17342 bound_to 10162
  139.4931  144.4216  151.9971 LP  0  0  0  0  0  0  0  0  0  0  0  0  # atno 17343 bound_to 10162
  155.9718  130.4631  150.6168 LP  0  0  0  0  0  0  0  0  0  0  0  0  # atno 17370 bound_to 10713
  157.3907  131.0795  151.1396 LP  0  0  0  0  0  0  0  0  0  0  0  0  # atno 17371 bound_to 10713
  140.2267  134.8717  157.3434 LP  0  0  0  0  0  0  0  0  0  0  0  0  # atno 17394 bound_to 11000
  140.1933  134.4345  155.7703 LP  0  0  0  0  0  0  0  0  0  0  0  0  # atno 17395 bound_to 11000

$$$$
