#       Name:                AV-unprocessed.smi:3244
#       Creating user name   scv26
#       Creation time:       Fri Mar 27 18:27:44 2020


#       File generated by GOLD software.
#

@<TRIPOS>MOLECULE
AV-unprocessed.smi:3244
    44    45     1
SMALL
NO_CHARGES


@<TRIPOS>ATOM
      1 ****        -1.4284   2.8015  -0.5608 C.3            1 S1                 0.0000
      2 ****        -2.2304   1.8016  -1.4095 C.3            1 S1                 0.0000
      3 ****        -1.6877   0.4345  -1.3241 N.am           1 S1                 0.0000
      4 ****        -1.8558  -0.2988  -0.1928 C.2            1 S1                 0.0000
      5 ****        -2.5793   0.0758   0.7312 O.2            1 S1                 0.0000
      6 ****        -1.1371  -1.6479  -0.0259 C.3            1 S1                 0.0000
      7 ****         0.3272  -1.5124   0.0479 N.3            1 S1                 0.0000
      8 ****         0.9070  -1.9819   1.3032 C.3            1 S1                 0.0000
      9 ****         2.4155  -2.1766   1.0751 C.3            1 S1                 0.0000
     10 ****         0.5873  -1.0220   2.4783 C.3            1 S1                 0.0000
     11 ****         1.2871   0.2513   2.4095 N.pl3          1 S1                 0.0000
     12 ****         2.4488   0.6270   3.0517 C.2            1 S1                 0.0000
     13 ****         2.7199   1.9137   2.6840 C.2            1 S1                 0.0000
     14 ****         1.6510   2.2464   1.8059 C.2            1 S1                 0.0000
     15 ****         0.7945   1.2514   1.6478 N.2            1 S1                 0.0000
     16 ****        -0.8187   0.0561  -2.4089 C.3            1 S1                 0.0000
     17 ****        -1.2818   0.1924  -3.8489 C.3            1 S1                 0.0000
     18 ****        -1.1317  -1.1742  -3.2402 C.3            1 S1                 0.0000
     19 ****        -1.8123   3.8132  -0.6923 H              1 S1                 0.0000
     20 ****        -0.3767   2.8062  -0.8487 H              1 S1                 0.0000
     21 ****        -1.4855   2.5675   0.5021 H              1 S1                 0.0000
     22 ****        -3.2765   1.8069  -1.0989 H              1 S1                 0.0000
     23 ****        -2.2378   2.1603  -2.4378 H              1 S1                 0.0000
     24 ****        -1.5279  -2.1434   0.8646 H              1 S1                 0.0000
     25 ****        -1.3929  -2.3134  -0.8482 H              1 S1                 0.0000
     26 ****         0.7752  -1.9771  -0.7286 H              1 S1                 0.0000
     27 ****         0.4868  -2.9633   1.5289 H              1 S1                 0.0000
     28 ****         2.9070  -2.5142   1.9878 H              1 S1                 0.0000
     29 ****         2.9025  -1.2541   0.7568 H              1 S1                 0.0000
     30 ****         2.6027  -2.9275   0.3066 H              1 S1                 0.0000
     31 ****        -0.4829  -0.8299   2.5610 H              1 S1                 0.0000
     32 ****         0.8722  -1.5020   3.4153 H              1 S1                 0.0000
     33 ****         2.9811  -0.0466   3.7072 H              1 S1                 0.0000
     34 ****         3.5540   2.5247   2.9957 H              1 S1                 0.0000
     35 ****         1.4714   3.1747   1.2841 H              1 S1                 0.0000
     36 ****         0.2372   0.2623  -2.2425 H              1 S1                 0.0000
     37 ****        -2.2991   0.5227  -4.0485 H              1 S1                 0.0000
     38 ****        -0.5416   0.4982  -4.5856 H              1 S1                 0.0000
     39 ****        -0.2916  -1.7836  -3.5670 H              1 S1                 0.0000
     40 ****        -2.0508  -1.7197  -3.0353 H              1 S1                 0.0000
     41 ****        -3.0668   0.9463   0.6632 LP             1 S1                 0.0000
     42 ****        -2.6792  -0.4906   1.5493 LP             1 S1                 0.0000
     43 ****         0.5003  -0.5286   0.0023 LP             1 S1                 0.0000
     44 ****        -0.0343   1.2418   1.0882 LP             1 S1                 0.0000
@<TRIPOS>BOND
    1    1    2 1     
    2    1   19 1     
    3    1   20 1     
    4    1   21 1     
    5    2    3 1     
    6    2   22 1     
    7    2   23 1     
    8    3    4 am    
    9    3   16 1     
   10    4    5 2     
   11    4    6 1     
   12    6    7 1     
   13    6   24 1     
   14    6   25 1     
   15    7    8 1     
   16    7   26 1     
   17    8    9 1     
   18    8   10 1     
   19    8   27 1     
   20    9   28 1     
   21    9   29 1     
   22    9   30 1     
   23   10   11 1     
   24   10   31 1     
   25   10   32 1     
   26   11   15 1     
   27   11   12 1     
   28   12   13 2     
   29   12   33 1     
   30   13   14 1     
   31   13   34 1     
   32   14   15 2     
   33   14   35 1     
   34   16   18 1     
   35   16   17 1     
   36   16   36 1     
   37   17   18 1     
   38   17   37 1     
   39   17   38 1     
   40   18   39 1     
   41   18   40 1     
   42    5   41 1     
   43    5   42 1     
   44    7   43 1     
   45   15   44 1     
@<TRIPOS>SUBSTRUCTURE
      1 S1             1
@<TRIPOS>SET
LONE_PAIRS      STATIC     ATOMS    <user>   **** ""
4 41 42 43 44
DONOR_HYDROGENS      STATIC     ATOMS    <user>   **** ""
1 26
ATOM$BLUE        STATIC     ATOMS    COLORGROUP SYSTEM
4 41 42 43 44
ATOM$RED        STATIC     ATOMS    COLORGROUP SYSTEM
1 26
