AV-unprocessed.smi:200|AV-procd|sdf|1578|dock10
  -GOLD-   2262019463D 1   1.00000     0.00000
 Structure written by MMmdl.
 56 59  0  0  0  0  0  0  0  0  1 V2000
  157.4443  141.4558  158.2228 C   0  0  0  0  0  0  0  0  0  0  0  0
  156.3521  140.5829  158.4639 O   0  0  0  0  0  0  0  0  0  0  0  0
  155.3940  141.0824  159.3881 C   0  0  0  0  0  0  0  0  0  0  0  0
  154.1405  140.1858  159.4768 C   0  0  0  0  0  0  0  0  0  0  0  0
  153.1317  140.4881  158.4594 N   0  0  0  0  0  0  0  0  0  0  0  0
  152.6531  139.4213  157.7739 C   0  0  0  0  0  0  0  0  0  0  0  0
  152.8695  139.3163  156.4363 N   0  0  0  0  0  0  0  0  0  0  0  0
  152.4033  138.2586  155.7659 C   0  0  0  0  0  0  0  0  0  0  0  0
  151.7125  137.2146  156.2294 N   0  0  0  0  0  0  0  0  0  0  0  0
  151.4889  137.3210  157.5707 C   0  0  0  0  0  0  0  0  0  0  0  0
  151.9107  138.3901  158.4088 C   0  0  0  0  0  0  0  0  0  0  0  0
  151.4834  138.1739  159.7120 N   0  0  0  0  0  0  0  0  0  0  0  0
  150.8459  137.0371  159.6489 C   0  0  0  0  0  0  0  0  0  0  0  0
  150.8218  136.4412  158.4066 N   0  0  0  0  0  0  0  0  0  0  0  0
  150.1940  135.1739  158.0605 C   0  0  0  0  0  0  0  0  0  0  0  0
  148.9072  135.3058  157.2145 C   0  0  0  0  0  0  0  0  0  0  0  0
  149.1159  136.2841  156.0461 C   0  0  0  0  0  0  0  0  0  0  0  0
  147.9604  136.3807  155.2382 O   0  0  0  0  0  0  0  0  0  0  0  0
  148.2411  133.9741  156.8425 C   0  0  0  0  0  0  0  0  0  0  0  0
  147.1455  134.1844  157.7574 O   0  0  0  0  0  0  0  0  0  0  0  0
  147.6114  135.5265  158.0089 C   0  0  0  0  0  0  0  0  0  0  0  0
  152.1592  141.5331  158.8072 C   0  0  2  0  0  0  0  0  0  0  0  0
  151.0114  141.7263  157.8035 C   0  0  0  0  0  0  0  0  0  0  0  0
  150.5053  143.1617  158.0256 C   0  0  0  0  0  0  0  0  0  0  0  0
  151.4501  143.8092  159.0538 C   0  0  2  0  0  0  0  0  0  0  0  0
  151.7115  145.3010  158.8071 C   0  0  0  0  0  0  0  0  0  0  0  0
  152.7144  142.9483  159.0153 C   0  0  0  0  0  0  0  0  0  0  0  0
  158.1582  140.9651  157.5616 H   0  0  0  0  0  0  0  0  0  0  0  0
  157.9644  141.7063  159.1481 H   0  0  0  0  0  0  0  0  0  0  0  0
  157.1267  142.3776  157.7362 H   0  0  0  0  0  0  0  0  0  0  0  0
  155.8750  141.1585  160.3633 H   0  0  0  0  0  0  0  0  0  0  0  0
  155.1110  142.1006  159.1175 H   0  0  0  0  0  0  0  0  0  0  0  0
  154.4373  139.1403  159.3864 H   0  0  0  0  0  0  0  0  0  0  0  0
  153.6880  140.2770  160.4641 H   0  0  0  0  0  0  0  0  0  0  0  0
  152.6164  138.2451  154.7072 H   0  0  0  0  0  0  0  0  0  0  0  0
  150.3821  136.5919  160.5170 H   0  0  0  0  0  0  0  0  0  0  0  0
  150.9335  134.5615  157.5433 H   0  0  0  0  0  0  0  0  0  0  0  0
  149.9819  134.6429  158.9894 H   0  0  0  0  0  0  0  0  0  0  0  0
  149.3412  137.2837  156.4192 H   0  0  0  0  0  0  0  0  0  0  0  0
  149.9671  135.9995  155.4286 H   0  0  0  0  0  0  0  0  0  0  0  0
  148.0208  135.7365  154.5492 H   0  0  0  0  0  0  0  0  0  0  0  0
  147.9002  133.9210  155.8074 H   0  0  0  0  0  0  0  0  0  0  0  0
  148.8335  133.0952  157.0997 H   0  0  0  0  0  0  0  0  0  0  0  0
  147.7565  135.7158  159.0710 H   0  0  0  0  0  0  0  0  0  0  0  0
  146.9465  136.2740  157.5741 H   0  0  0  0  0  0  0  0  0  0  0  0
  151.7134  141.2338  159.7570 H   0  0  0  0  0  0  0  0  0  0  0  0
  151.3626  141.6320  156.7763 H   0  0  0  0  0  0  0  0  0  0  0  0
  150.2237  140.9860  157.9457 H   0  0  0  0  0  0  0  0  0  0  0  0
  150.5249  143.7046  157.0797 H   0  0  0  0  0  0  0  0  0  0  0  0
  149.4748  143.1743  158.3821 H   0  0  0  0  0  0  0  0  0  0  0  0
  151.0003  143.6945  160.0415 H   0  0  0  0  0  0  0  0  0  0  0  0
  152.1623  145.4691  157.8285 H   0  0  0  0  0  0  0  0  0  0  0  0
  152.3881  145.7074  159.5592 H   0  0  0  0  0  0  0  0  0  0  0  0
  150.7845  145.8731  158.8503 H   0  0  0  0  0  0  0  0  0  0  0  0
  153.3102  143.0358  159.9243 H   0  0  0  0  0  0  0  0  0  0  0  0
  153.3324  143.2641  158.1740 H   0  0  0  0  0  0  0  0  0  0  0  0
  1  2  1  0  0  0  0
  1 28  1  0  0  0  0
  1 29  1  0  0  0  0
  1 30  1  0  0  0  0
  2  3  1  0  0  0  0
  3  4  1  0  0  0  0
  3 31  1  0  0  0  0
  3 32  1  0  0  0  0
  4  5  1  0  0  0  0
  4 33  1  0  0  0  0
  4 34  1  0  0  0  0
  5  6  1  0  0  0  0
  5 22  1  0  0  0  0
  6 11  1  0  0  0  0
  6  7  2  0  0  0  0
  7  8  1  0  0  0  0
  8  9  2  0  0  0  0
  8 35  1  0  0  0  0
  9 10  1  0  0  0  0
 10 14  1  0  0  0  0
 10 11  2  0  0  0  0
 11 12  1  0  0  0  0
 12 13  2  0  0  0  0
 13 14  1  0  0  0  0
 13 36  1  0  0  0  0
 14 15  1  0  0  0  0
 15 16  1  0  0  0  0
 15 37  1  0  0  0  0
 15 38  1  0  0  0  0
 16 21  1  0  0  0  0
 16 17  1  0  0  0  0
 16 19  1  0  0  0  0
 17 18  1  0  0  0  0
 17 39  1  0  0  0  0
 17 40  1  0  0  0  0
 18 41  1  0  0  0  0
 19 20  1  0  0  0  0
 19 42  1  0  0  0  0
 19 43  1  0  0  0  0
 20 21  1  0  0  0  0
 21 44  1  0  0  0  0
 21 45  1  0  0  0  0
 22 27  1  0  0  0  0
 22 23  1  0  0  0  0
 22 46  1  0  0  0  0
 23 24  1  0  0  0  0
 23 47  1  0  0  0  0
 23 48  1  0  0  0  0
 24 25  1  0  0  0  0
 24 49  1  0  0  0  0
 24 50  1  0  0  0  0
 25 26  1  0  0  0  0
 25 27  1  0  0  0  0
 25 51  1  0  0  0  0
 26 52  1  0  0  0  0
 26 53  1  0  0  0  0
 26 54  1  0  0  0  0
 27 55  1  0  0  0  0
 27 56  1  0  0  0  0
M  END
> <s_m_source_file>
AV-unprocessed.smi

> <i_m_source_file_index>
200

> <i_lp_mmshare_version>
43012

> <i_f3d_flags>
0

> <s_epik_input>
W0NIM11bQ0BASF0oW0NIMl0xKVtDSDJdW0NIMl1bQ0BIXTFOKFtDSDJdW0NIMl1PW0NIM10pYyhuW2NIXW4yKWMoYzIzKW5bY0hdbjNbQ0gyXUM0KFtDSDJdW09IXSlbQ0gyXU9bQ0gyXTQ=

> <s_epik_cmdline>
J2VwaWtfcHl0aG9uJywgJy1waCcsICc3LjAnLCAnLXRuJywgJzgnLCAnLW1hJywgJzIwMCcsICctbWV0YWxfYmluZGluZycsICctaW1hZScsICc8aW5maWxlLm1hZT4nLCAnLW9tYWUnLCAnPG91dGZpbGUubWFlPic=

> <r_lp_tautomer_probability>
1

> <r_epik_Ionization_Penalty>
0.00363087

> <r_epik_Ionization_Penalty_Charging>
0

> <r_epik_Ionization_Penalty_Neutral>
0.00363087

> <r_epik_State_Penalty>
0.0024341

> <r_epik_Charging_Adjusted_Penalty>
0.0024341

> <i_epik_Tot_Q>
0

> <i_epik_Tot_abs_Q>
0

> <r_epik_Metal_State_Penalty>
-0

> <b_epik_Metal_Only>
0

> <s_lp_Force_Field>
OPLS_2005

> <r_lp_Energy>
51.1688

> <b_lp_Chiralities_Consistent>
1

> <s_lp_Variant>
AV-unprocessed.smi:200-3

> <Gold.Version>
5.8.1

> <Gold.Id.Protein>
6NUR|6NUR_protein|mol2

> <Gold.PLP.Fitness>
45.4435

> <Gold.PLP.PLP>
-38.3830

> <Gold.PLP.part.hbond>
-4.1452

> <Gold.PLP.part.metal>
0.0000

> <Gold.PLP.part.buried>
-4.9233

> <Gold.PLP.part.nonpolar>
-29.2553

> <Gold.PLP.part.repulsive>
0.0446

> <Gold.PLP.ligand.clash>
0.0000

> <Gold.PLP.ligand.torsion>
1.6253

> <Gold.PLP.Chemscore.Hbond>
3.0000

> <Gold.PLP.Chemscore.CHOScore>
0.0000

> <Gold.PLP.Chemscore.Metal>
0.0000

> <Gold.Chemscore.Hbonds>
donor molecule, donor type, donor heavy atom, donor atom, acceptor molecule, acceptor atom, score
      P1  H  7997  8008       L1     7  1.00
      P1  H  7997  8010       L1     2  0.46

> <Gold.PLP.Chemscore.Internal.Correction>
1.3111

> <Gold.Rescore>
     Score         DG    S(hbond)    S(metal)    S(lipo)     H(rot)  DE(clash)    DE(int)     intcor
     14.81     -17.73       2.74        0.00      98.16       3.28       0.07       2.85       ----

> <Gold.Chemscore.Fitness>
14.8115

> <Gold.Chemscore.DG>
-17.7332

> <Gold.Chemscore.ZeroCoef>
-5.4800

> <Gold.Chemscore.Hbond>
2.7412

> <Gold.Chemscore.Metal>
0.0000

> <Gold.Chemscore.Lipo>
98.1561

> <Gold.Chemscore.Internal_Hbond>
0.0000

> <Gold.Chemscore.DEClash>
0.0748

> <Gold.Chemscore.DEInternal>
2.8469

> <Gold.Chemscore.Rot>
3.2761

> <Gold.Chemscore.Internal.Correction>
   9.000000E+99

> <Gold.Chemscore.Hbonds>
donor molecule, donor type, donor heavy atom, donor atom, acceptor molecule, acceptor atom, score
      P1  H  7997  8008       L1     7  0.44
      P1  H  7997  8010       L1     2  0.32

> <Gold.Chemscore.Hbond.Weighted>
-9.1557

> <Gold.Chemscore.Metal.Weighted>
-0.0000

> <Gold.Chemscore.Lipo.Weighted>
-11.4843

> <Gold.Chemscore.Internal_Hbond.Weighted>
0.0000

> <Gold.Chemscore.DEClash.Weighted>
0.0748

> <Gold.Chemscore.DEInternal.Weighted>
2.8469

> <Gold.Chemscore.Rot.Weighted>
8.3868

> <Gold.Chemscore.Internal.Correction.Weighted>
   9.000000E+99

> <Gold.Protein.RotatedTorsions>
[ 6907 6896 6895 6894 ] final  -51.82 input  -60.11 | X-H torsion
[ 7974 7965 7964 7962 ] final  150.89 input  175.53 | X-H torsion
[ 8008 7997 7996 7995 ] final  -33.83 input   59.86 | X-H torsion
[ 10167 10162 10161 10158 ] final  -99.47 input  -65.29 | X-H torsion
[ 10718 10713 10712 10709 ] final  134.67 input   66.30 | X-H torsion
[ 10763 10752 10751 10750 ] final  -57.74 input  -60.55 | X-H torsion
[ 11005 11000 10999 10996 ] final  -64.73 input  -57.11 | X-H torsion

> <Gold.Protein.ActiveResidues>
 VAL166  LYS551  ARG553  GLY616  TRP617  ASP618  TYR619  PRO620  LYS621  CYS622 
 ASP623  PHE694  ASN695  SER759  ASP760  ASP761  ALA762  ILE779  LEU786  VAL792 
 PHE793  MET794  SER795  GLU796  ALA797  LYS798  CYS799  TRP800  GLU811  SER814 

> <Gold.Protein.RotatedAtoms>
  150.8575  134.7918  159.7056 H   0  0  0  0  0  0  0  0  0  0  0  0  # atno 6907 bound_to 6896
  152.4622  134.5155  159.9776 H   0  0  0  0  0  0  0  0  0  0  0  0  # atno 6908 bound_to 6896
  151.5264  133.3419  159.2946 H   0  0  0  0  0  0  0  0  0  0  0  0  # atno 6909 bound_to 6896
  144.8331  139.6467  143.6050 H   0  0  0  0  0  0  0  0  0  0  0  0  # atno 7974 bound_to 7965
  154.4137  140.1700  156.1952 H   0  0  0  0  0  0  0  0  0  0  0  0  # atno 8008 bound_to 7997
  155.9570  140.3396  155.6434 H   0  0  0  0  0  0  0  0  0  0  0  0  # atno 8009 bound_to 7997
  155.6797  140.0721  157.2480 H   0  0  0  0  0  0  0  0  0  0  0  0  # atno 8010 bound_to 7997
  140.2621  143.3400  152.0616 H   0  0  0  0  0  0  0  0  0  0  0  0  # atno 10167 bound_to 10162
  157.4649  131.1076  150.9875 H   0  0  0  0  0  0  0  0  0  0  0  0  # atno 10718 bound_to 10713
  154.2272  135.6367  153.5163 H   0  0  0  0  0  0  0  0  0  0  0  0  # atno 10763 bound_to 10752
  152.9956  135.5510  154.6052 H   0  0  0  0  0  0  0  0  0  0  0  0  # atno 10764 bound_to 10752
  154.5526  135.2903  155.0969 H   0  0  0  0  0  0  0  0  0  0  0  0  # atno 10765 bound_to 10752
  141.1433  133.6670  156.5879 H   0  0  0  0  0  0  0  0  0  0  0  0  # atno 11005 bound_to 11000
  146.2633  139.6460  142.9347 LP  0  0  0  0  0  0  0  0  0  0  0  0  # atno 17320 bound_to 7965
  145.4852  141.0438  143.2624 LP  0  0  0  0  0  0  0  0  0  0  0  0  # atno 17321 bound_to 7965
  139.5013  144.6712  151.6238 LP  0  0  0  0  0  0  0  0  0  0  0  0  # atno 17342 bound_to 10162
  140.5957  143.9699  150.6353 LP  0  0  0  0  0  0  0  0  0  0  0  0  # atno 17343 bound_to 10162
  157.0659  130.5844  149.5394 LP  0  0  0  0  0  0  0  0  0  0  0  0  # atno 17370 bound_to 10713
  156.0046  130.5130  150.7783 LP  0  0  0  0  0  0  0  0  0  0  0  0  # atno 17371 bound_to 10713
  140.3786  134.7543  157.4646 LP  0  0  0  0  0  0  0  0  0  0  0  0  # atno 17394 bound_to 11000
  140.0655  134.5936  155.8700 LP  0  0  0  0  0  0  0  0  0  0  0  0  # atno 17395 bound_to 11000

$$$$
