AV-unprocessed.smi:272|AV-procd|sdf|2053|dock1
  -GOLD-   2262021293D 1   1.00000     0.00000
 Structure written by MMmdl.
 62 65  0  0  0  0  0  0  0  0  1 V2000
  153.1941  143.1214  159.2091 C   0  0  0  0  0  0  0  0  0  0  0  0
  152.0770  143.9774  158.5887 C   0  0  0  0  0  0  0  0  0  0  0  0
  151.8608  145.2551  159.4142 C   0  0  0  0  0  0  0  0  0  0  0  0
  150.7556  143.1975  158.4338 C   0  0  0  0  0  0  0  0  0  0  0  0
  150.8678  141.9454  157.5432 C   0  0  0  0  0  0  0  0  0  0  0  0
  150.5828  142.2478  156.1839 O   0  0  0  0  0  0  0  0  0  0  0  0
  149.9816  141.1923  155.4428 C   0  0  0  0  0  0  0  0  0  0  0  0
  148.5944  140.8997  156.0382 C   0  0  0  0  0  0  0  0  0  0  0  0
  147.9584  139.6729  155.3635 C   0  0  0  0  0  0  0  0  0  0  0  0
  148.8514  138.5192  155.4403 N   0  0  0  0  0  0  0  0  0  0  0  0
  148.2767  137.3681  155.0333 C   0  0  0  0  0  0  0  0  0  0  0  0
  148.8523  136.2099  155.4380 N   0  0  0  0  0  0  0  0  0  0  0  0
  148.3237  135.0384  155.0703 C   0  0  0  0  0  0  0  0  0  0  0  0
  147.2464  134.8078  154.3160 N   0  0  0  0  0  0  0  0  0  0  0  0
  146.6682  135.9730  153.9049 C   0  0  0  0  0  0  0  0  0  0  0  0
  147.1140  137.2882  154.2161 C   0  0  0  0  0  0  0  0  0  0  0  0
  146.2743  138.2260  153.6280 N   0  0  0  0  0  0  0  0  0  0  0  0
  145.3798  137.5062  153.0082 C   0  0  0  0  0  0  0  0  0  0  0  0
  145.5454  136.1428  153.1130 N   0  0  0  0  0  0  0  0  0  0  0  0
  144.6941  135.1181  152.5266 C   0  0  0  0  0  0  0  0  0  0  0  0
  145.1501  134.6331  151.1227 C   0  0  0  0  0  0  0  0  0  0  0  0
  145.1208  135.7514  150.2565 O   0  0  0  0  0  0  0  0  0  0  0  0
  146.5997  134.1078  151.1441 C   0  0  0  0  0  0  0  0  0  0  0  0
  146.6908  132.7157  151.7976 C   0  0  0  0  0  0  0  0  0  0  0  0
  145.8153  131.8048  151.1412 O   0  0  0  0  0  0  0  0  0  0  0  0
  144.4470  132.1912  151.2112 C   0  0  0  0  0  0  0  0  0  0  0  0
  144.2512  133.5420  150.5021 C   0  0  0  0  0  0  0  0  0  0  0  0
  150.1840  138.7319  154.8806 C   0  0  0  0  0  0  0  0  0  0  0  0
  150.8674  139.9388  155.5449 C   0  0  0  0  0  0  0  0  0  0  0  0
  152.9080  142.7499  160.1935 H   0  0  0  0  0  0  0  0  0  0  0  0
  154.1105  143.7001  159.3277 H   0  0  0  0  0  0  0  0  0  0  0  0
  153.4371  142.2618  158.5852 H   0  0  0  0  0  0  0  0  0  0  0  0
  152.4057  144.2875  157.5960 H   0  0  0  0  0  0  0  0  0  0  0  0
  151.5273  145.0219  160.4260 H   0  0  0  0  0  0  0  0  0  0  0  0
  151.1089  145.8981  158.9560 H   0  0  0  0  0  0  0  0  0  0  0  0
  152.7818  145.8338  159.4924 H   0  0  0  0  0  0  0  0  0  0  0  0
  150.3759  142.9285  159.4198 H   0  0  0  0  0  0  0  0  0  0  0  0
  150.0066  143.8567  157.9936 H   0  0  0  0  0  0  0  0  0  0  0  0
  151.8893  141.5667  157.5838 H   0  0  0  0  0  0  0  0  0  0  0  0
  150.2232  141.1372  157.8912 H   0  0  0  0  0  0  0  0  0  0  0  0
  149.8589  141.4556  154.3902 H   0  0  0  0  0  0  0  0  0  0  0  0
  148.6852  140.7174  157.1100 H   0  0  0  0  0  0  0  0  0  0  0  0
  147.9452  141.7682  155.9238 H   0  0  0  0  0  0  0  0  0  0  0  0
  147.0077  139.4374  155.8441 H   0  0  0  0  0  0  0  0  0  0  0  0
  147.7409  139.9010  154.3193 H   0  0  0  0  0  0  0  0  0  0  0  0
  148.8373  134.1598  155.4328 H   0  0  0  0  0  0  0  0  0  0  0  0
  144.5710  137.9546  152.4501 H   0  0  0  0  0  0  0  0  0  0  0  0
  144.6468  134.2767  153.2197 H   0  0  0  0  0  0  0  0  0  0  0  0
  143.6829  135.5215  152.4832 H   0  0  0  0  0  0  0  0  0  0  0  0
  145.5218  135.5074  149.4360 H   0  0  0  0  0  0  0  0  0  0  0  0
  146.9764  134.0294  150.1228 H   0  0  0  0  0  0  0  0  0  0  0  0
  147.2574  134.8099  151.6579 H   0  0  0  0  0  0  0  0  0  0  0  0
  147.7095  132.3359  151.7192 H   0  0  0  0  0  0  0  0  0  0  0  0
  146.4567  132.7579  152.8617 H   0  0  0  0  0  0  0  0  0  0  0  0
  143.8429  131.4250  150.7255 H   0  0  0  0  0  0  0  0  0  0  0  0
  144.1218  132.2369  152.2509 H   0  0  0  0  0  0  0  0  0  0  0  0
  143.2006  133.8318  150.5126 H   0  0  0  0  0  0  0  0  0  0  0  0
  144.5109  133.4126  149.4501 H   0  0  0  0  0  0  0  0  0  0  0  0
  150.7918  137.8372  155.0239 H   0  0  0  0  0  0  0  0  0  0  0  0
  150.1090  138.8992  153.8055 H   0  0  0  0  0  0  0  0  0  0  0  0
  151.8363  140.1211  155.0792 H   0  0  0  0  0  0  0  0  0  0  0  0
  151.0648  139.7124  156.5937 H   0  0  0  0  0  0  0  0  0  0  0  0
  1  2  1  0  0  0  0
  1 30  1  0  0  0  0
  1 31  1  0  0  0  0
  1 32  1  0  0  0  0
  2  3  1  0  0  0  0
  2  4  1  0  0  0  0
  2 33  1  0  0  0  0
  3 34  1  0  0  0  0
  3 35  1  0  0  0  0
  3 36  1  0  0  0  0
  4  5  1  0  0  0  0
  4 37  1  0  0  0  0
  4 38  1  0  0  0  0
  5  6  1  0  0  0  0
  5 39  1  0  0  0  0
  5 40  1  0  0  0  0
  6  7  1  0  0  0  0
  7 29  1  0  0  0  0
  7  8  1  0  0  0  0
  7 41  1  0  0  0  0
  8  9  1  0  0  0  0
  8 42  1  0  0  0  0
  8 43  1  0  0  0  0
  9 10  1  0  0  0  0
  9 44  1  0  0  0  0
  9 45  1  0  0  0  0
 10 11  1  0  0  0  0
 10 28  1  0  0  0  0
 11 16  1  0  0  0  0
 11 12  2  0  0  0  0
 12 13  1  0  0  0  0
 13 14  2  0  0  0  0
 13 46  1  0  0  0  0
 14 15  1  0  0  0  0
 15 19  1  0  0  0  0
 15 16  2  0  0  0  0
 16 17  1  0  0  0  0
 17 18  2  0  0  0  0
 18 19  1  0  0  0  0
 18 47  1  0  0  0  0
 19 20  1  0  0  0  0
 20 21  1  0  0  0  0
 20 48  1  0  0  0  0
 20 49  1  0  0  0  0
 21 27  1  0  0  0  0
 21 22  1  0  0  0  0
 21 23  1  0  0  0  0
 22 50  1  0  0  0  0
 23 24  1  0  0  0  0
 23 51  1  0  0  0  0
 23 52  1  0  0  0  0
 24 25  1  0  0  0  0
 24 53  1  0  0  0  0
 24 54  1  0  0  0  0
 25 26  1  0  0  0  0
 26 27  1  0  0  0  0
 26 55  1  0  0  0  0
 26 56  1  0  0  0  0
 27 57  1  0  0  0  0
 27 58  1  0  0  0  0
 28 29  1  0  0  0  0
 28 59  1  0  0  0  0
 28 60  1  0  0  0  0
 29 61  1  0  0  0  0
 29 62  1  0  0  0  0
M  END
> <s_m_source_file>
AV-unprocessed.smi

> <i_m_source_file_index>
272

> <i_lp_mmshare_version>
43012

> <i_f3d_flags>
0

> <s_epik_input>
W0NIM11bQ0hdKFtDSDNdKVtDSDJdW0NIMl1PW0NIXTFbQ0gyXVtDSDJdTihbQ0gyXVtDSDJdMSljKG5bY0hdbjIpYyhjMjMpbltjSF1uM1tDSDJdQzQoW09IXSlbQ0gyXVtDSDJdT1tDSDJdW0NIMl00

> <s_epik_cmdline>
J2VwaWtfcHl0aG9uJywgJy1waCcsICc3LjAnLCAnLXRuJywgJzgnLCAnLW1hJywgJzIwMCcsICctbWV0YWxfYmluZGluZycsICctaW1hZScsICc8aW5maWxlLm1hZT4nLCAnLW9tYWUnLCAnPG91dGZpbGUubWFlPic=

> <r_lp_tautomer_probability>
1

> <r_epik_Ionization_Penalty>
0.00344734

> <r_epik_Ionization_Penalty_Charging>
0

> <r_epik_Ionization_Penalty_Neutral>
0.00344734

> <r_epik_State_Penalty>
0.0022364

> <r_epik_Charging_Adjusted_Penalty>
0.0022364

> <i_epik_Tot_Q>
0

> <i_epik_Tot_abs_Q>
0

> <r_epik_Metal_State_Penalty>
-0

> <b_epik_Metal_Only>
0

> <s_lp_Force_Field>
OPLS_2005

> <r_lp_Energy>
34.8885

> <b_lp_Chiralities_Consistent>
1

> <s_lp_Variant>
AV-unprocessed.smi:272-1

> <Gold.Version>
5.8.1

> <Gold.Id.Protein>
6NUR|6NUR_protein|mol2

> <Gold.PLP.Fitness>
51.6565

> <Gold.PLP.PLP>
-44.4623

> <Gold.PLP.part.hbond>
-2.0000

> <Gold.PLP.part.metal>
0.0000

> <Gold.PLP.part.buried>
-4.4992

> <Gold.PLP.part.nonpolar>
-38.4029

> <Gold.PLP.part.repulsive>
0.9344

> <Gold.PLP.ligand.clash>
0.0000

> <Gold.PLP.ligand.torsion>
1.1021

> <Gold.PLP.Chemscore.Hbond>
1.0000

> <Gold.PLP.Chemscore.CHOScore>
1.9422

> <Gold.PLP.Chemscore.Metal>
0.0000

> <Gold.Chemscore.Hbonds>
donor molecule, donor type, donor heavy atom, donor atom, acceptor molecule, acceptor atom, score
      L1  H    22    50       P1  7921  1.00
      L1  C    18    47       P1 10171  0.33
      L1  C    18    47       P1 10175  0.71

> <Gold.PLP.Chemscore.Internal.Correction>
0.5719

> <Gold.Rescore>
     Score         DG    S(hbond)    S(metal)    S(lipo)     H(rot)  DE(clash)    DE(int)     intcor
     13.24     -15.79       1.00        0.00     118.82       2.70       0.06       2.49       ----

> <Gold.Chemscore.Fitness>
13.2376

> <Gold.Chemscore.DG>
-15.7913

> <Gold.Chemscore.ZeroCoef>
-5.4800

> <Gold.Chemscore.Hbond>
0.9953

> <Gold.Chemscore.Metal>
0.0000

> <Gold.Chemscore.Lipo>
118.8202

> <Gold.Chemscore.Internal_Hbond>
0.0000

> <Gold.Chemscore.DEClash>
0.0615

> <Gold.Chemscore.DEInternal>
2.4923

> <Gold.Chemscore.Rot>
2.7012

> <Gold.Chemscore.Internal.Correction>
   9.000000E+99

> <Gold.Chemscore.Hbonds>
donor molecule, donor type, donor heavy atom, donor atom, acceptor molecule, acceptor atom, score
      L1  H    22    50       P1  7921  0.94

> <Gold.Chemscore.Hbond.Weighted>
-3.3244

> <Gold.Chemscore.Metal.Weighted>
-0.0000

> <Gold.Chemscore.Lipo.Weighted>
-13.9020

> <Gold.Chemscore.Internal_Hbond.Weighted>
0.0000

> <Gold.Chemscore.DEClash.Weighted>
0.0615

> <Gold.Chemscore.DEInternal.Weighted>
2.4923

> <Gold.Chemscore.Rot.Weighted>
6.9151

> <Gold.Chemscore.Internal.Correction.Weighted>
   9.000000E+99

> <Gold.Protein.RotatedTorsions>
[ 6907 6896 6895 6894 ] final   22.17 input  -60.11 | X-H torsion
[ 7974 7965 7964 7962 ] final  -92.96 input  175.53 | X-H torsion
[ 8008 7997 7996 7995 ] final   26.33 input   59.86 | X-H torsion
[ 10167 10162 10161 10158 ] final  -57.39 input  -65.29 | X-H torsion
[ 10718 10713 10712 10709 ] final  110.07 input   66.30 | X-H torsion
[ 10763 10752 10751 10750 ] final -156.99 input  -60.55 | X-H torsion
[ 11005 11000 10999 10996 ] final  107.51 input  -57.11 | X-H torsion

> <Gold.Protein.ActiveResidues>
 VAL166  LYS551  ARG553  GLY616  TRP617  ASP618  TYR619  PRO620  LYS621  CYS622 
 ASP623  PHE694  ASN695  SER759  ASP760  ASP761  ALA762  ILE779  LEU786  VAL792 
 PHE793  MET794  SER795  GLU796  ALA797  LYS798  CYS799  TRP800  GLU811  SER814 

> <Gold.Protein.RotatedAtoms>
  151.9231  135.0289  160.0523 H   0  0  0  0  0  0  0  0  0  0  0  0  # atno 6907 bound_to 6896
  152.2182  133.4959  159.5156 H   0  0  0  0  0  0  0  0  0  0  0  0  # atno 6908 bound_to 6896
  150.6993  134.1293  159.4106 H   0  0  0  0  0  0  0  0  0  0  0  0  # atno 6909 bound_to 6896
  145.3929  140.9530  143.2330 H   0  0  0  0  0  0  0  0  0  0  0  0  # atno 7974 bound_to 7965
  155.0256  140.3153  155.4777 H   0  0  0  0  0  0  0  0  0  0  0  0  # atno 8008 bound_to 7997
  156.2884  140.2189  156.5318 H   0  0  0  0  0  0  0  0  0  0  0  0  # atno 8009 bound_to 7997
  154.7414  140.0473  157.0802 H   0  0  0  0  0  0  0  0  0  0  0  0  # atno 8010 bound_to 7997
  140.6261  143.2439  151.5360 H   0  0  0  0  0  0  0  0  0  0  0  0  # atno 10167 bound_to 10162
  157.6512  131.0926  150.6547 H   0  0  0  0  0  0  0  0  0  0  0  0  # atno 10718 bound_to 10713
  154.7671  135.3134  154.8265 H   0  0  0  0  0  0  0  0  0  0  0  0  # atno 10763 bound_to 10752
  153.9010  135.6815  153.4759 H   0  0  0  0  0  0  0  0  0  0  0  0  # atno 10764 bound_to 10752
  153.1278  135.4793  154.9234 H   0  0  0  0  0  0  0  0  0  0  0  0  # atno 10765 bound_to 10752
  139.8829  134.9403  156.5831 H   0  0  0  0  0  0  0  0  0  0  0  0  # atno 11005 bound_to 11000
  144.8428  139.5445  143.6892 LP  0  0  0  0  0  0  0  0  0  0  0  0  # atno 17320 bound_to 7965
  146.2789  139.6825  142.9243 LP  0  0  0  0  0  0  0  0  0  0  0  0  # atno 17321 bound_to 7965
  139.5481  144.2467  152.1480 LP  0  0  0  0  0  0  0  0  0  0  0  0  # atno 17342 bound_to 10162
  140.1699  144.4945  150.6585 LP  0  0  0  0  0  0  0  0  0  0  0  0  # atno 17343 bound_to 10162
  156.6858  130.4580  149.5614 LP  0  0  0  0  0  0  0  0  0  0  0  0  # atno 17370 bound_to 10713
  156.1897  130.6552  151.1047 LP  0  0  0  0  0  0  0  0  0  0  0  0  # atno 17371 bound_to 10713
  140.8012  133.8504  155.8728 LP  0  0  0  0  0  0  0  0  0  0  0  0  # atno 17394 bound_to 11000
  140.9591  134.1679  157.4668 LP  0  0  0  0  0  0  0  0  0  0  0  0  # atno 17395 bound_to 11000

$$$$
