AV-unprocessed.smi:864|AV-procd|sdf|3987|dock4
  -GOLD-   22720 1463D 1   1.00000     0.00000
 Structure written by MMmdl.
 44 46  0  0  0  0  0  0  0  0  1 V2000
  144.1186  132.7492  149.1582 C   0  0  0  0  0  0  0  0  0  0  0  0
  144.9533  132.5952  150.4124 C   0  0  0  0  0  0  0  0  0  0  0  0
  144.8830  131.4178  151.1860 C   0  0  0  0  0  0  0  0  0  0  0  0
  145.6787  131.3284  152.3439 C   0  0  0  0  0  0  0  0  0  0  0  0
  146.5092  132.4164  152.6848 C   0  0  0  0  0  0  0  0  0  0  0  0
  147.3572  132.3895  153.9450 C   0  0  0  0  0  0  0  0  0  0  0  0
  148.8233  132.8013  153.7077 C   0  0  0  0  0  0  0  0  0  0  0  0
  149.0120  134.2438  153.8440 N   0  0  0  0  0  0  0  0  0  0  0  0
  149.5487  134.8593  154.9079 C   0  0  0  0  0  0  0  0  0  0  0  0
  149.8684  134.2865  155.9497 O   0  0  0  0  0  0  0  0  0  0  0  0
  149.7216  136.1689  154.6845 N   0  0  0  0  0  0  0  0  0  0  0  0
  150.3295  137.1140  155.6181 C   0  0  1  0  0  0  0  0  0  0  0  0
  151.6763  137.6361  155.0995 C   0  0  0  0  0  0  0  0  0  0  0  0
  151.5756  139.1384  155.3000 C   0  0  0  0  0  0  0  0  0  0  0  0
  152.5357  139.8933  155.1513 O   0  0  0  0  0  0  0  0  0  0  0  0
  150.3391  139.5001  155.6612 N   0  0  0  0  0  0  0  0  0  0  0  0
  149.9527  140.8255  156.0467 C   0  0  0  0  0  0  0  0  0  0  0  0
  150.9664  141.9528  156.0916 C   0  0  0  0  0  0  0  0  0  0  0  0
  150.4431  141.3555  157.3747 C   0  0  0  0  0  0  0  0  0  0  0  0
  149.4443  138.3595  155.8002 C   0  0  0  0  0  0  0  0  0  0  0  0
  146.5088  133.5464  151.8399 C   0  0  0  0  0  0  0  0  0  0  0  0
  145.7514  133.6395  150.7261 N   0  0  0  0  0  0  0  0  0  0  0  0
  143.3081  132.0202  149.1347 H   0  0  0  0  0  0  0  0  0  0  0  0
  144.7380  132.6017  148.2731 H   0  0  0  0  0  0  0  0  0  0  0  0
  143.6778  133.7455  149.1083 H   0  0  0  0  0  0  0  0  0  0  0  0
  144.2329  130.6031  150.9030 H   0  0  0  0  0  0  0  0  0  0  0  0
  145.6401  130.4453  152.9648 H   0  0  0  0  0  0  0  0  0  0  0  0
  146.9084  133.0503  154.6878 H   0  0  0  0  0  0  0  0  0  0  0  0
  147.3212  131.3863  154.3711 H   0  0  0  0  0  0  0  0  0  0  0  0
  149.4673  132.2990  154.4297 H   0  0  0  0  0  0  0  0  0  0  0  0
  149.1500  132.4611  152.7235 H   0  0  0  0  0  0  0  0  0  0  0  0
  148.7743  134.8080  153.0413 H   0  0  0  0  0  0  0  0  0  0  0  0
  149.4304  136.5386  153.7915 H   0  0  0  0  0  0  0  0  0  0  0  0
  150.4975  136.6518  156.5931 H   0  0  0  0  0  0  0  0  0  0  0  0
  152.5168  137.2197  155.6558 H   0  0  0  0  0  0  0  0  0  0  0  0
  151.8246  137.4264  154.0392 H   0  0  0  0  0  0  0  0  0  0  0  0
  148.9460  141.1227  155.7561 H   0  0  0  0  0  0  0  0  0  0  0  0
  152.0063  141.7501  155.8444 H   0  0  0  0  0  0  0  0  0  0  0  0
  150.6166  142.9481  155.8256 H   0  0  0  0  0  0  0  0  0  0  0  0
  149.7501  141.9535  157.9630 H   0  0  0  0  0  0  0  0  0  0  0  0
  151.1234  140.7306  157.9504 H   0  0  0  0  0  0  0  0  0  0  0  0
  148.6690  138.4228  155.0349 H   0  0  0  0  0  0  0  0  0  0  0  0
  148.9573  138.3554  156.7763 H   0  0  0  0  0  0  0  0  0  0  0  0
  147.1241  134.4039  152.0704 H   0  0  0  0  0  0  0  0  0  0  0  0
  1  2  1  0  0  0  0
  1 23  1  0  0  0  0
  1 24  1  0  0  0  0
  1 25  1  0  0  0  0
  2 22  1  0  0  0  0
  2  3  2  0  0  0  0
  3  4  1  0  0  0  0
  3 26  1  0  0  0  0
  4  5  2  0  0  0  0
  4 27  1  0  0  0  0
  5  6  1  0  0  0  0
  5 21  1  0  0  0  0
  6  7  1  0  0  0  0
  6 28  1  0  0  0  0
  6 29  1  0  0  0  0
  7  8  1  0  0  0  0
  7 30  1  0  0  0  0
  7 31  1  0  0  0  0
  8  9  1  0  0  0  0
  8 32  1  0  0  0  0
  9 10  2  0  0  0  0
  9 11  1  0  0  0  0
 11 12  1  0  0  0  0
 11 33  1  0  0  0  0
 12 20  1  0  0  0  0
 12 13  1  0  0  0  0
 12 34  1  0  0  0  0
 13 14  1  0  0  0  0
 13 35  1  0  0  0  0
 13 36  1  0  0  0  0
 14 15  2  0  0  0  0
 14 16  1  0  0  0  0
 16 17  1  0  0  0  0
 16 20  1  0  0  0  0
 17 19  1  0  0  0  0
 17 18  1  0  0  0  0
 17 37  1  0  0  0  0
 18 19  1  0  0  0  0
 18 38  1  0  0  0  0
 18 39  1  0  0  0  0
 19 40  1  0  0  0  0
 19 41  1  0  0  0  0
 20 42  1  0  0  0  0
 20 43  1  0  0  0  0
 21 22  2  0  0  0  0
 21 44  1  0  0  0  0
M  END
> <s_m_source_file>
AV-unprocessed.smi

> <i_m_source_file_index>
864

> <i_lp_mmshare_version>
43012

> <i_f3d_flags>
0

> <s_epik_input>
W0NIM11jMVtjSF1bY0hdYyhbY0hdbjEpW0NIMl1bQ0gyXVtOSF1DKD1PKVtOSF1bQ0BASF0yW0NIMl1DKD1PKU4oW0NIMl0yKVtDSF0zW0NIMl1bQ0gyXTM=

> <s_epik_cmdline>
J2VwaWtfcHl0aG9uJywgJy1waCcsICc3LjAnLCAnLXRuJywgJzgnLCAnLW1hJywgJzIwMCcsICctbWV0YWxfYmluZGluZycsICctaW1hZScsICc8aW5maWxlLm1hZT4nLCAnLW9tYWUnLCAnPG91dGZpbGUubWFlPic=

> <r_epik_Ionization_Penalty>
0.0559435

> <r_epik_Ionization_Penalty_Charging>
0

> <r_epik_Ionization_Penalty_Neutral>
0.0559435

> <r_epik_State_Penalty>
0.0481757

> <r_epik_Charging_Adjusted_Penalty>
0.0481757

> <i_epik_Tot_Q>
0

> <i_epik_Tot_abs_Q>
0

> <r_epik_Metal_State_Penalty>
0.0439988

> <b_epik_Metal_Only>
0

> <s_lp_Force_Field>
OPLS_2005

> <r_lp_Energy>
34.0483

> <b_lp_Chiralities_Consistent>
1

> <s_lp_Variant>
AV-unprocessed.smi:864-2

> <Gold.Version>
5.8.1

> <Gold.Id.Protein>
6NUR|6NUR_protein|mol2

> <Gold.PLP.Fitness>
50.6536

> <Gold.PLP.PLP>
-39.5722

> <Gold.PLP.part.hbond>
-3.8510

> <Gold.PLP.part.metal>
0.0000

> <Gold.PLP.part.buried>
-6.0374

> <Gold.PLP.part.nonpolar>
-29.6022

> <Gold.PLP.part.repulsive>
0.2547

> <Gold.PLP.ligand.clash>
0.0000

> <Gold.PLP.ligand.torsion>
0.7135

> <Gold.PLP.Chemscore.Hbond>
3.1129

> <Gold.PLP.Chemscore.CHOScore>
1.0000

> <Gold.PLP.Chemscore.Metal>
0.0000

> <Gold.Chemscore.Hbonds>
donor molecule, donor type, donor heavy atom, donor atom, acceptor molecule, acceptor atom, score
      L1  H     8    32       P1  7948  0.95
      L1  H    11    33       P1  7948  0.98
      P1  H  7989  7998       L1    15  0.35
      P1  H  7997  8009       L1    15  0.91
      L1  C    21    44       P1  7948  0.95

> <Gold.PLP.Chemscore.Internal.Correction>
0.1698

> <Gold.Rescore>
     Score         DG    S(hbond)    S(metal)    S(lipo)     H(rot)  DE(clash)    DE(int)     intcor
     16.14     -18.28       1.94        0.00      92.52       1.75       0.06       2.09       ----

> <Gold.Chemscore.Fitness>
16.1375

> <Gold.Chemscore.DG>
-18.2843

> <Gold.Chemscore.ZeroCoef>
-5.4800

> <Gold.Chemscore.Hbond>
1.9355

> <Gold.Chemscore.Metal>
0.0000

> <Gold.Chemscore.Lipo>
92.5161

> <Gold.Chemscore.Internal_Hbond>
0.0000

> <Gold.Chemscore.DEClash>
0.0580

> <Gold.Chemscore.DEInternal>
2.0888

> <Gold.Chemscore.Rot>
1.7518

> <Gold.Chemscore.Internal.Correction>
   9.000000E+99

> <Gold.Chemscore.Hbonds>
donor molecule, donor type, donor heavy atom, donor atom, acceptor molecule, acceptor atom, score
      L1  H     8    32       P1  7948  0.21
      L1  H    11    33       P1  7948  0.78
      P1  H  7989  7998       L1    15  0.04
      P1  H  7997  8009       L1    15  0.89

> <Gold.Chemscore.Hbond.Weighted>
-6.4645

> <Gold.Chemscore.Metal.Weighted>
-0.0000

> <Gold.Chemscore.Lipo.Weighted>
-10.8244

> <Gold.Chemscore.Internal_Hbond.Weighted>
0.0000

> <Gold.Chemscore.DEClash.Weighted>
0.0580

> <Gold.Chemscore.DEInternal.Weighted>
2.0888

> <Gold.Chemscore.Rot.Weighted>
4.4846

> <Gold.Chemscore.Internal.Correction.Weighted>
   9.000000E+99

> <Gold.Protein.RotatedTorsions>
[ 6907 6896 6895 6894 ] final  -25.12 input  -60.11 | X-H torsion
[ 7974 7965 7964 7962 ] final   30.26 input  175.53 | X-H torsion
[ 8008 7997 7996 7995 ] final -142.19 input   59.86 | X-H torsion
[ 10167 10162 10161 10158 ] final   -5.27 input  -65.29 | X-H torsion
[ 10718 10713 10712 10709 ] final  -67.95 input   66.30 | X-H torsion
[ 10763 10752 10751 10750 ] final -165.62 input  -60.55 | X-H torsion
[ 11005 11000 10999 10996 ] final  -73.33 input  -57.11 | X-H torsion

> <Gold.Protein.ActiveResidues>
 VAL166  LYS551  ARG553  GLY616  TRP617  ASP618  TYR619  PRO620  LYS621  CYS622 
 ASP623  PHE694  ASN695  SER759  ASP760  ASP761  ALA762  ILE779  LEU786  VAL792 
 PHE793  MET794  SER795  GLU796  ALA797  LYS798  CYS799  TRP800  GLU811  SER814 

> <Gold.Protein.RotatedAtoms>
  151.1797  135.0355  159.8786 H   0  0  0  0  0  0  0  0  0  0  0  0  # atno 6907 bound_to 6896
  152.5445  134.1077  159.8355 H   0  0  0  0  0  0  0  0  0  0  0  0  # atno 6908 bound_to 6896
  151.1193  133.5069  159.2635 H   0  0  0  0  0  0  0  0  0  0  0  0  # atno 6909 bound_to 6896
  146.1622  139.6812  142.9025 H   0  0  0  0  0  0  0  0  0  0  0  0  # atno 7974 bound_to 7965
  155.4902  140.0567  157.2954 H   0  0  0  0  0  0  0  0  0  0  0  0  # atno 8008 bound_to 7997
  154.4626  140.2003  156.0155 H   0  0  0  0  0  0  0  0  0  0  0  0  # atno 8009 bound_to 7997
  156.0917  140.3232  155.7829 H   0  0  0  0  0  0  0  0  0  0  0  0  # atno 8010 bound_to 7997
  140.6957  143.6327  150.8508 H   0  0  0  0  0  0  0  0  0  0  0  0  # atno 10167 bound_to 10162
  156.0530  130.4286  150.1929 H   0  0  0  0  0  0  0  0  0  0  0  0  # atno 10718 bound_to 10713
  154.6914  135.2971  154.9474 H   0  0  0  0  0  0  0  0  0  0  0  0  # atno 10763 bound_to 10752
  154.0435  135.6654  153.4796 H   0  0  0  0  0  0  0  0  0  0  0  0  # atno 10764 bound_to 10752
  153.0615  135.5113  154.8009 H   0  0  0  0  0  0  0  0  0  0  0  0  # atno 10765 bound_to 10752
  141.1621  133.6875  156.7196 H   0  0  0  0  0  0  0  0  0  0  0  0  # atno 11005 bound_to 11000
  145.4558  141.0430  143.2779 LP  0  0  0  0  0  0  0  0  0  0  0  0  # atno 17320 bound_to 7965
  144.8043  139.6081  143.7058 LP  0  0  0  0  0  0  0  0  0  0  0  0  # atno 17321 bound_to 7965
  140.0045  143.5708  152.2863 LP  0  0  0  0  0  0  0  0  0  0  0  0  # atno 17342 bound_to 10162
  139.6410  144.7654  151.2339 LP  0  0  0  0  0  0  0  0  0  0  0  0  # atno 17343 bound_to 10162
  157.0010  130.9922  151.3391 LP  0  0  0  0  0  0  0  0  0  0  0  0  # atno 17370 bound_to 10713
  157.5475  130.8160  149.8104 LP  0  0  0  0  0  0  0  0  0  0  0  0  # atno 17371 bound_to 10713
  140.2826  134.8305  157.3946 LP  0  0  0  0  0  0  0  0  0  0  0  0  # atno 17394 bound_to 11000
  140.1419  134.4960  155.8025 LP  0  0  0  0  0  0  0  0  0  0  0  0  # atno 17395 bound_to 11000

$$$$
