AV-unprocessed.smi:2542|AV-procd|sdf|9991|dock8
  -GOLD-   2272014 43D 1   1.00000     0.00000
 Structure written by MMmdl.
 41 42  0  0  0  0  0  0  0  0  1 V2000
  150.0721  135.1814  156.5092 C   0  0  0  0  0  0  0  0  0  0  0  0
  149.2954  136.5052  156.6670 C   0  0  0  0  0  0  0  0  0  0  0  0
  147.8595  136.2586  156.1439 C   0  0  0  0  0  0  0  0  0  0  0  0
  149.2105  136.8627  158.1734 C   0  0  0  0  0  0  0  0  0  0  0  0
  148.2676  136.0051  158.8837 N   0  0  0  0  0  0  0  0  0  0  0  0
  147.8017  136.2236  160.1226 C   0  0  0  0  0  0  0  0  0  0  0  0
  148.1546  137.1920  160.7974 O   0  0  0  0  0  0  0  0  0  0  0  0
  146.7875  135.2034  160.6940 C   0  0  0  0  0  0  0  0  0  0  0  0
  145.5234  135.2057  159.9288 C   0  0  0  0  0  0  0  0  0  0  0  0
  144.5327  135.2070  159.3299 N   0  0  0  0  0  0  0  0  0  0  0  0
  147.4068  133.7801  160.7167 C   0  0  0  0  0  0  0  0  0  0  0  0
  147.4816  133.3334  162.1821 C   0  0  0  0  0  0  0  0  0  0  0  0
  147.4276  134.6214  162.9948 C   0  0  0  0  0  0  0  0  0  0  0  0
  146.4956  135.5168  162.1803 C   0  0  0  0  0  0  0  0  0  0  0  0
  150.0215  137.6239  155.8938 C   0  0  0  0  0  0  0  0  0  0  0  0
  151.3656  137.9893  156.1531 C   0  0  0  0  0  0  0  0  0  0  0  0
  151.9578  139.0107  155.3840 C   0  0  0  0  0  0  0  0  0  0  0  0
  151.3118  139.6723  154.4021 N   0  0  0  0  0  0  0  0  0  0  0  0
  150.0325  139.3273  154.1520 C   0  0  0  0  0  0  0  0  0  0  0  0
  149.3496  138.3198  154.8614 C   0  0  0  0  0  0  0  0  0  0  0  0
  149.5714  134.3635  157.0286 H   0  0  0  0  0  0  0  0  0  0  0  0
  151.0812  135.2464  156.9162 H   0  0  0  0  0  0  0  0  0  0  0  0
  150.1598  134.8981  155.4597 H   0  0  0  0  0  0  0  0  0  0  0  0
  147.3687  135.4605  156.7022 H   0  0  0  0  0  0  0  0  0  0  0  0
  147.8598  135.9590  155.0952 H   0  0  0  0  0  0  0  0  0  0  0  0
  147.2299  137.1440  156.2391 H   0  0  0  0  0  0  0  0  0  0  0  0
  150.1981  136.7934  158.6331 H   0  0  0  0  0  0  0  0  0  0  0  0
  148.8846  137.8958  158.3034 H   0  0  0  0  0  0  0  0  0  0  0  0
  147.9333  135.1914  158.3869 H   0  0  0  0  0  0  0  0  0  0  0  0
  146.8160  133.0720  160.1345 H   0  0  0  0  0  0  0  0  0  0  0  0
  148.4081  133.7644  160.2825 H   0  0  0  0  0  0  0  0  0  0  0  0
  146.6126  132.7185  162.4202 H   0  0  0  0  0  0  0  0  0  0  0  0
  148.3724  132.7418  162.3947 H   0  0  0  0  0  0  0  0  0  0  0  0
  147.0729  134.4614  164.0133 H   0  0  0  0  0  0  0  0  0  0  0  0
  148.4212  135.0672  163.0534 H   0  0  0  0  0  0  0  0  0  0  0  0
  146.6232  136.5701  162.4353 H   0  0  0  0  0  0  0  0  0  0  0  0
  145.4614  135.2625  162.4179 H   0  0  0  0  0  0  0  0  0  0  0  0
  151.9578  137.5104  156.9173 H   0  0  0  0  0  0  0  0  0  0  0  0
  152.9820  139.3033  155.5632 H   0  0  0  0  0  0  0  0  0  0  0  0
  149.5366  139.8684  153.3599 H   0  0  0  0  0  0  0  0  0  0  0  0
  148.3263  138.0883  154.6059 H   0  0  0  0  0  0  0  0  0  0  0  0
  1  2  1  0  0  0  0
  1 21  1  0  0  0  0
  1 22  1  0  0  0  0
  1 23  1  0  0  0  0
  2  3  1  0  0  0  0
  2  4  1  0  0  0  0
  2 15  1  0  0  0  0
  3 24  1  0  0  0  0
  3 25  1  0  0  0  0
  3 26  1  0  0  0  0
  4  5  1  0  0  0  0
  4 27  1  0  0  0  0
  4 28  1  0  0  0  0
  5  6  1  0  0  0  0
  5 29  1  0  0  0  0
  6  7  2  0  0  0  0
  6  8  1  0  0  0  0
  8 14  1  0  0  0  0
  8  9  1  0  0  0  0
  8 11  1  0  0  0  0
  9 10  3  0  0  0  0
 11 12  1  0  0  0  0
 11 30  1  0  0  0  0
 11 31  1  0  0  0  0
 12 13  1  0  0  0  0
 12 32  1  0  0  0  0
 12 33  1  0  0  0  0
 13 14  1  0  0  0  0
 13 34  1  0  0  0  0
 13 35  1  0  0  0  0
 14 36  1  0  0  0  0
 14 37  1  0  0  0  0
 15 20  1  0  0  0  0
 15 16  2  0  0  0  0
 16 17  1  0  0  0  0
 16 38  1  0  0  0  0
 17 18  2  0  0  0  0
 17 39  1  0  0  0  0
 18 19  1  0  0  0  0
 19 20  2  0  0  0  0
 19 40  1  0  0  0  0
 20 41  1  0  0  0  0
M  END
> <s_m_source_file>
AV-unprocessed.smi

> <i_m_source_file_index>
2542

> <i_lp_mmshare_version>
43012

> <i_f3d_flags>
0

> <s_epik_input>
W2NIXTFbY0hdbltjSF1bY0hdYzFDKFtDSDNdKShbQ0gzXSlbQ0gyXVtOSF1DKD1PKUMyKEMjTilbQ0gyXVtDSDJdW0NIMl1bQ0gyXTI=

> <s_epik_cmdline>
J2VwaWtfcHl0aG9uJywgJy1waCcsICc3LjAnLCAnLXRuJywgJzgnLCAnLW1hJywgJzIwMCcsICctbWV0YWxfYmluZGluZycsICctaW1hZScsICc8aW5maWxlLm1hZT4nLCAnLW9tYWUnLCAnPG91dGZpbGUubWFlPic=

> <r_epik_Ionization_Penalty>
0.0480096

> <r_epik_Ionization_Penalty_Charging>
0

> <r_epik_Ionization_Penalty_Neutral>
0.0480096

> <r_epik_State_Penalty>
0.04092

> <r_epik_Charging_Adjusted_Penalty>
0.04092

> <i_epik_Tot_Q>
0

> <i_epik_Tot_abs_Q>
0

> <r_epik_Metal_State_Penalty>
0.0377989

> <b_epik_Metal_Only>
0

> <s_lp_Force_Field>
OPLS_2005

> <r_lp_Energy>
29.6926

> <b_lp_Chiralities_Consistent>
1

> <s_lp_Variant>
AV-unprocessed.smi:2542-1

> <Gold.Version>
5.8.1

> <Gold.Id.Protein>
6NUR|6NUR_protein|mol2

> <Gold.PLP.Fitness>
36.8286

> <Gold.PLP.PLP>
-26.8129

> <Gold.PLP.part.hbond>
-3.0000

> <Gold.PLP.part.metal>
0.0000

> <Gold.PLP.part.buried>
-0.9726

> <Gold.PLP.part.nonpolar>
-22.5301

> <Gold.PLP.part.repulsive>
0.2114

> <Gold.PLP.ligand.clash>
0.0000

> <Gold.PLP.ligand.torsion>
0.3143

> <Gold.PLP.Chemscore.Hbond>
2.5348

> <Gold.PLP.Chemscore.CHOScore>
1.0000

> <Gold.PLP.Chemscore.Metal>
0.0000

> <Gold.Chemscore.Hbonds>
donor molecule, donor type, donor heavy atom, donor atom, acceptor molecule, acceptor atom, score
      P1  H  6931  6943       L1     7  0.88
      P1  H  6934  6947       L1     7  0.61
      P1  H  7989  7998       L1    18  0.99
      L1  C    19    40       P1  7957  1.00

> <Gold.PLP.Chemscore.Internal.Correction>
0.0400

> <Gold.Rescore>
     Score         DG    S(hbond)    S(metal)    S(lipo)     H(rot)  DE(clash)    DE(int)     intcor
     17.83     -18.39       2.38        0.00      75.13       1.49       0.16       0.40       ----

> <Gold.Chemscore.Fitness>
17.8315

> <Gold.Chemscore.DG>
-18.3905

> <Gold.Chemscore.ZeroCoef>
-5.4800

> <Gold.Chemscore.Hbond>
2.3755

> <Gold.Chemscore.Metal>
0.0000

> <Gold.Chemscore.Lipo>
75.1284

> <Gold.Chemscore.Internal_Hbond>
0.0000

> <Gold.Chemscore.DEClash>
0.1632

> <Gold.Chemscore.DEInternal>
0.3958

> <Gold.Chemscore.Rot>
1.4897

> <Gold.Chemscore.Internal.Correction>
   9.000000E+99

> <Gold.Chemscore.Hbonds>
donor molecule, donor type, donor heavy atom, donor atom, acceptor molecule, acceptor atom, score
      P1  H  6931  6943       L1     7  0.87
      P1  H  6934  6947       L1     7  0.59
      P1  H  7989  7998       L1    18  0.56

> <Gold.Chemscore.Hbond.Weighted>
-7.9340

> <Gold.Chemscore.Metal.Weighted>
-0.0000

> <Gold.Chemscore.Lipo.Weighted>
-8.7900

> <Gold.Chemscore.Internal_Hbond.Weighted>
0.0000

> <Gold.Chemscore.DEClash.Weighted>
0.1632

> <Gold.Chemscore.DEInternal.Weighted>
0.3958

> <Gold.Chemscore.Rot.Weighted>
3.8136

> <Gold.Chemscore.Internal.Correction.Weighted>
   9.000000E+99

> <Gold.Protein.RotatedTorsions>
[ 6907 6896 6895 6894 ] final -173.48 input  -60.11 | X-H torsion
[ 7974 7965 7964 7962 ] final   42.39 input  175.53 | X-H torsion
[ 8008 7997 7996 7995 ] final  156.70 input   59.86 | X-H torsion
[ 10167 10162 10161 10158 ] final -141.56 input  -65.29 | X-H torsion
[ 10718 10713 10712 10709 ] final  -83.29 input   66.30 | X-H torsion
[ 10763 10752 10751 10750 ] final  -39.20 input  -60.55 | X-H torsion
[ 11005 11000 10999 10996 ] final  -68.27 input  -57.11 | X-H torsion

> <Gold.Protein.ActiveResidues>
 VAL166  LYS551  ARG553  GLY616  TRP617  ASP618  TYR619  PRO620  LYS621  CYS622 
 ASP623  PHE694  ASN695  SER759  ASP760  ASP761  ALA762  ILE779  LEU786  VAL792 
 PHE793  MET794  SER795  GLU796  ALA797  LYS798  CYS799  TRP800  GLU811  SER814 

> <Gold.Protein.RotatedAtoms>
  151.5569  133.3409  159.2963 H   0  0  0  0  0  0  0  0  0  0  0  0  # atno 6907 bound_to 6896
  150.8446  134.7753  159.6971 H   0  0  0  0  0  0  0  0  0  0  0  0  # atno 6908 bound_to 6896
  152.4506  134.5409  159.9890 H   0  0  0  0  0  0  0  0  0  0  0  0  # atno 6909 bound_to 6896
  146.0744  139.5306  142.9577 H   0  0  0  0  0  0  0  0  0  0  0  0  # atno 7974 bound_to 7965
  156.2407  140.1905  156.6995 H   0  0  0  0  0  0  0  0  0  0  0  0  # atno 8008 bound_to 7997
  154.6192  140.0611  156.9620 H   0  0  0  0  0  0  0  0  0  0  0  0  # atno 8009 bound_to 7997
  155.1889  140.3282  155.4364 H   0  0  0  0  0  0  0  0  0  0  0  0  # atno 8010 bound_to 7997
  139.8172  143.7622  152.2665 H   0  0  0  0  0  0  0  0  0  0  0  0  # atno 10167 bound_to 10162
  156.0020  130.4661  150.4235 H   0  0  0  0  0  0  0  0  0  0  0  0  # atno 10718 bound_to 10713
  153.9255  135.6777  153.4746 H   0  0  0  0  0  0  0  0  0  0  0  0  # atno 10763 bound_to 10752
  153.1006  135.4830  154.8857 H   0  0  0  0  0  0  0  0  0  0  0  0  # atno 10764 bound_to 10752
  154.7455  135.3171  154.8609 H   0  0  0  0  0  0  0  0  0  0  0  0  # atno 10765 bound_to 10752
  141.1528  133.6737  156.6421 H   0  0  0  0  0  0  0  0  0  0  0  0  # atno 11005 bound_to 11000
  145.6332  141.0300  143.1852 LP  0  0  0  0  0  0  0  0  0  0  0  0  # atno 17320 bound_to 7965
  144.7252  139.7899  143.7367 LP  0  0  0  0  0  0  0  0  0  0  0  0  # atno 17321 bound_to 7965
  139.7789  144.7451  151.0116 LP  0  0  0  0  0  0  0  0  0  0  0  0  # atno 17342 bound_to 10162
  140.7815  143.4563  151.0341 LP  0  0  0  0  0  0  0  0  0  0  0  0  # atno 17343 bound_to 10162
  157.2290  131.0499  151.2503 LP  0  0  0  0  0  0  0  0  0  0  0  0  # atno 17370 bound_to 10713
  157.3729  130.7190  149.6577 LP  0  0  0  0  0  0  0  0  0  0  0  0  # atno 17371 bound_to 10713
  140.3386  134.7868  157.4380 LP  0  0  0  0  0  0  0  0  0  0  0  0  # atno 17394 bound_to 11000
  140.0957  134.5540  155.8401 LP  0  0  0  0  0  0  0  0  0  0  0  0  # atno 17395 bound_to 11000

$$$$
