AV-unprocessed.smi:1701|AV-procd|sdf|6843|dock3
  -GOLD-   22720 8 23D 1   1.00000     0.00000
 Structure written by MMmdl.
 54 56  0  0  0  0  0  0  0  0  4 V2000
  151.2568  145.4420  159.6568 C   0  0  0  0  0  0  0  0  0  0  0  0
  151.4355  144.7540  158.2951 C   0  0  0  0  0  0  0  0  0  0  0  0
  152.0145  143.4143  158.3954 N   0  0  0  0  0  0  0  0  0  0  0  0
  153.2215  143.2102  159.2003 C   0  0  0  0  0  0  0  0  0  0  0  0
  152.9577  142.4403  160.5035 C   0  0  0  0  0  0  0  0  0  0  0  0
  151.3140  142.2962  157.8802 C   0  0  0  0  0  0  0  0  0  0  0  0
  151.5953  140.9565  158.2475 C   0  0  0  0  0  0  0  0  0  0  0  0
  150.8478  139.9010  157.6872 C   0  0  0  0  0  0  0  0  0  0  0  0
  149.8198  140.1754  156.7623 C   0  0  0  0  0  0  0  0  0  0  0  0
  149.1073  139.0584  156.2408 N   0  0  0  0  0  0  0  0  0  0  0  0
  148.9808  137.7895  156.7031 C   0  0  0  0  0  0  0  0  0  0  0  0
  149.5383  137.4664  157.7487 O   0  0  0  0  0  0  0  0  0  0  0  0
  148.2300  136.8868  156.0029 N   0  5  0  0  0  0  0  0  0  0  0  0
  147.2191  135.9301  156.4867 C   0  0  2  0  0  0  0  0  0  0  0  0
  147.2116  135.9173  158.0197 C   0  0  0  0  0  0  0  0  0  0  0  0
  148.3145  134.9233  158.4325 C   0  0  0  0  0  0  0  0  0  0  0  0
  148.6210  134.0851  157.2445 N   0  3  2  0  0  0  0  0  0  0  0  0
  150.0599  134.1462  156.8558 C   0  0  0  0  0  0  0  0  0  0  0  0
  150.3280  133.4815  155.5006 C   0  0  0  0  0  0  0  0  0  0  0  0
  149.5065  134.1726  154.4107 C   0  0  0  0  0  0  0  0  0  0  0  0
  148.0129  134.0526  154.7410 C   0  0  0  0  0  0  0  0  0  0  0  0
  147.6430  134.4760  156.1905 C   0  0  2  0  0  0  0  0  0  0  0  0
  149.5732  141.5288  156.4286 C   0  0  0  0  0  0  0  0  0  0  0  0
  150.3145  142.5085  156.9893 N   0  3  0  0  0  0  0  0  0  0  0  0
  150.7761  146.4124  159.5331 H   0  0  0  0  0  0  0  0  0  0  0  0
  152.2138  145.6164  160.1468 H   0  0  0  0  0  0  0  0  0  0  0  0
  150.6365  144.8511  160.3308 H   0  0  0  0  0  0  0  0  0  0  0  0
  150.4873  144.7134  157.7595 H   0  0  0  0  0  0  0  0  0  0  0  0
  152.0849  145.3701  157.6724 H   0  0  0  0  0  0  0  0  0  0  0  0
  153.9830  142.6997  158.6100 H   0  0  0  0  0  0  0  0  0  0  0  0
  153.6511  144.1820  159.4454 H   0  0  0  0  0  0  0  0  0  0  0  0
  153.8877  142.2867  161.0508 H   0  0  0  0  0  0  0  0  0  0  0  0
  152.5249  141.4585  160.3102 H   0  0  0  0  0  0  0  0  0  0  0  0
  152.2800  142.9812  161.1622 H   0  0  0  0  0  0  0  0  0  0  0  0
  152.3777  140.7106  158.9487 H   0  0  0  0  0  0  0  0  0  0  0  0
  151.0676  138.8816  157.9697 H   0  0  0  0  0  0  0  0  0  0  0  0
  148.6093  139.2402  155.3817 H   0  0  0  0  0  0  0  0  0  0  0  0
  146.2213  136.1279  156.0928 H   0  0  0  0  0  0  0  0  0  0  0  0
  147.3491  136.9055  158.4616 H   0  0  0  0  0  0  0  0  0  0  0  0
  146.2470  135.5450  158.3671 H   0  0  0  0  0  0  0  0  0  0  0  0
  149.1992  135.4618  158.7788 H   0  0  0  0  0  0  0  0  0  0  0  0
  147.9842  134.2933  159.2591 H   0  0  0  0  0  0  0  0  0  0  0  0
  150.3918  135.1848  156.8104 H   0  0  0  0  0  0  0  0  0  0  0  0
  150.6550  133.6642  157.6321 H   0  0  0  0  0  0  0  0  0  0  0  0
  151.3895  133.5470  155.2603 H   0  0  0  0  0  0  0  0  0  0  0  0
  150.0814  132.4200  155.5451 H   0  0  0  0  0  0  0  0  0  0  0  0
  149.7971  135.2206  154.3306 H   0  0  0  0  0  0  0  0  0  0  0  0
  149.7113  133.7199  153.4401 H   0  0  0  0  0  0  0  0  0  0  0  0
  147.4165  134.5878  153.9996 H   0  0  0  0  0  0  0  0  0  0  0  0
  147.7399  133.0034  154.6213 H   0  0  0  0  0  0  0  0  0  0  0  0
  146.7541  133.8880  156.4275 H   0  0  0  0  0  0  0  0  0  0  0  0
  148.8204  141.8837  155.7428 H   0  0  0  0  0  0  0  0  0  0  0  0
  148.4282  133.1216  157.4759 H   0  0  0  0  0  0  0  0  0  0  0  0
  150.1063  143.4710  156.7232 H   0  0  0  0  0  0  0  0  0  0  0  0
  1  2  1  0  0  0  0
  1 25  1  0  0  0  0
  1 26  1  0  0  0  0
  1 27  1  0  0  0  0
  2  3  1  0  0  0  0
  2 28  1  0  0  0  0
  2 29  1  0  0  0  0
  3  4  1  0  0  0  0
  3  6  1  0  0  0  0
  4  5  1  0  0  0  0
  4 30  1  0  0  0  0
  4 31  1  0  0  0  0
  5 32  1  0  0  0  0
  5 33  1  0  0  0  0
  5 34  1  0  0  0  0
  6 24  1  0  0  0  0
  6  7  2  0  0  0  0
  7  8  1  0  0  0  0
  7 35  1  0  0  0  0
  8  9  2  0  0  0  0
  8 36  1  0  0  0  0
  9 10  1  0  0  0  0
  9 23  1  0  0  0  0
 10 11  1  0  0  0  0
 10 37  1  0  0  0  0
 11 12  2  0  0  0  0
 11 13  1  0  0  0  0
 13 14  1  0  0  0  0
 14 22  1  0  0  0  0
 14 15  1  0  0  0  0
 14 38  1  0  0  0  0
 15 16  1  0  0  0  0
 15 39  1  0  0  0  0
 15 40  1  0  0  0  0
 16 17  1  0  0  0  0
 16 41  1  0  0  0  0
 16 42  1  0  0  0  0
 17 22  1  0  0  0  0
 17 18  1  0  0  0  0
 17 53  1  0  0  0  0
 18 19  1  0  0  0  0
 18 43  1  0  0  0  0
 18 44  1  0  0  0  0
 19 20  1  0  0  0  0
 19 45  1  0  0  0  0
 19 46  1  0  0  0  0
 20 21  1  0  0  0  0
 20 47  1  0  0  0  0
 20 48  1  0  0  0  0
 21 22  1  0  0  0  0
 21 49  1  0  0  0  0
 21 50  1  0  0  0  0
 22 51  1  0  0  0  0
 23 24  2  0  0  0  0
 23 52  1  0  0  0  0
 24 54  1  0  0  0  0
M  CHG  1  13  -1
M  CHG  1  17   1
M  CHG  1  24   1
M  END
> <s_m_source_file>
AV-unprocessed.smi

> <i_m_source_file_index>
1701

> <i_lp_mmshare_version>
43012

> <i_f3d_flags>
0

> <s_epik_input>
W0NIM11bQ0gyXU4oW0NIMl1bQ0gzXSljMVtjSF1bY0hdYyhbY0hdbjEpW05IXUMoPU8pW05IXVtDQEhdKFtDSDJdW0NIMl0yKVtDQEBIXShOMjMpW0NIMl1bQ0gyXVtDSDJdW0NIMl0z

> <s_epik_cmdline>
J2VwaWtfcHl0aG9uJywgJy1waCcsICc3LjAnLCAnLXRuJywgJzgnLCAnLW1hJywgJzIwMCcsICctbWV0YWxfYmluZGluZycsICctaW1hZScsICc8aW5maWxlLm1hZT4nLCAnLW9tYWUnLCAnPG91dGZpbGUubWFlPic=

> <r_lp_tautomer_probability>
0.999994

> <r_epik_Ionization_Penalty>
7.37095

> <r_epik_Ionization_Penalty_Charging>
7.37095

> <r_epik_Ionization_Penalty_Neutral>
3.78969e-06

> <r_epik_State_Penalty>
6.83842

> <r_epik_Charging_Adjusted_Penalty>
14.2094

> <i_epik_Tot_Q>
1

> <i_epik_Tot_abs_Q>
3

> <r_epik_Metal_State_Penalty>
2.78552

> <b_epik_Metal_Only>
1

> <s_lp_Force_Field>
OPLS_2005

> <r_lp_Energy>
56.3102

> <b_lp_Chiralities_Consistent>
1

> <s_lp_Variant>
AV-unprocessed.smi:1701-23

> <Gold.Version>
5.8.1

> <Gold.Id.Protein>
6NUR|6NUR_protein|mol2

> <Gold.PLP.Fitness>
40.3093

> <Gold.PLP.PLP>
-35.6816

> <Gold.PLP.part.hbond>
-1.0000

> <Gold.PLP.part.metal>
0.0000

> <Gold.PLP.part.buried>
-4.9500

> <Gold.PLP.part.nonpolar>
-31.1774

> <Gold.PLP.part.repulsive>
0.1133

> <Gold.PLP.ligand.clash>
0.0000

> <Gold.PLP.ligand.torsion>
0.7084

> <Gold.PLP.Chemscore.Hbond>
1.9200

> <Gold.PLP.Chemscore.CHOScore>
0.0000

> <Gold.PLP.Chemscore.Metal>
0.0000

> <Gold.Chemscore.Hbonds>
donor molecule, donor type, donor heavy atom, donor atom, acceptor molecule, acceptor atom, score
      L1  H    24    54       P1  8028  1.87

> <Gold.PLP.Chemscore.Internal.Correction>
0.2844

> <Gold.Rescore>
     Score         DG    S(hbond)    S(metal)    S(lipo)     H(rot)  DE(clash)    DE(int)     intcor
     10.92     -16.41       0.96        0.00      94.12       1.28       0.02       5.47       ----

> <Gold.Chemscore.Fitness>
10.9157

> <Gold.Chemscore.DG>
-16.4078

> <Gold.Chemscore.ZeroCoef>
-5.4800

> <Gold.Chemscore.Hbond>
0.9586

> <Gold.Chemscore.Metal>
0.0000

> <Gold.Chemscore.Lipo>
94.1242

> <Gold.Chemscore.Internal_Hbond>
0.0000

> <Gold.Chemscore.DEClash>
0.0234

> <Gold.Chemscore.DEInternal>
5.4686

> <Gold.Chemscore.Rot>
1.2838

> <Gold.Chemscore.Internal.Correction>
   9.000000E+99

> <Gold.Chemscore.Hbonds>
donor molecule, donor type, donor heavy atom, donor atom, acceptor molecule, acceptor atom, score
      L1  H    24    54       P1  8028  0.84

> <Gold.Chemscore.Hbond.Weighted>
-3.2018

> <Gold.Chemscore.Metal.Weighted>
-0.0000

> <Gold.Chemscore.Lipo.Weighted>
-11.0125

> <Gold.Chemscore.Internal_Hbond.Weighted>
0.0000

> <Gold.Chemscore.DEClash.Weighted>
0.0234

> <Gold.Chemscore.DEInternal.Weighted>
5.4686

> <Gold.Chemscore.Rot.Weighted>
3.2865

> <Gold.Chemscore.Internal.Correction.Weighted>
   9.000000E+99

> <Gold.Protein.RotatedTorsions>
[ 6907 6896 6895 6894 ] final   13.54 input  -60.11 | X-H torsion
[ 7974 7965 7964 7962 ] final  -17.50 input  175.53 | X-H torsion
[ 8008 7997 7996 7995 ] final -158.92 input   59.86 | X-H torsion
[ 10167 10162 10161 10158 ] final  -51.68 input  -65.29 | X-H torsion
[ 10718 10713 10712 10709 ] final   27.68 input   66.30 | X-H torsion
[ 10763 10752 10751 10750 ] final   10.26 input  -60.55 | X-H torsion
[ 11005 11000 10999 10996 ] final  122.22 input  -57.11 | X-H torsion

> <Gold.Protein.ActiveResidues>
 VAL166  LYS551  ARG553  GLY616  TRP617  ASP618  TYR619  PRO620  LYS621  CYS622 
 ASP623  PHE694  ASN695  SER759  ASP760  ASP761  ALA762  ILE779  LEU786  VAL792 
 PHE793  MET794  SER795  GLU796  ALA797  LYS798  CYS799  TRP800  GLU811  SER814 

> <Gold.Protein.RotatedAtoms>
  151.7879  135.0744  160.0382 H   0  0  0  0  0  0  0  0  0  0  0  0  # atno 6907 bound_to 6896
  152.3177  133.5816  159.5732 H   0  0  0  0  0  0  0  0  0  0  0  0  # atno 6908 bound_to 6896
  150.7353  133.9973  159.3668 H   0  0  0  0  0  0  0  0  0  0  0  0  # atno 6909 bound_to 6896
  146.1938  140.3788  142.8448 H   0  0  0  0  0  0  0  0  0  0  0  0  # atno 7974 bound_to 7965
  155.7549  140.0831  157.2183 H   0  0  0  0  0  0  0  0  0  0  0  0  # atno 8008 bound_to 7997
  154.4008  140.1553  156.2822 H   0  0  0  0  0  0  0  0  0  0  0  0  # atno 8009 bound_to 7997
  155.8895  140.3416  155.5949 H   0  0  0  0  0  0  0  0  0  0  0  0  # atno 8010 bound_to 7997
  140.6576  143.2611  151.4539 H   0  0  0  0  0  0  0  0  0  0  0  0  # atno 10167 bound_to 10162
  157.2235  130.6990  149.6280 H   0  0  0  0  0  0  0  0  0  0  0  0  # atno 10718 bound_to 10713
  153.2051  135.6861  153.8183 H   0  0  0  0  0  0  0  0  0  0  0  0  # atno 10763 bound_to 10752
  153.7435  135.3234  155.3309 H   0  0  0  0  0  0  0  0  0  0  0  0  # atno 10764 bound_to 10752
  154.8192  135.4664  154.0834 H   0  0  0  0  0  0  0  0  0  0  0  0  # atno 10765 bound_to 10752
  139.9259  134.9640  156.8076 H   0  0  0  0  0  0  0  0  0  0  0  0  # atno 11005 bound_to 11000
  144.8539  140.7041  143.6151 LP  0  0  0  0  0  0  0  0  0  0  0  0  # atno 17320 bound_to 7965
  145.3709  139.1659  143.4332 LP  0  0  0  0  0  0  0  0  0  0  0  0  # atno 17321 bound_to 7965
  139.5802  144.1727  152.1957 LP  0  0  0  0  0  0  0  0  0  0  0  0  # atno 17342 bound_to 10162
  140.1050  144.5506  150.6963 LP  0  0  0  0  0  0  0  0  0  0  0  0  # atno 17343 bound_to 10162
  155.9680  130.4512  150.5727 LP  0  0  0  0  0  0  0  0  0  0  0  0  # atno 17370 bound_to 10713
  157.3552  131.0740  151.1681 LP  0  0  0  0  0  0  0  0  0  0  0  0  # atno 17371 bound_to 10713
  140.6339  133.9880  155.7675 LP  0  0  0  0  0  0  0  0  0  0  0  0  # atno 17394 bound_to 11000
  141.0815  134.0054  157.3378 LP  0  0  0  0  0  0  0  0  0  0  0  0  # atno 17395 bound_to 11000

$$$$
