AV-unprocessed.smi:109|AV-procd|sdf|1058|dock1
  -GOLD-   2262018123D 1   1.00000     0.00000
 Structure written by MMmdl.
 58 61  0  0  0  0  0  0  0  0  1 V2000
  149.6298  140.8846  153.3977 O   0  0  0  0  0  0  0  0  0  0  0  0
  149.2508  140.4842  154.6968 C   0  0  0  0  0  0  0  0  0  0  0  0
  150.3519  140.8600  155.7013 C   0  0  0  0  0  0  0  0  0  0  0  0
  149.8751  140.7993  157.1696 C   0  0  1  0  0  0  0  0  0  0  0  0
  149.8203  139.4068  157.6144 N   0  0  0  0  0  0  0  0  0  0  0  0
  148.6492  138.7411  157.7243 C   0  0  0  0  0  0  0  0  0  0  0  0
  147.6878  138.8342  156.7683 N   0  0  0  0  0  0  0  0  0  0  0  0
  146.5422  138.1589  156.9020 C   0  0  0  0  0  0  0  0  0  0  0  0
  146.1622  137.3474  157.8920 N   0  0  0  0  0  0  0  0  0  0  0  0
  147.1257  137.2514  158.8533 C   0  0  0  0  0  0  0  0  0  0  0  0
  148.3851  137.9113  158.8442 C   0  0  0  0  0  0  0  0  0  0  0  0
  149.1014  137.5706  159.9843 N   0  0  0  0  0  0  0  0  0  0  0  0
  148.3082  136.7532  160.6241 C   0  0  0  0  0  0  0  0  0  0  0  0
  147.0925  136.5144  160.0163 N   0  0  0  0  0  0  0  0  0  0  0  0
  145.9604  135.6384  160.4551 C   0  0  1  0  0  0  0  0  0  0  0  0
  146.4156  134.3162  160.4639 O   0  0  0  0  0  0  0  0  0  0  0  0
  146.7327  133.9502  161.7991 C   0  0  2  0  0  0  0  0  0  0  0  0
  146.9915  132.4384  161.9728 C   0  0  0  0  0  0  0  0  0  0  0  0
  145.8802  131.6300  161.6478 O   0  0  0  0  0  0  0  0  0  0  0  0
  145.6678  134.6633  162.6428 C   0  0  2  0  0  0  0  0  0  0  0  0
  144.4410  133.9541  162.6601 O   0  0  0  0  0  0  0  0  0  0  0  0
  145.5532  135.9982  161.9020 C   0  0  2  0  0  0  0  0  0  0  0  0
  144.2632  136.5732  161.9930 O   0  0  0  0  0  0  0  0  0  0  0  0
  150.7222  141.6610  158.1470 C   0  0  0  0  0  0  0  0  0  0  0  0
  151.1164  143.0291  157.5483 C   0  0  0  0  0  0  0  0  0  0  0  0
  151.8664  143.8963  158.5728 C   0  0  0  0  0  0  0  0  0  0  0  0
  153.1040  143.1675  159.1189 C   0  0  0  0  0  0  0  0  0  0  0  0
  152.7246  141.8038  159.7168 C   0  0  0  0  0  0  0  0  0  0  0  0
  151.9734  140.9360  158.6937 C   0  0  0  0  0  0  0  0  0  0  0  0
  145.1813  135.7846  159.7056 H   0  0  0  0  0  0  0  0  0  0  0  0
  147.6837  134.4380  162.0217 H   0  0  0  0  0  0  0  0  0  0  0  0
  145.9972  134.7991  163.6735 H   0  0  0  0  0  0  0  0  0  0  0  0
  146.2790  136.6992  162.3178 H   0  0  0  0  0  0  0  0  0  0  0  0
  149.4486  140.1752  152.8002 H   0  0  0  0  0  0  0  0  0  0  0  0
  148.3103  140.9701  154.9578 H   0  0  0  0  0  0  0  0  0  0  0  0
  149.0726  139.4086  154.6936 H   0  0  0  0  0  0  0  0  0  0  0  0
  151.2118  140.2044  155.5584 H   0  0  0  0  0  0  0  0  0  0  0  0
  150.6938  141.8662  155.4630 H   0  0  0  0  0  0  0  0  0  0  0  0
  148.8602  141.1987  157.1785 H   0  0  0  0  0  0  0  0  0  0  0  0
  150.7123  138.9782  157.8156 H   0  0  0  0  0  0  0  0  0  0  0  0
  145.8290  138.2863  156.1011 H   0  0  0  0  0  0  0  0  0  0  0  0
  148.5969  136.3024  161.5621 H   0  0  0  0  0  0  0  0  0  0  0  0
  147.8384  132.1338  161.3575 H   0  0  0  0  0  0  0  0  0  0  0  0
  147.2639  132.2307  163.0079 H   0  0  0  0  0  0  0  0  0  0  0  0
  146.1029  131.0984  160.8987 H   0  0  0  0  0  0  0  0  0  0  0  0
  144.5219  133.2300  163.2622 H   0  0  0  0  0  0  0  0  0  0  0  0
  143.8900  136.6072  161.1254 H   0  0  0  0  0  0  0  0  0  0  0  0
  150.0874  141.8848  159.0055 H   0  0  0  0  0  0  0  0  0  0  0  0
  151.7491  142.8960  156.6712 H   0  0  0  0  0  0  0  0  0  0  0  0
  150.2251  143.5579  157.2091 H   0  0  0  0  0  0  0  0  0  0  0  0
  152.1631  144.8400  158.1143 H   0  0  0  0  0  0  0  0  0  0  0  0
  151.1982  144.1496  159.3968 H   0  0  0  0  0  0  0  0  0  0  0  0
  153.8292  143.0262  158.3164 H   0  0  0  0  0  0  0  0  0  0  0  0
  153.5948  143.7818  159.8744 H   0  0  0  0  0  0  0  0  0  0  0  0
  153.6213  141.2845  160.0561 H   0  0  0  0  0  0  0  0  0  0  0  0
  152.1011  141.9520  160.5993 H   0  0  0  0  0  0  0  0  0  0  0  0
  151.6904  139.9919  159.1601 H   0  0  0  0  0  0  0  0  0  0  0  0
  152.6520  140.6876  157.8775 H   0  0  0  0  0  0  0  0  0  0  0  0
  1  2  1  0  0  0  0
  1 34  1  0  0  0  0
  2  3  1  0  0  0  0
  2 35  1  0  0  0  0
  2 36  1  0  0  0  0
  3  4  1  0  0  0  0
  3 37  1  0  0  0  0
  3 38  1  0  0  0  0
  4  5  1  0  0  0  0
  4 24  1  0  0  0  0
  4 39  1  0  0  0  0
  5  6  1  0  0  0  0
  5 40  1  0  0  0  0
  6 11  1  0  0  0  0
  6  7  2  0  0  0  0
  7  8  1  0  0  0  0
  8  9  2  0  0  0  0
  8 41  1  0  0  0  0
  9 10  1  0  0  0  0
 10 14  1  0  0  0  0
 10 11  2  0  0  0  0
 11 12  1  0  0  0  0
 12 13  2  0  0  0  0
 13 14  1  0  0  0  0
 13 42  1  0  0  0  0
 14 15  1  0  0  0  0
 15 30  1  0  0  0  0
 15 22  1  0  0  0  0
 15 16  1  0  0  0  0
 16 17  1  0  0  0  0
 17 31  1  0  0  0  0
 17 18  1  0  0  0  0
 17 20  1  0  0  0  0
 18 19  1  0  0  0  0
 18 43  1  0  0  0  0
 18 44  1  0  0  0  0
 19 45  1  0  0  0  0
 20 32  1  0  0  0  0
 20 21  1  0  0  0  0
 20 22  1  0  0  0  0
 21 46  1  0  0  0  0
 22 33  1  0  0  0  0
 22 23  1  0  0  0  0
 23 47  1  0  0  0  0
 24 29  1  0  0  0  0
 24 25  1  0  0  0  0
 24 48  1  0  0  0  0
 25 26  1  0  0  0  0
 25 49  1  0  0  0  0
 25 50  1  0  0  0  0
 26 27  1  0  0  0  0
 26 51  1  0  0  0  0
 26 52  1  0  0  0  0
 27 28  1  0  0  0  0
 27 53  1  0  0  0  0
 27 54  1  0  0  0  0
 28 29  1  0  0  0  0
 28 55  1  0  0  0  0
 28 56  1  0  0  0  0
 29 57  1  0  0  0  0
 29 58  1  0  0  0  0
M  END
> <s_m_source_file>
AV-unprocessed.smi

> <i_m_source_file_index>
109

> <i_lp_mmshare_version>
43012

> <i_f3d_flags>
0

> <s_epik_input>
W0NIMl0xW0NIMl1bQ0gyXVtDSDJdW0NIMl1bQ0hdMVtDQEhdKFtDSDJdW0NIMl1bT0hdKVtOSF1jKG5bY0hdbjIpYyhjMjMpbltjSF1uM1tDQEBIXTRPW0NASF0oW0NIMl1bT0hdKVtDQEBIXShbT0hdKVtDQEhdNFtPSF0=

> <s_epik_cmdline>
J2VwaWtfcHl0aG9uJywgJy1waCcsICc3LjAnLCAnLXRuJywgJzgnLCAnLW1hJywgJzIwMCcsICctbWV0YWxfYmluZGluZycsICctaW1hZScsICc8aW5maWxlLm1hZT4nLCAnLW9tYWUnLCAnPG91dGZpbGUubWFlPic=

> <r_lp_tautomer_probability>
1

> <r_epik_Ionization_Penalty>
0.000793976

> <r_epik_Ionization_Penalty_Charging>
0

> <r_epik_Ionization_Penalty_Neutral>
0.000793976

> <r_epik_State_Penalty>
-0

> <r_epik_Charging_Adjusted_Penalty>
0

> <i_epik_Tot_Q>
0

> <i_epik_Tot_abs_Q>
0

> <r_epik_Metal_State_Penalty>
-0

> <b_epik_Metal_Only>
0

> <s_epik_Chemistry_Notes>
This compound contains an acetal/aminal-like group ( X-CH(R)-Y where X, Y are N, S, or O) that may be acid/base labile, releasing an aldehyde.

> <s_lp_Force_Field>
OPLS_2005

> <r_lp_Energy>
57.9674

> <b_lp_Chiralities_Consistent>
1

> <s_lp_Variant>
AV-unprocessed.smi:109-28

> <Gold.Version>
5.8.1

> <Gold.Id.Protein>
6NUR|6NUR_protein|mol2

> <Gold.PLP.Fitness>
50.5509

> <Gold.PLP.PLP>
-46.7937

> <Gold.PLP.part.hbond>
-3.8523

> <Gold.PLP.part.metal>
0.0000

> <Gold.PLP.part.buried>
-6.7006

> <Gold.PLP.part.nonpolar>
-37.8163

> <Gold.PLP.part.repulsive>
0.0687

> <Gold.PLP.ligand.clash>
0.0000

> <Gold.PLP.ligand.torsion>
1.2246

> <Gold.PLP.Chemscore.Hbond>
1.9325

> <Gold.PLP.Chemscore.CHOScore>
0.0000

> <Gold.PLP.Chemscore.Metal>
0.0000

> <Gold.Chemscore.Hbonds>
donor molecule, donor type, donor heavy atom, donor atom, acceptor molecule, acceptor atom, score
      L1  H     1    34       P1  7957  0.64
      P1  H  7989  7998       L1     1  0.27
      P1  H  8011  8017       L1     1  1.00

> <Gold.PLP.Chemscore.Internal.Correction>
0.4088

> <Gold.Rescore>
     Score         DG    S(hbond)    S(metal)    S(lipo)     H(rot)  DE(clash)    DE(int)     intcor
      7.68      -8.94       1.38        0.00     109.75       5.47       0.00       1.25       ----

> <Gold.Chemscore.Fitness>
7.6810

> <Gold.Chemscore.DG>
-8.9372

> <Gold.Chemscore.ZeroCoef>
-5.4800

> <Gold.Chemscore.Hbond>
1.3804

> <Gold.Chemscore.Metal>
0.0000

> <Gold.Chemscore.Lipo>
109.7452

> <Gold.Chemscore.Internal_Hbond>
0.0000

> <Gold.Chemscore.DEClash>
0.0042

> <Gold.Chemscore.DEInternal>
1.2520

> <Gold.Chemscore.Rot>
5.4662

> <Gold.Chemscore.Internal.Correction>
   9.000000E+99

> <Gold.Chemscore.Hbonds>
donor molecule, donor type, donor heavy atom, donor atom, acceptor molecule, acceptor atom, score
      L1  H     1    34       P1  7957  0.64
      P1  H  7989  7998       L1     1  0.04
      P1  H  8011  8017       L1     1  0.50

> <Gold.Chemscore.Hbond.Weighted>
-4.6105

> <Gold.Chemscore.Metal.Weighted>
-0.0000

> <Gold.Chemscore.Lipo.Weighted>
-12.8402

> <Gold.Chemscore.Internal_Hbond.Weighted>
0.0000

> <Gold.Chemscore.DEClash.Weighted>
0.0042

> <Gold.Chemscore.DEInternal.Weighted>
1.2520

> <Gold.Chemscore.Rot.Weighted>
13.9935

> <Gold.Chemscore.Internal.Correction.Weighted>
   9.000000E+99

> <Gold.Protein.RotatedTorsions>
[ 6907 6896 6895 6894 ] final -167.43 input  -60.11 | X-H torsion
[ 7974 7965 7964 7962 ] final  150.58 input  175.53 | X-H torsion
[ 8008 7997 7996 7995 ] final -148.40 input   59.86 | X-H torsion
[ 10167 10162 10161 10158 ] final    1.89 input  -65.29 | X-H torsion
[ 10718 10713 10712 10709 ] final  -84.48 input   66.30 | X-H torsion
[ 10763 10752 10751 10750 ] final  110.51 input  -60.55 | X-H torsion
[ 11005 11000 10999 10996 ] final   65.62 input  -57.11 | X-H torsion

> <Gold.Protein.ActiveResidues>
 VAL166  LYS551  ARG553  GLY616  TRP617  ASP618  TYR619  PRO620  LYS621  CYS622 
 ASP623  PHE694  ASN695  SER759  ASP760  ASP761  ALA762  ILE779  LEU786  VAL792 
 PHE793  MET794  SER795  GLU796  ALA797  LYS798  CYS799  TRP800  GLU811  SER814 

> <Gold.Protein.RotatedAtoms>
  151.4594  133.3597  159.2806 H   0  0  0  0  0  0  0  0  0  0  0  0  # atno 6907 bound_to 6896
  150.9036  134.8451  159.7388 H   0  0  0  0  0  0  0  0  0  0  0  0  # atno 6908 bound_to 6896
  152.4893  134.4516  159.9628 H   0  0  0  0  0  0  0  0  0  0  0  0  # atno 6909 bound_to 6896
  144.8354  139.6426  143.6040 H   0  0  0  0  0  0  0  0  0  0  0  0  # atno 7974 bound_to 7965
  155.5909  140.0652  157.2759 H   0  0  0  0  0  0  0  0  0  0  0  0  # atno 8008 bound_to 7997
  154.4305  140.1835  156.1121 H   0  0  0  0  0  0  0  0  0  0  0  0  # atno 8009 bound_to 7997
  156.0233  140.3314  155.7065 H   0  0  0  0  0  0  0  0  0  0  0  0  # atno 8010 bound_to 7997
  140.6661  143.7175  150.7830 H   0  0  0  0  0  0  0  0  0  0  0  0  # atno 10167 bound_to 10162
  156.0006  130.4699  150.4417 H   0  0  0  0  0  0  0  0  0  0  0  0  # atno 10718 bound_to 10713
  153.4500  135.3746  155.2278 H   0  0  0  0  0  0  0  0  0  0  0  0  # atno 10763 bound_to 10752
  154.8756  135.3883  154.4049 H   0  0  0  0  0  0  0  0  0  0  0  0  # atno 10764 bound_to 10752
  153.4607  135.7086  153.6116 H   0  0  0  0  0  0  0  0  0  0  0  0  # atno 10765 bound_to 10752
  139.9883  134.6633  156.0137 H   0  0  0  0  0  0  0  0  0  0  0  0  # atno 11005 bound_to 11000
  146.2653  139.6506  142.9333 LP  0  0  0  0  0  0  0  0  0  0  0  0  # atno 17320 bound_to 7965
  145.4806  141.0438  143.2648 LP  0  0  0  0  0  0  0  0  0  0  0  0  # atno 17321 bound_to 7965
  140.0852  143.4930  152.2509 LP  0  0  0  0  0  0  0  0  0  0  0  0  # atno 17342 bound_to 10162
  139.5911  144.7550  151.3399 LP  0  0  0  0  0  0  0  0  0  0  0  0  # atno 17343 bound_to 10162
  157.2457  131.0535  151.2409 LP  0  0  0  0  0  0  0  0  0  0  0  0  # atno 17370 bound_to 10713
  157.3577  130.7115  149.6481 LP  0  0  0  0  0  0  0  0  0  0  0  0  # atno 17371 bound_to 10713
  141.1544  133.6544  156.4113 LP  0  0  0  0  0  0  0  0  0  0  0  0  # atno 17394 bound_to 11000
  140.4959  134.6531  157.5229 LP  0  0  0  0  0  0  0  0  0  0  0  0  # atno 17395 bound_to 11000

$$$$
