AV-unprocessed.smi:287|AV-procd|sdf|2198|dock2
  -GOLD-   2262022 03D 1   1.00000     0.00000
 Structure written by MMmdl.
 55 58  0  0  0  0  0  0  0  0  1 V2000
  151.7600  144.9312  159.3049 C   0  0  0  0  0  0  0  0  0  0  0  0
  152.3911  143.6459  159.7173 C   0  0  0  0  0  0  0  0  0  0  0  0
  152.6866  142.4867  159.0616 C   0  0  0  0  0  0  0  0  0  0  0  0
  153.3063  141.6107  160.0024 C   0  0  0  0  0  0  0  0  0  0  0  0
  153.8063  140.1992  159.7260 C   0  0  2  0  0  0  0  0  0  0  0  0
  153.6977  139.3528  161.0046 C   0  0  0  0  0  0  0  0  0  0  0  0
  155.1742  140.1660  159.3663 O   0  0  0  0  0  0  0  0  0  0  0  0
  153.0457  139.5127  158.5678 C   0  0  0  0  0  0  0  0  0  0  0  0
  151.6329  139.3055  158.8603 N   0  0  0  0  0  0  0  0  0  0  0  0
  150.6774  139.7162  158.0006 C   0  0  0  0  0  0  0  0  0  0  0  0
  150.6980  141.0356  157.6945 N   0  0  0  0  0  0  0  0  0  0  0  0
  149.7946  141.5450  156.8527 C   0  0  0  0  0  0  0  0  0  0  0  0
  148.8032  140.9200  156.2152 N   0  0  0  0  0  0  0  0  0  0  0  0
  148.7764  139.5898  156.5179 C   0  0  0  0  0  0  0  0  0  0  0  0
  149.6695  138.9092  157.3937 C   0  0  0  0  0  0  0  0  0  0  0  0
  149.3240  137.5625  157.4395 N   0  0  0  0  0  0  0  0  0  0  0  0
  148.2949  137.4624  156.6429 C   0  0  0  0  0  0  0  0  0  0  0  0
  147.9015  138.6381  156.0408 N   0  0  0  0  0  0  0  0  0  0  0  0
  146.7781  138.8893  155.0769 C   0  0  2  0  0  0  0  0  0  0  0  0
  145.6445  138.2479  155.5729 O   0  0  0  0  0  0  0  0  0  0  0  0
  145.3838  137.0222  154.8818 C   0  0  1  0  0  0  0  0  0  0  0  0
  143.9995  137.1888  154.2195 C   0  0  0  0  0  0  0  0  0  0  0  0
  144.1511  137.7388  152.9282 O   0  0  0  0  0  0  0  0  0  0  0  0
  146.5693  136.8498  153.9069 C   0  0  1  0  0  0  0  0  0  0  0  0
  146.2161  136.2494  152.6760 O   0  0  0  0  0  0  0  0  0  0  0  0
  147.0620  138.2712  153.7005 C   0  0  2  0  0  0  0  0  0  0  0  0
  148.4281  138.2927  153.3279 O   0  0  0  0  0  0  0  0  0  0  0  0
  153.3177  142.3156  161.1816 C   0  0  0  0  0  0  0  0  0  0  0  0
  153.7868  142.0104  162.5657 C   0  0  0  0  0  0  0  0  0  0  0  0
  152.7707  143.5522  161.0162 O   0  0  0  0  0  0  0  0  0  0  0  0
  146.6541  139.9727  155.0660 H   0  0  0  0  0  0  0  0  0  0  0  0
  145.3620  136.1856  155.5816 H   0  0  0  0  0  0  0  0  0  0  0  0
  147.3442  136.2492  154.3863 H   0  0  0  0  0  0  0  0  0  0  0  0
  146.4533  138.7945  152.9616 H   0  0  0  0  0  0  0  0  0  0  0  0
  151.6112  144.9624  158.2254 H   0  0  0  0  0  0  0  0  0  0  0  0
  152.3881  145.7778  159.5833 H   0  0  0  0  0  0  0  0  0  0  0  0
  150.7890  145.0559  159.7840 H   0  0  0  0  0  0  0  0  0  0  0  0
  152.4882  142.2905  158.0182 H   0  0  0  0  0  0  0  0  0  0  0  0
  152.6645  139.2891  161.3484 H   0  0  0  0  0  0  0  0  0  0  0  0
  154.2871  139.7822  161.8161 H   0  0  0  0  0  0  0  0  0  0  0  0
  154.0519  138.3339  160.8424 H   0  0  0  0  0  0  0  0  0  0  0  0
  155.6857  140.0163  160.1466 H   0  0  0  0  0  0  0  0  0  0  0  0
  153.1619  140.0759  157.6408 H   0  0  0  0  0  0  0  0  0  0  0  0
  153.4888  138.5302  158.3994 H   0  0  0  0  0  0  0  0  0  0  0  0
  151.4347  138.7688  159.6927 H   0  0  0  0  0  0  0  0  0  0  0  0
  149.8790  142.6046  156.6620 H   0  0  0  0  0  0  0  0  0  0  0  0
  147.7969  136.5192  156.4749 H   0  0  0  0  0  0  0  0  0  0  0  0
  143.4630  136.2408  154.1681 H   0  0  0  0  0  0  0  0  0  0  0  0
  143.3756  137.8868  154.7774 H   0  0  0  0  0  0  0  0  0  0  0  0
  143.7697  138.6032  152.9231 H   0  0  0  0  0  0  0  0  0  0  0  0
  147.0092  135.9687  152.2451 H   0  0  0  0  0  0  0  0  0  0  0  0
  148.5979  137.5490  152.7696 H   0  0  0  0  0  0  0  0  0  0  0  0
  153.3718  141.0645  162.9138 H   0  0  0  0  0  0  0  0  0  0  0  0
  153.4822  142.7879  163.2667 H   0  0  0  0  0  0  0  0  0  0  0  0
  154.8739  141.9365  162.5971 H   0  0  0  0  0  0  0  0  0  0  0  0
  1  2  1  0  0  0  0
  1 35  1  0  0  0  0
  1 36  1  0  0  0  0
  1 37  1  0  0  0  0
  2 30  1  0  0  0  0
  2  3  2  0  0  0  0
  3  4  1  0  0  0  0
  3 38  1  0  0  0  0
  4  5  1  0  0  0  0
  4 28  2  0  0  0  0
  5  6  1  0  0  0  0
  5  7  1  0  0  0  0
  5  8  1  0  0  0  0
  6 39  1  0  0  0  0
  6 40  1  0  0  0  0
  6 41  1  0  0  0  0
  7 42  1  0  0  0  0
  8  9  1  0  0  0  0
  8 43  1  0  0  0  0
  8 44  1  0  0  0  0
  9 10  1  0  0  0  0
  9 45  1  0  0  0  0
 10 15  1  0  0  0  0
 10 11  2  0  0  0  0
 11 12  1  0  0  0  0
 12 13  2  0  0  0  0
 12 46  1  0  0  0  0
 13 14  1  0  0  0  0
 14 18  1  0  0  0  0
 14 15  2  0  0  0  0
 15 16  1  0  0  0  0
 16 17  2  0  0  0  0
 17 18  1  0  0  0  0
 17 47  1  0  0  0  0
 18 19  1  0  0  0  0
 19 31  1  0  0  0  0
 19 26  1  0  0  0  0
 19 20  1  0  0  0  0
 20 21  1  0  0  0  0
 21 32  1  0  0  0  0
 21 22  1  0  0  0  0
 21 24  1  0  0  0  0
 22 23  1  0  0  0  0
 22 48  1  0  0  0  0
 22 49  1  0  0  0  0
 23 50  1  0  0  0  0
 24 33  1  0  0  0  0
 24 25  1  0  0  0  0
 24 26  1  0  0  0  0
 25 51  1  0  0  0  0
 26 34  1  0  0  0  0
 26 27  1  0  0  0  0
 27 52  1  0  0  0  0
 28 29  1  0  0  0  0
 28 30  1  0  0  0  0
 29 53  1  0  0  0  0
 29 54  1  0  0  0  0
 29 55  1  0  0  0  0
M  END
> <s_m_source_file>
AV-unprocessed.smi

> <i_m_source_file_index>
287

> <i_lp_mmshare_version>
43012

> <i_f3d_flags>
0

> <s_epik_input>
W0NIM11jMVtjSF1jKGMobzEpW0NIM10pW0NAQF0oW0NIM10pKFtPSF0pW0NIMl1bTkhdYyhuW2NIXW4yKWMoYzIzKW5bY0hdbjNbQ0BASF00T1tDQEhdKFtDSDJdW09IXSlbQ0BASF0oW09IXSlbQ0BIXTRbT0hd

> <s_epik_cmdline>
J2VwaWtfcHl0aG9uJywgJy1waCcsICc3LjAnLCAnLXRuJywgJzgnLCAnLW1hJywgJzIwMCcsICctbWV0YWxfYmluZGluZycsICctaW1hZScsICc8aW5maWxlLm1hZT4nLCAnLW9tYWUnLCAnPG91dGZpbGUubWFlPic=

> <r_lp_tautomer_probability>
1

> <r_epik_Ionization_Penalty>
0.000992612

> <r_epik_Ionization_Penalty_Charging>
0

> <r_epik_Ionization_Penalty_Neutral>
0.000992612

> <r_epik_State_Penalty>
-0

> <r_epik_Charging_Adjusted_Penalty>
0

> <i_epik_Tot_Q>
0

> <i_epik_Tot_abs_Q>
0

> <r_epik_Metal_State_Penalty>
-0

> <b_epik_Metal_Only>
0

> <s_epik_Chemistry_Notes>
This compound contains an acetal/aminal-like group ( X-CH(R)-Y where X, Y are N, S, or O) that may be acid/base labile, releasing an aldehyde.

> <s_lp_Force_Field>
OPLS_2005

> <r_lp_Energy>
45.8493

> <b_lp_Chiralities_Consistent>
1

> <s_lp_Variant>
AV-unprocessed.smi:287-22

> <Gold.Version>
5.8.1

> <Gold.Id.Protein>
6NUR|6NUR_protein|mol2

> <Gold.PLP.Fitness>
50.6188

> <Gold.PLP.PLP>
-40.1563

> <Gold.PLP.part.hbond>
-5.7604

> <Gold.PLP.part.metal>
0.0000

> <Gold.PLP.part.buried>
-3.9051

> <Gold.PLP.part.nonpolar>
-30.2269

> <Gold.PLP.part.repulsive>
0.3469

> <Gold.PLP.ligand.clash>
0.0000

> <Gold.PLP.ligand.torsion>
2.3631

> <Gold.PLP.Chemscore.Hbond>
3.9920

> <Gold.PLP.Chemscore.CHOScore>
1.0000

> <Gold.PLP.Chemscore.Metal>
0.0000

> <Gold.Chemscore.Hbonds>
donor molecule, donor type, donor heavy atom, donor atom, acceptor molecule, acceptor atom, score
      L1  H    23    50       P1 10175  1.00
      L1  H    25    51       P1  7948  1.00
      L1  H    27    52       P1  7948  1.00
      P1  H  7997  8009       L1     7  0.96
      L1  C    12    46       P1  8028  0.97

> <Gold.PLP.Chemscore.Internal.Correction>
0.2128

> <Gold.Rescore>
     Score         DG    S(hbond)    S(metal)    S(lipo)     H(rot)  DE(clash)    DE(int)     intcor
     12.01     -15.85       3.73        0.00      97.51       5.27       0.02       3.82       ----

> <Gold.Chemscore.Fitness>
12.0143

> <Gold.Chemscore.DG>
-15.8535

> <Gold.Chemscore.ZeroCoef>
-5.4800

> <Gold.Chemscore.Hbond>
3.7273

> <Gold.Chemscore.Metal>
0.0000

> <Gold.Chemscore.Lipo>
97.5070

> <Gold.Chemscore.Internal_Hbond>
0.0000

> <Gold.Chemscore.DEClash>
0.0158

> <Gold.Chemscore.DEInternal>
3.8234

> <Gold.Chemscore.Rot>
5.2672

> <Gold.Chemscore.Internal.Correction>
   9.000000E+99

> <Gold.Chemscore.Hbonds>
donor molecule, donor type, donor heavy atom, donor atom, acceptor molecule, acceptor atom, score
      L1  H    23    50       P1 10175  0.98
      L1  H    25    51       P1  7948  0.93
      L1  H    27    52       P1  7948  0.99
      P1  H  7997  8009       L1     7  0.53

> <Gold.Chemscore.Hbond.Weighted>
-12.4491

> <Gold.Chemscore.Metal.Weighted>
-0.0000

> <Gold.Chemscore.Lipo.Weighted>
-11.4083

> <Gold.Chemscore.Internal_Hbond.Weighted>
0.0000

> <Gold.Chemscore.DEClash.Weighted>
0.0158

> <Gold.Chemscore.DEInternal.Weighted>
3.8234

> <Gold.Chemscore.Rot.Weighted>
13.4839

> <Gold.Chemscore.Internal.Correction.Weighted>
   9.000000E+99

> <Gold.Protein.RotatedTorsions>
[ 6907 6896 6895 6894 ] final  -10.83 input  -60.11 | X-H torsion
[ 7974 7965 7964 7962 ] final  -53.03 input  175.53 | X-H torsion
[ 8008 7997 7996 7995 ] final  111.55 input   59.86 | X-H torsion
[ 10167 10162 10161 10158 ] final -130.22 input  -65.29 | X-H torsion
[ 10718 10713 10712 10709 ] final   73.41 input   66.30 | X-H torsion
[ 10763 10752 10751 10750 ] final -137.28 input  -60.55 | X-H torsion
[ 11005 11000 10999 10996 ] final    6.04 input  -57.11 | X-H torsion

> <Gold.Protein.ActiveResidues>
 VAL166  LYS551  ARG553  GLY616  TRP617  ASP618  TYR619  PRO620  LYS621  CYS622 
 ASP623  PHE694  ASN695  SER759  ASP760  ASP761  ALA762  ILE779  LEU786  VAL792 
 PHE793  MET794  SER795  GLU796  ALA797  LYS798  CYS799  TRP800  GLU811  SER814 

> <Gold.Protein.RotatedAtoms>
  151.3958  135.0963  159.9540 H   0  0  0  0  0  0  0  0  0  0  0  0  # atno 6907 bound_to 6896
  152.5066  133.8936  159.7416 H   0  0  0  0  0  0  0  0  0  0  0  0  # atno 6908 bound_to 6896
  150.9399  133.6612  159.2821 H   0  0  0  0  0  0  0  0  0  0  0  0  # atno 6909 bound_to 6896
  145.9014  140.7991  142.9741 H   0  0  0  0  0  0  0  0  0  0  0  0  # atno 7974 bound_to 7965
  156.2132  140.3017  155.9779 H   0  0  0  0  0  0  0  0  0  0  0  0  # atno 8008 bound_to 7997
  155.2672  140.0432  157.3020 H   0  0  0  0  0  0  0  0  0  0  0  0  # atno 8009 bound_to 7997
  154.5729  140.2353  155.8173 H   0  0  0  0  0  0  0  0  0  0  0  0  # atno 8010 bound_to 7997
  139.9316  143.6265  152.2528 H   0  0  0  0  0  0  0  0  0  0  0  0  # atno 10167 bound_to 10162
  157.6546  130.9627  150.1065 H   0  0  0  0  0  0  0  0  0  0  0  0  # atno 10718 bound_to 10713
  154.8665  135.3647  154.5197 H   0  0  0  0  0  0  0  0  0  0  0  0  # atno 10763 bound_to 10752
  153.5828  135.7018  153.5461 H   0  0  0  0  0  0  0  0  0  0  0  0  # atno 10764 bound_to 10752
  153.3442  135.4090  155.1558 H   0  0  0  0  0  0  0  0  0  0  0  0  # atno 10765 bound_to 10752
  140.5640  134.0165  155.7982 H   0  0  0  0  0  0  0  0  0  0  0  0  # atno 11005 bound_to 11000
  144.6736  140.1683  143.7416 LP  0  0  0  0  0  0  0  0  0  0  0  0  # atno 17320 bound_to 7965
  145.8786  139.2310  143.1619 LP  0  0  0  0  0  0  0  0  0  0  0  0  # atno 17321 bound_to 7965
  139.6777  144.7657  151.1665 LP  0  0  0  0  0  0  0  0  0  0  0  0  # atno 17342 bound_to 10162
  140.7636  143.5770  150.8935 LP  0  0  0  0  0  0  0  0  0  0  0  0  # atno 17343 bound_to 10162
  156.1973  130.3658  149.8832 LP  0  0  0  0  0  0  0  0  0  0  0  0  # atno 17370 bound_to 10713
  156.6745  130.8833  151.3567 LP  0  0  0  0  0  0  0  0  0  0  0  0  # atno 17371 bound_to 10713
  141.1097  133.9636  157.2932 LP  0  0  0  0  0  0  0  0  0  0  0  0  # atno 17394 bound_to 11000
  139.9394  135.0193  156.8660 LP  0  0  0  0  0  0  0  0  0  0  0  0  # atno 17395 bound_to 11000

$$$$
