AV-unprocessed.smi:1830|AV-procd|sdf|7432|dock8
  -GOLD-   22720 9113D 1   1.00000     0.00000
 Structure written by MMmdl.
 53 56  0  0  0  0  0  0  0  0  2 V2000
  145.6671  137.2191  154.0055 O   0  0  0  0  0  0  0  0  0  0  0  0
  146.7905  136.8210  153.6971 C   0  0  0  0  0  0  0  0  0  0  0  0
  147.0469  135.5857  153.2456 N   0  0  0  0  0  0  0  0  0  0  0  0
  146.0316  134.6025  152.8781 C   0  0  0  0  0  0  0  0  0  0  0  0
  146.6479  133.2260  152.5488 C   0  0  2  0  0  0  0  0  0  0  0  0
  145.5992  132.1840  152.0761 C   0  0  0  0  0  0  0  0  0  0  0  0
  146.2633  130.8768  151.9275 N   0  3  2  0  0  0  0  0  0  0  0  0
  145.4492  129.7286  151.4903 C   0  0  0  0  0  0  0  0  0  0  0  0
  146.1662  128.4883  152.0611 C   0  0  0  0  0  0  0  0  0  0  0  0
  147.3403  129.0322  152.8928 C   0  0  0  0  0  0  0  0  0  0  0  0
  146.9151  130.4687  153.1738 C   0  0  1  0  0  0  0  0  0  0  0  0
  148.0008  131.4922  153.5233 C   0  0  0  0  0  0  0  0  0  0  0  0
  147.3566  132.7535  153.7012 O   0  0  0  0  0  0  0  0  0  0  0  0
  147.9023  137.5717  153.7188 N   0  0  0  0  0  0  0  0  0  0  0  0
  147.9361  138.9866  153.8219 C   0  0  0  0  0  0  0  0  0  0  0  0
  146.8474  139.7580  153.3527 C   0  0  0  0  0  0  0  0  0  0  0  0
  146.8691  141.1526  153.5231 C   0  0  0  0  0  0  0  0  0  0  0  0
  147.9764  141.7239  154.1722 C   0  0  0  0  0  0  0  0  0  0  0  0
  149.0167  140.9994  154.6321 N   0  0  0  0  0  0  0  0  0  0  0  0
  149.0204  139.6540  154.4617 C   0  0  0  0  0  0  0  0  0  0  0  0
  150.1551  138.9559  154.9401 N   0  0  0  0  0  0  0  0  0  0  0  0
  151.1318  139.6233  155.7948 C   0  0  0  0  0  0  0  0  0  0  0  0
  152.3594  138.7156  155.7834 C   0  0  0  0  0  0  0  0  0  0  0  0
  152.3427  138.1594  154.3635 C   0  0  0  0  0  0  0  0  0  0  0  0
  150.8501  138.0339  154.0471 C   0  0  0  0  0  0  0  0  0  0  0  0
  148.0065  135.3446  153.0452 H   0  0  0  0  0  0  0  0  0  0  0  0
  145.3482  134.5024  153.7216 H   0  0  0  0  0  0  0  0  0  0  0  0
  145.4321  134.9631  152.0407 H   0  0  0  0  0  0  0  0  0  0  0  0
  147.3805  133.3683  151.7526 H   0  0  0  0  0  0  0  0  0  0  0  0
  144.7833  132.0876  152.7922 H   0  0  0  0  0  0  0  0  0  0  0  0
  145.1606  132.4855  151.1244 H   0  0  0  0  0  0  0  0  0  0  0  0
  144.4409  129.8018  151.8999 H   0  0  0  0  0  0  0  0  0  0  0  0
  145.3724  129.7025  150.4031 H   0  0  0  0  0  0  0  0  0  0  0  0
  145.4805  127.9220  152.6926 H   0  0  0  0  0  0  0  0  0  0  0  0
  146.5158  127.8200  151.2737 H   0  0  0  0  0  0  0  0  0  0  0  0
  147.5177  128.4576  153.8026 H   0  0  0  0  0  0  0  0  0  0  0  0
  148.2556  129.0179  152.2995 H   0  0  0  0  0  0  0  0  0  0  0  0
  146.1702  130.4529  153.9725 H   0  0  0  0  0  0  0  0  0  0  0  0
  148.5068  131.2153  154.4483 H   0  0  0  0  0  0  0  0  0  0  0  0
  148.7585  131.5580  152.7410 H   0  0  0  0  0  0  0  0  0  0  0  0
  148.7444  137.1368  153.3710 H   0  0  0  0  0  0  0  0  0  0  0  0
  145.9955  139.2907  152.8808 H   0  0  0  0  0  0  0  0  0  0  0  0
  146.0521  141.7671  153.1747 H   0  0  0  0  0  0  0  0  0  0  0  0
  148.0286  142.7912  154.3288 H   0  0  0  0  0  0  0  0  0  0  0  0
  151.3980  140.5983  155.3844 H   0  0  0  0  0  0  0  0  0  0  0  0
  150.7446  139.7687  156.8036 H   0  0  0  0  0  0  0  0  0  0  0  0
  153.2814  139.2445  156.0256 H   0  0  0  0  0  0  0  0  0  0  0  0
  152.2318  137.9055  156.5028 H   0  0  0  0  0  0  0  0  0  0  0  0
  152.8038  138.8762  153.6830 H   0  0  0  0  0  0  0  0  0  0  0  0
  152.8773  137.2140  154.2692 H   0  0  0  0  0  0  0  0  0  0  0  0
  150.5104  137.0221  154.2667 H   0  0  0  0  0  0  0  0  0  0  0  0
  150.6470  138.2434  152.9961 H   0  0  0  0  0  0  0  0  0  0  0  0
  146.9984  130.9852  151.2434 H   0  0  0  0  0  0  0  0  0  0  0  0
  1  2  2  0  0  0  0
  2  3  1  0  0  0  0
  2 14  1  0  0  0  0
  3  4  1  0  0  0  0
  3 26  1  0  0  0  0
  4  5  1  0  0  0  0
  4 27  1  0  0  0  0
  4 28  1  0  0  0  0
  5 13  1  0  0  0  0
  5  6  1  0  0  0  0
  5 29  1  0  0  0  0
  6  7  1  0  0  0  0
  6 30  1  0  0  0  0
  6 31  1  0  0  0  0
  7 11  1  0  0  0  0
  7  8  1  0  0  0  0
  7 53  1  0  0  0  0
  8  9  1  0  0  0  0
  8 32  1  0  0  0  0
  8 33  1  0  0  0  0
  9 10  1  0  0  0  0
  9 34  1  0  0  0  0
  9 35  1  0  0  0  0
 10 11  1  0  0  0  0
 10 36  1  0  0  0  0
 10 37  1  0  0  0  0
 11 12  1  0  0  0  0
 11 38  1  0  0  0  0
 12 13  1  0  0  0  0
 12 39  1  0  0  0  0
 12 40  1  0  0  0  0
 14 15  1  0  0  0  0
 14 41  1  0  0  0  0
 15 20  1  0  0  0  0
 15 16  2  0  0  0  0
 16 17  1  0  0  0  0
 16 42  1  0  0  0  0
 17 18  2  0  0  0  0
 17 43  1  0  0  0  0
 18 19  1  0  0  0  0
 18 44  1  0  0  0  0
 19 20  2  0  0  0  0
 20 21  1  0  0  0  0
 21 25  1  0  0  0  0
 21 22  1  0  0  0  0
 22 23  1  0  0  0  0
 22 45  1  0  0  0  0
 22 46  1  0  0  0  0
 23 24  1  0  0  0  0
 23 47  1  0  0  0  0
 23 48  1  0  0  0  0
 24 25  1  0  0  0  0
 24 49  1  0  0  0  0
 24 50  1  0  0  0  0
 25 51  1  0  0  0  0
 25 52  1  0  0  0  0
M  CHG  1   7   1
M  END
> <s_m_source_file>
AV-unprocessed.smi

> <i_m_source_file_index>
1830

> <i_lp_mmshare_version>
43012

> <i_f3d_flags>
0

> <s_epik_input>
W0NIMl0xW0NIMl1bQ0gyXVtDQEhdKE4xMilbQ0gyXU9bQ0BASF0oW0NIMl0yKVtDSDJdW05IXUMoPU8pW05IXWMzW2NIXVtjSF1bY0hdbmMzTjRbQ0gyXVtDSDJdW0NIMl1bQ0gyXTQ=

> <s_epik_cmdline>
J2VwaWtfcHl0aG9uJywgJy1waCcsICc3LjAnLCAnLXRuJywgJzgnLCAnLW1hJywgJzIwMCcsICctbWV0YWxfYmluZGluZycsICctaW1hZScsICc8aW5maWxlLm1hZT4nLCAnLW9tYWUnLCAnPG91dGZpbGUubWFlPic=

> <r_lp_tautomer_probability>
1

> <r_epik_Ionization_Penalty>
0.193547

> <r_epik_Ionization_Penalty_Charging>
0.10673

> <r_epik_Ionization_Penalty_Neutral>
0.0868166

> <r_epik_State_Penalty>
0.173595

> <r_epik_Charging_Adjusted_Penalty>
0.280326

> <i_epik_Tot_Q>
1

> <i_epik_Tot_abs_Q>
1

> <r_epik_Metal_State_Penalty>
0.164683

> <b_epik_Metal_Only>
0

> <s_lp_Force_Field>
OPLS_2005

> <r_lp_Energy>
64.1667

> <b_lp_Chiralities_Consistent>
1

> <s_lp_Variant>
AV-unprocessed.smi:1830-1

> <Gold.Version>
5.8.1

> <Gold.Id.Protein>
6NUR|6NUR_protein|mol2

> <Gold.PLP.Fitness>
49.6622

> <Gold.PLP.PLP>
-40.7113

> <Gold.PLP.part.hbond>
-2.1852

> <Gold.PLP.part.metal>
0.0000

> <Gold.PLP.part.buried>
-2.9208

> <Gold.PLP.part.nonpolar>
-34.5703

> <Gold.PLP.part.repulsive>
0.4619

> <Gold.PLP.ligand.clash>
0.0000

> <Gold.PLP.ligand.torsion>
0.3881

> <Gold.PLP.Chemscore.Hbond>
2.0880

> <Gold.PLP.Chemscore.CHOScore>
1.0000

> <Gold.PLP.Chemscore.Metal>
0.0000

> <Gold.Chemscore.Hbonds>
donor molecule, donor type, donor heavy atom, donor atom, acceptor molecule, acceptor atom, score
      L1  H     3    26       P1  7948  0.45
      L1  H     7    53       P1 10747  0.57
      L1  H    14    41       P1  7948  0.58
      L1  C    18    44       P1  8028  1.00

> <Gold.PLP.Chemscore.Internal.Correction>
0.4630

> <Gold.Rescore>
     Score         DG    S(hbond)    S(metal)    S(lipo)     H(rot)  DE(clash)    DE(int)     intcor
     18.77     -21.77       2.08        0.00     110.63       1.41       1.18       1.82       ----

> <Gold.Chemscore.Fitness>
18.7740

> <Gold.Chemscore.DG>
-21.7735

> <Gold.Chemscore.ZeroCoef>
-5.4800

> <Gold.Chemscore.Hbond>
2.0812

> <Gold.Chemscore.Metal>
0.0000

> <Gold.Chemscore.Lipo>
110.6264

> <Gold.Chemscore.Internal_Hbond>
0.0000

> <Gold.Chemscore.DEClash>
1.1809

> <Gold.Chemscore.DEInternal>
1.8186

> <Gold.Chemscore.Rot>
1.4067

> <Gold.Chemscore.Internal.Correction>
   9.000000E+99

> <Gold.Chemscore.Hbonds>
donor molecule, donor type, donor heavy atom, donor atom, acceptor molecule, acceptor atom, score
      L1  H     3    26       P1  7948  0.46
      L1  H     7    53       P1 10747  0.56
      L1  H    14    41       P1  7948  0.58

> <Gold.Chemscore.Hbond.Weighted>
-6.9514

> <Gold.Chemscore.Metal.Weighted>
-0.0000

> <Gold.Chemscore.Lipo.Weighted>
-12.9433

> <Gold.Chemscore.Internal_Hbond.Weighted>
0.0000

> <Gold.Chemscore.DEClash.Weighted>
1.1809

> <Gold.Chemscore.DEInternal.Weighted>
1.8186

> <Gold.Chemscore.Rot.Weighted>
3.6011

> <Gold.Chemscore.Internal.Correction.Weighted>
   9.000000E+99

> <Gold.Protein.RotatedTorsions>
[ 6907 6896 6895 6894 ] final   25.58 input  -60.11 | X-H torsion
[ 7974 7965 7964 7962 ] final  -39.25 input  175.53 | X-H torsion
[ 8008 7997 7996 7995 ] final  -27.47 input   59.86 | X-H torsion
[ 10167 10162 10161 10158 ] final  -92.07 input  -65.29 | X-H torsion
[ 10718 10713 10712 10709 ] final  136.00 input   66.30 | X-H torsion
[ 10763 10752 10751 10750 ] final    5.00 input  -60.55 | X-H torsion
[ 11005 11000 10999 10996 ] final  140.22 input  -57.11 | X-H torsion

> <Gold.Protein.ActiveResidues>
 VAL166  LYS551  ARG553  GLY616  TRP617  ASP618  TYR619  PRO620  LYS621  CYS622 
 ASP623  PHE694  ASN695  SER759  ASP760  ASP761  ALA762  ILE779  LEU786  VAL792 
 PHE793  MET794  SER795  GLU796  ALA797  LYS798  CYS799  TRP800  GLU811  SER814 

> <Gold.Protein.RotatedAtoms>
  151.9747  135.0059  160.0554 H   0  0  0  0  0  0  0  0  0  0  0  0  # atno 6907 bound_to 6896
  152.1751  133.4664  159.4937 H   0  0  0  0  0  0  0  0  0  0  0  0  # atno 6908 bound_to 6896
  150.6908  134.1822  159.4296 H   0  0  0  0  0  0  0  0  0  0  0  0  # atno 6909 bound_to 6896
  146.0413  140.6604  142.9086 H   0  0  0  0  0  0  0  0  0  0  0  0  # atno 7974 bound_to 7965
  154.4376  140.1871  156.0936 H   0  0  0  0  0  0  0  0  0  0  0  0  # atno 8008 bound_to 7997
  156.0346  140.3326  155.7151 H   0  0  0  0  0  0  0  0  0  0  0  0  # atno 8009 bound_to 7997
  155.5789  140.0620  157.2779 H   0  0  0  0  0  0  0  0  0  0  0  0  # atno 8010 bound_to 7997
  140.3385  143.2955  151.9862 H   0  0  0  0  0  0  0  0  0  0  0  0  # atno 10167 bound_to 10162
  157.4512  131.1066  151.0031 H   0  0  0  0  0  0  0  0  0  0  0  0  # atno 10718 bound_to 10713
  153.2645  135.6926  153.7543 H   0  0  0  0  0  0  0  0  0  0  0  0  # atno 10763 bound_to 10752
  153.6590  135.3363  155.3122 H   0  0  0  0  0  0  0  0  0  0  0  0  # atno 10764 bound_to 10752
  154.8442  135.4472  154.1647 H   0  0  0  0  0  0  0  0  0  0  0  0  # atno 10765 bound_to 10752
  140.0311  134.9351  157.0664 H   0  0  0  0  0  0  0  0  0  0  0  0  # atno 11005 bound_to 11000
  144.7076  140.3913  143.7106 LP  0  0  0  0  0  0  0  0  0  0  0  0  # atno 17320 bound_to 7965
  145.6879  139.1632  143.2663 LP  0  0  0  0  0  0  0  0  0  0  0  0  # atno 17321 bound_to 7965
  139.4844  144.6176  151.7316 LP  0  0  0  0  0  0  0  0  0  0  0  0  # atno 17342 bound_to 10162
  140.5331  144.0699  150.6060 LP  0  0  0  0  0  0  0  0  0  0  0  0  # atno 17343 bound_to 10162
  157.0860  130.5922  149.5430 LP  0  0  0  0  0  0  0  0  0  0  0  0  # atno 17370 bound_to 10713
  155.9988  130.5063  150.7584 LP  0  0  0  0  0  0  0  0  0  0  0  0  # atno 17371 bound_to 10713
  140.4224  134.1867  155.7165 LP  0  0  0  0  0  0  0  0  0  0  0  0  # atno 17394 bound_to 11000
  141.1831  133.8370  157.1185 LP  0  0  0  0  0  0  0  0  0  0  0  0  # atno 17395 bound_to 11000

$$$$
