AV-unprocessed.smi:774|AV-procd|sdf|3694|dock9
  -GOLD-   22720 1113D 1   1.00000     0.00000
 Structure written by MMmdl.
 37 38  0  0  0  0  0  0  0  0  1 V2000
  146.1137  129.4688  151.7677 C   0  0  0  0  0  0  0  0  0  0  0  0
  146.0913  130.9985  151.8242 C   0  0  0  0  0  0  0  0  0  0  0  0
  145.3703  131.7082  150.3185 S   0  0  0  0  0  0  0  0  0  0  0  0
  145.5487  133.4814  150.6704 C   0  0  1  0  0  0  0  0  0  0  0  0
  144.2614  134.2727  150.4443 C   0  0  0  0  0  0  0  0  0  0  0  0
  144.4569  135.5549  151.2544 C   0  0  0  0  0  0  0  0  0  0  0  0
  145.3718  135.1776  152.4345 C   0  0  2  0  0  0  0  0  0  0  0  0
  146.4708  136.1311  152.5663 N   0  0  0  0  0  0  0  0  0  0  0  0
  146.3862  137.3275  153.1649 C   0  0  0  0  0  0  0  0  0  0  0  0
  145.3569  137.7558  153.6871 O   0  0  0  0  0  0  0  0  0  0  0  0
  147.5659  137.9708  153.1363 N   0  0  0  0  0  0  0  0  0  0  0  0
  147.8660  139.2746  153.6138 C   0  0  0  0  0  0  0  0  0  0  0  0
  149.1240  139.6536  154.1409 C   0  0  0  0  0  0  0  0  0  0  0  0
  149.2960  140.9709  154.6078 C   0  0  0  0  0  0  0  0  0  0  0  0
  148.2041  141.8576  154.5365 C   0  0  0  0  0  0  0  0  0  0  0  0
  146.9955  141.5058  154.0493 N   0  0  0  0  0  0  0  0  0  0  0  0
  146.8375  140.2406  153.6052 C   0  0  0  0  0  0  0  0  0  0  0  0
  145.8924  133.7577  152.1367 C   0  0  0  0  0  0  0  0  0  0  0  0
  146.5505  129.0534  152.6760 H   0  0  0  0  0  0  0  0  0  0  0  0
  146.7049  129.1160  150.9225 H   0  0  0  0  0  0  0  0  0  0  0  0
  145.1067  129.0633  151.6664 H   0  0  0  0  0  0  0  0  0  0  0  0
  145.5137  131.3323  152.6866 H   0  0  0  0  0  0  0  0  0  0  0  0
  147.1057  131.3769  151.9483 H   0  0  0  0  0  0  0  0  0  0  0  0
  146.3400  133.8902  150.0404 H   0  0  0  0  0  0  0  0  0  0  0  0
  144.0685  134.4757  149.3907 H   0  0  0  0  0  0  0  0  0  0  0  0
  143.4088  133.7179  150.8385 H   0  0  0  0  0  0  0  0  0  0  0  0
  144.9331  136.3054  150.6212 H   0  0  0  0  0  0  0  0  0  0  0  0
  143.5066  135.9732  151.5878 H   0  0  0  0  0  0  0  0  0  0  0  0
  144.7824  135.1605  153.3533 H   0  0  0  0  0  0  0  0  0  0  0  0
  147.3585  135.8589  152.1704 H   0  0  0  0  0  0  0  0  0  0  0  0
  148.3500  137.4510  152.7698 H   0  0  0  0  0  0  0  0  0  0  0  0
  149.9481  138.9605  154.2104 H   0  0  0  0  0  0  0  0  0  0  0  0
  150.2427  141.2922  155.0162 H   0  0  0  0  0  0  0  0  0  0  0  0
  148.3022  142.8747  154.8862 H   0  0  0  0  0  0  0  0  0  0  0  0
  145.8565  139.9933  153.2260 H   0  0  0  0  0  0  0  0  0  0  0  0
  145.3664  133.0493  152.7784 H   0  0  0  0  0  0  0  0  0  0  0  0
  146.9578  133.6353  152.3364 H   0  0  0  0  0  0  0  0  0  0  0  0
  1  2  1  0  0  0  0
  1 19  1  0  0  0  0
  1 20  1  0  0  0  0
  1 21  1  0  0  0  0
  2  3  1  0  0  0  0
  2 22  1  0  0  0  0
  2 23  1  0  0  0  0
  3  4  1  0  0  0  0
  4 18  1  0  0  0  0
  4  5  1  0  0  0  0
  4 24  1  0  0  0  0
  5  6  1  0  0  0  0
  5 25  1  0  0  0  0
  5 26  1  0  0  0  0
  6  7  1  0  0  0  0
  6 27  1  0  0  0  0
  6 28  1  0  0  0  0
  7  8  1  0  0  0  0
  7 18  1  0  0  0  0
  7 29  1  0  0  0  0
  8  9  1  0  0  0  0
  8 30  1  0  0  0  0
  9 10  2  0  0  0  0
  9 11  1  0  0  0  0
 11 12  1  0  0  0  0
 11 31  1  0  0  0  0
 12 17  1  0  0  0  0
 12 13  2  0  0  0  0
 13 14  1  0  0  0  0
 13 32  1  0  0  0  0
 14 15  2  0  0  0  0
 14 33  1  0  0  0  0
 15 16  1  0  0  0  0
 15 34  1  0  0  0  0
 16 17  2  0  0  0  0
 17 35  1  0  0  0  0
 18 36  1  0  0  0  0
 18 37  1  0  0  0  0
M  END
> <s_m_source_file>
AV-unprocessed.smi

> <i_m_source_file_index>
774

> <i_lp_mmshare_version>
43012

> <i_f3d_flags>
0

> <s_epik_input>
W0NIM11bQ0gyXVNbQ0BASF0xW0NIMl1bQ0gyXVtDQEhdKFtDSDJdMSlbTkhdQyg9TylbTkhdYzJbY0hdW2NIXVtjSF1uW2NIXTI=

> <s_epik_cmdline>
J2VwaWtfcHl0aG9uJywgJy1waCcsICc3LjAnLCAnLXRuJywgJzgnLCAnLW1hJywgJzIwMCcsICctbWV0YWxfYmluZGluZycsICctaW1hZScsICc8aW5maWxlLm1hZT4nLCAnLW9tYWUnLCAnPG91dGZpbGUubWFlPic=

> <r_epik_Ionization_Penalty>
0.00485718

> <r_epik_Ionization_Penalty_Charging>
0

> <r_epik_Ionization_Penalty_Neutral>
0.00485718

> <r_epik_State_Penalty>
0.00349461

> <r_epik_Charging_Adjusted_Penalty>
0.00349461

> <i_epik_Tot_Q>
0

> <i_epik_Tot_abs_Q>
0

> <r_epik_Metal_State_Penalty>
-0

> <b_epik_Metal_Only>
0

> <s_lp_Force_Field>
OPLS_2005

> <r_lp_Energy>
19.7013

> <b_lp_Chiralities_Consistent>
1

> <s_lp_Variant>
AV-unprocessed.smi:774-4

> <Gold.Version>
5.8.1

> <Gold.Id.Protein>
6NUR|6NUR_protein|mol2

> <Gold.PLP.Fitness>
41.4012

> <Gold.PLP.PLP>
-31.7920

> <Gold.PLP.part.hbond>
-2.0000

> <Gold.PLP.part.metal>
0.0000

> <Gold.PLP.part.buried>
-0.5198

> <Gold.PLP.part.nonpolar>
-30.2413

> <Gold.PLP.part.repulsive>
0.4290

> <Gold.PLP.ligand.clash>
0.0000

> <Gold.PLP.ligand.torsion>
1.1541

> <Gold.PLP.Chemscore.Hbond>
1.9680

> <Gold.PLP.Chemscore.CHOScore>
2.0000

> <Gold.PLP.Chemscore.Metal>
0.0000

> <Gold.Chemscore.Hbonds>
donor molecule, donor type, donor heavy atom, donor atom, acceptor molecule, acceptor atom, score
      L1  H     8    30       P1  7948  1.00
      L1  H    11    31       P1  7948  1.00
      L1  C    15    34       P1  8028  1.00
      L1  C    17    35       P1 10175  1.00

> <Gold.PLP.Chemscore.Internal.Correction>
0.0134

> <Gold.Rescore>
     Score         DG    S(hbond)    S(metal)    S(lipo)     H(rot)  DE(clash)    DE(int)     intcor
     16.43     -18.94       1.90        0.00      89.51       1.30       0.14       2.37       ----

> <Gold.Chemscore.Fitness>
16.4318

> <Gold.Chemscore.DG>
-18.9444

> <Gold.Chemscore.ZeroCoef>
-5.4800

> <Gold.Chemscore.Hbond>
1.8952

> <Gold.Chemscore.Metal>
0.0000

> <Gold.Chemscore.Lipo>
89.5133

> <Gold.Chemscore.Internal_Hbond>
0.0000

> <Gold.Chemscore.DEClash>
0.1394

> <Gold.Chemscore.DEInternal>
2.3733

> <Gold.Chemscore.Rot>
1.3041

> <Gold.Chemscore.Internal.Correction>
   9.000000E+99

> <Gold.Chemscore.Hbonds>
donor molecule, donor type, donor heavy atom, donor atom, acceptor molecule, acceptor atom, score
      L1  H     8    30       P1  7948  0.94
      L1  H    11    31       P1  7948  0.95

> <Gold.Chemscore.Hbond.Weighted>
-6.3298

> <Gold.Chemscore.Metal.Weighted>
-0.0000

> <Gold.Chemscore.Lipo.Weighted>
-10.4731

> <Gold.Chemscore.Internal_Hbond.Weighted>
0.0000

> <Gold.Chemscore.DEClash.Weighted>
0.1394

> <Gold.Chemscore.DEInternal.Weighted>
2.3733

> <Gold.Chemscore.Rot.Weighted>
3.3384

> <Gold.Chemscore.Internal.Correction.Weighted>
   9.000000E+99

> <Gold.Protein.RotatedTorsions>
[ 6907 6896 6895 6894 ] final   35.71 input  -60.11 | X-H torsion
[ 7974 7965 7964 7962 ] final  126.31 input  175.53 | X-H torsion
[ 8008 7997 7996 7995 ] final -173.69 input   59.86 | X-H torsion
[ 10167 10162 10161 10158 ] final  141.88 input  -65.29 | X-H torsion
[ 10718 10713 10712 10709 ] final  -29.55 input   66.30 | X-H torsion
[ 10763 10752 10751 10750 ] final  -71.04 input  -60.55 | X-H torsion
[ 11005 11000 10999 10996 ] final -156.86 input  -57.11 | X-H torsion

> <Gold.Protein.ActiveResidues>
 VAL166  LYS551  ARG553  GLY616  TRP617  ASP618  TYR619  PRO620  LYS621  CYS622 
 ASP623  PHE694  ASN695  SER759  ASP760  ASP761  ALA762  ILE779  LEU786  VAL792 
 PHE793  MET794  SER795  GLU796  ALA797  LYS798  CYS799  TRP800  GLU811  SER814 

> <Gold.Protein.RotatedAtoms>
  152.1199  134.9213  160.0563 H   0  0  0  0  0  0  0  0  0  0  0  0  # atno 6907 bound_to 6896
  152.0358  133.3951  159.4324 H   0  0  0  0  0  0  0  0  0  0  0  0  # atno 6908 bound_to 6896
  150.6848  134.3391  159.4904 H   0  0  0  0  0  0  0  0  0  0  0  0  # atno 6909 bound_to 6896
  145.0631  139.3789  143.4995 H   0  0  0  0  0  0  0  0  0  0  0  0  # atno 7974 bound_to 7965
  155.9607  140.1144  157.0898 H   0  0  0  0  0  0  0  0  0  0  0  0  # atno 8008 bound_to 7997
  154.4131  140.1182  156.5241 H   0  0  0  0  0  0  0  0  0  0  0  0  # atno 8009 bound_to 7997
  155.6724  140.3473  155.4826 H   0  0  0  0  0  0  0  0  0  0  0  0  # atno 8010 bound_to 7997
  139.5009  144.6143  151.6200 H   0  0  0  0  0  0  0  0  0  0  0  0  # atno 10167 bound_to 10162
  156.4111  130.4408  149.7252 H   0  0  0  0  0  0  0  0  0  0  0  0  # atno 10718 bound_to 10713
  154.4262  135.5975  153.6040 H   0  0  0  0  0  0  0  0  0  0  0  0  # atno 10763 bound_to 10752
  152.9796  135.5964  154.3895 H   0  0  0  0  0  0  0  0  0  0  0  0  # atno 10764 bound_to 10752
  154.3727  135.2841  155.2236 H   0  0  0  0  0  0  0  0  0  0  0  0  # atno 10765 bound_to 10752
  140.6710  134.4247  157.5231 H   0  0  0  0  0  0  0  0  0  0  0  0  # atno 11005 bound_to 11000
  146.3525  140.0340  142.8648 LP  0  0  0  0  0  0  0  0  0  0  0  0  # atno 17320 bound_to 7965
  145.1384  140.9557  143.4503 LP  0  0  0  0  0  0  0  0  0  0  0  0  # atno 17321 bound_to 7965
  140.5826  143.9919  150.6277 LP  0  0  0  0  0  0  0  0  0  0  0  0  # atno 17342 bound_to 10162
  140.3073  143.3221  152.0913 LP  0  0  0  0  0  0  0  0  0  0  0  0  # atno 17343 bound_to 10162
  156.4230  130.7778  151.2796 LP  0  0  0  0  0  0  0  0  0  0  0  0  # atno 17370 bound_to 10713
  157.7507  131.0177  150.3596 LP  0  0  0  0  0  0  0  0  0  0  0  0  # atno 17371 bound_to 10713
  139.8981  134.8620  156.2013 LP  0  0  0  0  0  0  0  0  0  0  0  0  # atno 17394 bound_to 11000
  141.0392  133.6947  156.1567 LP  0  0  0  0  0  0  0  0  0  0  0  0  # atno 17395 bound_to 11000

$$$$
