AV-unprocessed.smi:2124|AV-procd|sdf|8673|dock2
  -GOLD-   2272011423D 1   1.00000     0.00000
 Structure written by MMmdl.
 46 48  0  0  0  0  0  0  0  0  2 V2000
  144.0460  146.5713  159.1440 C   0  0  0  0  0  0  0  0  0  0  0  0
  144.6554  145.2977  158.5982 C   0  0  0  0  0  0  0  0  0  0  0  0
  144.6772  145.1076  157.3340 N   0  0  0  0  0  0  0  0  0  0  0  0
  145.2423  143.9275  156.8221 C   0  0  0  0  0  0  0  0  0  0  0  0
  145.2303  143.7889  155.3096 C   0  0  0  0  0  0  0  0  0  0  0  0
  145.7651  142.9780  157.6500 C   0  0  0  0  0  0  0  0  0  0  0  0
  146.3894  141.6794  157.1406 C   0  0  0  0  0  0  0  0  0  0  0  0
  147.8340  141.4223  157.5750 C   0  0  0  0  0  0  0  0  0  0  0  0
  148.1330  140.3769  158.1525 O   0  0  0  0  0  0  0  0  0  0  0  0
  148.7186  142.3901  157.2871 N   0  0  0  0  0  0  0  0  0  0  0  0
  150.1503  142.3672  157.5831 C   0  0  1  0  0  0  0  0  0  0  0  0
  150.9107  142.0311  156.2912 C   0  0  0  0  0  0  0  0  0  0  0  0
  150.5812  143.7250  158.1896 C   0  0  1  0  0  0  0  0  0  0  0  0
  150.0710  143.9920  159.6251 C   0  0  0  0  0  0  0  0  0  0  0  0
  151.3425  144.4402  160.3687 C   0  0  1  0  0  0  0  0  0  0  0  0
  152.2366  143.2116  160.6162 C   0  0  0  0  0  0  0  0  0  0  0  0
  152.7856  142.9061  159.2110 C   0  0  0  0  0  0  0  0  0  0  0  0
  152.1030  143.9772  158.3353 C   0  0  2  0  0  0  0  0  0  0  0  0
  152.1123  145.1763  159.2784 C   0  0  0  0  0  0  0  0  0  0  0  0
  145.7163  143.2333  159.1010 C   0  0  0  0  0  0  0  0  0  0  0  0
  146.1629  142.4048  159.8937 O   0  0  0  0  0  0  0  0  0  0  0  0
  145.1610  144.4069  159.5182 N   0  5  0  0  0  0  0  0  0  0  0  0
  143.4813  147.0978  158.3735 H   0  0  0  0  0  0  0  0  0  0  0  0
  144.8293  147.2355  159.5104 H   0  0  0  0  0  0  0  0  0  0  0  0
  143.3675  146.3479  159.9679 H   0  0  0  0  0  0  0  0  0  0  0  0
  146.2481  143.7457  154.9221 H   0  0  0  0  0  0  0  0  0  0  0  0
  144.7299  144.6365  154.8401 H   0  0  0  0  0  0  0  0  0  0  0  0
  144.7039  142.8829  155.0098 H   0  0  0  0  0  0  0  0  0  0  0  0
  145.7674  140.8493  157.4773 H   0  0  0  0  0  0  0  0  0  0  0  0
  146.3480  141.6290  156.0524 H   0  0  0  0  0  0  0  0  0  0  0  0
  148.3708  143.2114  156.8140 H   0  0  0  0  0  0  0  0  0  0  0  0
  150.3561  141.5730  158.3008 H   0  0  0  0  0  0  0  0  0  0  0  0
  151.9811  141.9367  156.4737 H   0  0  0  0  0  0  0  0  0  0  0  0
  150.7673  142.8014  155.5330 H   0  0  0  0  0  0  0  0  0  0  0  0
  150.5700  141.0835  155.8725 H   0  0  0  0  0  0  0  0  0  0  0  0
  150.1856  144.5115  157.5440 H   0  0  0  0  0  0  0  0  0  0  0  0
  149.3174  144.7806  159.6225 H   0  0  0  0  0  0  0  0  0  0  0  0
  149.6257  143.1132  160.0926 H   0  0  0  0  0  0  0  0  0  0  0  0
  151.1414  145.0230  161.2680 H   0  0  0  0  0  0  0  0  0  0  0  0
  153.0499  143.4520  161.3020 H   0  0  0  0  0  0  0  0  0  0  0  0
  151.6809  142.3726  161.0369 H   0  0  0  0  0  0  0  0  0  0  0  0
  153.8681  143.0390  159.1944 H   0  0  0  0  0  0  0  0  0  0  0  0
  152.5835  141.8854  158.8893 H   0  0  0  0  0  0  0  0  0  0  0  0
  152.6095  144.1506  157.3856 H   0  0  0  0  0  0  0  0  0  0  0  0
  151.5816  146.0449  158.8844 H   0  0  0  0  0  0  0  0  0  0  0  0
  153.1146  145.4796  159.5863 H   0  0  0  0  0  0  0  0  0  0  0  0
  1  2  1  0  0  0  0
  1 23  1  0  0  0  0
  1 24  1  0  0  0  0
  1 25  1  0  0  0  0
  2 22  1  0  0  0  0
  2  3  2  0  0  0  0
  3  4  1  0  0  0  0
  4  5  1  0  0  0  0
  4  6  2  0  0  0  0
  5 26  1  0  0  0  0
  5 27  1  0  0  0  0
  5 28  1  0  0  0  0
  6  7  1  0  0  0  0
  6 20  1  0  0  0  0
  7  8  1  0  0  0  0
  7 29  1  0  0  0  0
  7 30  1  0  0  0  0
  8  9  2  0  0  0  0
  8 10  1  0  0  0  0
 10 11  1  0  0  0  0
 10 31  1  0  0  0  0
 11 12  1  0  0  0  0
 11 13  1  0  0  0  0
 11 32  1  0  0  0  0
 12 33  1  0  0  0  0
 12 34  1  0  0  0  0
 12 35  1  0  0  0  0
 13 18  1  0  0  0  0
 13 14  1  0  0  0  0
 13 36  1  0  0  0  0
 14 15  1  0  0  0  0
 14 37  1  0  0  0  0
 14 38  1  0  0  0  0
 15 19  1  0  0  0  0
 15 16  1  0  0  0  0
 15 39  1  0  0  0  0
 16 17  1  0  0  0  0
 16 40  1  0  0  0  0
 16 41  1  0  0  0  0
 17 18  1  0  0  0  0
 17 42  1  0  0  0  0
 17 43  1  0  0  0  0
 18 19  1  0  0  0  0
 18 44  1  0  0  0  0
 19 45  1  0  0  0  0
 19 46  1  0  0  0  0
 20 21  2  0  0  0  0
 20 22  1  0  0  0  0
M  CHG  1  22  -1
M  END
> <s_m_source_file>
AV-unprocessed.smi

> <i_m_source_file_index>
2124

> <i_lp_mmshare_version>
43012

> <i_f3d_flags>
0

> <s_epik_input>
W0NIM11jMW5jKFtDSDNdKWMoYyg9TylbbkhdMSlbQ0gyXUMoPU8pW05IXVtDQEhdKFtDSDNdKVtDQEhdKFtDSDJdW0NASF0yMylbQ0BIXShbQ0gyXTMpW0NIMl1bQ0gyXTI=

> <s_epik_cmdline>
J2VwaWtfcHl0aG9uJywgJy1waCcsICc3LjAnLCAnLXRuJywgJzgnLCAnLW1hJywgJzIwMCcsICctbWV0YWxfYmluZGluZycsICctaW1hZScsICc8aW5maWxlLm1hZT4nLCAnLW9tYWUnLCAnPG91dGZpbGUubWFlPic=

> <r_lp_tautomer_probability>
0.839158

> <r_epik_Ionization_Penalty>
6.63797

> <r_epik_Ionization_Penalty_Charging>
7.48558e-08

> <r_epik_Ionization_Penalty_Neutral>
6.63797

> <r_epik_State_Penalty>
4.49496

> <r_epik_Charging_Adjusted_Penalty>
4.49496

> <i_epik_Tot_Q>
-1

> <i_epik_Tot_abs_Q>
1

> <r_epik_Metal_State_Penalty>
0.841241

> <b_epik_Metal_Only>
1

> <s_lp_Force_Field>
OPLS_2005

> <r_lp_Energy>
55.5119

> <b_lp_Chiralities_Consistent>
1

> <s_lp_Variant>
AV-unprocessed.smi:2124-24

> <Gold.Version>
5.8.1

> <Gold.Id.Protein>
6NUR|6NUR_protein|mol2

> <Gold.PLP.Fitness>
45.4381

> <Gold.PLP.PLP>
-40.3753

> <Gold.PLP.part.hbond>
-3.0000

> <Gold.PLP.part.metal>
0.0000

> <Gold.PLP.part.buried>
-5.8081

> <Gold.PLP.part.nonpolar>
-32.0238

> <Gold.PLP.part.repulsive>
0.2762

> <Gold.PLP.ligand.clash>
0.0000

> <Gold.PLP.ligand.torsion>
0.3705

> <Gold.PLP.Chemscore.Hbond>
1.9280

> <Gold.PLP.Chemscore.CHOScore>
0.0000

> <Gold.PLP.Chemscore.Metal>
0.0000

> <Gold.Chemscore.Hbonds>
donor molecule, donor type, donor heavy atom, donor atom, acceptor molecule, acceptor atom, score
      L1  H    10    31       P1  8028  0.90
      P1  H  6934  6946       L1    21  1.00

> <Gold.PLP.Chemscore.Internal.Correction>
0.0199

> <Gold.Rescore>
     Score         DG    S(hbond)    S(metal)    S(lipo)     H(rot)  DE(clash)    DE(int)     intcor
     18.74     -19.65       1.73        0.00     106.90       1.61       0.64       0.27       ----

> <Gold.Chemscore.Fitness>
18.7381

> <Gold.Chemscore.DG>
-19.6465

> <Gold.Chemscore.ZeroCoef>
-5.4800

> <Gold.Chemscore.Hbond>
1.7270

> <Gold.Chemscore.Metal>
0.0000

> <Gold.Chemscore.Lipo>
106.9004

> <Gold.Chemscore.Internal_Hbond>
0.0000

> <Gold.Chemscore.DEClash>
0.6401

> <Gold.Chemscore.DEInternal>
0.2683

> <Gold.Chemscore.Rot>
1.6051

> <Gold.Chemscore.Internal.Correction>
   9.000000E+99

> <Gold.Chemscore.Hbonds>
donor molecule, donor type, donor heavy atom, donor atom, acceptor molecule, acceptor atom, score
      L1  H    10    31       P1  8028  0.30
      P1  H  6934  6946       L1    21  1.00

> <Gold.Chemscore.Hbond.Weighted>
-5.7681

> <Gold.Chemscore.Metal.Weighted>
-0.0000

> <Gold.Chemscore.Lipo.Weighted>
-12.5073

> <Gold.Chemscore.Internal_Hbond.Weighted>
0.0000

> <Gold.Chemscore.DEClash.Weighted>
0.6401

> <Gold.Chemscore.DEInternal.Weighted>
0.2683

> <Gold.Chemscore.Rot.Weighted>
4.1090

> <Gold.Chemscore.Internal.Correction.Weighted>
   9.000000E+99

> <Gold.Protein.RotatedTorsions>
[ 6907 6896 6895 6894 ] final  -10.33 input  -60.11 | X-H torsion
[ 7974 7965 7964 7962 ] final   90.66 input  175.53 | X-H torsion
[ 8008 7997 7996 7995 ] final  -10.65 input   59.86 | X-H torsion
[ 10167 10162 10161 10158 ] final  136.99 input  -65.29 | X-H torsion
[ 10718 10713 10712 10709 ] final  -38.84 input   66.30 | X-H torsion
[ 10763 10752 10751 10750 ] final  -41.21 input  -60.55 | X-H torsion
[ 11005 11000 10999 10996 ] final  140.30 input  -57.11 | X-H torsion

> <Gold.Protein.ActiveResidues>
 VAL166  LYS551  ARG553  GLY616  TRP617  ASP618  TYR619  PRO620  LYS621  CYS622 
 ASP623  PHE694  ASN695  SER759  ASP760  ASP761  ALA762  ILE779  LEU786  VAL792 
 PHE793  MET794  SER795  GLU796  ALA797  LYS798  CYS799  TRP800  GLU811  SER814 

> <Gold.Protein.RotatedAtoms>
  151.4037  135.0975  159.9563 H   0  0  0  0  0  0  0  0  0  0  0  0  # atno 6907 bound_to 6896
  152.5042  133.8864  159.7382 H   0  0  0  0  0  0  0  0  0  0  0  0  # atno 6908 bound_to 6896
  150.9343  133.6673  159.2832 H   0  0  0  0  0  0  0  0  0  0  0  0  # atno 6909 bound_to 6896
  145.5160  139.2278  143.2698 H   0  0  0  0  0  0  0  0  0  0  0  0  # atno 7974 bound_to 7965
  154.5535  140.2323  155.8447 H   0  0  0  0  0  0  0  0  0  0  0  0  # atno 8008 bound_to 7997
  156.1968  140.3063  155.9404 H   0  0  0  0  0  0  0  0  0  0  0  0  # atno 8009 bound_to 7997
  155.3025  140.0432  157.3021 H   0  0  0  0  0  0  0  0  0  0  0  0  # atno 8010 bound_to 7997
  139.5160  144.6434  151.5506 H   0  0  0  0  0  0  0  0  0  0  0  0  # atno 10167 bound_to 10162
  156.2992  130.4238  149.8160 H   0  0  0  0  0  0  0  0  0  0  0  0  # atno 10718 bound_to 10713
  153.9587  135.6742  153.4745 H   0  0  0  0  0  0  0  0  0  0  0  0  # atno 10763 bound_to 10752
  153.0849  135.4904  154.8573 H   0  0  0  0  0  0  0  0  0  0  0  0  # atno 10764 bound_to 10752
  154.7285  135.3133  154.8891 H   0  0  0  0  0  0  0  0  0  0  0  0  # atno 10765 bound_to 10752
  140.0317  134.9348  157.0676 H   0  0  0  0  0  0  0  0  0  0  0  0  # atno 11005 bound_to 11000
  146.2136  140.5970  142.9048 LP  0  0  0  0  0  0  0  0  0  0  0  0  # atno 17320 bound_to 7965
  144.7701  140.5619  143.6676 LP  0  0  0  0  0  0  0  0  0  0  0  0  # atno 17321 bound_to 7965
  140.6210  143.9259  150.6526 LP  0  0  0  0  0  0  0  0  0  0  0  0  # atno 17342 bound_to 10162
  140.2532  143.3578  152.1387 LP  0  0  0  0  0  0  0  0  0  0  0  0  # atno 17343 bound_to 10162
  156.5545  130.8356  151.3310 LP  0  0  0  0  0  0  0  0  0  0  0  0  # atno 17370 bound_to 10713
  157.7363  130.9777  150.2131 LP  0  0  0  0  0  0  0  0  0  0  0  0  # atno 17371 bound_to 10713
  140.4214  134.1877  155.7164 LP  0  0  0  0  0  0  0  0  0  0  0  0  # atno 17394 bound_to 11000
  141.1835  133.8363  157.1173 LP  0  0  0  0  0  0  0  0  0  0  0  0  # atno 17395 bound_to 11000

$$$$
