AV-unprocessed.smi:1684|AV-procd|sdf|6755|dock6
  -GOLD-   22720 7513D 1   1.00000     0.00000
 Structure written by MMmdl.
 43 44  0  0  0  0  0  0  0  0  2 V2000
  152.2639  141.3277  158.9017 C   0  0  0  0  0  0  0  0  0  0  0  0
  152.0336  142.7663  159.3355 C   0  0  0  0  0  0  0  0  0  0  0  0
  152.5065  143.1911  160.5954 C   0  0  0  0  0  0  0  0  0  0  0  0
  152.2943  144.5218  160.9944 C   0  0  0  0  0  0  0  0  0  0  0  0
  151.6141  145.3769  160.1108 C   0  0  0  0  0  0  0  0  0  0  0  0
  151.1594  144.9796  158.9048 N   0  0  0  0  0  0  0  0  0  0  0  0
  151.3531  143.6973  158.5058 C   0  0  0  0  0  0  0  0  0  0  0  0
  150.9041  143.2096  157.2458 N   0  0  0  0  0  0  0  0  0  0  0  0
  150.0985  142.1628  156.9955 C   0  0  0  0  0  0  0  0  0  0  0  0
  149.6477  141.3917  157.8429 O   0  0  0  0  0  0  0  0  0  0  0  0
  149.8247  142.0609  155.6858 N   0  0  0  0  0  0  0  0  0  0  0  0
  148.9863  141.0369  155.0595 C   0  0  2  0  0  0  0  0  0  0  0  0
  149.8902  139.9989  154.3808 C   0  0  0  0  0  0  0  0  0  0  0  0
  147.9911  141.6575  154.0508 C   0  0  0  0  0  0  0  0  0  0  0  0
  147.0315  142.5975  154.6833 N   0  3  0  0  0  0  0  0  0  0  0  0
  145.9257  143.0003  153.7840 C   0  0  0  0  0  0  0  0  0  0  0  0
  145.0327  144.0431  154.4785 C   0  0  0  0  0  0  0  0  0  0  0  0
  144.5414  143.5143  155.7046 O   0  0  0  0  0  0  0  0  0  0  0  0
  145.5931  143.1916  156.6070 C   0  0  0  0  0  0  0  0  0  0  0  0
  146.4950  142.1164  155.9792 C   0  0  0  0  0  0  0  0  0  0  0  0
  152.8206  140.7696  159.6553 H   0  0  0  0  0  0  0  0  0  0  0  0
  152.8334  141.2945  157.9724 H   0  0  0  0  0  0  0  0  0  0  0  0
  151.3117  140.8201  158.7442 H   0  0  0  0  0  0  0  0  0  0  0  0
  153.0268  142.5081  161.2509 H   0  0  0  0  0  0  0  0  0  0  0  0
  152.6438  144.8775  161.9523 H   0  0  0  0  0  0  0  0  0  0  0  0
  151.4307  146.4071  160.3776 H   0  0  0  0  0  0  0  0  0  0  0  0
  151.2189  143.7356  156.4441 H   0  0  0  0  0  0  0  0  0  0  0  0
  150.2420  142.7395  155.0652 H   0  0  0  0  0  0  0  0  0  0  0  0
  148.4303  140.5095  155.8359 H   0  0  0  0  0  0  0  0  0  0  0  0
  149.3008  139.1932  153.9421 H   0  0  0  0  0  0  0  0  0  0  0  0
  150.5786  139.5481  155.0967 H   0  0  0  0  0  0  0  0  0  0  0  0
  150.4849  140.4472  153.5840 H   0  0  0  0  0  0  0  0  0  0  0  0
  148.5670  142.1913  153.2931 H   0  0  0  0  0  0  0  0  0  0  0  0
  147.4425  140.8785  153.5192 H   0  0  0  0  0  0  0  0  0  0  0  0
  146.3298  143.4219  152.8629 H   0  0  0  0  0  0  0  0  0  0  0  0
  145.3381  142.1232  153.5079 H   0  0  0  0  0  0  0  0  0  0  0  0
  145.5846  144.9662  154.6630 H   0  0  0  0  0  0  0  0  0  0  0  0
  144.1872  144.2996  153.8403 H   0  0  0  0  0  0  0  0  0  0  0  0
  146.1675  144.0866  156.8532 H   0  0  0  0  0  0  0  0  0  0  0  0
  145.1606  142.8238  157.5374 H   0  0  0  0  0  0  0  0  0  0  0  0
  145.9290  141.1963  155.8258 H   0  0  0  0  0  0  0  0  0  0  0  0
  147.3080  141.8799  156.6650 H   0  0  0  0  0  0  0  0  0  0  0  0
  147.5524  143.4405  154.8806 H   0  0  0  0  0  0  0  0  0  0  0  0
  1  2  1  0  0  0  0
  1 21  1  0  0  0  0
  1 22  1  0  0  0  0
  1 23  1  0  0  0  0
  2  7  1  0  0  0  0
  2  3  2  0  0  0  0
  3  4  1  0  0  0  0
  3 24  1  0  0  0  0
  4  5  2  0  0  0  0
  4 25  1  0  0  0  0
  5  6  1  0  0  0  0
  5 26  1  0  0  0  0
  6  7  2  0  0  0  0
  7  8  1  0  0  0  0
  8  9  1  0  0  0  0
  8 27  1  0  0  0  0
  9 10  2  0  0  0  0
  9 11  1  0  0  0  0
 11 12  1  0  0  0  0
 11 28  1  0  0  0  0
 12 13  1  0  0  0  0
 12 14  1  0  0  0  0
 12 29  1  0  0  0  0
 13 30  1  0  0  0  0
 13 31  1  0  0  0  0
 13 32  1  0  0  0  0
 14 15  1  0  0  0  0
 14 33  1  0  0  0  0
 14 34  1  0  0  0  0
 15 20  1  0  0  0  0
 15 16  1  0  0  0  0
 15 43  1  0  0  0  0
 16 17  1  0  0  0  0
 16 35  1  0  0  0  0
 16 36  1  0  0  0  0
 17 18  1  0  0  0  0
 17 37  1  0  0  0  0
 17 38  1  0  0  0  0
 18 19  1  0  0  0  0
 19 20  1  0  0  0  0
 19 39  1  0  0  0  0
 19 40  1  0  0  0  0
 20 41  1  0  0  0  0
 20 42  1  0  0  0  0
M  CHG  1  15   1
M  END
> <s_m_source_file>
AV-unprocessed.smi

> <i_m_source_file_index>
1684

> <i_lp_mmshare_version>
43012

> <i_f3d_flags>
0

> <s_epik_input>
W0NIM11jMVtjSF1bY0hdW2NIXW5jMVtOSF1DKD1PKVtOSF1bQ0BIXShbQ0gzXSlbQ0gyXU4yW0NIMl1bQ0gyXU9bQ0gyXVtDSDJdMg==

> <s_epik_cmdline>
J2VwaWtfcHl0aG9uJywgJy1waCcsICc3LjAnLCAnLXRuJywgJzgnLCAnLW1hJywgJzIwMCcsICctbWV0YWxfYmluZGluZycsICctaW1hZScsICc8aW5maWxlLm1hZT4nLCAnLW9tYWUnLCAnPG91dGZpbGUubWFlPic=

> <r_epik_Ionization_Penalty>
0.602571

> <r_epik_Ionization_Penalty_Charging>
0.602531

> <r_epik_Ionization_Penalty_Neutral>
4.09763e-05

> <r_epik_State_Penalty>
0.617039

> <r_epik_Charging_Adjusted_Penalty>
1.21957

> <i_epik_Tot_Q>
1

> <i_epik_Tot_abs_Q>
1

> <r_epik_Metal_State_Penalty>
0.617043

> <b_epik_Metal_Only>
0

> <s_lp_Force_Field>
OPLS_2005

> <r_lp_Energy>
24.8117

> <b_lp_Chiralities_Consistent>
1

> <s_lp_Variant>
AV-unprocessed.smi:1684-3

> <Gold.Version>
5.8.1

> <Gold.Id.Protein>
6NUR|6NUR_protein|mol2

> <Gold.PLP.Fitness>
46.6072

> <Gold.PLP.PLP>
-42.2231

> <Gold.PLP.part.hbond>
-3.0000

> <Gold.PLP.part.metal>
0.0000

> <Gold.PLP.part.buried>
-6.5657

> <Gold.PLP.part.nonpolar>
-33.3059

> <Gold.PLP.part.repulsive>
0.5947

> <Gold.PLP.ligand.clash>
0.0000

> <Gold.PLP.ligand.torsion>
0.8234

> <Gold.PLP.Chemscore.Hbond>
2.0000

> <Gold.PLP.Chemscore.CHOScore>
0.0000

> <Gold.PLP.Chemscore.Metal>
0.0000

> <Gold.Chemscore.Hbonds>
donor molecule, donor type, donor heavy atom, donor atom, acceptor molecule, acceptor atom, score
      L1  H    15    43       P1  8028  2.00

> <Gold.PLP.Chemscore.Internal.Correction>
0.0309

> <Gold.Rescore>
     Score         DG    S(hbond)    S(metal)    S(lipo)     H(rot)  DE(clash)    DE(int)     intcor
     13.85     -14.93       0.61        0.00      96.33       1.51       0.13       0.95       ----

> <Gold.Chemscore.Fitness>
13.8475

> <Gold.Chemscore.DG>
-14.9306

> <Gold.Chemscore.ZeroCoef>
-5.4800

> <Gold.Chemscore.Hbond>
0.6096

> <Gold.Chemscore.Metal>
0.0000

> <Gold.Chemscore.Lipo>
96.3264

> <Gold.Chemscore.Internal_Hbond>
0.0000

> <Gold.Chemscore.DEClash>
0.1336

> <Gold.Chemscore.DEInternal>
0.9495

> <Gold.Chemscore.Rot>
1.5061

> <Gold.Chemscore.Internal.Correction>
   9.000000E+99

> <Gold.Chemscore.Hbonds>
donor molecule, donor type, donor heavy atom, donor atom, acceptor molecule, acceptor atom, score
      L1  H    15    43       P1  8028  0.25

> <Gold.Chemscore.Hbond.Weighted>
-2.0361

> <Gold.Chemscore.Metal.Weighted>
-0.0000

> <Gold.Chemscore.Lipo.Weighted>
-11.2702

> <Gold.Chemscore.Internal_Hbond.Weighted>
0.0000

> <Gold.Chemscore.DEClash.Weighted>
0.1336

> <Gold.Chemscore.DEInternal.Weighted>
0.9495

> <Gold.Chemscore.Rot.Weighted>
3.8557

> <Gold.Chemscore.Internal.Correction.Weighted>
   9.000000E+99

> <Gold.Protein.RotatedTorsions>
[ 6907 6896 6895 6894 ] final  -55.74 input  -60.11 | X-H torsion
[ 7974 7965 7964 7962 ] final   87.26 input  175.53 | X-H torsion
[ 8008 7997 7996 7995 ] final  -17.90 input   59.86 | X-H torsion
[ 10167 10162 10161 10158 ] final  164.48 input  -65.29 | X-H torsion
[ 10718 10713 10712 10709 ] final  -83.32 input   66.30 | X-H torsion
[ 10763 10752 10751 10750 ] final   -8.76 input  -60.55 | X-H torsion
[ 11005 11000 10999 10996 ] final  144.29 input  -57.11 | X-H torsion

> <Gold.Protein.ActiveResidues>
 VAL166  LYS551  ARG553  GLY616  TRP617  ASP618  TYR619  PRO620  LYS621  CYS622 
 ASP623  PHE694  ASN695  SER759  ASP760  ASP761  ALA762  ILE779  LEU786  VAL792 
 PHE793  MET794  SER795  GLU796  ALA797  LYS798  CYS799  TRP800  GLU811  SER814 

> <Gold.Protein.RotatedAtoms>
  150.8226  134.7441  159.6784 H   0  0  0  0  0  0  0  0  0  0  0  0  # atno 6907 bound_to 6896
  152.4340  134.5720  159.9933 H   0  0  0  0  0  0  0  0  0  0  0  0  # atno 6908 bound_to 6896
  151.5900  133.3330  159.3061 H   0  0  0  0  0  0  0  0  0  0  0  0  # atno 6909 bound_to 6896
  145.5613  139.2304  143.2457 H   0  0  0  0  0  0  0  0  0  0  0  0  # atno 7974 bound_to 7965
  154.4945  140.2130  155.9477 H   0  0  0  0  0  0  0  0  0  0  0  0  # atno 8008 bound_to 7997
  156.1351  140.3190  155.8376 H   0  0  0  0  0  0  0  0  0  0  0  0  # atno 8009 bound_to 7997
  155.4224  140.0498  157.3015 H   0  0  0  0  0  0  0  0  0  0  0  0  # atno 8010 bound_to 7997
  139.4890  144.4230  151.9163 H   0  0  0  0  0  0  0  0  0  0  0  0  # atno 10167 bound_to 10162
  156.0020  130.4662  150.4239 H   0  0  0  0  0  0  0  0  0  0  0  0  # atno 10718 bound_to 10713
  153.4451  135.7014  153.6144 H   0  0  0  0  0  0  0  0  0  0  0  0  # atno 10763 bound_to 10752
  153.4502  135.3760  155.2280 H   0  0  0  0  0  0  0  0  0  0  0  0  # atno 10764 bound_to 10752
  154.8728  135.3995  154.3856 H   0  0  0  0  0  0  0  0  0  0  0  0  # atno 10765 bound_to 10752
  140.0620  134.9199  157.1201 H   0  0  0  0  0  0  0  0  0  0  0  0  # atno 11005 bound_to 11000
  146.1849  140.6438  142.9172 LP  0  0  0  0  0  0  0  0  0  0  0  0  # atno 17320 bound_to 7965
  144.7481  140.5121  143.6821 LP  0  0  0  0  0  0  0  0  0  0  0  0  # atno 17321 bound_to 7965
  140.3675  144.2896  150.5924 LP  0  0  0  0  0  0  0  0  0  0  0  0  # atno 17342 bound_to 10162
  140.5348  143.2235  151.8180 LP  0  0  0  0  0  0  0  0  0  0  0  0  # atno 17343 bound_to 10162
  157.2293  131.0500  151.2502 LP  0  0  0  0  0  0  0  0  0  0  0  0  # atno 17370 bound_to 10713
  157.3726  130.7189  149.6575 LP  0  0  0  0  0  0  0  0  0  0  0  0  # atno 17371 bound_to 10713
  140.3755  134.2343  155.7174 LP  0  0  0  0  0  0  0  0  0  0  0  0  # atno 17394 bound_to 11000
  141.1977  133.8052  157.0615 LP  0  0  0  0  0  0  0  0  0  0  0  0  # atno 17395 bound_to 11000

$$$$
