#       Name:                AV-unprocessed.smi:400
#       Creating user name   scv26
#       Creation time:       Thu Mar 26 22:43:59 2020


#       File generated by GOLD software.
#

@<TRIPOS>MOLECULE
AV-unprocessed.smi:400
    46    47     1
SMALL
NO_CHARGES


@<TRIPOS>ATOM
      1 ****        -4.4277  -1.3820  -2.2714 C.3            1 S1                 0.0000
      2 ****        -4.7387  -2.2683  -1.0548 C.3            1 S1                 0.0000
      3 ****        -4.1748  -1.7347   0.2810 C.3            1 S1                 0.0000
      4 ****        -4.6652  -2.5877   1.4639 C.3            1 S1                 0.0000
      5 ****        -2.6391  -1.6744   0.2694 C.2            1 S1                 0.0000
      6 ****        -1.9901  -2.7129   0.1373 O.2            1 S1                 0.0000
      7 ****        -2.0990  -0.4487   0.4089 N.am           1 S1                 0.0000
      8 ****        -0.7268  -0.0840   0.3897 C.ar           1 S1                 0.0000
      9 ****        -0.4687   1.2888   0.5879 C.ar           1 S1                 0.0000
     10 ****         0.8595   1.7553   0.5708 C.ar           1 S1                 0.0000
     11 ****         1.9174   0.8414   0.3499 C.ar           1 S1                 0.0000
     12 ****         3.2730   1.2349   0.3139 N.3            1 S1                 0.0000
     13 ****         4.0295   0.8014  -0.8584 C.3            1 S1                 0.0000
     14 ****         5.5373   1.0043  -0.6286 C.3            1 S1                 0.0000
     15 ****         5.7929   2.3592  -0.2737 O.3            1 S1                 0.0000
     16 ****         5.1359   2.7211   0.9360 C.3            1 S1                 0.0000
     17 ****         3.6138   2.5824   0.7615 C.3            1 S1                 0.0000
     18 ****         1.5554  -0.5136   0.1696 C.ar           1 S1                 0.0000
     19 ****         0.2834  -0.9630   0.1880 N.ar           1 S1                 0.0000
     20 ****        -4.9085  -1.7752  -3.1673 H              1 S1                 0.0000
     21 ****        -3.3573  -1.3315  -2.4717 H              1 S1                 0.0000
     22 ****        -4.7899  -0.3647  -2.1203 H              1 S1                 0.0000
     23 ****        -5.8219  -2.3612  -0.9687 H              1 S1                 0.0000
     24 ****        -4.3687  -3.2777  -1.2407 H              1 S1                 0.0000
     25 ****        -4.5589  -0.7235   0.4275 H              1 S1                 0.0000
     26 ****        -4.2619  -2.2254   2.4105 H              1 S1                 0.0000
     27 ****        -4.3722  -3.6327   1.3544 H              1 S1                 0.0000
     28 ****        -5.7523  -2.5577   1.5414 H              1 S1                 0.0000
     29 ****        -2.7498   0.3137   0.5284 H              1 S1                 0.0000
     30 ****        -1.2792   1.9851   0.7483 H              1 S1                 0.0000
     31 ****         1.0386   2.8099   0.7159 H              1 S1                 0.0000
     32 ****         3.8458  -0.2456  -1.0954 H              1 S1                 0.0000
     33 ****         3.7037   1.3838  -1.7213 H              1 S1                 0.0000
     34 ****         5.9049   0.3363   0.1521 H              1 S1                 0.0000
     35 ****         6.0902   0.7656  -1.5371 H              1 S1                 0.0000
     36 ****         5.4918   2.0963   1.7565 H              1 S1                 0.0000
     37 ****         5.3929   3.7507   1.1854 H              1 S1                 0.0000
     38 ****         3.2565   3.3085   0.0300 H              1 S1                 0.0000
     39 ****         3.1221   2.8004   1.7104 H              1 S1                 0.0000
     40 ****         2.3054  -1.2762   0.0208 H              1 S1                 0.0000
     41 ****        -2.4626  -3.5886   0.0384 LP             1 S1                 0.0000
     42 ****        -0.9906  -2.6802   0.1290 LP             1 S1                 0.0000
     43 ****         3.6094   0.6755   1.0714 LP             1 S1                 0.0000
     44 ****         5.4675   2.9535  -1.0092 LP             1 S1                 0.0000
     45 ****         6.7783   2.4829  -0.1565 LP             1 S1                 0.0000
     46 ****         0.0887  -1.9346   0.0541 LP             1 S1                 0.0000
@<TRIPOS>BOND
    1    1    2 1     
    2    1   20 1     
    3    1   21 1     
    4    1   22 1     
    5    2    3 1     
    6    2   23 1     
    7    2   24 1     
    8    3    4 1     
    9    3    5 1     
   10    3   25 1     
   11    4   26 1     
   12    4   27 1     
   13    4   28 1     
   14    5    6 2     
   15    5    7 am    
   16    7    8 1     
   17    7   29 1     
   18    8   19 ar    
   19    8    9 ar    
   20    9   10 ar    
   21    9   30 1     
   22   10   11 ar    
   23   10   31 1     
   24   11   12 1     
   25   11   18 ar    
   26   12   17 1     
   27   12   13 1     
   28   13   14 1     
   29   13   32 1     
   30   13   33 1     
   31   14   15 1     
   32   14   34 1     
   33   14   35 1     
   34   15   16 1     
   35   16   17 1     
   36   16   36 1     
   37   16   37 1     
   38   17   38 1     
   39   17   39 1     
   40   18   19 ar    
   41   18   40 1     
   42    6   41 1     
   43    6   42 1     
   44   12   43 1     
   45   15   44 1     
   46   15   45 1     
   47   19   46 1     
@<TRIPOS>SUBSTRUCTURE
      1 S1             1
@<TRIPOS>SET
LONE_PAIRS      STATIC     ATOMS    <user>   **** ""
6 41 42 43 44 45 46
DONOR_HYDROGENS      STATIC     ATOMS    <user>   **** ""
1 29
ATOM$BLUE        STATIC     ATOMS    COLORGROUP SYSTEM
6 41 42 43 44 45 46
ATOM$RED        STATIC     ATOMS    COLORGROUP SYSTEM
1 29
