AV-unprocessed.smi:1983|AV-procd|sdf|8030|dock2
  -GOLD-   2272010223D 1   1.00000     0.00000
 Structure written by MMmdl.
 49 50  0  0  0  0  0  0  0  0  1 V2000
  146.3647  133.3474  151.5950 C   0  0  0  0  0  0  0  0  0  0  0  0
  145.5063  134.6065  151.8165 C   0  0  2  0  0  0  0  0  0  0  0  0
  144.3814  134.7722  150.7780 C   0  0  0  0  0  0  0  0  0  0  0  0
  144.7795  135.6095  149.7111 O   0  0  0  0  0  0  0  0  0  0  0  0
  146.3243  135.8158  151.8572 N   0  0  0  0  0  0  0  0  0  0  0  0
  145.8721  137.0525  152.1054 C   0  0  0  0  0  0  0  0  0  0  0  0
  144.6914  137.3265  152.3233 O   0  0  0  0  0  0  0  0  0  0  0  0
  146.8633  137.9547  152.0999 N   0  0  0  0  0  0  0  0  0  0  0  0
  146.6937  139.3735  152.3929 C   0  0  0  0  0  0  0  0  0  0  0  0
  147.6020  139.8669  153.5071 C   0  0  0  0  0  0  0  0  0  0  0  0
  147.4932  141.1772  154.0153 C   0  0  0  0  0  0  0  0  0  0  0  0
  148.3640  141.5849  155.0433 C   0  0  0  0  0  0  0  0  0  0  0  0
  149.3226  140.6695  155.5381 C   0  0  0  0  0  0  0  0  0  0  0  0
  150.2062  141.0618  156.5653 N   0  0  0  0  0  0  0  0  0  0  0  0
  151.0363  140.0350  157.1880 C   0  0  0  0  0  0  0  0  0  0  0  0
  152.1598  140.6861  158.0133 C   0  0  2  0  0  0  0  0  0  0  0  0
  152.9782  139.6459  158.7852 C   0  0  0  0  0  0  0  0  0  0  0  0
  151.5936  141.5943  158.9575 O   0  0  0  0  0  0  0  0  0  0  0  0
  150.7928  142.6314  158.3855 C   0  0  1  0  0  0  0  0  0  0  0  0
  151.6412  143.6770  157.6399 C   0  0  0  0  0  0  0  0  0  0  0  0
  149.6692  142.0254  157.5212 C   0  0  0  0  0  0  0  0  0  0  0  0
  149.4240  139.4100  155.0460 N   0  0  0  0  0  0  0  0  0  0  0  0
  148.5846  139.0232  154.0624 C   0  0  0  0  0  0  0  0  0  0  0  0
  145.7416  132.4537  151.5520 H   0  0  0  0  0  0  0  0  0  0  0  0
  147.0789  133.2083  152.4071 H   0  0  0  0  0  0  0  0  0  0  0  0
  146.9310  133.4043  150.6650 H   0  0  0  0  0  0  0  0  0  0  0  0
  145.0187  134.5076  152.7881 H   0  0  0  0  0  0  0  0  0  0  0  0
  144.1131  133.8000  150.3634 H   0  0  0  0  0  0  0  0  0  0  0  0
  143.4809  135.1779  151.2407 H   0  0  0  0  0  0  0  0  0  0  0  0
  145.1859  135.0750  149.0458 H   0  0  0  0  0  0  0  0  0  0  0  0
  147.3138  135.6942  151.6978 H   0  0  0  0  0  0  0  0  0  0  0  0
  147.8009  137.6350  151.9054 H   0  0  0  0  0  0  0  0  0  0  0  0
  146.9206  139.9391  151.4890 H   0  0  0  0  0  0  0  0  0  0  0  0
  145.6497  139.5816  152.6336 H   0  0  0  0  0  0  0  0  0  0  0  0
  146.7573  141.8635  153.6225 H   0  0  0  0  0  0  0  0  0  0  0  0
  148.2995  142.5918  155.4280 H   0  0  0  0  0  0  0  0  0  0  0  0
  150.4128  139.4076  157.8265 H   0  0  0  0  0  0  0  0  0  0  0  0
  151.4747  139.3909  156.4246 H   0  0  0  0  0  0  0  0  0  0  0  0
  152.8379  141.2219  157.3490 H   0  0  0  0  0  0  0  0  0  0  0  0
  153.4402  138.9281  158.1067 H   0  0  0  0  0  0  0  0  0  0  0  0
  152.3525  139.0910  159.4847 H   0  0  0  0  0  0  0  0  0  0  0  0
  153.7747  140.1230  159.3565 H   0  0  0  0  0  0  0  0  0  0  0  0
  150.3230  143.1479  159.2230 H   0  0  0  0  0  0  0  0  0  0  0  0
  151.0265  144.5233  157.3323 H   0  0  0  0  0  0  0  0  0  0  0  0
  152.1026  143.2705  156.7401 H   0  0  0  0  0  0  0  0  0  0  0  0
  152.4353  144.0617  158.2798 H   0  0  0  0  0  0  0  0  0  0  0  0
  149.1171  142.8251  157.0288 H   0  0  0  0  0  0  0  0  0  0  0  0
  148.9568  141.5049  158.1625 H   0  0  0  0  0  0  0  0  0  0  0  0
  148.7079  138.0113  153.7055 H   0  0  0  0  0  0  0  0  0  0  0  0
  1  2  1  0  0  0  0
  1 24  1  0  0  0  0
  1 25  1  0  0  0  0
  1 26  1  0  0  0  0
  2  3  1  0  0  0  0
  2  5  1  0  0  0  0
  2 27  1  0  0  0  0
  3  4  1  0  0  0  0
  3 28  1  0  0  0  0
  3 29  1  0  0  0  0
  4 30  1  0  0  0  0
  5  6  1  0  0  0  0
  5 31  1  0  0  0  0
  6  7  2  0  0  0  0
  6  8  1  0  0  0  0
  8  9  1  0  0  0  0
  8 32  1  0  0  0  0
  9 10  1  0  0  0  0
  9 33  1  0  0  0  0
  9 34  1  0  0  0  0
 10 23  1  0  0  0  0
 10 11  2  0  0  0  0
 11 12  1  0  0  0  0
 11 35  1  0  0  0  0
 12 13  2  0  0  0  0
 12 36  1  0  0  0  0
 13 14  1  0  0  0  0
 13 22  1  0  0  0  0
 14 21  1  0  0  0  0
 14 15  1  0  0  0  0
 15 16  1  0  0  0  0
 15 37  1  0  0  0  0
 15 38  1  0  0  0  0
 16 17  1  0  0  0  0
 16 18  1  0  0  0  0
 16 39  1  0  0  0  0
 17 40  1  0  0  0  0
 17 41  1  0  0  0  0
 17 42  1  0  0  0  0
 18 19  1  0  0  0  0
 19 20  1  0  0  0  0
 19 21  1  0  0  0  0
 19 43  1  0  0  0  0
 20 44  1  0  0  0  0
 20 45  1  0  0  0  0
 20 46  1  0  0  0  0
 21 47  1  0  0  0  0
 21 48  1  0  0  0  0
 22 23  2  0  0  0  0
 23 49  1  0  0  0  0
M  END
> <s_m_source_file>
AV-unprocessed.smi

> <i_m_source_file_index>
1983

> <i_lp_mmshare_version>
43012

> <i_f3d_flags>
0

> <s_epik_input>
W09IXVtDSDJdW0NAQEhdKFtDSDNdKVtOSF1DKD1PKVtOSF1bQ0gyXWMxW2NIXVtjSF1jKG5bY0hdMSlOMltDSDJdW0NAQEhdKFtDSDNdKU9bQ0BASF0oW0NIM10pW0NIMl0y

> <s_epik_cmdline>
J2VwaWtfcHl0aG9uJywgJy1waCcsICc3LjAnLCAnLXRuJywgJzgnLCAnLW1hJywgJzIwMCcsICctbWV0YWxfYmluZGluZycsICctaW1hZScsICc8aW5maWxlLm1hZT4nLCAnLW9tYWUnLCAnPG91dGZpbGUubWFlPic=

> <r_lp_tautomer_probability>
1

> <r_epik_Ionization_Penalty>
0.00801967

> <r_epik_Ionization_Penalty_Charging>
0

> <r_epik_Ionization_Penalty_Neutral>
0.00801967

> <r_epik_State_Penalty>
0.00598289

> <r_epik_Charging_Adjusted_Penalty>
0.00598289

> <i_epik_Tot_Q>
0

> <i_epik_Tot_abs_Q>
0

> <r_epik_Metal_State_Penalty>
0.00590297

> <b_epik_Metal_Only>
0

> <s_lp_Force_Field>
OPLS_2005

> <r_lp_Energy>
17.398

> <b_lp_Chiralities_Consistent>
1

> <s_lp_Variant>
AV-unprocessed.smi:1983-3

> <Gold.Version>
5.8.1

> <Gold.Id.Protein>
6NUR|6NUR_protein|mol2

> <Gold.PLP.Fitness>
47.0590

> <Gold.PLP.PLP>
-36.8209

> <Gold.PLP.part.hbond>
-3.8450

> <Gold.PLP.part.metal>
0.0000

> <Gold.PLP.part.buried>
-4.2041

> <Gold.PLP.part.nonpolar>
-31.2999

> <Gold.PLP.part.repulsive>
1.8209

> <Gold.PLP.ligand.clash>
0.0000

> <Gold.PLP.ligand.torsion>
0.9313

> <Gold.PLP.Chemscore.Hbond>
2.9120

> <Gold.PLP.Chemscore.CHOScore>
0.9935

> <Gold.PLP.Chemscore.Metal>
0.0000

> <Gold.Chemscore.Hbonds>
donor molecule, donor type, donor heavy atom, donor atom, acceptor molecule, acceptor atom, score
      L1  H     4    30       P1  7921  1.00
      L1  H     5    31       P1  7948  1.00
      L1  H     8    32       P1  7948  0.96
      L1  C    23    49       P1  7948  0.93

> <Gold.PLP.Chemscore.Internal.Correction>
0.3841

> <Gold.Rescore>
     Score         DG    S(hbond)    S(metal)    S(lipo)     H(rot)  DE(clash)    DE(int)     intcor
     17.50     -18.55       2.78        0.00      89.49       2.61       0.08       0.96       ----

> <Gold.Chemscore.Fitness>
17.5044

> <Gold.Chemscore.DG>
-18.5479

> <Gold.Chemscore.ZeroCoef>
-5.4800

> <Gold.Chemscore.Hbond>
2.7780

> <Gold.Chemscore.Metal>
0.0000

> <Gold.Chemscore.Lipo>
89.4904

> <Gold.Chemscore.Internal_Hbond>
0.0000

> <Gold.Chemscore.DEClash>
0.0839

> <Gold.Chemscore.DEInternal>
0.9596

> <Gold.Chemscore.Rot>
2.6097

> <Gold.Chemscore.Internal.Correction>
   9.000000E+99

> <Gold.Chemscore.Hbonds>
donor molecule, donor type, donor heavy atom, donor atom, acceptor molecule, acceptor atom, score
      L1  H     4    30       P1  7921  0.98
      L1  H     5    31       P1  7948  0.97
      L1  H     8    32       P1  7948  0.92

> <Gold.Chemscore.Hbond.Weighted>
-9.2784

> <Gold.Chemscore.Metal.Weighted>
-0.0000

> <Gold.Chemscore.Lipo.Weighted>
-10.4704

> <Gold.Chemscore.Internal_Hbond.Weighted>
0.0000

> <Gold.Chemscore.DEClash.Weighted>
0.0839

> <Gold.Chemscore.DEInternal.Weighted>
0.9596

> <Gold.Chemscore.Rot.Weighted>
6.6809

> <Gold.Chemscore.Internal.Correction.Weighted>
   9.000000E+99

> <Gold.Protein.RotatedTorsions>
[ 6907 6896 6895 6894 ] final  -97.35 input  -60.11 | X-H torsion
[ 7974 7965 7964 7962 ] final   44.51 input  175.53 | X-H torsion
[ 8008 7997 7996 7995 ] final  125.90 input   59.86 | X-H torsion
[ 10167 10162 10161 10158 ] final -131.86 input  -65.29 | X-H torsion
[ 10718 10713 10712 10709 ] final  -21.95 input   66.30 | X-H torsion
[ 10763 10752 10751 10750 ] final  -70.72 input  -60.55 | X-H torsion
[ 11005 11000 10999 10996 ] final  -94.21 input  -57.11 | X-H torsion

> <Gold.Protein.ActiveResidues>
 VAL166  LYS551  ARG553  GLY616  TRP617  ASP618  TYR619  PRO620  LYS621  CYS622 
 ASP623  PHE694  ASN695  SER759  ASP760  ASP761  ALA762  ILE779  LEU786  VAL792 
 PHE793  MET794  SER795  GLU796  ALA797  LYS798  CYS799  TRP800  GLU811  SER814 

> <Gold.Protein.RotatedAtoms>
  150.7014  134.1362  159.4087 H   0  0  0  0  0  0  0  0  0  0  0  0  # atno 6907 bound_to 6896
  151.9347  135.0238  160.0541 H   0  0  0  0  0  0  0  0  0  0  0  0  # atno 6908 bound_to 6896
  152.2145  133.4901  159.5165 H   0  0  0  0  0  0  0  0  0  0  0  0  # atno 6909 bound_to 6896
  146.0562  139.5066  142.9687 H   0  0  0  0  0  0  0  0  0  0  0  0  # atno 7974 bound_to 7965
  156.2848  140.2705  156.2024 H   0  0  0  0  0  0  0  0  0  0  0  0  # atno 8008 bound_to 7997
  155.0347  140.0386  157.2505 H   0  0  0  0  0  0  0  0  0  0  0  0  # atno 8009 bound_to 7997
  154.7324  140.2709  155.6449 H   0  0  0  0  0  0  0  0  0  0  0  0  # atno 8010 bound_to 7997
  139.9145  143.6454  152.2568 H   0  0  0  0  0  0  0  0  0  0  0  0  # atno 10167 bound_to 10162
  156.5112  130.4610  149.6647 H   0  0  0  0  0  0  0  0  0  0  0  0  # atno 10718 bound_to 10713
  154.4216  135.5985  153.6014 H   0  0  0  0  0  0  0  0  0  0  0  0  # atno 10763 bound_to 10752
  152.9794  135.5954  154.3947 H   0  0  0  0  0  0  0  0  0  0  0  0  # atno 10764 bound_to 10752
  154.3774  135.2841  155.2210 H   0  0  0  0  0  0  0  0  0  0  0  0  # atno 10765 bound_to 10752
  141.1476  133.7941  157.0267 H   0  0  0  0  0  0  0  0  0  0  0  0  # atno 11005 bound_to 11000
  145.6639  141.0233  143.1694 LP  0  0  0  0  0  0  0  0  0  0  0  0  # atno 17320 bound_to 7965
  144.7149  139.8233  143.7402 LP  0  0  0  0  0  0  0  0  0  0  0  0  # atno 17321 bound_to 7965
  139.6914  144.7646  151.1432 LP  0  0  0  0  0  0  0  0  0  0  0  0  # atno 17342 bound_to 10162
  140.7677  143.5584  150.9126 LP  0  0  0  0  0  0  0  0  0  0  0  0  # atno 17343 bound_to 10162
  156.3239  130.7295  151.2212 LP  0  0  0  0  0  0  0  0  0  0  0  0  # atno 17370 bound_to 10713
  157.7450  131.0448  150.4812 LP  0  0  0  0  0  0  0  0  0  0  0  0  # atno 17371 bound_to 10713
  140.0780  134.9664  157.1578 LP  0  0  0  0  0  0  0  0  0  0  0  0  # atno 17394 bound_to 11000
  140.3616  134.2488  155.7186 LP  0  0  0  0  0  0  0  0  0  0  0  0  # atno 17395 bound_to 11000

$$$$
