AV-unprocessed.smi:823|AV-procd|sdf|3844|dock3
  -GOLD-   22720 1293D 1   1.00000     0.00000
 Structure written by MMmdl.
 46 47  0  0  0  0  0  0  0  0  1 V2000
  152.7610  142.7311  161.5852 C   0  0  0  0  0  0  0  0  0  0  0  0
  151.9101  142.9353  160.3273 C   0  0  2  0  0  0  0  0  0  0  0  0
  152.2155  141.8797  159.2468 C   0  0  0  0  0  0  0  0  0  0  0  0
  151.4769  142.1720  158.0213 N   0  0  0  0  0  0  0  0  0  0  0  0
  151.4667  141.1367  157.0624 C   0  0  0  0  0  0  0  0  0  0  0  0
  152.4741  140.1440  157.0809 C   0  0  0  0  0  0  0  0  0  0  0  0
  152.4483  139.1224  156.1126 C   0  0  0  0  0  0  0  0  0  0  0  0
  151.4219  139.1126  155.1482 C   0  0  0  0  0  0  0  0  0  0  0  0
  151.4012  138.0157  154.0895 C   0  0  0  0  0  0  0  0  0  0  0  0
  150.4664  136.9223  154.3376 N   0  0  0  0  0  0  0  0  0  0  0  0
  150.5811  136.0145  155.3189 C   0  0  0  0  0  0  0  0  0  0  0  0
  151.5024  136.0174  156.1371 O   0  0  0  0  0  0  0  0  0  0  0  0
  149.4656  134.9603  155.3970 C   0  0  2  0  0  0  0  0  0  0  0  0
  150.1118  133.5731  155.2446 C   0  0  0  0  0  0  0  0  0  0  0  0
  148.5097  135.1394  154.3053 N   0  0  0  0  0  0  0  0  0  0  0  0
  147.1874  134.9364  154.3999 C   0  0  0  0  0  0  0  0  0  0  0  0
  146.5517  135.1930  153.2565 N   0  0  0  0  0  0  0  0  0  0  0  0
  146.6109  134.5576  155.4177 O   0  0  0  0  0  0  0  0  0  0  0  0
  150.4579  140.1440  155.2095 C   0  0  0  0  0  0  0  0  0  0  0  0
  150.4752  141.1234  156.1381 N   0  0  0  0  0  0  0  0  0  0  0  0
  151.6635  143.5416  157.5473 C   0  0  0  0  0  0  0  0  0  0  0  0
  151.3735  144.5418  158.6783 C   0  0  0  0  0  0  0  0  0  0  0  0
  152.1836  144.2340  159.8081 O   0  0  0  0  0  0  0  0  0  0  0  0
  152.5770  141.7523  162.0288 H   0  0  0  0  0  0  0  0  0  0  0  0
  152.5315  143.4853  162.3384 H   0  0  0  0  0  0  0  0  0  0  0  0
  153.8250  142.8007  161.3574 H   0  0  0  0  0  0  0  0  0  0  0  0
  150.8569  142.8780  160.6081 H   0  0  0  0  0  0  0  0  0  0  0  0
  153.2822  141.8742  159.0182 H   0  0  0  0  0  0  0  0  0  0  0  0
  151.9699  140.8918  159.6344 H   0  0  0  0  0  0  0  0  0  0  0  0
  153.2526  140.1479  157.8292 H   0  0  0  0  0  0  0  0  0  0  0  0
  153.2092  138.3558  156.1125 H   0  0  0  0  0  0  0  0  0  0  0  0
  151.1332  138.4712  153.1361 H   0  0  0  0  0  0  0  0  0  0  0  0
  152.4108  137.6204  153.9645 H   0  0  0  0  0  0  0  0  0  0  0  0
  149.6773  136.8458  153.7123 H   0  0  0  0  0  0  0  0  0  0  0  0
  148.9515  135.0217  156.3584 H   0  0  0  0  0  0  0  0  0  0  0  0
  150.8349  133.3837  156.0391 H   0  0  0  0  0  0  0  0  0  0  0  0
  150.6308  133.4677  154.2905 H   0  0  0  0  0  0  0  0  0  0  0  0
  149.3595  132.7857  155.2985 H   0  0  0  0  0  0  0  0  0  0  0  0
  148.8823  135.4598  153.4238 H   0  0  0  0  0  0  0  0  0  0  0  0
  145.5509  135.0773  153.1932 H   0  0  0  0  0  0  0  0  0  0  0  0
  147.0793  135.5021  152.4530 H   0  0  0  0  0  0  0  0  0  0  0  0
  149.6472  140.2001  154.4989 H   0  0  0  0  0  0  0  0  0  0  0  0
  152.6878  143.6662  157.1931 H   0  0  0  0  0  0  0  0  0  0  0  0
  150.9995  143.7429  156.7057 H   0  0  0  0  0  0  0  0  0  0  0  0
  151.5951  145.5565  158.3477 H   0  0  0  0  0  0  0  0  0  0  0  0
  150.3186  144.5208  158.9565 H   0  0  0  0  0  0  0  0  0  0  0  0
  1  2  1  0  0  0  0
  1 24  1  0  0  0  0
  1 25  1  0  0  0  0
  1 26  1  0  0  0  0
  2 23  1  0  0  0  0
  2  3  1  0  0  0  0
  2 27  1  0  0  0  0
  3  4  1  0  0  0  0
  3 28  1  0  0  0  0
  3 29  1  0  0  0  0
  4  5  1  0  0  0  0
  4 21  1  0  0  0  0
  5 20  1  0  0  0  0
  5  6  2  0  0  0  0
  6  7  1  0  0  0  0
  6 30  1  0  0  0  0
  7  8  2  0  0  0  0
  7 31  1  0  0  0  0
  8  9  1  0  0  0  0
  8 19  1  0  0  0  0
  9 10  1  0  0  0  0
  9 32  1  0  0  0  0
  9 33  1  0  0  0  0
 10 11  1  0  0  0  0
 10 34  1  0  0  0  0
 11 12  2  0  0  0  0
 11 13  1  0  0  0  0
 13 14  1  0  0  0  0
 13 15  1  0  0  0  0
 13 35  1  0  0  0  0
 14 36  1  0  0  0  0
 14 37  1  0  0  0  0
 14 38  1  0  0  0  0
 15 16  1  0  0  0  0
 15 39  1  0  0  0  0
 16 17  1  0  0  0  0
 16 18  2  0  0  0  0
 17 40  1  0  0  0  0
 17 41  1  0  0  0  0
 19 20  2  0  0  0  0
 19 42  1  0  0  0  0
 21 22  1  0  0  0  0
 21 43  1  0  0  0  0
 21 44  1  0  0  0  0
 22 23  1  0  0  0  0
 22 45  1  0  0  0  0
 22 46  1  0  0  0  0
M  END
> <s_m_source_file>
AV-unprocessed.smi

> <i_m_source_file_index>
823

> <i_lp_mmshare_version>
43012

> <i_f3d_flags>
0

> <s_epik_input>
W0NIM11bQ0BASF0xW0NIMl1OKFtDSDJdW0NIMl1PMSljMltjSF1bY0hdYyhbY0hdbjIpW0NIMl1bTkhdQyg9TylbQ0BIXShbQ0gzXSlbTkhdQyg9TylbTkgyXQ==

> <s_epik_cmdline>
J2VwaWtfcHl0aG9uJywgJy1waCcsICc3LjAnLCAnLXRuJywgJzgnLCAnLW1hJywgJzIwMCcsICctbWV0YWxfYmluZGluZycsICctaW1hZScsICc8aW5maWxlLm1hZT4nLCAnLW9tYWUnLCAnPG91dGZpbGUubWFlPic=

> <r_lp_tautomer_probability>
1

> <r_epik_Ionization_Penalty>
0.00555043

> <r_epik_Ionization_Penalty_Charging>
0

> <r_epik_Ionization_Penalty_Neutral>
0.00555043

> <r_epik_State_Penalty>
0.00402575

> <r_epik_Charging_Adjusted_Penalty>
0.00402575

> <i_epik_Tot_Q>
0

> <i_epik_Tot_abs_Q>
0

> <r_epik_Metal_State_Penalty>
-0

> <b_epik_Metal_Only>
0

> <s_lp_Force_Field>
OPLS_2005

> <r_lp_Energy>
10.1488

> <b_lp_Chiralities_Consistent>
1

> <s_lp_Variant>
AV-unprocessed.smi:823-1

> <Gold.Version>
5.8.1

> <Gold.Id.Protein>
6NUR|6NUR_protein|mol2

> <Gold.PLP.Fitness>
48.9873

> <Gold.PLP.PLP>
-39.0943

> <Gold.PLP.part.hbond>
-4.9712

> <Gold.PLP.part.metal>
0.0000

> <Gold.PLP.part.buried>
-2.5673

> <Gold.PLP.part.nonpolar>
-31.4410

> <Gold.PLP.part.repulsive>
0.2210

> <Gold.PLP.ligand.clash>
0.0000

> <Gold.PLP.ligand.torsion>
0.9738

> <Gold.PLP.Chemscore.Hbond>
3.8316

> <Gold.PLP.Chemscore.CHOScore>
0.0000

> <Gold.PLP.Chemscore.Metal>
0.0000

> <Gold.Chemscore.Hbonds>
donor molecule, donor type, donor heavy atom, donor atom, acceptor molecule, acceptor atom, score
      L1  H    10    34       P1  7948  0.89
      L1  H    15    39       P1  7948  1.00
      L1  H    17    41       P1  7948  0.79
      P1  H 10752 10764       L1    12  1.00

> <Gold.PLP.Chemscore.Internal.Correction>
0.3459

> <Gold.Rescore>
     Score         DG    S(hbond)    S(metal)    S(lipo)     H(rot)  DE(clash)    DE(int)     intcor
     18.48     -19.56       2.77        0.00      98.55       2.62       0.06       1.03       ----

> <Gold.Chemscore.Fitness>
18.4753

> <Gold.Chemscore.DG>
-19.5579

> <Gold.Chemscore.ZeroCoef>
-5.4800

> <Gold.Chemscore.Hbond>
2.7682

> <Gold.Chemscore.Metal>
0.0000

> <Gold.Chemscore.Lipo>
98.5473

> <Gold.Chemscore.Internal_Hbond>
0.0000

> <Gold.Chemscore.DEClash>
0.0550

> <Gold.Chemscore.DEInternal>
1.0276

> <Gold.Chemscore.Rot>
2.6163

> <Gold.Chemscore.Internal.Correction>
   9.000000E+99

> <Gold.Chemscore.Hbonds>
donor molecule, donor type, donor heavy atom, donor atom, acceptor molecule, acceptor atom, score
      L1  H    10    34       P1  7948  0.57
      L1  H    15    39       P1  7948  0.78
      L1  H    17    41       P1  7948  0.74
      P1  H 10752 10764       L1    12  0.28

> <Gold.Chemscore.Hbond.Weighted>
-9.2456

> <Gold.Chemscore.Metal.Weighted>
-0.0000

> <Gold.Chemscore.Lipo.Weighted>
-11.5300

> <Gold.Chemscore.Internal_Hbond.Weighted>
0.0000

> <Gold.Chemscore.DEClash.Weighted>
0.0550

> <Gold.Chemscore.DEInternal.Weighted>
1.0276

> <Gold.Chemscore.Rot.Weighted>
6.6978

> <Gold.Chemscore.Internal.Correction.Weighted>
   9.000000E+99

> <Gold.Protein.RotatedTorsions>
[ 6907 6896 6895 6894 ] final   88.65 input  -60.11 | X-H torsion
[ 7974 7965 7964 7962 ] final  -37.29 input  175.53 | X-H torsion
[ 8008 7997 7996 7995 ] final  -93.66 input   59.86 | X-H torsion
[ 10167 10162 10161 10158 ] final   71.47 input  -65.29 | X-H torsion
[ 10718 10713 10712 10709 ] final -128.86 input   66.30 | X-H torsion
[ 10763 10752 10751 10750 ] final  -37.33 input  -60.55 | X-H torsion
[ 11005 11000 10999 10996 ] final  139.68 input  -57.11 | X-H torsion

> <Gold.Protein.ActiveResidues>
 VAL166  LYS551  ARG553  GLY616  TRP617  ASP618  TYR619  PRO620  LYS621  CYS622 
 ASP623  PHE694  ASN695  SER759  ASP760  ASP761  ALA762  ILE779  LEU786  VAL792 
 PHE793  MET794  SER795  GLU796  ALA797  LYS798  CYS799  TRP800  GLU811  SER814 

> <Gold.Protein.RotatedAtoms>
  152.5427  134.2089  159.8741 H   0  0  0  0  0  0  0  0  0  0  0  0  # atno 6907 bound_to 6896
  151.2073  133.4569  159.2605 H   0  0  0  0  0  0  0  0  0  0  0  0  # atno 6908 bound_to 6896
  151.0931  134.9941  159.8468 H   0  0  0  0  0  0  0  0  0  0  0  0  # atno 6909 bound_to 6896
  146.0588  140.6378  142.9007 H   0  0  0  0  0  0  0  0  0  0  0  0  # atno 7974 bound_to 7965
  154.7385  140.0497  157.0790 H   0  0  0  0  0  0  0  0  0  0  0  0  # atno 8008 bound_to 7997
  155.0210  140.3147  155.4774 H   0  0  0  0  0  0  0  0  0  0  0  0  # atno 8009 bound_to 7997
  156.2858  140.2167  156.5328 H   0  0  0  0  0  0  0  0  0  0  0  0  # atno 8010 bound_to 7997
  140.0457  144.5353  150.7400 H   0  0  0  0  0  0  0  0  0  0  0  0  # atno 10167 bound_to 10162
  156.1991  130.6846  151.0518 H   0  0  0  0  0  0  0  0  0  0  0  0  # atno 10718 bound_to 10713
  153.8944  135.6809  153.4758 H   0  0  0  0  0  0  0  0  0  0  0  0  # atno 10763 bound_to 10752
  153.1163  135.4760  154.9118 H   0  0  0  0  0  0  0  0  0  0  0  0  # atno 10764 bound_to 10752
  154.7606  135.3209  154.8339 H   0  0  0  0  0  0  0  0  0  0  0  0  # atno 10765 bound_to 10752
  140.0272  134.9369  157.0592 H   0  0  0  0  0  0  0  0  0  0  0  0  # atno 11005 bound_to 11000
  144.7163  140.4220  143.7042 LP  0  0  0  0  0  0  0  0  0  0  0  0  # atno 17320 bound_to 7965
  145.6597  139.1579  143.2815 LP  0  0  0  0  0  0  0  0  0  0  0  0  # atno 17321 bound_to 7965
  140.7240  143.2617  151.4184 LP  0  0  0  0  0  0  0  0  0  0  0  0  # atno 17342 bound_to 10162
  139.5985  144.1346  152.2171 LP  0  0  0  0  0  0  0  0  0  0  0  0  # atno 17343 bound_to 10162
  157.6975  131.0788  150.6923 LP  0  0  0  0  0  0  0  0  0  0  0  0  # atno 17370 bound_to 10713
  156.6980  130.4615  149.5581 LP  0  0  0  0  0  0  0  0  0  0  0  0  # atno 17371 bound_to 10713
  140.4286  134.1804  155.7167 LP  0  0  0  0  0  0  0  0  0  0  0  0  # atno 17394 bound_to 11000
  141.1810  133.8414  157.1258 LP  0  0  0  0  0  0  0  0  0  0  0  0  # atno 17395 bound_to 11000

$$$$
