AV-unprocessed.smi:1492|AV-procd|sdf|6043|dock9
  -GOLD-   22720 6153D 1   1.00000     0.00000
 Structure written by MMmdl.
 53 54  0  0  0  0  0  0  0  0  2 V2000
  147.4652  141.8630  154.1741 C   0  0  0  0  0  0  0  0  0  0  0  0
  148.7793  141.2827  154.7238 C   0  0  0  0  0  0  0  0  0  0  0  0
  148.7123  139.7924  155.1893 C   0  0  2  0  0  0  0  0  0  0  0  0
  148.1071  138.9655  154.0260 C   0  0  0  0  0  0  0  0  0  0  0  0
  147.7616  139.6697  156.4237 C   0  0  0  0  0  0  0  0  0  0  0  0
  147.7357  138.3237  156.9878 N   0  0  0  0  0  0  0  0  0  0  0  0
  147.0470  137.9426  158.0733 C   0  0  0  0  0  0  0  0  0  0  0  0
  146.4797  138.7251  158.8345 O   0  0  0  0  0  0  0  0  0  0  0  0
  146.9436  136.4353  158.2997 C   0  0  0  0  0  0  0  0  0  0  0  0
  146.0578  136.0379  159.4803 C   0  0  0  0  0  0  0  0  0  0  0  0
  144.9229  135.3077  159.3345 C   0  0  0  0  0  0  0  0  0  0  0  0
  144.3880  134.8118  158.0024 C   0  0  0  0  0  0  0  0  0  0  0  0
  144.1600  134.9438  160.4297 N   0  0  0  0  0  0  0  0  0  0  0  0
  144.5943  135.3407  161.6833 C   0  0  0  0  0  0  0  0  0  0  0  0
  143.6931  134.8852  162.8102 C   0  0  0  0  0  0  0  0  0  0  0  0
  145.6653  136.0335  161.9255 N   0  0  0  0  0  0  0  0  0  0  0  0
  146.4734  136.4304  160.8481 C   0  0  0  0  0  0  0  0  0  0  0  0
  147.5040  137.0718  161.0483 O   0  0  0  0  0  0  0  0  0  0  0  0
  150.0935  139.2904  155.5421 N   0  3  0  0  0  0  0  0  0  0  0  0
  150.9817  138.9478  154.3936 C   0  0  0  0  0  0  0  0  0  0  0  0
  152.2837  138.2913  154.8842 C   0  0  0  0  0  0  0  0  0  0  0  0
  152.9460  139.1517  155.7989 O   0  0  0  0  0  0  0  0  0  0  0  0
  152.1496  139.4018  156.9471 C   0  0  0  0  0  0  0  0  0  0  0  0
  150.8539  140.1134  156.5274 C   0  0  0  0  0  0  0  0  0  0  0  0
  143.3212  134.4025  160.2760 H   0  0  0  0  0  0  0  0  0  0  0  0
  147.6059  142.9007  153.8712 H   0  0  0  0  0  0  0  0  0  0  0  0
  146.6721  141.8466  154.9216 H   0  0  0  0  0  0  0  0  0  0  0  0
  147.1151  141.3175  153.2985 H   0  0  0  0  0  0  0  0  0  0  0  0
  149.5461  141.4027  153.9587 H   0  0  0  0  0  0  0  0  0  0  0  0
  149.1361  141.9231  155.5292 H   0  0  0  0  0  0  0  0  0  0  0  0
  147.1121  139.3232  153.7591 H   0  0  0  0  0  0  0  0  0  0  0  0
  148.0050  137.9113  154.2826 H   0  0  0  0  0  0  0  0  0  0  0  0
  148.7049  139.0293  153.1176 H   0  0  0  0  0  0  0  0  0  0  0  0
  148.0976  140.3102  157.2385 H   0  0  0  0  0  0  0  0  0  0  0  0
  146.7581  140.0093  156.1627 H   0  0  0  0  0  0  0  0  0  0  0  0
  148.1845  137.5998  156.4450 H   0  0  0  0  0  0  0  0  0  0  0  0
  146.6029  135.9616  157.3783 H   0  0  0  0  0  0  0  0  0  0  0  0
  147.9460  136.0384  158.4614 H   0  0  0  0  0  0  0  0  0  0  0  0
  144.1793  135.6497  157.3369 H   0  0  0  0  0  0  0  0  0  0  0  0
  143.4640  134.2454  158.1259 H   0  0  0  0  0  0  0  0  0  0  0  0
  145.1152  134.1586  157.5197 H   0  0  0  0  0  0  0  0  0  0  0  0
  144.0048  135.3215  163.7601 H   0  0  0  0  0  0  0  0  0  0  0  0
  143.7263  133.7995  162.9059 H   0  0  0  0  0  0  0  0  0  0  0  0
  142.6621  135.1858  162.6207 H   0  0  0  0  0  0  0  0  0  0  0  0
  150.5099  138.2414  153.7141 H   0  0  0  0  0  0  0  0  0  0  0  0
  151.2171  139.8441  153.8193 H   0  0  0  0  0  0  0  0  0  0  0  0
  152.0803  137.3275  155.3536 H   0  0  0  0  0  0  0  0  0  0  0  0
  152.9467  138.0986  154.0406 H   0  0  0  0  0  0  0  0  0  0  0  0
  151.9320  138.4691  157.4703 H   0  0  0  0  0  0  0  0  0  0  0  0
  152.7146  140.0289  157.6373 H   0  0  0  0  0  0  0  0  0  0  0  0
  151.1038  141.0840  156.0985 H   0  0  0  0  0  0  0  0  0  0  0  0
  150.2778  140.2988  157.4311 H   0  0  0  0  0  0  0  0  0  0  0  0
  149.9261  138.4110  156.0101 H   0  0  0  0  0  0  0  0  0  0  0  0
  1  2  1  0  0  0  0
  1 26  1  0  0  0  0
  1 27  1  0  0  0  0
  1 28  1  0  0  0  0
  2  3  1  0  0  0  0
  2 29  1  0  0  0  0
  2 30  1  0  0  0  0
  3  4  1  0  0  0  0
  3  5  1  0  0  0  0
  3 19  1  0  0  0  0
  4 31  1  0  0  0  0
  4 32  1  0  0  0  0
  4 33  1  0  0  0  0
  5  6  1  0  0  0  0
  5 34  1  0  0  0  0
  5 35  1  0  0  0  0
  6  7  1  0  0  0  0
  6 36  1  0  0  0  0
  7  8  2  0  0  0  0
  7  9  1  0  0  0  0
  9 37  1  0  0  0  0
  9 38  1  0  0  0  0
  9 10  1  0  0  0  0
 10 17  1  0  0  0  0
 10 11  2  0  0  0  0
 11 12  1  0  0  0  0
 11 13  1  0  0  0  0
 12 39  1  0  0  0  0
 12 40  1  0  0  0  0
 12 41  1  0  0  0  0
 13 25  1  0  0  0  0
 13 14  1  0  0  0  0
 14 15  1  0  0  0  0
 14 16  2  0  0  0  0
 15 42  1  0  0  0  0
 15 43  1  0  0  0  0
 15 44  1  0  0  0  0
 16 17  1  0  0  0  0
 17 18  2  0  0  0  0
 19 24  1  0  0  0  0
 19 20  1  0  0  0  0
 19 53  1  0  0  0  0
 20 21  1  0  0  0  0
 20 45  1  0  0  0  0
 20 46  1  0  0  0  0
 21 22  1  0  0  0  0
 21 47  1  0  0  0  0
 21 48  1  0  0  0  0
 22 23  1  0  0  0  0
 23 24  1  0  0  0  0
 23 49  1  0  0  0  0
 23 50  1  0  0  0  0
 24 51  1  0  0  0  0
 24 52  1  0  0  0  0
M  CHG  1  19   1
M  END
> <s_m_source_file>
AV-unprocessed.smi

> <i_m_source_file_index>
1492

> <i_lp_mmshare_version>
43012

> <i_f3d_flags>
0

> <s_epik_input>
W0NIMl0xW0NIMl1PW0NIMl1bQ0gyXU4xW0NAQF0oW0NIM10pKFtDSDJdW0NIM10pW0NIMl1bTkhdQyg9TylbQ0gyXWMyYyhbQ0gzXSluYyhbQ0gzXSlbbkhdYzI9Tw==

> <s_epik_cmdline>
J2VwaWtfcHl0aG9uJywgJy1waCcsICc3LjAnLCAnLXRuJywgJzgnLCAnLW1hJywgJzIwMCcsICctbWV0YWxfYmluZGluZycsICctaW1hZScsICc8aW5maWxlLm1hZT4nLCAnLW9tYWUnLCAnPG91dGZpbGUubWFlPic=

> <r_lp_tautomer_probability>
0.156392

> <r_epik_Ionization_Penalty>
0.523233

> <r_epik_Ionization_Penalty_Charging>
0.523147

> <r_epik_Ionization_Penalty_Neutral>
8.52784e-05

> <r_epik_State_Penalty>
1.66677

> <r_epik_Charging_Adjusted_Penalty>
2.18991

> <i_epik_Tot_Q>
1

> <i_epik_Tot_abs_Q>
1

> <r_epik_Metal_State_Penalty>
1.84524

> <b_epik_Metal_Only>
0

> <s_lp_Force_Field>
OPLS_2005

> <r_lp_Energy>
32.5308

> <b_lp_Chiralities_Consistent>
1

> <s_lp_Variant>
AV-unprocessed.smi:1492-8

> <Gold.Version>
5.8.1

> <Gold.Id.Protein>
6NUR|6NUR_protein|mol2

> <Gold.PLP.Fitness>
36.7826

> <Gold.PLP.PLP>
-28.8369

> <Gold.PLP.part.hbond>
-4.0000

> <Gold.PLP.part.metal>
0.0000

> <Gold.PLP.part.buried>
-4.3162

> <Gold.PLP.part.nonpolar>
-20.5838

> <Gold.PLP.part.repulsive>
0.0883

> <Gold.PLP.ligand.clash>
0.0000

> <Gold.PLP.ligand.torsion>
0.3712

> <Gold.PLP.Chemscore.Hbond>
2.8240

> <Gold.PLP.Chemscore.CHOScore>
0.0000

> <Gold.PLP.Chemscore.Metal>
0.0000

> <Gold.Chemscore.Hbonds>
donor molecule, donor type, donor heavy atom, donor atom, acceptor molecule, acceptor atom, score
      P1  H  6931  6943       L1    18  0.73
      P1  H  6934  6947       L1    18  0.99
      P1  H  7997  8009       L1    22  1.00

> <Gold.PLP.Chemscore.Internal.Correction>
0.2162

> <Gold.Rescore>
     Score         DG    S(hbond)    S(metal)    S(lipo)     H(rot)  DE(clash)    DE(int)     intcor
     15.64     -16.19       2.65        0.00      63.83       2.19       0.06       0.49       ----

> <Gold.Chemscore.Fitness>
15.6351

> <Gold.Chemscore.DG>
-16.1863

> <Gold.Chemscore.ZeroCoef>
-5.4800

> <Gold.Chemscore.Hbond>
2.6500

> <Gold.Chemscore.Metal>
0.0000

> <Gold.Chemscore.Lipo>
63.8312

> <Gold.Chemscore.Internal_Hbond>
0.0000

> <Gold.Chemscore.DEClash>
0.0649

> <Gold.Chemscore.DEInternal>
0.4863

> <Gold.Chemscore.Rot>
2.1926

> <Gold.Chemscore.Internal.Correction>
   9.000000E+99

> <Gold.Chemscore.Hbonds>
donor molecule, donor type, donor heavy atom, donor atom, acceptor molecule, acceptor atom, score
      P1  H  6931  6943       L1    18  0.70
      P1  H  6934  6947       L1    18  0.76
      P1  H  7997  8009       L1    22  0.59

> <Gold.Chemscore.Hbond.Weighted>
-8.8510

> <Gold.Chemscore.Metal.Weighted>
-0.0000

> <Gold.Chemscore.Lipo.Weighted>
-7.4682

> <Gold.Chemscore.Internal_Hbond.Weighted>
0.0000

> <Gold.Chemscore.DEClash.Weighted>
0.0649

> <Gold.Chemscore.DEInternal.Weighted>
0.4863

> <Gold.Chemscore.Rot.Weighted>
5.6129

> <Gold.Chemscore.Internal.Correction.Weighted>
   9.000000E+99

> <Gold.Protein.RotatedTorsions>
[ 6907 6896 6895 6894 ] final  164.25 input  -60.11 | X-H torsion
[ 7974 7965 7964 7962 ] final    7.84 input  175.53 | X-H torsion
[ 8008 7997 7996 7995 ] final -139.07 input   59.86 | X-H torsion
[ 10167 10162 10161 10158 ] final    6.75 input  -65.29 | X-H torsion
[ 10718 10713 10712 10709 ] final   26.33 input   66.30 | X-H torsion
[ 10763 10752 10751 10750 ] final  160.17 input  -60.55 | X-H torsion
[ 11005 11000 10999 10996 ] final -169.95 input  -57.11 | X-H torsion

> <Gold.Protein.ActiveResidues>
 VAL166  LYS551  ARG553  GLY616  TRP617  ASP618  TYR619  PRO620  LYS621  CYS622 
 ASP623  PHE694  ASN695  SER759  ASP760  ASP761  ALA762  ILE779  LEU786  VAL792 
 PHE793  MET794  SER795  GLU796  ALA797  LYS798  CYS799  TRP800  GLU811  SER814 

> <Gold.Protein.RotatedAtoms>
  151.9128  133.3565  159.3869 H   0  0  0  0  0  0  0  0  0  0  0  0  # atno 6907 bound_to 6896
  150.7054  134.4715  159.5437 H   0  0  0  0  0  0  0  0  0  0  0  0  # atno 6908 bound_to 6896
  152.2324  134.8309  160.0522 H   0  0  0  0  0  0  0  0  0  0  0  0  # atno 6909 bound_to 6896
  146.2422  140.0022  142.8415 H   0  0  0  0  0  0  0  0  0  0  0  0  # atno 7974 bound_to 7965
  155.4387  140.0530  157.3012 H   0  0  0  0  0  0  0  0  0  0  0  0  # atno 8008 bound_to 7997
  154.4827  140.2088  155.9682 H   0  0  0  0  0  0  0  0  0  0  0  0  # atno 8009 bound_to 7997
  156.1230  140.3185  155.8241 H   0  0  0  0  0  0  0  0  0  0  0  0  # atno 8010 bound_to 7997
  140.6410  143.7774  150.7428 H   0  0  0  0  0  0  0  0  0  0  0  0  # atno 10167 bound_to 10162
  157.2054  130.6909  149.6206 H   0  0  0  0  0  0  0  0  0  0  0  0  # atno 10718 bound_to 10713
  154.2432  135.2774  155.2845 H   0  0  0  0  0  0  0  0  0  0  0  0  # atno 10763 bound_to 10752
  154.5527  135.5670  153.6940 H   0  0  0  0  0  0  0  0  0  0  0  0  # atno 10764 bound_to 10752
  152.9995  135.6278  154.2577 H   0  0  0  0  0  0  0  0  0  0  0  0  # atno 10765 bound_to 10752
  140.5250  134.5672  157.5059 H   0  0  0  0  0  0  0  0  0  0  0  0  # atno 11005 bound_to 11000
  145.1405  140.9568  143.4491 LP  0  0  0  0  0  0  0  0  0  0  0  0  # atno 17320 bound_to 7965
  145.0301  139.3348  143.6029 LP  0  0  0  0  0  0  0  0  0  0  0  0  # atno 17321 bound_to 7965
  140.1405  143.4445  152.2196 LP  0  0  0  0  0  0  0  0  0  0  0  0  # atno 17342 bound_to 10162
  139.5619  144.7411  151.4130 LP  0  0  0  0  0  0  0  0  0  0  0  0  # atno 17343 bound_to 10162
  155.9696  130.4569  150.5941 LP  0  0  0  0  0  0  0  0  0  0  0  0  # atno 17370 bound_to 10713
  157.3725  131.0768  151.1545 LP  0  0  0  0  0  0  0  0  0  0  0  0  # atno 17371 bound_to 10713
  139.9585  134.7493  156.0289 LP  0  0  0  0  0  0  0  0  0  0  0  0  # atno 17394 bound_to 11000
  141.1313  133.6586  156.3472 LP  0  0  0  0  0  0  0  0  0  0  0  0  # atno 17395 bound_to 11000

$$$$
