AV-unprocessed.smi:49|AV-procd|sdf|481|dock2
  -GOLD-   2262016343D 1   1.00000     0.00000
 Structure written by MMmdl.
 28 29  0  0  0  0  0  0  0  0  2 V2000
  146.4735  142.8987  154.5374 C   0  0  0  0  0  0  0  0  0  0  0  0
  147.1402  141.6991  153.8557 C   0  0  0  0  0  0  0  0  0  0  0  0
  148.4814  141.3834  154.4323 C   0  0  0  0  0  0  0  0  0  0  0  0
  149.0429  142.1433  155.3834 N   0  0  0  0  0  0  0  0  0  0  0  0
  150.2197  141.5373  155.5993 C   0  0  0  0  0  0  0  0  0  0  0  0
  151.2004  142.0675  156.6026 C   0  0  2  0  0  0  0  0  0  0  0  0
  150.8326  141.8099  158.0656 C   0  0  0  0  0  0  0  0  0  0  0  0
  151.4293  143.0265  158.7668 C   0  0  2  0  0  0  0  0  0  0  0  0
  150.8139  143.2774  160.0124 O   0  0  0  0  0  0  0  0  0  0  0  0
  151.1907  144.1615  157.7642 C   0  0  0  0  0  0  0  0  0  0  0  0
  151.1911  143.5353  156.4265 N   0  3  0  0  0  0  0  0  0  0  0  0
  150.3996  140.4602  154.8244 N   0  0  0  0  0  0  0  0  0  0  0  0
  149.2533  140.3597  154.0559 N   0  0  0  0  0  0  0  0  0  0  0  0
  152.2044  141.6974  156.3891 H   0  0  0  0  0  0  0  0  0  0  0  0
  152.5006  142.8796  158.9120 H   0  0  0  0  0  0  0  0  0  0  0  0
  148.6695  142.9722  155.8234 H   0  0  0  0  0  0  0  0  0  0  0  0
  145.4985  143.1042  154.0953 H   0  0  0  0  0  0  0  0  0  0  0  0
  147.0818  143.7977  154.4344 H   0  0  0  0  0  0  0  0  0  0  0  0
  146.3250  142.7143  155.6016 H   0  0  0  0  0  0  0  0  0  0  0  0
  146.4996  140.8206  153.9399 H   0  0  0  0  0  0  0  0  0  0  0  0
  147.2566  141.8974  152.7896 H   0  0  0  0  0  0  0  0  0  0  0  0
  149.7475  141.8168  158.1856 H   0  0  0  0  0  0  0  0  0  0  0  0
  151.2061  140.8569  158.4414 H   0  0  0  0  0  0  0  0  0  0  0  0
  149.9282  142.9473  159.9865 H   0  0  0  0  0  0  0  0  0  0  0  0
  150.2095  144.6130  157.9186 H   0  0  0  0  0  0  0  0  0  0  0  0
  151.9397  144.9503  157.8402 H   0  0  0  0  0  0  0  0  0  0  0  0
  152.0014  143.8223  155.8965 H   0  0  0  0  0  0  0  0  0  0  0  0
  150.3493  143.8074  155.9380 H   0  0  0  0  0  0  0  0  0  0  0  0
  1  2  1  0  0  0  0
  1 17  1  0  0  0  0
  1 18  1  0  0  0  0
  1 19  1  0  0  0  0
  2 20  1  0  0  0  0
  2 21  1  0  0  0  0
  2  3  1  0  0  0  0
  3  4  1  0  0  0  0
  3 13  2  0  0  0  0
  4 16  1  0  0  0  0
  4  5  1  0  0  0  0
  5 12  2  0  0  0  0
  5  6  1  0  0  0  0
  6 14  1  0  0  0  0
  6 11  1  0  0  0  0
  6  7  1  0  0  0  0
  7  8  1  0  0  0  0
  7 22  1  0  0  0  0
  7 23  1  0  0  0  0
  8 15  1  0  0  0  0
  8  9  1  0  0  0  0
  8 10  1  0  0  0  0
  9 24  1  0  0  0  0
 10 11  1  0  0  0  0
 10 25  1  0  0  0  0
 10 26  1  0  0  0  0
 11 27  1  0  0  0  0
 11 28  1  0  0  0  0
 12 13  1  0  0  0  0
M  CHG  1  11   1
M  END
> <s_m_source_file>
AV-unprocessed.smi

> <i_m_source_file_index>
49

> <i_lp_mmshare_version>
43012

> <i_f3d_flags>
0

> <s_epik_input>
W0NIM11bQ0gyXWMxbmMobltuSF0xKVtDQEBIXTJbQ0gyXVtDQEBIXShbT0hdKVtDSDJdW05IXTI=

> <s_epik_cmdline>
J2VwaWtfcHl0aG9uJywgJy1waCcsICc3LjAnLCAnLXRuJywgJzgnLCAnLW1hJywgJzIwMCcsICctbWV0YWxfYmluZGluZycsICctaW1hZScsICc8aW5maWxlLm1hZT4nLCAnLW9tYWUnLCAnPG91dGZpbGUubWFlPic=

> <r_lp_tautomer_probability>
0.0517155

> <r_epik_Ionization_Penalty>
0.939819

> <r_epik_Ionization_Penalty_Charging>
0.0688988

> <r_epik_Ionization_Penalty_Neutral>
0.87092

> <r_epik_State_Penalty>
2.1224

> <r_epik_Charging_Adjusted_Penalty>
2.1913

> <i_epik_Tot_Q>
1

> <i_epik_Tot_abs_Q>
1

> <r_epik_Metal_State_Penalty>
2.39725

> <b_epik_Metal_Only>
0

> <s_lp_Force_Field>
OPLS_2005

> <r_lp_Energy>
21.0752

> <b_lp_Chiralities_Consistent>
1

> <s_lp_Variant>
AV-unprocessed.smi:49-19

> <Gold.Version>
5.8.1

> <Gold.Id.Protein>
6NUR|6NUR_protein|mol2

> <Gold.PLP.Fitness>
36.0676

> <Gold.PLP.PLP>
-25.6562

> <Gold.PLP.part.hbond>
-4.1119

> <Gold.PLP.part.metal>
0.0000

> <Gold.PLP.part.buried>
-2.9935

> <Gold.PLP.part.nonpolar>
-19.1047

> <Gold.PLP.part.repulsive>
1.4239

> <Gold.PLP.ligand.clash>
0.0000

> <Gold.PLP.ligand.torsion>
0.4288

> <Gold.PLP.Chemscore.Hbond>
3.7520

> <Gold.PLP.Chemscore.CHOScore>
0.0000

> <Gold.PLP.Chemscore.Metal>
0.0000

> <Gold.Chemscore.Hbonds>
donor molecule, donor type, donor heavy atom, donor atom, acceptor molecule, acceptor atom, score
      L1  H     4    16       P1  8028  0.74
      L1  H    11    28       P1  8028  2.00
      P1  H  7989  7998       L1    12  0.95

> <Gold.PLP.Chemscore.Internal.Correction>
0.0131

> <Gold.Rescore>
     Score         DG    S(hbond)    S(metal)    S(lipo)     H(rot)  DE(clash)    DE(int)     intcor
     11.74     -12.97       1.96        0.00      49.26       1.89       0.53       0.70       ----

> <Gold.Chemscore.Fitness>
11.7358

> <Gold.Chemscore.DG>
-12.9666

> <Gold.Chemscore.ZeroCoef>
-5.4800

> <Gold.Chemscore.Hbond>
1.9633

> <Gold.Chemscore.Metal>
0.0000

> <Gold.Chemscore.Lipo>
49.2572

> <Gold.Chemscore.Internal_Hbond>
0.0000

> <Gold.Chemscore.DEClash>
0.5290

> <Gold.Chemscore.DEInternal>
0.7018

> <Gold.Chemscore.Rot>
1.8883

> <Gold.Chemscore.Internal.Correction>
   9.000000E+99

> <Gold.Chemscore.Hbonds>
donor molecule, donor type, donor heavy atom, donor atom, acceptor molecule, acceptor atom, score
      L1  H     4    16       P1  8028  0.74
      L1  H    11    28       P1  8028  0.99
      P1  H  7989  7998       L1    12  0.14

> <Gold.Chemscore.Hbond.Weighted>
-6.5575

> <Gold.Chemscore.Metal.Weighted>
-0.0000

> <Gold.Chemscore.Lipo.Weighted>
-5.7631

> <Gold.Chemscore.Internal_Hbond.Weighted>
0.0000

> <Gold.Chemscore.DEClash.Weighted>
0.5290

> <Gold.Chemscore.DEInternal.Weighted>
0.7018

> <Gold.Chemscore.Rot.Weighted>
4.8340

> <Gold.Chemscore.Internal.Correction.Weighted>
   9.000000E+99

> <Gold.Protein.RotatedTorsions>
[ 6907 6896 6895 6894 ] final   87.23 input  -60.11 | X-H torsion
[ 7974 7965 7964 7962 ] final -155.73 input  175.53 | X-H torsion
[ 8008 7997 7996 7995 ] final    4.42 input   59.86 | X-H torsion
[ 10167 10162 10161 10158 ] final   44.78 input  -65.29 | X-H torsion
[ 10718 10713 10712 10709 ] final -128.29 input   66.30 | X-H torsion
[ 10763 10752 10751 10750 ] final -129.00 input  -60.55 | X-H torsion
[ 11005 11000 10999 10996 ] final  127.16 input  -57.11 | X-H torsion

> <Gold.Protein.ActiveResidues>
 VAL166  LYS551  ARG553  GLY616  TRP617  ASP618  TYR619  PRO620  LYS621  CYS622 
 ASP623  PHE694  ASN695  SER759  ASP760  ASP761  ALA762  ILE779  LEU786  VAL792 
 PHE793  MET794  SER795  GLU796  ALA797  LYS798  CYS799  TRP800  GLU811  SER814 

> <Gold.Protein.RotatedAtoms>
  152.5408  134.2308  159.8823 H   0  0  0  0  0  0  0  0  0  0  0  0  # atno 6907 bound_to 6896
  151.2280  133.4459  159.2610 H   0  0  0  0  0  0  0  0  0  0  0  0  # atno 6908 bound_to 6896
  151.0742  134.9831  159.8380 H   0  0  0  0  0  0  0  0  0  0  0  0  # atno 6909 bound_to 6896
  144.7626  140.4209  143.5965 H   0  0  0  0  0  0  0  0  0  0  0  0  # atno 7974 bound_to 7965
  154.7157  140.2701  155.6588 H   0  0  0  0  0  0  0  0  0  0  0  0  # atno 8008 bound_to 7997
  156.2809  140.2744  156.1737 H   0  0  0  0  0  0  0  0  0  0  0  0  # atno 8009 bound_to 7997
  155.0574  140.0371  157.2555 H   0  0  0  0  0  0  0  0  0  0  0  0  # atno 8010 bound_to 7997
  140.3308  144.2591  150.6168 H   0  0  0  0  0  0  0  0  0  0  0  0  # atno 10167 bound_to 10162
  156.1937  130.6812  151.0456 H   0  0  0  0  0  0  0  0  0  0  0  0  # atno 10718 bound_to 10713
  154.8757  135.3910  154.3848 H   0  0  0  0  0  0  0  0  0  0  0  0  # atno 10763 bound_to 10752
  153.4591  135.7029  153.6067 H   0  0  0  0  0  0  0  0  0  0  0  0  # atno 10764 bound_to 10752
  153.4573  135.3820  155.2287 H   0  0  0  0  0  0  0  0  0  0  0  0  # atno 10765 bound_to 10752
  139.9493  134.9624  156.8814 H   0  0  0  0  0  0  0  0  0  0  0  0  # atno 11005 bound_to 11000
  145.6570  139.1575  143.2829 LP  0  0  0  0  0  0  0  0  0  0  0  0  # atno 17320 bound_to 7965
  146.1704  140.6654  142.9236 LP  0  0  0  0  0  0  0  0  0  0  0  0  # atno 17321 bound_to 7965
  140.5399  143.2225  151.8102 LP  0  0  0  0  0  0  0  0  0  0  0  0  # atno 17342 bound_to 10162
  139.4857  144.4614  151.9536 LP  0  0  0  0  0  0  0  0  0  0  0  0  # atno 17343 bound_to 10162
  157.6945  131.0799  150.7011 LP  0  0  0  0  0  0  0  0  0  0  0  0  # atno 17370 bound_to 10713
  156.7067  130.4639  149.5558 LP  0  0  0  0  0  0  0  0  0  0  0  0  # atno 17371 bound_to 10713
  140.5757  134.0400  155.7446 LP  0  0  0  0  0  0  0  0  0  0  0  0  # atno 17394 bound_to 11000
  141.1152  133.9552  157.2835 LP  0  0  0  0  0  0  0  0  0  0  0  0  # atno 17395 bound_to 11000

$$$$
