AV-unprocessed.smi:72|AV-procd|sdf|698|dock1
  -GOLD-   2262017 13D 1   1.00000     0.00000
 Structure written by MMmdl.
 30 31  0  0  0  0  0  0  0  0  2 V2000
  150.9422  144.3992  158.6895 N   0  0  0  0  0  0  0  0  0  0  0  0
  150.9799  143.0722  158.3156 C   0  0  0  0  0  0  0  0  0  0  0  0
  150.3626  142.7216  157.1282 N   0  3  0  0  0  0  0  0  0  0  0  0
  150.3060  141.4803  156.6277 C   0  0  0  0  0  0  0  0  0  0  0  0
  150.8725  140.4953  157.2926 N   0  0  0  0  0  0  0  0  0  0  0  0
  150.8315  139.0890  156.7543 C   0  0  1  0  0  0  0  0  0  0  0  0
  149.5016  138.7932  156.4531 O   0  0  0  0  0  0  0  0  0  0  0  0
  149.4255  138.1733  155.1741 C   0  0  1  0  0  0  0  0  0  0  0  0
  148.0147  138.3105  154.5746 C   0  0  0  0  0  0  0  0  0  0  0  0
  147.8922  137.5015  153.4246 O   0  0  0  0  0  0  0  0  0  0  0  0
  150.5839  138.8015  154.3867 C   0  0  1  0  0  0  0  0  0  0  0  0
  150.2093  140.0593  153.8487 O   0  0  0  0  0  0  0  0  0  0  0  0
  151.6578  138.9278  155.4609 C   0  0  1  0  0  0  0  0  0  0  0  0
  152.5930  139.9571  155.1858 O   0  0  0  0  0  0  0  0  0  0  0  0
  151.5397  140.7574  158.5171 C   0  0  0  0  0  0  0  0  0  0  0  0
  152.0908  139.8493  159.1375 O   0  0  0  0  0  0  0  0  0  0  0  0
  151.5405  142.0877  158.9620 N   0  0  0  0  0  0  0  0  0  0  0  0
  151.1615  138.4296  157.5582 H   0  0  0  0  0  0  0  0  0  0  0  0
  149.6445  137.1144  155.3254 H   0  0  0  0  0  0  0  0  0  0  0  0
  150.9098  138.1626  153.5651 H   0  0  0  0  0  0  0  0  0  0  0  0
  152.1958  137.9824  155.5427 H   0  0  0  0  0  0  0  0  0  0  0  0
  151.3657  144.7458  159.5390 H   0  0  0  0  0  0  0  0  0  0  0  0
  150.4956  145.1267  158.1498 H   0  0  0  0  0  0  0  0  0  0  0  0
  149.7972  141.3040  155.6889 H   0  0  0  0  0  0  0  0  0  0  0  0
  147.2703  137.9870  155.3025 H   0  0  0  0  0  0  0  0  0  0  0  0
  147.7819  139.3454  154.3233 H   0  0  0  0  0  0  0  0  0  0  0  0
  148.7582  137.2976  153.1050 H   0  0  0  0  0  0  0  0  0  0  0  0
  149.9858  139.9369  152.9380 H   0  0  0  0  0  0  0  0  0  0  0  0
  152.2443  140.5006  154.4956 H   0  0  0  0  0  0  0  0  0  0  0  0
  149.9216  143.4611  156.6002 H   0  0  0  0  0  0  0  0  0  0  0  0
  1  2  1  0  0  0  0
  1 22  1  0  0  0  0
  1 23  1  0  0  0  0
  2 17  2  0  0  0  0
  2  3  1  0  0  0  0
  3  4  2  0  0  0  0
  3 30  1  0  0  0  0
  4  5  1  0  0  0  0
  4 24  1  0  0  0  0
  5  6  1  0  0  0  0
  5 15  1  0  0  0  0
  6 18  1  0  0  0  0
  6 13  1  0  0  0  0
  6  7  1  0  0  0  0
  7  8  1  0  0  0  0
  8 19  1  0  0  0  0
  8  9  1  0  0  0  0
  8 11  1  0  0  0  0
  9 10  1  0  0  0  0
  9 25  1  0  0  0  0
  9 26  1  0  0  0  0
 10 27  1  0  0  0  0
 11 20  1  0  0  0  0
 11 12  1  0  0  0  0
 11 13  1  0  0  0  0
 12 28  1  0  0  0  0
 13 21  1  0  0  0  0
 13 14  1  0  0  0  0
 14 29  1  0  0  0  0
 15 16  2  0  0  0  0
 15 17  1  0  0  0  0
M  CHG  1   3   1
M  END
> <s_m_source_file>
AV-unprocessed.smi

> <i_m_source_file_index>
72

> <i_lp_mmshare_version>
43012

> <i_f3d_flags>
0

> <s_epik_input>
W05IMl1jMW5bY0hdbihjKD1PKW4xKVtDQEBIXTJPW0NASF0oW0NIMl1bT0hdKVtDQEBIXShbT0hdKVtDQEhdMltPSF0=

> <s_epik_cmdline>
J2VwaWtfcHl0aG9uJywgJy1waCcsICc3LjAnLCAnLXRuJywgJzgnLCAnLW1hJywgJzIwMCcsICctbWV0YWxfYmluZGluZycsICctaW1hZScsICc8aW5maWxlLm1hZT4nLCAnLW9tYWUnLCAnPG91dGZpbGUubWFlPic=

> <r_lp_tautomer_probability>
4.77166e-05

> <r_epik_Ionization_Penalty>
0.104979

> <r_epik_Ionization_Penalty_Charging>
0.0999619

> <r_epik_Ionization_Penalty_Neutral>
0.00501745

> <r_epik_State_Penalty>
2.51541

> <r_epik_Charging_Adjusted_Penalty>
2.61537

> <i_epik_Tot_Q>
1

> <i_epik_Tot_abs_Q>
1

> <r_epik_Metal_State_Penalty>
3.53763

> <b_epik_Metal_Only>
0

> <s_epik_Chemistry_Notes>
This compound contains an acetal/aminal-like group ( X-CH(R)-Y where X, Y are N, S, or O) that may be acid/base labile, releasing an aldehyde.

> <s_lp_Force_Field>
OPLS_2005

> <r_lp_Energy>
38.8596

> <b_lp_Chiralities_Consistent>
1

> <s_lp_Variant>
AV-unprocessed.smi:72-36

> <Gold.Version>
5.8.1

> <Gold.Id.Protein>
6NUR|6NUR_protein|mol2

> <Gold.PLP.Fitness>
42.1026

> <Gold.PLP.PLP>
-25.7465

> <Gold.PLP.part.hbond>
-6.0000

> <Gold.PLP.part.metal>
0.0000

> <Gold.PLP.part.buried>
-4.7907

> <Gold.PLP.part.nonpolar>
-15.2209

> <Gold.PLP.part.repulsive>
0.1192

> <Gold.PLP.ligand.clash>
0.0000

> <Gold.PLP.ligand.torsion>
0.1866

> <Gold.PLP.Chemscore.Hbond>
5.5680

> <Gold.PLP.Chemscore.CHOScore>
0.0000

> <Gold.PLP.Chemscore.Metal>
0.0000

> <Gold.Chemscore.Hbonds>
donor molecule, donor type, donor heavy atom, donor atom, acceptor molecule, acceptor atom, score
      L1  H     3    30       P1  8028  2.00
      L1  H    10    27       P1  7948  0.43
      L1  H    12    28       P1  7957  1.00
      P1  H  7989  7998       L1    12  0.53
      P1  H  7997  8010       L1    14  1.00

> <Gold.PLP.Chemscore.Internal.Correction>
0.0254

> <Gold.Rescore>
     Score         DG    S(hbond)    S(metal)    S(lipo)     H(rot)  DE(clash)    DE(int)     intcor
     10.91     -11.31       4.16        0.00      20.20       4.08       0.04       0.35       ----

> <Gold.Chemscore.Fitness>
10.9084

> <Gold.Chemscore.DG>
-11.3053

> <Gold.Chemscore.ZeroCoef>
-5.4800

> <Gold.Chemscore.Hbond>
4.1625

> <Gold.Chemscore.Metal>
0.0000

> <Gold.Chemscore.Lipo>
20.1971

> <Gold.Chemscore.Internal_Hbond>
0.0000

> <Gold.Chemscore.DEClash>
0.0436

> <Gold.Chemscore.DEInternal>
0.3534

> <Gold.Chemscore.Rot>
4.0783

> <Gold.Chemscore.Internal.Correction>
   9.000000E+99

> <Gold.Chemscore.Hbonds>
donor molecule, donor type, donor heavy atom, donor atom, acceptor molecule, acceptor atom, score
      L1  H     3    30       P1  8028  1.00
      L1  H    10    27       P1  7948  0.42
      L1  H    12    28       P1  7957  1.00
      P1  H  7989  7998       L1    12  0.02
      P1  H  7997  8010       L1    14  0.96

> <Gold.Chemscore.Hbond.Weighted>
-13.9027

> <Gold.Chemscore.Metal.Weighted>
-0.0000

> <Gold.Chemscore.Lipo.Weighted>
-2.3631

> <Gold.Chemscore.Internal_Hbond.Weighted>
0.0000

> <Gold.Chemscore.DEClash.Weighted>
0.0436

> <Gold.Chemscore.DEInternal.Weighted>
0.3534

> <Gold.Chemscore.Rot.Weighted>
10.4404

> <Gold.Chemscore.Internal.Correction.Weighted>
   9.000000E+99

> <Gold.Protein.RotatedTorsions>
[ 6907 6896 6895 6894 ] final  104.69 input  -60.11 | X-H torsion
[ 7974 7965 7964 7962 ] final -115.38 input  175.53 | X-H torsion
[ 8008 7997 7996 7995 ] final   99.66 input   59.86 | X-H torsion
[ 10167 10162 10161 10158 ] final  -99.19 input  -65.29 | X-H torsion
[ 10718 10713 10712 10709 ] final   83.03 input   66.30 | X-H torsion
[ 10763 10752 10751 10750 ] final  169.61 input  -60.55 | X-H torsion
[ 11005 11000 10999 10996 ] final  -94.03 input  -57.11 | X-H torsion

> <Gold.Protein.ActiveResidues>
 VAL166  LYS551  ARG553  GLY616  TRP617  ASP618  TYR619  PRO620  LYS621  CYS622 
 ASP623  PHE694  ASN695  SER759  ASP760  ASP761  ALA762  ILE779  LEU786  VAL792 
 PHE793  MET794  SER795  GLU796  ALA797  LYS798  CYS799  TRP800  GLU811  SER814 

> <Gold.Protein.RotatedAtoms>
  152.5256  133.9640  159.7730 H   0  0  0  0  0  0  0  0  0  0  0  0  # atno 6907 bound_to 6896
  150.9925  133.6127  159.2713 H   0  0  0  0  0  0  0  0  0  0  0  0  # atno 6908 bound_to 6896
  151.3266  135.0837  159.9377 H   0  0  0  0  0  0  0  0  0  0  0  0  # atno 6909 bound_to 6896
  145.1091  140.8600  143.3880 H   0  0  0  0  0  0  0  0  0  0  0  0  # atno 7974 bound_to 7965
  156.1127  140.3225  155.8095 H   0  0  0  0  0  0  0  0  0  0  0  0  # atno 8008 bound_to 7997
  155.4644  140.0542  157.3004 H   0  0  0  0  0  0  0  0  0  0  0  0  # atno 8009 bound_to 7997
  154.4771  140.2037  155.9866 H   0  0  0  0  0  0  0  0  0  0  0  0  # atno 8010 bound_to 7997
  140.2650  143.3382  152.0589 H   0  0  0  0  0  0  0  0  0  0  0  0  # atno 10167 bound_to 10162
  157.6870  131.0073  150.2463 H   0  0  0  0  0  0  0  0  0  0  0  0  # atno 10718 bound_to 10713
  154.3857  135.2753  155.2185 H   0  0  0  0  0  0  0  0  0  0  0  0  # atno 10763 bound_to 10752
  154.4273  135.5986  153.6050 H   0  0  0  0  0  0  0  0  0  0  0  0  # atno 10764 bound_to 10752
  152.9833  135.5987  154.4105 H   0  0  0  0  0  0  0  0  0  0  0  0  # atno 10765 bound_to 10752
  141.1481  133.7928  157.0241 H   0  0  0  0  0  0  0  0  0  0  0  0  # atno 11005 bound_to 11000
  145.0867  139.2920  143.5756 LP  0  0  0  0  0  0  0  0  0  0  0  0  # atno 17320 bound_to 7965
  146.3527  140.0391  142.8644 LP  0  0  0  0  0  0  0  0  0  0  0  0  # atno 17321 bound_to 7965
  139.5005  144.6694  151.6280 LP  0  0  0  0  0  0  0  0  0  0  0  0  # atno 17342 bound_to 10162
  140.5935  143.9737  150.6340 LP  0  0  0  0  0  0  0  0  0  0  0  0  # atno 17343 bound_to 10162
  156.3068  130.3766  149.7699 LP  0  0  0  0  0  0  0  0  0  0  0  0  # atno 17370 bound_to 10713
  156.5312  130.8258  151.3237 LP  0  0  0  0  0  0  0  0  0  0  0  0  # atno 17371 bound_to 10713
  140.0796  134.9655  157.1603 LP  0  0  0  0  0  0  0  0  0  0  0  0  # atno 17394 bound_to 11000
  140.3595  134.2510  155.7189 LP  0  0  0  0  0  0  0  0  0  0  0  0  # atno 17395 bound_to 11000

$$$$
