AV-unprocessed.smi:2243|AV-procd|sdf|9062|dock8
  -GOLD-   2272012273D 1   1.00000     0.00000
 Structure written by MMmdl.
 34 35  0  0  0  0  0  0  0  0  1 V2000
  152.0511  145.6215  159.3475 C   0  0  0  0  0  0  0  0  0  0  0  0
  151.5606  144.3775  158.5867 C   0  0  2  0  0  0  0  0  0  0  0  0
  150.0973  144.3993  158.5823 N   0  0  0  0  0  0  0  0  0  0  0  0
  149.3007  144.1612  159.6356 C   0  0  0  0  0  0  0  0  0  0  0  0
  149.7172  143.8968  160.7637 O   0  0  0  0  0  0  0  0  0  0  0  0
  148.0049  144.2536  159.2932 N   0  0  0  0  0  0  0  0  0  0  0  0
  146.8751  144.0726  160.1304 C   0  0  0  0  0  0  0  0  0  0  0  0
  146.6611  143.0578  160.9694 N   0  0  0  0  0  0  0  0  0  0  0  0
  145.4320  143.3366  161.5493 C   0  0  0  0  0  0  0  0  0  0  0  0
  144.9685  144.5150  161.0230 C   0  0  0  0  0  0  0  0  0  0  0  0
  145.8768  144.9949  160.1178 O   0  0  0  0  0  0  0  0  0  0  0  0
  152.0822  143.0439  159.1853 C   0  0  0  0  0  0  0  0  0  0  0  0
  153.6165  143.0251  159.3420 C   0  0  0  0  0  0  0  0  0  0  0  0
  154.1102  141.6645  159.8599 C   0  0  0  0  0  0  0  0  0  0  0  0
  153.6842  140.6261  158.9869 O   0  0  0  0  0  0  0  0  0  0  0  0
  152.2681  140.5196  158.9145 C   0  0  0  0  0  0  0  0  0  0  0  0
  151.6711  141.8161  158.3440 C   0  0  0  0  0  0  0  0  0  0  0  0
  153.1315  145.7417  159.2737 H   0  0  0  0  0  0  0  0  0  0  0  0
  151.7894  145.5705  160.4049 H   0  0  0  0  0  0  0  0  0  0  0  0
  151.6051  146.5294  158.9391 H   0  0  0  0  0  0  0  0  0  0  0  0
  151.9340  144.4538  157.5638 H   0  0  0  0  0  0  0  0  0  0  0  0
  149.6565  144.6109  157.6991 H   0  0  0  0  0  0  0  0  0  0  0  0
  147.8033  144.4780  158.3302 H   0  0  0  0  0  0  0  0  0  0  0  0
  144.9876  142.6814  162.2838 H   0  0  0  0  0  0  0  0  0  0  0  0
  144.0766  145.1047  161.1748 H   0  0  0  0  0  0  0  0  0  0  0  0
  151.6449  142.9256  160.1782 H   0  0  0  0  0  0  0  0  0  0  0  0
  154.0892  143.2397  158.3826 H   0  0  0  0  0  0  0  0  0  0  0  0
  153.9444  143.8012  160.0329 H   0  0  0  0  0  0  0  0  0  0  0  0
  155.1990  141.6567  159.9096 H   0  0  0  0  0  0  0  0  0  0  0  0
  153.7447  141.4772  160.8708 H   0  0  0  0  0  0  0  0  0  0  0  0
  152.0117  139.6766  158.2725 H   0  0  0  0  0  0  0  0  0  0  0  0
  151.8574  140.3033  159.9018 H   0  0  0  0  0  0  0  0  0  0  0  0
  150.5861  141.7163  158.3062 H   0  0  0  0  0  0  0  0  0  0  0  0
  152.0064  141.9459  157.3141 H   0  0  0  0  0  0  0  0  0  0  0  0
  1  2  1  0  0  0  0
  1 18  1  0  0  0  0
  1 19  1  0  0  0  0
  1 20  1  0  0  0  0
  2  3  1  0  0  0  0
  2 12  1  0  0  0  0
  2 21  1  0  0  0  0
  3  4  1  0  0  0  0
  3 22  1  0  0  0  0
  4  5  2  0  0  0  0
  4  6  1  0  0  0  0
  6  7  1  0  0  0  0
  6 23  1  0  0  0  0
  7 11  1  0  0  0  0
  7  8  2  0  0  0  0
  8  9  1  0  0  0  0
  9 10  2  0  0  0  0
  9 24  1  0  0  0  0
 10 11  1  0  0  0  0
 10 25  1  0  0  0  0
 12 17  1  0  0  0  0
 12 13  1  0  0  0  0
 12 26  1  0  0  0  0
 13 14  1  0  0  0  0
 13 27  1  0  0  0  0
 13 28  1  0  0  0  0
 14 15  1  0  0  0  0
 14 29  1  0  0  0  0
 14 30  1  0  0  0  0
 15 16  1  0  0  0  0
 16 17  1  0  0  0  0
 16 31  1  0  0  0  0
 16 32  1  0  0  0  0
 17 33  1  0  0  0  0
 17 34  1  0  0  0  0
M  END
> <s_m_source_file>
AV-unprocessed.smi

> <i_m_source_file_index>
2243

> <i_lp_mmshare_version>
43012

> <i_f3d_flags>
0

> <s_epik_input>
W0NIMl0xW0NIMl1PW0NIMl1bQ0gyXVtDSF0xW0NASF0oW0NIM10pW05IXUMoPU8pW05IXWMybltjSF1bY0hdbzI=

> <s_epik_cmdline>
J2VwaWtfcHl0aG9uJywgJy1waCcsICc3LjAnLCAnLXRuJywgJzgnLCAnLW1hJywgJzIwMCcsICctbWV0YWxfYmluZGluZycsICctaW1hZScsICc8aW5maWxlLm1hZT4nLCAnLW9tYWUnLCAnPG91dGZpbGUubWFlPic=

> <r_lp_tautomer_probability>
0.785861

> <r_epik_Ionization_Penalty>
5.17761e-05

> <r_epik_Ionization_Penalty_Charging>
0

> <r_epik_Ionization_Penalty_Neutral>
5.17761e-05

> <r_epik_State_Penalty>
0.0447104

> <r_epik_Charging_Adjusted_Penalty>
0.0447104

> <i_epik_Tot_Q>
0

> <i_epik_Tot_abs_Q>
0

> <r_epik_Metal_State_Penalty>
0.0593601

> <b_epik_Metal_Only>
0

> <s_lp_Force_Field>
OPLS_2005

> <r_lp_Energy>
10.6877

> <b_lp_Chiralities_Consistent>
1

> <s_lp_Variant>
AV-unprocessed.smi:2243-1

> <Gold.Version>
5.8.1

> <Gold.Id.Protein>
6NUR|6NUR_protein|mol2

> <Gold.PLP.Fitness>
43.4348

> <Gold.PLP.PLP>
-34.3333

> <Gold.PLP.part.hbond>
-6.3629

> <Gold.PLP.part.metal>
0.0000

> <Gold.PLP.part.buried>
-2.9730

> <Gold.PLP.part.nonpolar>
-25.2541

> <Gold.PLP.part.repulsive>
0.5551

> <Gold.PLP.ligand.clash>
0.0000

> <Gold.PLP.ligand.torsion>
0.5434

> <Gold.PLP.Chemscore.Hbond>
3.3911

> <Gold.PLP.Chemscore.CHOScore>
0.0000

> <Gold.PLP.Chemscore.Metal>
0.0000

> <Gold.Chemscore.Hbonds>
donor molecule, donor type, donor heavy atom, donor atom, acceptor molecule, acceptor atom, score
      L1  H     3    22       P1  8028  0.37
      L1  H     6    23       P1  8029  0.75
      P1  H  6933  6944       L1     8  0.98
      P1  H  6934  6946       L1     8  0.46
      P1  H  7997  8008       L1    15  0.46

> <Gold.PLP.Chemscore.Internal.Correction>
0.0151

> <Gold.Rescore>
     Score         DG    S(hbond)    S(metal)    S(lipo)     H(rot)  DE(clash)    DE(int)     intcor
     17.84     -20.29       2.41        0.00      86.76       1.32       0.83       1.62       ----

> <Gold.Chemscore.Fitness>
17.8379

> <Gold.Chemscore.DG>
-20.2866

> <Gold.Chemscore.ZeroCoef>
-5.4800

> <Gold.Chemscore.Hbond>
2.4058

> <Gold.Chemscore.Metal>
0.0000

> <Gold.Chemscore.Lipo>
86.7568

> <Gold.Chemscore.Internal_Hbond>
0.0000

> <Gold.Chemscore.DEClash>
0.8287

> <Gold.Chemscore.DEInternal>
1.6201

> <Gold.Chemscore.Rot>
1.3201

> <Gold.Chemscore.Internal.Correction>
   9.000000E+99

> <Gold.Chemscore.Hbonds>
donor molecule, donor type, donor heavy atom, donor atom, acceptor molecule, acceptor atom, score
      L1  H     3    22       P1  8028  0.02
      L1  H     6    23       P1  8029  0.58
      P1  H  6933  6944       L1     8  0.49
      P1  H  6934  6946       L1     8  0.33
      P1  H  7997  8008       L1    15  0.43

> <Gold.Chemscore.Hbond.Weighted>
-8.0355

> <Gold.Chemscore.Metal.Weighted>
-0.0000

> <Gold.Chemscore.Lipo.Weighted>
-10.1505

> <Gold.Chemscore.Internal_Hbond.Weighted>
0.0000

> <Gold.Chemscore.DEClash.Weighted>
0.8287

> <Gold.Chemscore.DEInternal.Weighted>
1.6201

> <Gold.Chemscore.Rot.Weighted>
3.3794

> <Gold.Chemscore.Internal.Correction.Weighted>
   9.000000E+99

> <Gold.Protein.RotatedTorsions>
[ 6907 6896 6895 6894 ] final -165.64 input  -60.11 | X-H torsion
[ 7974 7965 7964 7962 ] final  -11.60 input  175.53 | X-H torsion
[ 8008 7997 7996 7995 ] final -103.45 input   59.86 | X-H torsion
[ 10167 10162 10161 10158 ] final  -26.85 input  -65.29 | X-H torsion
[ 10718 10713 10712 10709 ] final  -86.82 input   66.30 | X-H torsion
[ 10763 10752 10751 10750 ] final   42.74 input  -60.55 | X-H torsion
[ 11005 11000 10999 10996 ] final  117.73 input  -57.11 | X-H torsion

> <Gold.Protein.ActiveResidues>
 VAL166  LYS551  ARG553  GLY616  TRP617  ASP618  TYR619  PRO620  LYS621  CYS622 
 ASP623  PHE694  ASN695  SER759  ASP760  ASP761  ALA762  ILE779  LEU786  VAL792 
 PHE793  MET794  SER795  GLU796  ALA797  LYS798  CYS799  TRP800  GLU811  SER814 

> <Gold.Protein.RotatedAtoms>
  151.4309  133.3670  159.2768 H   0  0  0  0  0  0  0  0  0  0  0  0  # atno 6907 bound_to 6896
  150.9226  134.8645  159.7509 H   0  0  0  0  0  0  0  0  0  0  0  0  # atno 6908 bound_to 6896
  152.4989  134.4248  159.9544 H   0  0  0  0  0  0  0  0  0  0  0  0  # atno 6909 bound_to 6896
  146.2182  140.2935  142.8370 H   0  0  0  0  0  0  0  0  0  0  0  0  # atno 7974 bound_to 7965
  154.8711  140.0423  157.1725 H   0  0  0  0  0  0  0  0  0  0  0  0  # atno 8008 bound_to 7997
  154.8738  140.2962  155.5445 H   0  0  0  0  0  0  0  0  0  0  0  0  # atno 8009 bound_to 7997
  156.2999  140.2424  156.3731 H   0  0  0  0  0  0  0  0  0  0  0  0  # atno 8010 bound_to 7997
  140.7280  143.4143  151.1054 H   0  0  0  0  0  0  0  0  0  0  0  0  # atno 10167 bound_to 10162
  155.9988  130.4778  150.4773 H   0  0  0  0  0  0  0  0  0  0  0  0  # atno 10718 bound_to 10713
  152.9876  135.6122  154.2998 H   0  0  0  0  0  0  0  0  0  0  0  0  # atno 10763 bound_to 10752
  154.2719  135.2779  155.2736 H   0  0  0  0  0  0  0  0  0  0  0  0  # atno 10764 bound_to 10752
  154.5114  135.5840  153.6665 H   0  0  0  0  0  0  0  0  0  0  0  0  # atno 10765 bound_to 10752
  139.9084  134.9613  156.7395 H   0  0  0  0  0  0  0  0  0  0  0  0  # atno 11005 bound_to 11000
  144.9109  140.7756  143.5808 LP  0  0  0  0  0  0  0  0  0  0  0  0  # atno 17320 bound_to 7965
  145.2866  139.1899  143.4763 LP  0  0  0  0  0  0  0  0  0  0  0  0  # atno 17321 bound_to 7965
  139.7781  143.8396  152.3133 LP  0  0  0  0  0  0  0  0  0  0  0  0  # atno 17342 bound_to 10162
  139.8337  144.7242  150.9418 LP  0  0  0  0  0  0  0  0  0  0  0  0  # atno 17343 bound_to 10162
  157.2781  131.0601  151.2215 LP  0  0  0  0  0  0  0  0  0  0  0  0  # atno 17370 bound_to 10713
  157.3271  130.6966  149.6303 LP  0  0  0  0  0  0  0  0  0  0  0  0  # atno 17371 bound_to 10713
  140.6861  133.9431  155.7939 LP  0  0  0  0  0  0  0  0  0  0  0  0  # atno 17394 bound_to 11000
  141.0475  134.0532  157.3825 LP  0  0  0  0  0  0  0  0  0  0  0  0  # atno 17395 bound_to 11000

$$$$
