AV-unprocessed.smi:148|AV-procd|sdf|1215|dock7
  -GOLD-   2262018393D 1   1.00000     0.00000
 Structure written by MMmdl.
 63 67  0  0  0  0  0  0  0  0  1 V2000
  147.1035  134.9702  153.1986 O   0  0  0  0  0  0  0  0  0  0  0  0
  147.7675  134.8990  154.4433 C   0  0  0  0  0  0  0  0  0  0  0  0
  148.9055  133.8527  154.3952 C   0  0  1  0  0  0  0  0  0  0  0  0
  149.9034  134.0886  155.5567 C   0  0  0  0  0  0  0  0  0  0  0  0
  150.2372  135.4879  155.7564 N   0  0  0  0  0  0  0  0  0  0  0  0
  150.7621  136.3536  154.8238 C   0  0  0  0  0  0  0  0  0  0  0  0
  150.9674  137.5700  155.2494 N   0  0  0  0  0  0  0  0  0  0  0  0
  150.5656  137.5375  156.5795 C   0  0  0  0  0  0  0  0  0  0  0  0
  150.5149  138.4973  157.6308 C   0  0  0  0  0  0  0  0  0  0  0  0
  150.8886  139.7930  157.5197 N   0  0  0  0  0  0  0  0  0  0  0  0
  151.7715  140.1380  158.6352 C   0  0  0  0  0  0  0  0  0  0  0  0
  152.4114  141.5191  158.4459 C   0  0  0  0  0  0  0  0  0  0  0  0
  151.3300  142.5811  158.2255 C   0  0  0  0  0  0  0  0  0  0  0  0
  150.4532  142.1863  157.0307 C   0  0  0  0  0  0  0  0  0  0  0  0
  149.8307  140.7758  157.2190 C   0  0  1  0  0  0  0  0  0  0  0  0
  148.9050  140.3526  156.0336 C   0  0  1  0  0  0  0  0  0  0  0  0
  147.4663  140.9007  156.1501 C   0  0  0  0  0  0  0  0  0  0  0  0
  147.2721  141.8467  154.9644 C   0  0  0  0  0  0  0  0  0  0  0  0
  148.1485  141.2454  153.8713 C   0  0  0  0  0  0  0  0  0  0  0  0
  149.3934  140.7650  154.6217 C   0  0  2  0  0  0  0  0  0  0  0  0
  150.0048  139.6954  153.9308 O   0  0  0  0  0  0  0  0  0  0  0  0
  150.0235  138.0997  158.8305 N   0  0  0  0  0  0  0  0  0  0  0  0
  149.6283  136.8350  159.0059 C   0  0  0  0  0  0  0  0  0  0  0  0
  149.6286  135.8305  158.1269 N   0  0  0  0  0  0  0  0  0  0  0  0
  150.1050  136.2333  156.9141 C   0  0  0  0  0  0  0  0  0  0  0  0
  148.3955  132.3854  154.3343 C   0  0  2  0  0  0  0  0  0  0  0  0
  149.4202  131.3108  154.7016 C   0  0  0  0  0  0  0  0  0  0  0  0
  149.2867  130.2692  153.5894 C   0  0  0  0  0  0  0  0  0  0  0  0
  148.0057  130.5141  153.0305 O   0  0  0  0  0  0  0  0  0  0  0  0
  147.8500  131.9218  152.9782 C   0  0  0  0  0  0  0  0  0  0  0  0
  147.4222  135.7263  152.7296 H   0  0  0  0  0  0  0  0  0  0  0  0
  148.1524  135.8881  154.6922 H   0  0  0  0  0  0  0  0  0  0  0  0
  147.0225  134.6508  155.1979 H   0  0  0  0  0  0  0  0  0  0  0  0
  149.4502  134.0160  153.4637 H   0  0  0  0  0  0  0  0  0  0  0  0
  149.4959  133.7094  156.4945 H   0  0  0  0  0  0  0  0  0  0  0  0
  150.8268  133.5365  155.3769 H   0  0  0  0  0  0  0  0  0  0  0  0
  150.9802  136.0558  153.8085 H   0  0  0  0  0  0  0  0  0  0  0  0
  151.1993  140.1229  159.5643 H   0  0  0  0  0  0  0  0  0  0  0  0
  152.5579  139.3882  158.7363 H   0  0  0  0  0  0  0  0  0  0  0  0
  153.0161  141.7730  159.3169 H   0  0  0  0  0  0  0  0  0  0  0  0
  153.0883  141.4968  157.5908 H   0  0  0  0  0  0  0  0  0  0  0  0
  150.7152  142.6777  159.1213 H   0  0  0  0  0  0  0  0  0  0  0  0
  151.7882  143.5551  158.0517 H   0  0  0  0  0  0  0  0  0  0  0  0
  149.6785  142.9409  156.9010 H   0  0  0  0  0  0  0  0  0  0  0  0
  151.0664  142.2243  156.1316 H   0  0  0  0  0  0  0  0  0  0  0  0
  149.2005  140.8393  158.1062 H   0  0  0  0  0  0  0  0  0  0  0  0
  148.7925  139.2679  156.0535 H   0  0  0  0  0  0  0  0  0  0  0  0
  146.7605  140.0736  156.0604 H   0  0  0  0  0  0  0  0  0  0  0  0
  147.2543  141.3825  157.1046 H   0  0  0  0  0  0  0  0  0  0  0  0
  146.2274  141.9356  154.6649 H   0  0  0  0  0  0  0  0  0  0  0  0
  147.6334  142.8434  155.2213 H   0  0  0  0  0  0  0  0  0  0  0  0
  147.6264  140.4011  153.4174 H   0  0  0  0  0  0  0  0  0  0  0  0
  148.3839  141.9564  153.0791 H   0  0  0  0  0  0  0  0  0  0  0  0
  150.1095  141.5828  154.6728 H   0  0  0  0  0  0  0  0  0  0  0  0
  150.0735  139.9291  153.0169 H   0  0  0  0  0  0  0  0  0  0  0  0
  149.2563  136.5939  159.9907 H   0  0  0  0  0  0  0  0  0  0  0  0
  147.5876  132.2655  155.0567 H   0  0  0  0  0  0  0  0  0  0  0  0
  150.4423  131.6800  154.7805 H   0  0  0  0  0  0  0  0  0  0  0  0
  149.1647  130.8713  155.6668 H   0  0  0  0  0  0  0  0  0  0  0  0
  150.0484  130.4248  152.8237 H   0  0  0  0  0  0  0  0  0  0  0  0
  149.3756  129.2467  153.9570 H   0  0  0  0  0  0  0  0  0  0  0  0
  146.8078  132.2033  152.8269 H   0  0  0  0  0  0  0  0  0  0  0  0
  148.4321  132.3074  152.1411 H   0  0  0  0  0  0  0  0  0  0  0  0
  1  2  1  0  0  0  0
  1 31  1  0  0  0  0
  2  3  1  0  0  0  0
  2 32  1  0  0  0  0
  2 33  1  0  0  0  0
  3  4  1  0  0  0  0
  3 26  1  0  0  0  0
  3 34  1  0  0  0  0
  4  5  1  0  0  0  0
  4 35  1  0  0  0  0
  4 36  1  0  0  0  0
  5 25  1  0  0  0  0
  5  6  1  0  0  0  0
  6  7  2  0  0  0  0
  6 37  1  0  0  0  0
  7  8  1  0  0  0  0
  8 25  2  0  0  0  0
  8  9  1  0  0  0  0
  9 10  1  0  0  0  0
  9 22  2  0  0  0  0
 10 15  1  0  0  0  0
 10 11  1  0  0  0  0
 11 12  1  0  0  0  0
 11 38  1  0  0  0  0
 11 39  1  0  0  0  0
 12 13  1  0  0  0  0
 12 40  1  0  0  0  0
 12 41  1  0  0  0  0
 13 14  1  0  0  0  0
 13 42  1  0  0  0  0
 13 43  1  0  0  0  0
 14 15  1  0  0  0  0
 14 44  1  0  0  0  0
 14 45  1  0  0  0  0
 15 16  1  0  0  0  0
 15 46  1  0  0  0  0
 16 20  1  0  0  0  0
 16 17  1  0  0  0  0
 16 47  1  0  0  0  0
 17 18  1  0  0  0  0
 17 48  1  0  0  0  0
 17 49  1  0  0  0  0
 18 19  1  0  0  0  0
 18 50  1  0  0  0  0
 18 51  1  0  0  0  0
 19 20  1  0  0  0  0
 19 52  1  0  0  0  0
 19 53  1  0  0  0  0
 20 21  1  0  0  0  0
 20 54  1  0  0  0  0
 21 55  1  0  0  0  0
 22 23  1  0  0  0  0
 23 24  2  0  0  0  0
 23 56  1  0  0  0  0
 24 25  1  0  0  0  0
 26 30  1  0  0  0  0
 26 27  1  0  0  0  0
 26 57  1  0  0  0  0
 27 28  1  0  0  0  0
 27 58  1  0  0  0  0
 27 59  1  0  0  0  0
 28 29  1  0  0  0  0
 28 60  1  0  0  0  0
 28 61  1  0  0  0  0
 29 30  1  0  0  0  0
 30 62  1  0  0  0  0
 30 63  1  0  0  0  0
M  END
> <s_m_source_file>
AV-unprocessed.smi

> <i_m_source_file_index>
148

> <i_lp_mmshare_version>
43012

> <i_f3d_flags>
0

> <s_epik_input>
W0NIMl0xT1tDSDJdW0NIMl1bQ0BIXTFbQ0BIXShbQ0gyXVtPSF0pW0NIMl1uKFtjSF1uMiljKGMyMyluW2NIXW5jM040W0NIMl1bQ0gyXVtDSDJdW0NIMl1bQ0BIXTRbQ0BASF01W0NIMl1bQ0gyXVtDSDJdW0NASF01W09IXQ==

> <s_epik_cmdline>
J2VwaWtfcHl0aG9uJywgJy1waCcsICc3LjAnLCAnLXRuJywgJzgnLCAnLW1hJywgJzIwMCcsICctbWV0YWxfYmluZGluZycsICctaW1hZScsICc8aW5maWxlLm1hZT4nLCAnLW9tYWUnLCAnPG91dGZpbGUubWFlPic=

> <r_lp_tautomer_probability>
1

> <r_epik_Ionization_Penalty>
0.00556303

> <r_epik_Ionization_Penalty_Charging>
0

> <r_epik_Ionization_Penalty_Neutral>
0.00556303

> <r_epik_State_Penalty>
0.00401767

> <r_epik_Charging_Adjusted_Penalty>
0.00401767

> <i_epik_Tot_Q>
0

> <i_epik_Tot_abs_Q>
0

> <r_epik_Metal_State_Penalty>
-0

> <b_epik_Metal_Only>
0

> <s_lp_Force_Field>
OPLS_2005

> <r_lp_Energy>
68.8828

> <b_lp_Chiralities_Consistent>
1

> <s_lp_Variant>
AV-unprocessed.smi:148-14

> <Gold.Version>
5.8.1

> <Gold.Id.Protein>
6NUR|6NUR_protein|mol2

> <Gold.PLP.Fitness>
50.8726

> <Gold.PLP.PLP>
-42.0806

> <Gold.PLP.part.hbond>
-4.3974

> <Gold.PLP.part.metal>
0.0000

> <Gold.PLP.part.buried>
-3.9903

> <Gold.PLP.part.nonpolar>
-33.6622

> <Gold.PLP.part.repulsive>
0.1715

> <Gold.PLP.ligand.clash>
0.0000

> <Gold.PLP.ligand.torsion>
1.6039

> <Gold.PLP.Chemscore.Hbond>
2.9120

> <Gold.PLP.Chemscore.CHOScore>
0.9719

> <Gold.PLP.Chemscore.Metal>
0.0000

> <Gold.Chemscore.Hbonds>
donor molecule, donor type, donor heavy atom, donor atom, acceptor molecule, acceptor atom, score
      L1  H     1    31       P1  7948  0.74
      L1  H    21    55       P1  7957  1.00
      P1  H  6896  6909       L1    24  0.31
      L1  C     6    37       P1  7949  0.92

> <Gold.PLP.Chemscore.Internal.Correction>
0.3483

> <Gold.Rescore>
     Score         DG    S(hbond)    S(metal)    S(lipo)     H(rot)  DE(clash)    DE(int)     intcor
     15.08     -17.55       2.71        0.00      98.44       3.32       1.18       1.28       ----

> <Gold.Chemscore.Fitness>
15.0834

> <Gold.Chemscore.DG>
-17.5509

> <Gold.Chemscore.ZeroCoef>
-5.4800

> <Gold.Chemscore.Hbond>
2.7105

> <Gold.Chemscore.Metal>
0.0000

> <Gold.Chemscore.Lipo>
98.4427

> <Gold.Chemscore.Internal_Hbond>
0.0000

> <Gold.Chemscore.DEClash>
1.1835

> <Gold.Chemscore.DEInternal>
1.2841

> <Gold.Chemscore.Rot>
3.3203

> <Gold.Chemscore.Internal.Correction>
   9.000000E+99

> <Gold.Chemscore.Hbonds>
donor molecule, donor type, donor heavy atom, donor atom, acceptor molecule, acceptor atom, score
      L1  H     1    31       P1  7948  0.74
      L1  H    21    55       P1  7957  0.99
      P1  H  6896  6909       L1    24  0.01

> <Gold.Chemscore.Hbond.Weighted>
-9.0531

> <Gold.Chemscore.Metal.Weighted>
-0.0000

> <Gold.Chemscore.Lipo.Weighted>
-11.5178

> <Gold.Chemscore.Internal_Hbond.Weighted>
0.0000

> <Gold.Chemscore.DEClash.Weighted>
1.1835

> <Gold.Chemscore.DEInternal.Weighted>
1.2841

> <Gold.Chemscore.Rot.Weighted>
8.5000

> <Gold.Chemscore.Internal.Correction.Weighted>
   9.000000E+99

> <Gold.Protein.RotatedTorsions>
[ 6907 6896 6895 6894 ] final   51.72 input  -60.11 | X-H torsion
[ 7974 7965 7964 7962 ] final  120.17 input  175.53 | X-H torsion
[ 8008 7997 7996 7995 ] final   32.05 input   59.86 | X-H torsion
[ 10167 10162 10161 10158 ] final  141.79 input  -65.29 | X-H torsion
[ 10718 10713 10712 10709 ] final  156.44 input   66.30 | X-H torsion
[ 10763 10752 10751 10750 ] final -110.46 input  -60.55 | X-H torsion
[ 11005 11000 10999 10996 ] final  130.32 input  -57.11 | X-H torsion

> <Gold.Protein.ActiveResidues>
 VAL166  LYS551  ARG553  GLY616  TRP617  ASP618  TYR619  PRO620  LYS621  CYS622 
 ASP623  PHE694  ASN695  SER759  ASP760  ASP761  ALA762  ILE779  LEU786  VAL792 
 PHE793  MET794  SER795  GLU796  ALA797  LYS798  CYS799  TRP800  GLU811  SER814 

> <Gold.Protein.RotatedAtoms>
  152.3157  134.7443  160.0325 H   0  0  0  0  0  0  0  0  0  0  0  0  # atno 6907 bound_to 6896
  151.7909  133.3354  159.3507 H   0  0  0  0  0  0  0  0  0  0  0  0  # atno 6908 bound_to 6896
  150.7343  134.5774  159.5966 H   0  0  0  0  0  0  0  0  0  0  0  0  # atno 6909 bound_to 6896
  145.1344  139.3307  143.4648 H   0  0  0  0  0  0  0  0  0  0  0  0  # atno 7974 bound_to 7965
  155.1162  140.3244  155.4509 H   0  0  0  0  0  0  0  0  0  0  0  0  # atno 8008 bound_to 7997
  156.2676  140.2035  156.6233 H   0  0  0  0  0  0  0  0  0  0  0  0  # atno 8009 bound_to 7997
  154.6718  140.0535  157.0161 H   0  0  0  0  0  0  0  0  0  0  0  0  # atno 8010 bound_to 7997
  139.5011  144.6149  151.6188 H   0  0  0  0  0  0  0  0  0  0  0  0  # atno 10167 bound_to 10162
  157.2050  131.0685  151.2003 H   0  0  0  0  0  0  0  0  0  0  0  0  # atno 10718 bound_to 10713
  154.8249  135.4563  154.0889 H   0  0  0  0  0  0  0  0  0  0  0  0  # atno 10763 bound_to 10752
  153.2211  135.6894  153.8005 H   0  0  0  0  0  0  0  0  0  0  0  0  # atno 10764 bound_to 10752
  153.7422  135.3310  155.3282 H   0  0  0  0  0  0  0  0  0  0  0  0  # atno 10765 bound_to 10752
  139.9665  134.9589  156.9276 H   0  0  0  0  0  0  0  0  0  0  0  0  # atno 11005 bound_to 11000
  146.3511  140.1355  142.8596 LP  0  0  0  0  0  0  0  0  0  0  0  0  # atno 17320 bound_to 7965
  145.0601  140.9081  143.4944 LP  0  0  0  0  0  0  0  0  0  0  0  0  # atno 17321 bound_to 7965
  140.5833  143.9907  150.6281 LP  0  0  0  0  0  0  0  0  0  0  0  0  # atno 17342 bound_to 10162
  140.3063  143.3227  152.0922 LP  0  0  0  0  0  0  0  0  0  0  0  0  # atno 17343 bound_to 10162
  157.3729  130.7191  149.6577 LP  0  0  0  0  0  0  0  0  0  0  0  0  # atno 17370 bound_to 10713
  155.9696  130.4193  150.4371 LP  0  0  0  0  0  0  0  0  0  0  0  0  # atno 17371 bound_to 10713
  140.5385  134.0743  155.7335 LP  0  0  0  0  0  0  0  0  0  0  0  0  # atno 17394 bound_to 11000
  141.1345  133.9245  157.2464 LP  0  0  0  0  0  0  0  0  0  0  0  0  # atno 17395 bound_to 11000

$$$$
