AV-unprocessed.smi:414|AV-procd|sdf|2516|dock2
  -GOLD-   2262022463D 1   1.00000     0.00000
 Structure written by MMmdl.
 37 38  0  0  0  0  0  0  0  0  2 V2000
  153.4104  142.3018  161.0291 C   0  0  0  0  0  0  0  0  0  0  0  0
  152.2775  142.3527  159.9944 C   0  0  2  0  0  0  0  0  0  0  0  0
  152.1980  141.0466  159.1812 C   0  0  0  0  0  0  0  0  0  0  0  0
  151.0651  141.0955  158.1435 C   0  0  0  0  0  0  0  0  0  0  0  0
  151.2186  142.3025  157.2006 C   0  0  1  0  0  0  0  0  0  0  0  0
  150.0955  142.3413  156.2695 N   0  0  0  0  0  0  0  0  0  0  0  0
  149.8451  141.4322  155.3149 C   0  0  0  0  0  0  0  0  0  0  0  0
  150.5694  140.4595  155.1006 O   0  0  0  0  0  0  0  0  0  0  0  0
  148.6020  141.6835  154.4514 C   0  0  0  0  0  0  0  0  0  0  0  0
  147.6830  140.5345  154.4319 N   0  0  0  0  0  0  0  0  0  0  0  0
  147.3936  139.9470  153.1875 C   0  0  0  0  0  0  0  0  0  0  0  0
  146.5659  138.8906  153.0761 C   0  0  0  0  0  0  0  0  0  0  0  0
  145.9626  138.3553  154.2903 C   0  0  0  0  0  0  0  0  0  0  0  0
  145.2009  137.3938  154.2073 O   0  0  0  0  0  0  0  0  0  0  0  0
  146.2783  138.9570  155.4744 N   0  5  0  0  0  0  0  0  0  0  0  0
  147.1244  140.0290  155.5729 C   0  0  0  0  0  0  0  0  0  0  0  0
  147.3986  140.5550  156.6524 O   0  0  0  0  0  0  0  0  0  0  0  0
  151.3030  143.6142  158.0066 C   0  0  0  0  0  0  0  0  0  0  0  0
  152.4296  143.5618  159.0516 C   0  0  0  0  0  0  0  0  0  0  0  0
  154.3820  142.1857  160.5478 H   0  0  0  0  0  0  0  0  0  0  0  0
  153.2772  141.4662  161.7167 H   0  0  0  0  0  0  0  0  0  0  0  0
  153.4403  143.2152  161.6237 H   0  0  0  0  0  0  0  0  0  0  0  0
  151.3395  142.4672  160.5398 H   0  0  0  0  0  0  0  0  0  0  0  0
  153.1469  140.8693  158.6733 H   0  0  0  0  0  0  0  0  0  0  0  0
  152.0435  140.1990  159.8497 H   0  0  0  0  0  0  0  0  0  0  0  0
  151.0566  140.1697  157.5668 H   0  0  0  0  0  0  0  0  0  0  0  0
  150.1049  141.1471  158.6592 H   0  0  0  0  0  0  0  0  0  0  0  0
  152.1449  142.1741  156.6369 H   0  0  0  0  0  0  0  0  0  0  0  0
  149.4466  143.1081  156.3702 H   0  0  0  0  0  0  0  0  0  0  0  0
  148.0783  142.5767  154.7977 H   0  0  0  0  0  0  0  0  0  0  0  0
  148.9359  141.9218  153.4407 H   0  0  0  0  0  0  0  0  0  0  0  0
  147.8864  140.3988  152.3392 H   0  0  0  0  0  0  0  0  0  0  0  0
  146.3567  138.4483  152.1133 H   0  0  0  0  0  0  0  0  0  0  0  0
  151.4686  144.4582  157.3360 H   0  0  0  0  0  0  0  0  0  0  0  0
  150.3528  143.8018  158.5088 H   0  0  0  0  0  0  0  0  0  0  0  0
  152.4336  144.4869  159.6292 H   0  0  0  0  0  0  0  0  0  0  0  0
  153.3929  143.5127  158.5420 H   0  0  0  0  0  0  0  0  0  0  0  0
  1  2  1  0  0  0  0
  1 20  1  0  0  0  0
  1 21  1  0  0  0  0
  1 22  1  0  0  0  0
  2 19  1  0  0  0  0
  2  3  1  0  0  0  0
  2 23  1  0  0  0  0
  3  4  1  0  0  0  0
  3 24  1  0  0  0  0
  3 25  1  0  0  0  0
  4  5  1  0  0  0  0
  4 26  1  0  0  0  0
  4 27  1  0  0  0  0
  5  6  1  0  0  0  0
  5 18  1  0  0  0  0
  5 28  1  0  0  0  0
  6  7  1  0  0  0  0
  6 29  1  0  0  0  0
  7  8  2  0  0  0  0
  7  9  1  0  0  0  0
  9 10  1  0  0  0  0
  9 30  1  0  0  0  0
  9 31  1  0  0  0  0
 10 16  1  0  0  0  0
 10 11  1  0  0  0  0
 11 12  2  0  0  0  0
 11 32  1  0  0  0  0
 12 13  1  0  0  0  0
 12 33  1  0  0  0  0
 13 14  2  0  0  0  0
 13 15  1  0  0  0  0
 15 16  1  0  0  0  0
 16 17  2  0  0  0  0
 18 19  1  0  0  0  0
 18 34  1  0  0  0  0
 18 35  1  0  0  0  0
 19 36  1  0  0  0  0
 19 37  1  0  0  0  0
M  CHG  1  15  -1
M  END
> <s_m_source_file>
AV-unprocessed.smi

> <i_m_source_file_index>
414

> <i_lp_mmshare_version>
43012

> <i_f3d_flags>
0

> <s_epik_input>
W0NIM11bQ0BASF0xW0NIMl1bQ0gyXVtDQEhdKFtDSDJdW0NIMl0xKVtOSF1DKD1PKVtDSDJdbjJbY0hdW2NIXWMoPU8pW25IXWMyPU8=

> <s_epik_cmdline>
J2VwaWtfcHl0aG9uJywgJy1waCcsICc3LjAnLCAnLXRuJywgJzgnLCAnLW1hJywgJzIwMCcsICctbWV0YWxfYmluZGluZycsICctaW1hZScsICc8aW5maWxlLm1hZT4nLCAnLW9tYWUnLCAnPG91dGZpbGUubWFlPic=

> <r_lp_tautomer_probability>
0.999537

> <r_epik_Ionization_Penalty>
3.11551

> <r_epik_Ionization_Penalty_Charging>
2.90498e-08

> <r_epik_Ionization_Penalty_Neutral>
3.11551

> <r_epik_State_Penalty>
3.11459

> <r_epik_Charging_Adjusted_Penalty>
3.11459

> <i_epik_Tot_Q>
-1

> <i_epik_Tot_abs_Q>
1

> <r_epik_Metal_State_Penalty>
0.463083

> <b_epik_Metal_Only>
1

> <s_lp_Force_Field>
OPLS_2005

> <r_lp_Energy>
17.7967

> <b_lp_Chiralities_Consistent>
1

> <s_lp_Variant>
AV-unprocessed.smi:414-3

> <Gold.Version>
5.8.1

> <Gold.Id.Protein>
6NUR|6NUR_protein|mol2

> <Gold.PLP.Fitness>
43.2555

> <Gold.PLP.PLP>
-34.4156

> <Gold.PLP.part.hbond>
-2.0000

> <Gold.PLP.part.metal>
0.0000

> <Gold.PLP.part.buried>
-2.4371

> <Gold.PLP.part.nonpolar>
-30.1322

> <Gold.PLP.part.repulsive>
0.3222

> <Gold.PLP.ligand.clash>
0.0000

> <Gold.PLP.ligand.torsion>
0.0835

> <Gold.PLP.Chemscore.Hbond>
2.0000

> <Gold.PLP.Chemscore.CHOScore>
1.0000

> <Gold.PLP.Chemscore.Metal>
0.0000

> <Gold.Chemscore.Hbonds>
donor molecule, donor type, donor heavy atom, donor atom, acceptor molecule, acceptor atom, score
      L1  H     6    29       P1  8028  0.91
      P1  H  7989  7998       L1     8  1.00
      L1  C    11    32       P1  7957  1.00

> <Gold.PLP.Chemscore.Internal.Correction>
0.0069

> <Gold.Rescore>
     Score         DG    S(hbond)    S(metal)    S(lipo)     H(rot)  DE(clash)    DE(int)     intcor
     16.66     -17.31       1.58        0.00      92.33       1.65       0.45       0.20       ----

> <Gold.Chemscore.Fitness>
16.6621

> <Gold.Chemscore.DG>
-17.3072

> <Gold.Chemscore.ZeroCoef>
-5.4800

> <Gold.Chemscore.Hbond>
1.5750

> <Gold.Chemscore.Metal>
0.0000

> <Gold.Chemscore.Lipo>
92.3344

> <Gold.Chemscore.Internal_Hbond>
0.0000

> <Gold.Chemscore.DEClash>
0.4461

> <Gold.Chemscore.DEInternal>
0.1990

> <Gold.Chemscore.Rot>
1.6549

> <Gold.Chemscore.Internal.Correction>
   9.000000E+99

> <Gold.Chemscore.Hbonds>
donor molecule, donor type, donor heavy atom, donor atom, acceptor molecule, acceptor atom, score
      L1  H     6    29       P1  8028  0.88
      P1  H  7989  7998       L1     8  0.57

> <Gold.Chemscore.Hbond.Weighted>
-5.2605

> <Gold.Chemscore.Metal.Weighted>
-0.0000

> <Gold.Chemscore.Lipo.Weighted>
-10.8031

> <Gold.Chemscore.Internal_Hbond.Weighted>
0.0000

> <Gold.Chemscore.DEClash.Weighted>
0.4461

> <Gold.Chemscore.DEInternal.Weighted>
0.1990

> <Gold.Chemscore.Rot.Weighted>
4.2364

> <Gold.Chemscore.Internal.Correction.Weighted>
   9.000000E+99

> <Gold.Protein.RotatedTorsions>
[ 6907 6896 6895 6894 ] final   33.65 input  -60.11 | X-H torsion
[ 7974 7965 7964 7962 ] final  101.10 input  175.53 | X-H torsion
[ 8008 7997 7996 7995 ] final   96.71 input   59.86 | X-H torsion
[ 10167 10162 10161 10158 ] final   38.05 input  -65.29 | X-H torsion
[ 10718 10713 10712 10709 ] final  -14.29 input   66.30 | X-H torsion
[ 10763 10752 10751 10750 ] final   22.92 input  -60.55 | X-H torsion
[ 11005 11000 10999 10996 ] final -117.75 input  -57.11 | X-H torsion

> <Gold.Protein.ActiveResidues>
 VAL166  LYS551  ARG553  GLY616  TRP617  ASP618  TYR619  PRO620  LYS621  CYS622 
 ASP623  PHE694  ASN695  SER759  ASP760  ASP761  ALA762  ILE779  LEU786  VAL792 
 PHE793  MET794  SER795  GLU796  ALA797  LYS798  CYS799  TRP800  GLU811  SER814 

> <Gold.Protein.RotatedAtoms>
  152.0914  134.9404  160.0571 H   0  0  0  0  0  0  0  0  0  0  0  0  # atno 6907 bound_to 6896
  152.0654  133.4077  159.4444 H   0  0  0  0  0  0  0  0  0  0  0  0  # atno 6908 bound_to 6896
  150.6837  134.3073  159.4775 H   0  0  0  0  0  0  0  0  0  0  0  0  # atno 6909 bound_to 6896
  145.3768  139.2387  143.3425 H   0  0  0  0  0  0  0  0  0  0  0  0  # atno 7974 bound_to 7965
  156.0825  140.3269  155.7712 H   0  0  0  0  0  0  0  0  0  0  0  0  # atno 8008 bound_to 7997
  155.5129  140.0578  157.2937 H   0  0  0  0  0  0  0  0  0  0  0  0  # atno 8009 bound_to 7997
  154.4590  140.1957  156.0314 H   0  0  0  0  0  0  0  0  0  0  0  0  # atno 8010 bound_to 7997
  140.3974  144.1770  150.6132 H   0  0  0  0  0  0  0  0  0  0  0  0  # atno 10167 bound_to 10162
  156.6180  130.4868  149.6175 H   0  0  0  0  0  0  0  0  0  0  0  0  # atno 10718 bound_to 10713
  153.0878  135.6638  153.9914 H   0  0  0  0  0  0  0  0  0  0  0  0  # atno 10763 bound_to 10752
  153.9519  135.2983  155.3439 H   0  0  0  0  0  0  0  0  0  0  0  0  # atno 10764 bound_to 10752
  154.7288  135.5132  153.9003 H   0  0  0  0  0  0  0  0  0  0  0  0  # atno 10765 bound_to 10752
  141.0333  133.9948  157.3110 H   0  0  0  0  0  0  0  0  0  0  0  0  # atno 11005 bound_to 11000
  146.2860  140.4428  142.8757 LP  0  0  0  0  0  0  0  0  0  0  0  0  # atno 17320 bound_to 7965
  144.8536  140.7038  143.6152 LP  0  0  0  0  0  0  0  0  0  0  0  0  # atno 17321 bound_to 7965
  140.4776  143.2390  151.9001 LP  0  0  0  0  0  0  0  0  0  0  0  0  # atno 17342 bound_to 10162
  139.4786  144.5304  151.8675 LP  0  0  0  0  0  0  0  0  0  0  0  0  # atno 17343 bound_to 10162
  156.2335  130.6808  151.1486 LP  0  0  0  0  0  0  0  0  0  0  0  0  # atno 17370 bound_to 10713
  157.7235  131.0665  150.6032 LP  0  0  0  0  0  0  0  0  0  0  0  0  # atno 17371 bound_to 10713
  139.9223  135.0201  156.8108 LP  0  0  0  0  0  0  0  0  0  0  0  0  # atno 17394 bound_to 11000
  140.6368  133.9855  155.7688 LP  0  0  0  0  0  0  0  0  0  0  0  0  # atno 17395 bound_to 11000

$$$$
