AV-unprocessed.smi:268|AV-procd|sdf|2040|dock4
  -GOLD-   2262021253D 1   1.00000     0.00000
 Structure written by MMmdl.
 50 53  0  0  0  0  0  0  0  0  1 V2000
  147.7907  141.1469  153.5802 C   0  0  0  0  0  0  0  0  0  0  0  0
  148.9861  141.2029  154.5341 C   0  0  0  0  0  0  0  0  0  0  0  0
  149.9989  140.3353  154.0527 O   0  0  0  0  0  0  0  0  0  0  0  0
  149.9798  139.0667  154.6860 C   0  0  2  0  0  0  0  0  0  0  0  0
  150.5898  139.0567  156.0940 C   0  0  0  0  0  0  0  0  0  0  0  0
  151.3903  137.7986  155.7081 C   0  0  1  0  0  0  0  0  0  0  0  0
  150.7293  136.5542  156.1228 N   0  0  0  0  0  0  0  0  0  0  0  0
  151.0844  135.3344  155.4020 C   0  0  0  0  0  0  0  0  0  0  0  0
  149.4081  136.6022  156.4354 C   0  0  0  0  0  0  0  0  0  0  0  0
  148.4872  136.8820  155.4741 N   0  0  0  0  0  0  0  0  0  0  0  0
  147.1863  136.9206  155.7767 C   0  0  0  0  0  0  0  0  0  0  0  0
  146.5974  136.7119  156.9558 N   0  0  0  0  0  0  0  0  0  0  0  0
  147.5153  136.4262  157.9232 C   0  0  0  0  0  0  0  0  0  0  0  0
  148.9257  136.3478  157.7499 C   0  0  0  0  0  0  0  0  0  0  0  0
  149.5345  136.0364  158.9596 N   0  0  0  0  0  0  0  0  0  0  0  0
  148.5408  135.9355  159.7996 C   0  0  0  0  0  0  0  0  0  0  0  0
  147.2931  136.1650  159.2645 N   0  0  0  0  0  0  0  0  0  0  0  0
  146.0203  136.1249  159.9683 C   0  0  0  0  0  0  0  0  0  0  0  0
  146.0954  135.4510  161.3512 C   0  0  0  0  0  0  0  0  0  0  0  0
  146.7134  136.4484  162.3527 C   0  0  0  0  0  0  0  0  0  0  0  0
  145.9598  137.6392  162.4657 O   0  0  0  0  0  0  0  0  0  0  0  0
  144.8047  134.7497  161.7986 C   0  0  0  0  0  0  0  0  0  0  0  0
  145.4959  133.5055  162.0471 O   0  0  0  0  0  0  0  0  0  0  0  0
  146.6670  134.0262  161.3803 C   0  0  0  0  0  0  0  0  0  0  0  0
  151.1388  138.1739  154.2323 C   0  0  0  0  0  0  0  0  0  0  0  0
  146.9891  141.8021  153.9215 H   0  0  0  0  0  0  0  0  0  0  0  0
  147.3905  140.1349  153.5134 H   0  0  0  0  0  0  0  0  0  0  0  0
  148.0765  141.4621  152.5764 H   0  0  0  0  0  0  0  0  0  0  0  0
  149.3611  142.2252  154.5992 H   0  0  0  0  0  0  0  0  0  0  0  0
  148.6773  140.8997  155.5354 H   0  0  0  0  0  0  0  0  0  0  0  0
  149.0203  138.5489  154.6290 H   0  0  0  0  0  0  0  0  0  0  0  0
  151.2362  139.9163  156.2778 H   0  0  0  0  0  0  0  0  0  0  0  0
  149.8591  138.9350  156.8941 H   0  0  0  0  0  0  0  0  0  0  0  0
  152.4407  137.8570  155.9964 H   0  0  0  0  0  0  0  0  0  0  0  0
  151.5429  134.6193  156.0854 H   0  0  0  0  0  0  0  0  0  0  0  0
  151.7980  135.5423  154.6042 H   0  0  0  0  0  0  0  0  0  0  0  0
  150.2159  134.8584  154.9429 H   0  0  0  0  0  0  0  0  0  0  0  0
  146.5229  137.1518  154.9565 H   0  0  0  0  0  0  0  0  0  0  0  0
  148.6950  135.6916  160.8404 H   0  0  0  0  0  0  0  0  0  0  0  0
  145.6429  137.1441  160.0599 H   0  0  0  0  0  0  0  0  0  0  0  0
  145.3067  135.6049  159.3277 H   0  0  0  0  0  0  0  0  0  0  0  0
  146.7783  136.0155  163.3509 H   0  0  0  0  0  0  0  0  0  0  0  0
  147.7280  136.7170  162.0571 H   0  0  0  0  0  0  0  0  0  0  0  0
  145.0695  137.4122  162.6868 H   0  0  0  0  0  0  0  0  0  0  0  0
  144.3524  135.1668  162.6990 H   0  0  0  0  0  0  0  0  0  0  0  0
  144.0599  134.6454  161.0082 H   0  0  0  0  0  0  0  0  0  0  0  0
  146.7973  133.5766  160.3954 H   0  0  0  0  0  0  0  0  0  0  0  0
  147.5731  133.9195  161.9778 H   0  0  0  0  0  0  0  0  0  0  0  0
  150.8385  137.3620  153.5694 H   0  0  0  0  0  0  0  0  0  0  0  0
  151.9660  138.7434  153.8057 H   0  0  0  0  0  0  0  0  0  0  0  0
  1  2  1  0  0  0  0
  1 26  1  0  0  0  0
  1 27  1  0  0  0  0
  1 28  1  0  0  0  0
  2  3  1  0  0  0  0
  2 29  1  0  0  0  0
  2 30  1  0  0  0  0
  3  4  1  0  0  0  0
  4 25  1  0  0  0  0
  4  5  1  0  0  0  0
  4 31  1  0  0  0  0
  5  6  1  0  0  0  0
  5 32  1  0  0  0  0
  5 33  1  0  0  0  0
  6  7  1  0  0  0  0
  6 25  1  0  0  0  0
  6 34  1  0  0  0  0
  7  8  1  0  0  0  0
  7  9  1  0  0  0  0
  8 35  1  0  0  0  0
  8 36  1  0  0  0  0
  8 37  1  0  0  0  0
  9 14  1  0  0  0  0
  9 10  2  0  0  0  0
 10 11  1  0  0  0  0
 11 12  2  0  0  0  0
 11 38  1  0  0  0  0
 12 13  1  0  0  0  0
 13 17  1  0  0  0  0
 13 14  2  0  0  0  0
 14 15  1  0  0  0  0
 15 16  2  0  0  0  0
 16 17  1  0  0  0  0
 16 39  1  0  0  0  0
 17 18  1  0  0  0  0
 18 19  1  0  0  0  0
 18 40  1  0  0  0  0
 18 41  1  0  0  0  0
 19 24  1  0  0  0  0
 19 20  1  0  0  0  0
 19 22  1  0  0  0  0
 20 21  1  0  0  0  0
 20 42  1  0  0  0  0
 20 43  1  0  0  0  0
 21 44  1  0  0  0  0
 22 23  1  0  0  0  0
 22 45  1  0  0  0  0
 22 46  1  0  0  0  0
 23 24  1  0  0  0  0
 24 47  1  0  0  0  0
 24 48  1  0  0  0  0
 25 49  1  0  0  0  0
 25 50  1  0  0  0  0
M  END
> <s_m_source_file>
AV-unprocessed.smi

> <i_m_source_file_index>
268

> <i_lp_mmshare_version>
43012

> <i_f3d_flags>
0

> <s_epik_input>
W0NIM11bQ0gyXU9bQ0BASF0xW0NIMl1bQ0BIXShbQ0gyXTEpTihbQ0gzXSljKG5bY0hdbjIpYyhjMjMpbltjSF1uM1tDSDJdQzQoW0NIMl1bT0hdKVtDSDJdT1tDSDJdNA==

> <s_epik_cmdline>
J2VwaWtfcHl0aG9uJywgJy1waCcsICc3LjAnLCAnLXRuJywgJzgnLCAnLW1hJywgJzIwMCcsICctbWV0YWxfYmluZGluZycsICctaW1hZScsICc8aW5maWxlLm1hZT4nLCAnLW9tYWUnLCAnPG91dGZpbGUubWFlPic=

> <r_lp_tautomer_probability>
1

> <r_epik_Ionization_Penalty>
0.00205824

> <r_epik_Ionization_Penalty_Charging>
0

> <r_epik_Ionization_Penalty_Neutral>
0.00205824

> <r_epik_State_Penalty>
0.00125218

> <r_epik_Charging_Adjusted_Penalty>
0.00125218

> <i_epik_Tot_Q>
0

> <i_epik_Tot_abs_Q>
0

> <r_epik_Metal_State_Penalty>
-0

> <b_epik_Metal_Only>
0

> <s_lp_Force_Field>
OPLS_2005

> <r_lp_Energy>
42.2334

> <b_lp_Chiralities_Consistent>
1

> <s_lp_Variant>
AV-unprocessed.smi:268-1

> <Gold.Version>
5.8.1

> <Gold.Id.Protein>
6NUR|6NUR_protein|mol2

> <Gold.PLP.Fitness>
41.8199

> <Gold.PLP.PLP>
-38.0891

> <Gold.PLP.part.hbond>
-4.1362

> <Gold.PLP.part.metal>
0.0000

> <Gold.PLP.part.buried>
-5.2565

> <Gold.PLP.part.nonpolar>
-28.8405

> <Gold.PLP.part.repulsive>
0.9982

> <Gold.PLP.ligand.clash>
0.1639

> <Gold.PLP.ligand.torsion>
1.6114

> <Gold.PLP.Chemscore.Hbond>
1.8992

> <Gold.PLP.Chemscore.CHOScore>
0.0000

> <Gold.PLP.Chemscore.Metal>
0.0000

> <Gold.Chemscore.Hbonds>
donor molecule, donor type, donor heavy atom, donor atom, acceptor molecule, acceptor atom, score
      P1  H  6896  6909       L1    15  1.00
      P1  H  6934  6947       L1    21  0.09
      P1  H  7989  7998       L1     3  0.82

> <Gold.PLP.Chemscore.Internal.Correction>
1.4198

> <Gold.Rescore>
     Score         DG    S(hbond)    S(metal)    S(lipo)     H(rot)  DE(clash)    DE(int)     intcor
      9.23     -13.04       1.88        0.00      80.00       3.15       0.06       3.75       ----

> <Gold.Chemscore.Fitness>
9.2328

> <Gold.Chemscore.DG>
-13.0416

> <Gold.Chemscore.ZeroCoef>
-5.4800

> <Gold.Chemscore.Hbond>
1.8793

> <Gold.Chemscore.Metal>
0.0000

> <Gold.Chemscore.Lipo>
79.9953

> <Gold.Chemscore.Internal_Hbond>
0.0000

> <Gold.Chemscore.DEClash>
0.0603

> <Gold.Chemscore.DEInternal>
3.7484

> <Gold.Chemscore.Rot>
3.1542

> <Gold.Chemscore.Internal.Correction>
   9.000000E+99

> <Gold.Chemscore.Hbonds>
donor molecule, donor type, donor heavy atom, donor atom, acceptor molecule, acceptor atom, score
      P1  H  6896  6909       L1    15  0.40
      P1  H  6934  6947       L1    21  0.03
      P1  H  7989  7998       L1     3  0.75

> <Gold.Chemscore.Hbond.Weighted>
-6.2769

> <Gold.Chemscore.Metal.Weighted>
-0.0000

> <Gold.Chemscore.Lipo.Weighted>
-9.3595

> <Gold.Chemscore.Internal_Hbond.Weighted>
0.0000

> <Gold.Chemscore.DEClash.Weighted>
0.0603

> <Gold.Chemscore.DEInternal.Weighted>
3.7484

> <Gold.Chemscore.Rot.Weighted>
8.0748

> <Gold.Chemscore.Internal.Correction.Weighted>
   9.000000E+99

> <Gold.Protein.RotatedTorsions>
[ 6907 6896 6895 6894 ] final   68.10 input  -60.11 | X-H torsion
[ 7974 7965 7964 7962 ] final   30.00 input  175.53 | X-H torsion
[ 8008 7997 7996 7995 ] final   44.60 input   59.86 | X-H torsion
[ 10167 10162 10161 10158 ] final  -33.12 input  -65.29 | X-H torsion
[ 10718 10713 10712 10709 ] final  -80.14 input   66.30 | X-H torsion
[ 10763 10752 10751 10750 ] final -121.53 input  -60.55 | X-H torsion
[ 11005 11000 10999 10996 ] final   82.08 input  -57.11 | X-H torsion

> <Gold.Protein.ActiveResidues>
 VAL166  LYS551  ARG553  GLY616  TRP617  ASP618  TYR619  PRO620  LYS621  CYS622 
 ASP623  PHE694  ASN695  SER759  ASP760  ASP761  ALA762  ILE779  LEU786  VAL792 
 PHE793  MET794  SER795  GLU796  ALA797  LYS798  CYS799  TRP800  GLU811  SER814 

> <Gold.Protein.RotatedAtoms>
  152.4597  134.5212  159.9782 H   0  0  0  0  0  0  0  0  0  0  0  0  # atno 6907 bound_to 6896
  151.5264  133.3451  159.2918 H   0  0  0  0  0  0  0  0  0  0  0  0  # atno 6908 bound_to 6896
  150.8555  134.7922  159.7105 H   0  0  0  0  0  0  0  0  0  0  0  0  # atno 6909 bound_to 6896
  146.1638  139.6846  142.9015 H   0  0  0  0  0  0  0  0  0  0  0  0  # atno 7974 bound_to 7965
  155.3220  140.3397  155.4241 H   0  0  0  0  0  0  0  0  0  0  0  0  # atno 8008 bound_to 7997
  156.1904  140.1695  156.8140 H   0  0  0  0  0  0  0  0  0  0  0  0  # atno 8009 bound_to 7997
  154.5435  140.0720  156.8534 H   0  0  0  0  0  0  0  0  0  0  0  0  # atno 8010 bound_to 7997
  140.7210  143.3644  151.1900 H   0  0  0  0  0  0  0  0  0  0  0  0  # atno 10167 bound_to 10162
  156.0076  130.4566  150.3755 H   0  0  0  0  0  0  0  0  0  0  0  0  # atno 10718 bound_to 10713
  154.8670  135.4164  154.2635 H   0  0  0  0  0  0  0  0  0  0  0  0  # atno 10763 bound_to 10752
  153.3559  135.7001  153.6757 H   0  0  0  0  0  0  0  0  0  0  0  0  # atno 10764 bound_to 10752
  153.5677  135.3597  155.2798 H   0  0  0  0  0  0  0  0  0  0  0  0  # atno 10765 bound_to 10752
  139.9076  134.8045  156.2127 H   0  0  0  0  0  0  0  0  0  0  0  0  # atno 11005 bound_to 11000
  145.4521  141.0429  143.2799 LP  0  0  0  0  0  0  0  0  0  0  0  0  # atno 17320 bound_to 7965
  144.8063  139.6045  143.7049 LP  0  0  0  0  0  0  0  0  0  0  0  0  # atno 17321 bound_to 7965
  139.7203  143.9235  152.2982 LP  0  0  0  0  0  0  0  0  0  0  0  0  # atno 17342 bound_to 10162
  139.8989  144.6923  150.8687 LP  0  0  0  0  0  0  0  0  0  0  0  0  # atno 17343 bound_to 10162
  157.1837  131.0398  151.2735 LP  0  0  0  0  0  0  0  0  0  0  0  0  # atno 17370 bound_to 10713
  157.4123  130.7392  149.6848 LP  0  0  0  0  0  0  0  0  0  0  0  0  # atno 17371 bound_to 10713
  141.0455  133.6915  156.1676 LP  0  0  0  0  0  0  0  0  0  0  0  0  # atno 17394 bound_to 11000
  140.6890  134.4686  157.5589 LP  0  0  0  0  0  0  0  0  0  0  0  0  # atno 17395 bound_to 11000

$$$$
