AV-unprocessed.smi:701|AV-procd|sdf|3412|dock8
  -GOLD-   22720 0393D 1   1.00000     0.00000
 Structure written by MMmdl.
 48 50  0  0  0  0  0  0  0  0  2 V2000
  141.1247  136.6118  153.4352 C   0  0  0  0  0  0  0  0  0  0  0  0
  141.9266  135.3236  153.6311 C   0  0  0  0  0  0  0  0  0  0  0  0
  143.2130  135.4972  153.0618 O   0  0  0  0  0  0  0  0  0  0  0  0
  144.1175  134.4508  153.3935 C   0  0  2  0  0  0  0  0  0  0  0  0
  144.8969  134.7492  154.6808 C   0  0  0  0  0  0  0  0  0  0  0  0
  145.9311  135.4366  153.7885 C   0  0  1  0  0  0  0  0  0  0  0  0
  147.2979  135.1819  154.2225 N   0  0  0  0  0  0  0  0  0  0  0  0
  147.9514  135.8807  155.1642 C   0  0  0  0  0  0  0  0  0  0  0  0
  147.4240  136.7881  155.8065 O   0  0  0  0  0  0  0  0  0  0  0  0
  149.4261  135.5301  155.4285 C   0  0  0  0  0  0  0  0  0  0  0  0
  150.3541  136.6727  155.3388 N   0  0  0  0  0  0  0  0  0  0  0  0
  149.9055  137.8260  154.6714 C   0  0  0  0  0  0  0  0  0  0  0  0
  150.6729  138.9269  154.5608 C   0  0  0  0  0  0  0  0  0  0  0  0
  152.0031  138.9035  155.1566 C   0  0  0  0  0  0  0  0  0  0  0  0
  152.7160  139.9011  155.0692 O   0  0  0  0  0  0  0  0  0  0  0  0
  152.3939  137.7602  155.7917 N   0  5  0  0  0  0  0  0  0  0  0  0
  151.6026  136.6483  155.8971 C   0  0  0  0  0  0  0  0  0  0  0  0
  151.9710  135.6310  156.4846 O   0  0  0  0  0  0  0  0  0  0  0  0
  145.4552  134.5459  152.6110 C   0  0  0  0  0  0  0  0  0  0  0  0
  145.4095  135.2333  151.2348 C   0  0  0  0  0  0  0  0  0  0  0  0
  144.6954  134.3837  150.1708 C   0  0  0  0  0  0  0  0  0  0  0  0
  145.3744  133.0174  150.0090 C   0  0  0  0  0  0  0  0  0  0  0  0
  145.5090  132.2991  151.3580 C   0  0  0  0  0  0  0  0  0  0  0  0
  146.1893  133.1990  152.4045 C   0  0  0  0  0  0  0  0  0  0  0  0
  140.1252  136.5177  153.8603 H   0  0  0  0  0  0  0  0  0  0  0  0
  141.0176  136.8484  152.3763 H   0  0  0  0  0  0  0  0  0  0  0  0
  141.6168  137.4554  153.9197 H   0  0  0  0  0  0  0  0  0  0  0  0
  142.0050  135.0929  154.6941 H   0  0  0  0  0  0  0  0  0  0  0  0
  141.4141  134.4897  153.1494 H   0  0  0  0  0  0  0  0  0  0  0  0
  143.6598  133.4608  153.3652 H   0  0  0  0  0  0  0  0  0  0  0  0
  144.3989  135.4128  155.3878 H   0  0  0  0  0  0  0  0  0  0  0  0
  145.2668  133.8467  155.1707 H   0  0  0  0  0  0  0  0  0  0  0  0
  145.6967  136.4938  153.6434 H   0  0  0  0  0  0  0  0  0  0  0  0
  147.8056  134.4553  153.7380 H   0  0  0  0  0  0  0  0  0  0  0  0
  149.5012  135.0628  156.4119 H   0  0  0  0  0  0  0  0  0  0  0  0
  149.7189  134.7516  154.7231 H   0  0  0  0  0  0  0  0  0  0  0  0
  148.9064  137.7631  154.2654 H   0  0  0  0  0  0  0  0  0  0  0  0
  150.3118  139.8059  154.0479 H   0  0  0  0  0  0  0  0  0  0  0  0
  144.9183  136.2041  151.3042 H   0  0  0  0  0  0  0  0  0  0  0  0
  146.4236  135.4501  150.8965 H   0  0  0  0  0  0  0  0  0  0  0  0
  143.6513  134.2446  150.4538 H   0  0  0  0  0  0  0  0  0  0  0  0
  144.6898  134.9102  149.2162 H   0  0  0  0  0  0  0  0  0  0  0  0
  144.8127  132.3987  149.3085 H   0  0  0  0  0  0  0  0  0  0  0  0
  146.3650  133.1562  149.5743 H   0  0  0  0  0  0  0  0  0  0  0  0
  144.5226  131.9992  151.7121 H   0  0  0  0  0  0  0  0  0  0  0  0
  146.0816  131.3798  151.2316 H   0  0  0  0  0  0  0  0  0  0  0  0
  147.2181  133.3786  152.0895 H   0  0  0  0  0  0  0  0  0  0  0  0
  146.2652  132.6485  153.3428 H   0  0  0  0  0  0  0  0  0  0  0  0
  1  2  1  0  0  0  0
  1 25  1  0  0  0  0
  1 26  1  0  0  0  0
  1 27  1  0  0  0  0
  2  3  1  0  0  0  0
  2 28  1  0  0  0  0
  2 29  1  0  0  0  0
  3  4  1  0  0  0  0
  4 19  1  0  0  0  0
  4  5  1  0  0  0  0
  4 30  1  0  0  0  0
  5  6  1  0  0  0  0
  5 31  1  0  0  0  0
  5 32  1  0  0  0  0
  6  7  1  0  0  0  0
  6 19  1  0  0  0  0
  6 33  1  0  0  0  0
  7  8  1  0  0  0  0
  7 34  1  0  0  0  0
  8  9  2  0  0  0  0
  8 10  1  0  0  0  0
 10 11  1  0  0  0  0
 10 35  1  0  0  0  0
 10 36  1  0  0  0  0
 11 17  1  0  0  0  0
 11 12  1  0  0  0  0
 12 13  2  0  0  0  0
 12 37  1  0  0  0  0
 13 14  1  0  0  0  0
 13 38  1  0  0  0  0
 14 15  2  0  0  0  0
 14 16  1  0  0  0  0
 16 17  1  0  0  0  0
 17 18  2  0  0  0  0
 19 24  1  0  0  0  0
 19 20  1  0  0  0  0
 20 21  1  0  0  0  0
 20 39  1  0  0  0  0
 20 40  1  0  0  0  0
 21 22  1  0  0  0  0
 21 41  1  0  0  0  0
 21 42  1  0  0  0  0
 22 23  1  0  0  0  0
 22 43  1  0  0  0  0
 22 44  1  0  0  0  0
 23 24  1  0  0  0  0
 23 45  1  0  0  0  0
 23 46  1  0  0  0  0
 24 47  1  0  0  0  0
 24 48  1  0  0  0  0
M  CHG  1  16  -1
M  END
> <s_m_source_file>
AV-unprocessed.smi

> <i_m_source_file_index>
701

> <i_lp_mmshare_version>
43012

> <i_f3d_flags>
0

> <s_epik_input>
W0NIMl0xW0NIMl1bQ0gyXVtDSDJdW0NIMl1DMTJbQ0BIXShPW0NIMl1bQ0gzXSlbQ0gyXVtDQEhdMltOSF1DKD1PKVtDSDJdbjNbY0hdW2NIXWMoPU8pW25IXWMzPU8=

> <s_epik_cmdline>
J2VwaWtfcHl0aG9uJywgJy1waCcsICc3LjAnLCAnLXRuJywgJzgnLCAnLW1hJywgJzIwMCcsICctbWV0YWxfYmluZGluZycsICctaW1hZScsICc8aW5maWxlLm1hZT4nLCAnLW9tYWUnLCAnPG91dGZpbGUubWFlPic=

> <r_lp_tautomer_probability>
0.999537

> <r_epik_Ionization_Penalty>
3.12423

> <r_epik_Ionization_Penalty_Charging>
2.92877e-08

> <r_epik_Ionization_Penalty_Neutral>
3.12423

> <r_epik_State_Penalty>
3.12332

> <r_epik_Charging_Adjusted_Penalty>
3.12332

> <i_epik_Tot_Q>
-1

> <i_epik_Tot_abs_Q>
1

> <r_epik_Metal_State_Penalty>
0.463873

> <b_epik_Metal_Only>
1

> <s_lp_Force_Field>
OPLS_2005

> <r_lp_Energy>
34.5124

> <b_lp_Chiralities_Consistent>
1

> <s_lp_Variant>
AV-unprocessed.smi:701-5

> <Gold.Version>
5.8.1

> <Gold.Id.Protein>
6NUR|6NUR_protein|mol2

> <Gold.PLP.Fitness>
38.9925

> <Gold.PLP.PLP>
-32.8066

> <Gold.PLP.part.hbond>
-4.6082

> <Gold.PLP.part.metal>
0.0000

> <Gold.PLP.part.buried>
0.2137

> <Gold.PLP.part.nonpolar>
-27.8554

> <Gold.PLP.part.repulsive>
0.2012

> <Gold.PLP.ligand.clash>
0.0000

> <Gold.PLP.ligand.torsion>
0.7074

> <Gold.PLP.Chemscore.Hbond>
2.1625

> <Gold.PLP.Chemscore.CHOScore>
0.2577

> <Gold.PLP.Chemscore.Metal>
0.0000

> <Gold.Chemscore.Hbonds>
donor molecule, donor type, donor heavy atom, donor atom, acceptor molecule, acceptor atom, score
      P1  H  7989  7998       L1    15  0.37
      P1  H  7997  8009       L1    15  1.00
      P1  H 10752 10763       L1    18  0.64
      L1  C    12    37       P1  7948  0.14

> <Gold.PLP.Chemscore.Internal.Correction>
0.3404

> <Gold.Rescore>
     Score         DG    S(hbond)    S(metal)    S(lipo)     H(rot)  DE(clash)    DE(int)     intcor
     10.63     -12.68       1.38        0.00      66.75       2.04       0.06       1.99       ----

> <Gold.Chemscore.Fitness>
10.6313

> <Gold.Chemscore.DG>
-12.6793

> <Gold.Chemscore.ZeroCoef>
-5.4800

> <Gold.Chemscore.Hbond>
1.3807

> <Gold.Chemscore.Metal>
0.0000

> <Gold.Chemscore.Lipo>
66.7506

> <Gold.Chemscore.Internal_Hbond>
0.0000

> <Gold.Chemscore.DEClash>
0.0599

> <Gold.Chemscore.DEInternal>
1.9882

> <Gold.Chemscore.Rot>
2.0399

> <Gold.Chemscore.Internal.Correction>
   9.000000E+99

> <Gold.Chemscore.Hbonds>
donor molecule, donor type, donor heavy atom, donor atom, acceptor molecule, acceptor atom, score
      P1  H  7989  7998       L1    15  0.07
      P1  H  7997  8009       L1    15  0.94
      P1  H 10752 10763       L1    18  0.05

> <Gold.Chemscore.Hbond.Weighted>
-4.6116

> <Gold.Chemscore.Metal.Weighted>
-0.0000

> <Gold.Chemscore.Lipo.Weighted>
-7.8098

> <Gold.Chemscore.Internal_Hbond.Weighted>
0.0000

> <Gold.Chemscore.DEClash.Weighted>
0.0599

> <Gold.Chemscore.DEInternal.Weighted>
1.9882

> <Gold.Chemscore.Rot.Weighted>
5.2222

> <Gold.Chemscore.Internal.Correction.Weighted>
   9.000000E+99

> <Gold.Protein.RotatedTorsions>
[ 6907 6896 6895 6894 ] final   20.96 input  -60.11 | X-H torsion
[ 7974 7965 7964 7962 ] final   -0.67 input  175.53 | X-H torsion
[ 8008 7997 7996 7995 ] final -154.94 input   59.86 | X-H torsion
[ 10167 10162 10161 10158 ] final   27.97 input  -65.29 | X-H torsion
[ 10718 10713 10712 10709 ] final   16.32 input   66.30 | X-H torsion
[ 10763 10752 10751 10750 ] final  116.08 input  -60.55 | X-H torsion
[ 11005 11000 10999 10996 ] final -148.66 input  -57.11 | X-H torsion

> <Gold.Protein.ActiveResidues>
 VAL166  LYS551  ARG553  GLY616  TRP617  ASP618  TYR619  PRO620  LYS621  CYS622 
 ASP623  PHE694  ASN695  SER759  ASP760  ASP761  ALA762  ILE779  LEU786  VAL792 
 PHE793  MET794  SER795  GLU796  ALA797  LYS798  CYS799  TRP800  GLU811  SER814 

> <Gold.Protein.RotatedAtoms>
  151.9044  135.0365  160.0508 H   0  0  0  0  0  0  0  0  0  0  0  0  # atno 6907 bound_to 6896
  152.2332  133.5070  159.5236 H   0  0  0  0  0  0  0  0  0  0  0  0  # atno 6908 bound_to 6896
  150.7031  134.1105  159.4041 H   0  0  0  0  0  0  0  0  0  0  0  0  # atno 6909 bound_to 6896
  146.2425  140.1305  142.8338 H   0  0  0  0  0  0  0  0  0  0  0  0  # atno 7974 bound_to 7965
  155.6941  140.0759  157.2436 H   0  0  0  0  0  0  0  0  0  0  0  0  # atno 8008 bound_to 7997
  154.4084  140.1659  156.2171 H   0  0  0  0  0  0  0  0  0  0  0  0  # atno 8009 bound_to 7997
  155.9426  140.3383  155.6343 H   0  0  0  0  0  0  0  0  0  0  0  0  # atno 8010 bound_to 7997
  140.4892  144.0493  150.6291 H   0  0  0  0  0  0  0  0  0  0  0  0  # atno 10167 bound_to 10162
  157.0661  130.6329  149.5796 H   0  0  0  0  0  0  0  0  0  0  0  0  # atno 10718 bound_to 10713
  153.5318  135.3576  155.2679 H   0  0  0  0  0  0  0  0  0  0  0  0  # atno 10763 bound_to 10752
  154.8726  135.4070  154.3143 H   0  0  0  0  0  0  0  0  0  0  0  0  # atno 10764 bound_to 10752
  153.3833  135.7069  153.6616 H   0  0  0  0  0  0  0  0  0  0  0  0  # atno 10765 bound_to 10752
  140.7589  134.3321  157.5107 H   0  0  0  0  0  0  0  0  0  0  0  0  # atno 11005 bound_to 11000
  145.0330  140.8886  143.5098 LP  0  0  0  0  0  0  0  0  0  0  0  0  # atno 17320 bound_to 7965
  145.1372  139.2594  143.5509 LP  0  0  0  0  0  0  0  0  0  0  0  0  # atno 17321 bound_to 7965
  140.3757  143.2830  152.0227 LP  0  0  0  0  0  0  0  0  0  0  0  0  # atno 17342 bound_to 10162
  139.4848  144.6194  151.7283 LP  0  0  0  0  0  0  0  0  0  0  0  0  # atno 17343 bound_to 10162
  155.9964  130.5033  150.7495 LP  0  0  0  0  0  0  0  0  0  0  0  0  # atno 17370 bound_to 10713
  157.4915  131.0911  151.0421 LP  0  0  0  0  0  0  0  0  0  0  0  0  # atno 17371 bound_to 10713
  139.8774  134.9189  156.3214 LP  0  0  0  0  0  0  0  0  0  0  0  0  # atno 17394 bound_to 11000
  140.9682  133.7344  156.0497 LP  0  0  0  0  0  0  0  0  0  0  0  0  # atno 17395 bound_to 11000

$$$$
