AV-unprocessed.smi:2193|AV-procd|sdf|8898|dock9
  -GOLD-   2272012103D 1   1.00000     0.00000
 Structure written by MMmdl.
 40 42  0  0  0  0  0  0  0  0  1 V2000
  152.8545  139.5112  156.2908 O   0  0  0  0  0  0  0  0  0  0  0  0
  152.1164  139.5310  157.4931 C   0  0  0  0  0  0  0  0  0  0  0  0
  151.9847  140.9057  158.0754 C   0  0  0  0  0  0  0  0  0  0  0  0
  152.3613  141.1721  159.3267 N   0  0  0  0  0  0  0  0  0  0  0  0
  152.0952  142.5217  159.4452 C   0  0  0  0  0  0  0  0  0  0  0  0
  152.2813  143.4022  160.5350 C   0  0  0  0  0  0  0  0  0  0  0  0
  151.9356  144.7645  160.4192 C   0  0  0  0  0  0  0  0  0  0  0  0
  151.4022  145.2654  159.2141 C   0  0  0  0  0  0  0  0  0  0  0  0
  151.2092  144.4051  158.1161 C   0  0  0  0  0  0  0  0  0  0  0  0
  151.5520  143.0448  158.2381 C   0  0  0  0  0  0  0  0  0  0  0  0
  151.4848  141.9560  157.3735 N   0  0  0  0  0  0  0  0  0  0  0  0
  150.9930  141.9886  156.0010 C   0  0  0  0  0  0  0  0  0  0  0  0
  150.0998  140.7784  155.6585 C   0  0  2  0  0  0  0  0  0  0  0  0
  150.8004  139.8827  154.8197 O   0  0  0  0  0  0  0  0  0  0  0  0
  148.8004  141.1914  154.9524 C   0  0  0  0  0  0  0  0  0  0  0  0
  147.8717  141.6452  155.9288 O   0  0  0  0  0  0  0  0  0  0  0  0
  146.8165  142.4283  155.5133 C   0  0  0  0  0  0  0  0  0  0  0  0
  145.9245  142.8793  156.5085 C   0  0  0  0  0  0  0  0  0  0  0  0
  144.8186  143.6847  156.1746 C   0  0  0  0  0  0  0  0  0  0  0  0
  144.5927  144.0481  154.8343 C   0  0  0  0  0  0  0  0  0  0  0  0
  143.5299  144.8224  154.5109 F   0  0  0  0  0  0  0  0  0  0  0  0
  145.4739  143.6046  153.8306 C   0  0  0  0  0  0  0  0  0  0  0  0
  146.5806  142.7996  154.1649 C   0  0  0  0  0  0  0  0  0  0  0  0
  152.6768  138.6987  155.8428 H   0  0  0  0  0  0  0  0  0  0  0  0
  151.1224  139.1293  157.2920 H   0  0  0  0  0  0  0  0  0  0  0  0
  152.5771  138.8630  158.2207 H   0  0  0  0  0  0  0  0  0  0  0  0
  152.6919  143.0286  161.4616 H   0  0  0  0  0  0  0  0  0  0  0  0
  152.0819  145.4284  161.2586 H   0  0  0  0  0  0  0  0  0  0  0  0
  151.1411  146.3105  159.1329 H   0  0  0  0  0  0  0  0  0  0  0  0
  150.8017  144.7864  157.1915 H   0  0  0  0  0  0  0  0  0  0  0  0
  150.4297  142.9138  155.8745 H   0  0  0  0  0  0  0  0  0  0  0  0
  151.8284  142.0482  155.3046 H   0  0  0  0  0  0  0  0  0  0  0  0
  149.8458  140.2360  156.5694 H   0  0  0  0  0  0  0  0  0  0  0  0
  150.5080  139.0039  155.0086 H   0  0  0  0  0  0  0  0  0  0  0  0
  149.0045  141.9724  154.2177 H   0  0  0  0  0  0  0  0  0  0  0  0
  148.3800  140.3325  154.4264 H   0  0  0  0  0  0  0  0  0  0  0  0
  146.0901  142.6049  157.5400 H   0  0  0  0  0  0  0  0  0  0  0  0
  144.1441  144.0229  156.9475 H   0  0  0  0  0  0  0  0  0  0  0  0
  145.3014  143.8820  152.8011 H   0  0  0  0  0  0  0  0  0  0  0  0
  147.2334  142.4792  153.3674 H   0  0  0  0  0  0  0  0  0  0  0  0
  1  2  1  0  0  0  0
  1 24  1  0  0  0  0
  2  3  1  0  0  0  0
  2 25  1  0  0  0  0
  2 26  1  0  0  0  0
  3 11  1  0  0  0  0
  3  4  2  0  0  0  0
  4  5  1  0  0  0  0
  5 10  2  0  0  0  0
  5  6  1  0  0  0  0
  6  7  2  0  0  0  0
  6 27  1  0  0  0  0
  7  8  1  0  0  0  0
  7 28  1  0  0  0  0
  8  9  2  0  0  0  0
  8 29  1  0  0  0  0
  9 10  1  0  0  0  0
  9 30  1  0  0  0  0
 10 11  1  0  0  0  0
 11 12  1  0  0  0  0
 12 13  1  0  0  0  0
 12 31  1  0  0  0  0
 12 32  1  0  0  0  0
 13 14  1  0  0  0  0
 13 15  1  0  0  0  0
 13 33  1  0  0  0  0
 14 34  1  0  0  0  0
 15 16  1  0  0  0  0
 15 35  1  0  0  0  0
 15 36  1  0  0  0  0
 16 17  1  0  0  0  0
 17 23  1  0  0  0  0
 17 18  2  0  0  0  0
 18 19  1  0  0  0  0
 18 37  1  0  0  0  0
 19 20  2  0  0  0  0
 19 38  1  0  0  0  0
 20 21  1  0  0  0  0
 20 22  1  0  0  0  0
 22 23  2  0  0  0  0
 22 39  1  0  0  0  0
 23 40  1  0  0  0  0
M  END
> <s_m_source_file>
AV-unprocessed.smi

> <i_m_source_file_index>
2193

> <i_lp_mmshare_version>
43012

> <i_f3d_flags>
0

> <s_epik_input>
W2NIXTFbY0hdW2NIXVtjSF1jKGMxMiluKGMobjIpW0NIMl1bT0hdKVtDSDJdW0NASF0oW09IXSlbQ0gyXU9jM1tjSF1bY0hdYyhGKVtjSF1bY0hdMw==

> <s_epik_cmdline>
J2VwaWtfcHl0aG9uJywgJy1waCcsICc3LjAnLCAnLXRuJywgJzgnLCAnLW1hJywgJzIwMCcsICctbWV0YWxfYmluZGluZycsICctaW1hZScsICc8aW5maWxlLm1hZT4nLCAnLW9tYWUnLCAnPG91dGZpbGUubWFlPic=

> <r_lp_tautomer_probability>
1

> <r_epik_Ionization_Penalty>
0.0549747

> <r_epik_Ionization_Penalty_Charging>
0

> <r_epik_Ionization_Penalty_Neutral>
0.0549747

> <r_epik_State_Penalty>
0.0472568

> <r_epik_Charging_Adjusted_Penalty>
0.0472568

> <i_epik_Tot_Q>
0

> <i_epik_Tot_abs_Q>
0

> <r_epik_Metal_State_Penalty>
4.91905e-05

> <b_epik_Metal_Only>
0

> <s_lp_Force_Field>
OPLS_2005

> <r_lp_Energy>
14.0704

> <b_lp_Chiralities_Consistent>
1

> <s_lp_Variant>
AV-unprocessed.smi:2193-1

> <Gold.Version>
5.8.1

> <Gold.Id.Protein>
6NUR|6NUR_protein|mol2

> <Gold.PLP.Fitness>
53.6807

> <Gold.PLP.PLP>
-50.1175

> <Gold.PLP.part.hbond>
-2.0000

> <Gold.PLP.part.metal>
0.0000

> <Gold.PLP.part.buried>
-7.7883

> <Gold.PLP.part.nonpolar>
-40.4956

> <Gold.PLP.part.repulsive>
0.1220

> <Gold.PLP.ligand.clash>
0.0636

> <Gold.PLP.ligand.torsion>
1.2178

> <Gold.PLP.Chemscore.Hbond>
2.0000

> <Gold.PLP.Chemscore.CHOScore>
0.0000

> <Gold.PLP.Chemscore.Metal>
0.0000

> <Gold.Chemscore.Hbonds>
donor molecule, donor type, donor heavy atom, donor atom, acceptor molecule, acceptor atom, score
      P1  H  7989  7998       L1    14  1.00
      P1  H  7997  8010       L1     1  1.00

> <Gold.PLP.Chemscore.Internal.Correction>
0.0623

> <Gold.Rescore>
     Score         DG    S(hbond)    S(metal)    S(lipo)     H(rot)  DE(clash)    DE(int)     intcor
     14.85     -17.44       1.88        0.00     118.91       3.22       0.25       2.35       ----

> <Gold.Chemscore.Fitness>
14.8485

> <Gold.Chemscore.DG>
-17.4420

> <Gold.Chemscore.ZeroCoef>
-5.4800

> <Gold.Chemscore.Hbond>
1.8839

> <Gold.Chemscore.Metal>
0.0000

> <Gold.Chemscore.Lipo>
118.9056

> <Gold.Chemscore.Internal_Hbond>
0.0000

> <Gold.Chemscore.DEClash>
0.2463

> <Gold.Chemscore.DEInternal>
2.3472

> <Gold.Chemscore.Rot>
3.2196

> <Gold.Chemscore.Internal.Correction>
   9.000000E+99

> <Gold.Chemscore.Hbonds>
donor molecule, donor type, donor heavy atom, donor atom, acceptor molecule, acceptor atom, score
      P1  H  7989  7998       L1    14  0.65
      P1  H  7997  8010       L1     1  0.73

> <Gold.Chemscore.Hbond.Weighted>
-6.2923

> <Gold.Chemscore.Metal.Weighted>
-0.0000

> <Gold.Chemscore.Lipo.Weighted>
-13.9120

> <Gold.Chemscore.Internal_Hbond.Weighted>
0.0000

> <Gold.Chemscore.DEClash.Weighted>
0.2463

> <Gold.Chemscore.DEInternal.Weighted>
2.3472

> <Gold.Chemscore.Rot.Weighted>
8.2422

> <Gold.Chemscore.Internal.Correction.Weighted>
   9.000000E+99

> <Gold.Protein.RotatedTorsions>
[ 6907 6896 6895 6894 ] final  120.57 input  -60.11 | X-H torsion
[ 7974 7965 7964 7962 ] final  -12.48 input  175.53 | X-H torsion
[ 8008 7997 7996 7995 ] final   62.93 input   59.86 | X-H torsion
[ 10167 10162 10161 10158 ] final   -1.20 input  -65.29 | X-H torsion
[ 10718 10713 10712 10709 ] final  -24.14 input   66.30 | X-H torsion
[ 10763 10752 10751 10750 ] final   95.34 input  -60.55 | X-H torsion
[ 11005 11000 10999 10996 ] final   83.81 input  -57.11 | X-H torsion

> <Gold.Protein.ActiveResidues>
 VAL166  LYS551  ARG553  GLY616  TRP617  ASP618  TYR619  PRO620  LYS621  CYS622 
 ASP623  PHE694  ASN695  SER759  ASP760  ASP761  ALA762  ILE779  LEU786  VAL792 
 PHE793  MET794  SER795  GLU796  ALA797  LYS798  CYS799  TRP800  GLU811  SER814 

> <Gold.Protein.RotatedAtoms>
  152.4388  133.7409  159.6640 H   0  0  0  0  0  0  0  0  0  0  0  0  # atno 6907 bound_to 6896
  150.8275  133.8136  159.3118 H   0  0  0  0  0  0  0  0  0  0  0  0  # atno 6908 bound_to 6896
  151.5800  135.1061  160.0067 H   0  0  0  0  0  0  0  0  0  0  0  0  # atno 6909 bound_to 6896
  146.2150  140.3064  142.8379 H   0  0  0  0  0  0  0  0  0  0  0  0  # atno 7974 bound_to 7965
  155.6221  140.3496  155.4655 H   0  0  0  0  0  0  0  0  0  0  0  0  # atno 8008 bound_to 7997
  156.0071  140.1225  157.0515 H   0  0  0  0  0  0  0  0  0  0  0  0  # atno 8009 bound_to 7997
  154.4268  140.1089  156.5763 H   0  0  0  0  0  0  0  0  0  0  0  0  # atno 8010 bound_to 7997
  140.6800  143.6804  150.8110 H   0  0  0  0  0  0  0  0  0  0  0  0  # atno 10167 bound_to 10162
  156.4816  130.4546  149.6808 H   0  0  0  0  0  0  0  0  0  0  0  0  # atno 10718 bound_to 10713
  153.2521  135.4257  155.0808 H   0  0  0  0  0  0  0  0  0  0  0  0  # atno 10763 bound_to 10752
  154.8386  135.3428  154.6498 H   0  0  0  0  0  0  0  0  0  0  0  0  # atno 10764 bound_to 10752
  153.6919  135.7033  153.5144 H   0  0  0  0  0  0  0  0  0  0  0  0  # atno 10765 bound_to 10752
  139.9019  134.8171  156.2359 H   0  0  0  0  0  0  0  0  0  0  0  0  # atno 11005 bound_to 11000
  144.9020  140.7654  143.5861 LP  0  0  0  0  0  0  0  0  0  0  0  0  # atno 17320 bound_to 7965
  145.2990  139.1857  143.4699 LP  0  0  0  0  0  0  0  0  0  0  0  0  # atno 17321 bound_to 7965
  140.0503  143.5257  152.2677 LP  0  0  0  0  0  0  0  0  0  0  0  0  # atno 17342 bound_to 10162
  139.6116  144.7610  151.2939 LP  0  0  0  0  0  0  0  0  0  0  0  0  # atno 17343 bound_to 10162
  156.3516  130.7435  151.2395 LP  0  0  0  0  0  0  0  0  0  0  0  0  # atno 17370 bound_to 10713
  157.7482  131.0375  150.4461 LP  0  0  0  0  0  0  0  0  0  0  0  0  # atno 17371 bound_to 10713
  141.0316  133.6986  156.1439 LP  0  0  0  0  0  0  0  0  0  0  0  0  # atno 17394 bound_to 11000
  140.7088  134.4484  157.5582 LP  0  0  0  0  0  0  0  0  0  0  0  0  # atno 17395 bound_to 11000

$$$$
