AV-unprocessed.smi:89|AV-procd|sdf|826|dock6
  -GOLD-   2262017243D 1   1.00000     0.00000
 Structure written by MMmdl.
 54 56  0  0  0  0  0  0  0  0  1 V2000
  144.5563  138.6857  155.6551 C   0  0  0  0  0  0  0  0  0  0  0  0
  145.9507  138.1407  156.0097 C   0  0  0  0  0  0  0  0  0  0  0  0
  146.9844  138.4699  155.0252 N   0  0  0  0  0  0  0  0  0  0  0  0
  146.6970  138.1660  153.7306 C   0  0  0  0  0  0  0  0  0  0  0  0
  147.1513  138.9670  152.7312 N   0  0  0  0  0  0  0  0  0  0  0  0
  146.8739  138.6832  151.4558 C   0  0  0  0  0  0  0  0  0  0  0  0
  146.1700  137.6630  150.9630 N   0  0  0  0  0  0  0  0  0  0  0  0
  145.7066  136.8559  151.9596 C   0  0  0  0  0  0  0  0  0  0  0  0
  145.9138  137.0370  153.3565 C   0  0  0  0  0  0  0  0  0  0  0  0
  145.2910  136.0136  154.0609 N   0  0  0  0  0  0  0  0  0  0  0  0
  144.7486  135.2712  153.1355 C   0  0  0  0  0  0  0  0  0  0  0  0
  144.9575  135.6981  151.8439 N   0  0  0  0  0  0  0  0  0  0  0  0
  144.4831  135.0552  150.6281 C   0  0  0  0  0  0  0  0  0  0  0  0
  144.9905  133.6031  150.4690 C   0  0  2  0  0  0  0  0  0  0  0  0
  144.6076  133.1192  149.1928 O   0  0  0  0  0  0  0  0  0  0  0  0
  144.4671  132.6388  151.5297 C   0  0  0  0  0  0  0  0  0  0  0  0
  145.6068  131.6397  151.6701 C   0  0  0  0  0  0  0  0  0  0  0  0
  146.7545  132.4673  151.5853 O   0  0  0  0  0  0  0  0  0  0  0  0
  146.5208  133.4692  150.6002 C   0  0  0  0  0  0  0  0  0  0  0  0
  148.0051  139.4718  155.3759 C   0  0  2  0  0  0  0  0  0  0  0  0
  147.4254  140.8880  155.5546 C   0  0  0  0  0  0  0  0  0  0  0  0
  149.2464  139.4669  154.4517 C   0  0  0  0  0  0  0  0  0  0  0  0
  150.8141  139.7562  155.3890 S   0  0  0  0  0  0  0  0  0  0  0  0
  150.8451  138.8161  156.5200 O   0  0  0  0  0  0  0  0  0  0  0  0
  151.9353  139.7839  154.4379 O   0  0  0  0  0  0  0  0  0  0  0  0
  150.5789  141.4673  156.0416 C   0  0  0  0  0  0  0  0  0  0  0  0
  151.7238  141.9011  156.9650 C   0  0  0  0  0  0  0  0  0  0  0  0
  143.8465  138.4625  156.4516 H   0  0  0  0  0  0  0  0  0  0  0  0
  144.1699  138.2357  154.7403 H   0  0  0  0  0  0  0  0  0  0  0  0
  144.5666  139.7660  155.5165 H   0  0  0  0  0  0  0  0  0  0  0  0
  146.2461  138.5446  156.9782 H   0  0  0  0  0  0  0  0  0  0  0  0
  145.9044  137.0616  156.1491 H   0  0  0  0  0  0  0  0  0  0  0  0
  147.2742  139.3713  150.7261 H   0  0  0  0  0  0  0  0  0  0  0  0
  144.1862  134.3792  153.3703 H   0  0  0  0  0  0  0  0  0  0  0  0
  143.3925  135.0789  150.6294 H   0  0  0  0  0  0  0  0  0  0  0  0
  144.8004  135.6585  149.7765 H   0  0  0  0  0  0  0  0  0  0  0  0
  144.7247  133.8132  148.5623 H   0  0  0  0  0  0  0  0  0  0  0  0
  144.3411  133.1568  152.4808 H   0  0  0  0  0  0  0  0  0  0  0  0
  143.5126  132.1756  151.2748 H   0  0  0  0  0  0  0  0  0  0  0  0
  145.5746  131.0906  152.6114 H   0  0  0  0  0  0  0  0  0  0  0  0
  145.6056  130.9219  150.8482 H   0  0  0  0  0  0  0  0  0  0  0  0
  146.9907  133.1753  149.6601 H   0  0  0  0  0  0  0  0  0  0  0  0
  146.9922  134.3982  150.9222 H   0  0  0  0  0  0  0  0  0  0  0  0
  148.3747  139.1804  156.3596 H   0  0  0  0  0  0  0  0  0  0  0  0
  148.1969  141.5812  155.8899 H   0  0  0  0  0  0  0  0  0  0  0  0
  146.6384  140.9038  156.3075 H   0  0  0  0  0  0  0  0  0  0  0  0
  147.0129  141.2869  154.6288 H   0  0  0  0  0  0  0  0  0  0  0  0
  149.3478  138.5483  153.8764 H   0  0  0  0  0  0  0  0  0  0  0  0
  149.1538  140.2764  153.7295 H   0  0  0  0  0  0  0  0  0  0  0  0
  150.5181  142.1394  155.1855 H   0  0  0  0  0  0  0  0  0  0  0  0
  149.6201  141.5102  156.5586 H   0  0  0  0  0  0  0  0  0  0  0  0
  151.5849  142.9324  157.2894 H   0  0  0  0  0  0  0  0  0  0  0  0
  152.6863  141.8420  156.4568 H   0  0  0  0  0  0  0  0  0  0  0  0
  151.7764  141.2824  157.8598 H   0  0  0  0  0  0  0  0  0  0  0  0
  1  2  1  0  0  0  0
  1 28  1  0  0  0  0
  1 29  1  0  0  0  0
  1 30  1  0  0  0  0
  2  3  1  0  0  0  0
  2 31  1  0  0  0  0
  2 32  1  0  0  0  0
  3  4  1  0  0  0  0
  3 20  1  0  0  0  0
  4  9  1  0  0  0  0
  4  5  2  0  0  0  0
  5  6  1  0  0  0  0
  6  7  2  0  0  0  0
  6 33  1  0  0  0  0
  7  8  1  0  0  0  0
  8 12  1  0  0  0  0
  8  9  2  0  0  0  0
  9 10  1  0  0  0  0
 10 11  2  0  0  0  0
 11 12  1  0  0  0  0
 11 34  1  0  0  0  0
 12 13  1  0  0  0  0
 13 14  1  0  0  0  0
 13 35  1  0  0  0  0
 13 36  1  0  0  0  0
 14 19  1  0  0  0  0
 14 15  1  0  0  0  0
 14 16  1  0  0  0  0
 15 37  1  0  0  0  0
 16 17  1  0  0  0  0
 16 38  1  0  0  0  0
 16 39  1  0  0  0  0
 17 18  1  0  0  0  0
 17 40  1  0  0  0  0
 17 41  1  0  0  0  0
 18 19  1  0  0  0  0
 19 42  1  0  0  0  0
 19 43  1  0  0  0  0
 20 21  1  0  0  0  0
 20 22  1  0  0  0  0
 20 44  1  0  0  0  0
 21 45  1  0  0  0  0
 21 46  1  0  0  0  0
 21 47  1  0  0  0  0
 22 23  1  0  0  0  0
 22 48  1  0  0  0  0
 22 49  1  0  0  0  0
 23 24  2  0  0  0  0
 23 25  2  0  0  0  0
 23 26  1  0  0  0  0
 26 27  1  0  0  0  0
 26 50  1  0  0  0  0
 26 51  1  0  0  0  0
 27 52  1  0  0  0  0
 27 53  1  0  0  0  0
 27 54  1  0  0  0  0
M  END
> <s_m_source_file>
AV-unprocessed.smi

> <i_m_source_file_index>
89

> <i_lp_mmshare_version>
43012

> <i_f3d_flags>
0

> <s_epik_input>
W0NIM11bQ0gyXVMoPU8pKD1PKVtDSDJdW0NAQEhdKFtDSDNdKU4oW0NIMl1bQ0gzXSljKG5bY0hdbjEpYyhjMTIpbltjSF1uMltDSDJdW0NAQF0zKFtPSF0pW0NIMl1bQ0gyXU9bQ0gyXTM=

> <s_epik_cmdline>
J2VwaWtfcHl0aG9uJywgJy1waCcsICc3LjAnLCAnLXRuJywgJzgnLCAnLW1hJywgJzIwMCcsICctbWV0YWxfYmluZGluZycsICctaW1hZScsICc8aW5maWxlLm1hZT4nLCAnLW9tYWUnLCAnPG91dGZpbGUubWFlPic=

> <r_lp_tautomer_probability>
1

> <r_epik_Ionization_Penalty>
0.00103773

> <r_epik_Ionization_Penalty_Charging>
0

> <r_epik_Ionization_Penalty_Neutral>
0.00103773

> <r_epik_State_Penalty>
0.000558914

> <r_epik_Charging_Adjusted_Penalty>
0.000558914

> <i_epik_Tot_Q>
0

> <i_epik_Tot_abs_Q>
0

> <r_epik_Metal_State_Penalty>
-0

> <b_epik_Metal_Only>
0

> <s_lp_Force_Field>
OPLS_2005

> <r_lp_Energy>
26.3336

> <b_lp_Chiralities_Consistent>
1

> <s_lp_Variant>
AV-unprocessed.smi:89-2

> <Gold.Version>
5.8.1

> <Gold.Id.Protein>
6NUR|6NUR_protein|mol2

> <Gold.PLP.Fitness>
40.6362

> <Gold.PLP.PLP>
-34.0456

> <Gold.PLP.part.hbond>
-2.4774

> <Gold.PLP.part.metal>
0.0000

> <Gold.PLP.part.buried>
-5.6657

> <Gold.PLP.part.nonpolar>
-29.8380

> <Gold.PLP.part.repulsive>
3.5231

> <Gold.PLP.ligand.clash>
0.0000

> <Gold.PLP.ligand.torsion>
1.4166

> <Gold.PLP.Chemscore.Hbond>
2.0000

> <Gold.PLP.Chemscore.CHOScore>
0.7596

> <Gold.PLP.Chemscore.Metal>
0.0000

> <Gold.Chemscore.Hbonds>
donor molecule, donor type, donor heavy atom, donor atom, acceptor molecule, acceptor atom, score
      L1  H    15    37       P1  7921  0.83
      P1  H  7989  7998       L1    25  0.73
      L1  C     6    33       P1  7957  0.70

> <Gold.PLP.Chemscore.Internal.Correction>
1.1448

> <Gold.Rescore>
     Score         DG    S(hbond)    S(metal)    S(lipo)     H(rot)  DE(clash)    DE(int)     intcor
      4.57     -10.46       1.77        0.00      60.82       3.14       1.45       4.45       ----

> <Gold.Chemscore.Fitness>
4.5659

> <Gold.Chemscore.DG>
-10.4575

> <Gold.Chemscore.ZeroCoef>
-5.4800

> <Gold.Chemscore.Hbond>
1.7653

> <Gold.Chemscore.Metal>
0.0000

> <Gold.Chemscore.Lipo>
60.8234

> <Gold.Chemscore.Internal_Hbond>
0.0000

> <Gold.Chemscore.DEClash>
1.4456

> <Gold.Chemscore.DEInternal>
4.4460

> <Gold.Chemscore.Rot>
3.1386

> <Gold.Chemscore.Internal.Correction>
   9.000000E+99

> <Gold.Chemscore.Hbonds>
donor molecule, donor type, donor heavy atom, donor atom, acceptor molecule, acceptor atom, score
      L1  H    15    37       P1  7921  0.80
      P1  H  7989  7998       L1    25  0.42

> <Gold.Chemscore.Hbond.Weighted>
-5.8961

> <Gold.Chemscore.Metal.Weighted>
-0.0000

> <Gold.Chemscore.Lipo.Weighted>
-7.1163

> <Gold.Chemscore.Internal_Hbond.Weighted>
0.0000

> <Gold.Chemscore.DEClash.Weighted>
1.4456

> <Gold.Chemscore.DEInternal.Weighted>
4.4460

> <Gold.Chemscore.Rot.Weighted>
8.0349

> <Gold.Chemscore.Internal.Correction.Weighted>
   9.000000E+99

> <Gold.Protein.RotatedTorsions>
[ 6907 6896 6895 6894 ] final  -52.15 input  -60.11 | X-H torsion
[ 7974 7965 7964 7962 ] final   -7.56 input  175.53 | X-H torsion
[ 8008 7997 7996 7995 ] final  135.95 input   59.86 | X-H torsion
[ 10167 10162 10161 10158 ] final  -54.36 input  -65.29 | X-H torsion
[ 10718 10713 10712 10709 ] final   28.60 input   66.30 | X-H torsion
[ 10763 10752 10751 10750 ] final   77.57 input  -60.55 | X-H torsion
[ 11005 11000 10999 10996 ] final  158.10 input  -57.11 | X-H torsion

> <Gold.Protein.ActiveResidues>
 VAL166  LYS551  ARG553  GLY616  TRP617  ASP618  TYR619  PRO620  LYS621  CYS622 
 ASP623  PHE694  ASN695  SER759  ASP760  ASP761  ALA762  ILE779  LEU786  VAL792 
 PHE793  MET794  SER795  GLU796  ALA797  LYS798  CYS799  TRP800  GLU811  SER814 

> <Gold.Protein.RotatedAtoms>
  150.8545  134.7879  159.7034 H   0  0  0  0  0  0  0  0  0  0  0  0  # atno 6907 bound_to 6896
  152.4600  134.5202  159.9790 H   0  0  0  0  0  0  0  0  0  0  0  0  # atno 6908 bound_to 6896
  151.5317  133.3410  159.2955 H   0  0  0  0  0  0  0  0  0  0  0  0  # atno 6909 bound_to 6896
  146.2303  140.2337  142.8341 H   0  0  0  0  0  0  0  0  0  0  0  0  # atno 7974 bound_to 7965
  156.3004  140.2457  156.3665 H   0  0  0  0  0  0  0  0  0  0  0  0  # atno 8008 bound_to 7997
  154.8828  140.0412  157.1812 H   0  0  0  0  0  0  0  0  0  0  0  0  # atno 8009 bound_to 7997
  154.8678  140.2930  155.5503 H   0  0  0  0  0  0  0  0  0  0  0  0  # atno 8010 bound_to 7997
  140.6434  143.2521  151.4925 H   0  0  0  0  0  0  0  0  0  0  0  0  # atno 10167 bound_to 10162
  157.2356  130.7044  149.6334 H   0  0  0  0  0  0  0  0  0  0  0  0  # atno 10718 bound_to 10713
  153.0808  135.4909  154.8499 H   0  0  0  0  0  0  0  0  0  0  0  0  # atno 10763 bound_to 10752
  154.7148  135.3027  154.9142 H   0  0  0  0  0  0  0  0  0  0  0  0  # atno 10764 bound_to 10752
  153.9825  135.6788  153.4803 H   0  0  0  0  0  0  0  0  0  0  0  0  # atno 10765 bound_to 10752
  140.1833  134.8460  157.2828 H   0  0  0  0  0  0  0  0  0  0  0  0  # atno 11005 bound_to 11000
  144.9538  140.8205  143.5556 LP  0  0  0  0  0  0  0  0  0  0  0  0  # atno 17320 bound_to 7965
  145.2301  139.2119  143.5047 LP  0  0  0  0  0  0  0  0  0  0  0  0  # atno 17321 bound_to 7965
  139.5644  144.2078  152.1742 LP  0  0  0  0  0  0  0  0  0  0  0  0  # atno 17342 bound_to 10162
  140.1355  144.5249  150.6776 LP  0  0  0  0  0  0  0  0  0  0  0  0  # atno 17343 bound_to 10162
  155.9673  130.4475  150.5581 LP  0  0  0  0  0  0  0  0  0  0  0  0  # atno 17370 bound_to 10713
  157.3433  131.0720  151.1771 LP  0  0  0  0  0  0  0  0  0  0  0  0  # atno 17371 bound_to 10713
  140.2243  134.3986  155.7551 LP  0  0  0  0  0  0  0  0  0  0  0  0  # atno 17394 bound_to 11000
  141.2224  133.7182  156.8539 LP  0  0  0  0  0  0  0  0  0  0  0  0  # atno 17395 bound_to 11000

$$$$
