#       Name:                AV-unprocessed.smi:3253
#       Creating user name   scv26
#       Creation time:       Fri Mar 27 18:34:07 2020


#       File generated by GOLD software.
#

@<TRIPOS>MOLECULE
AV-unprocessed.smi:3253
    41    42     1
SMALL
NO_CHARGES


@<TRIPOS>ATOM
      1 ****        -3.2789  -2.1149  -0.3547 C.3            1 S1                 0.0000
      2 ****        -2.4131  -0.9007   0.0067 C.3            1 S1                 0.0000
      3 ****        -2.7319  -0.3884   1.4288 C.3            1 S1                 0.0000
      4 ****        -2.0425   0.8641   1.7576 N.pl3          1 S1                 0.0000
      5 ****        -0.9578   1.0264   2.5812 C.2            1 S1                 0.0000
      6 ****        -0.6530   2.3630   2.5669 C.2            1 S1                 0.0000
      7 ****        -1.5689   2.9606   1.7431 N.pl3          1 S1                 1.0000
      8 ****        -2.4160   2.0483   1.2558 C.2            1 S1                 0.0000
      9 ****        -1.0035  -1.2713  -0.1147 N.am           1 S1                 0.0000
     10 ****        -0.0199  -0.4737  -0.5611 C.2            1 S1                 0.0000
     11 ****        -0.2077   0.6826  -0.9420 O.2            1 S1                 0.0000
     12 ****         1.3981  -1.0640  -0.5533 C.3            1 S1                 0.0000
     13 ****         2.3040  -0.3168   0.4465 C.3            1 S1                 0.0000
     14 ****         3.3073   0.4064  -0.4362 C.2            1 S1                 0.0000
     15 ****         4.1323   1.2038   0.0065 O.2            1 S1                 0.0000
     16 ****         3.1506   0.0635  -1.7177 N.am           1 S1                 0.0000
     17 ****         3.9281   0.5744  -2.8384 C.3            1 S1                 0.0000
     18 ****         2.1063  -0.9264  -1.9192 C.3            1 S1                 0.0000
     19 ****        -4.3400  -1.8681  -0.3077 H              1 S1                 0.0000
     20 ****        -3.1012  -2.9481   0.3263 H              1 S1                 0.0000
     21 ****        -3.0681  -2.4608  -1.3674 H              1 S1                 0.0000
     22 ****        -2.6492  -0.1148  -0.7131 H              1 S1                 0.0000
     23 ****        -3.8024  -0.2075   1.5368 H              1 S1                 0.0000
     24 ****        -2.4606  -1.1324   2.1794 H              1 S1                 0.0000
     25 ****        -0.4890   0.1994   3.0945 H              1 S1                 0.0000
     26 ****         0.1266   2.9190   3.0671 H              1 S1                 0.0000
     27 ****        -3.2326   2.2304   0.5801 H              1 S1                 0.0000
     28 ****        -0.7552  -2.2072   0.1723 H              1 S1                 0.0000
     29 ****         1.3417  -2.1194  -0.2807 H              1 S1                 0.0000
     30 ****         1.7696   0.3952   1.0780 H              1 S1                 0.0000
     31 ****         2.8306  -1.0150   1.0979 H              1 S1                 0.0000
     32 ****         4.9969   0.5012  -2.6342 H              1 S1                 0.0000
     33 ****         3.6835   1.6209  -3.0237 H              1 S1                 0.0000
     34 ****         3.7204   0.0108  -3.7485 H              1 S1                 0.0000
     35 ****         2.5592  -1.8728  -2.2178 H              1 S1                 0.0000
     36 ****         1.4348  -0.6159  -2.7219 H              1 S1                 0.0000
     37 ****        -1.6003   3.9493   1.5282 H              1 S1                 0.0000
     38 ****        -1.1294   1.0701  -0.9280 LP             1 S1                 0.0000
     39 ****         0.5616   1.2337  -1.2653 LP             1 S1                 0.0000
     40 ****         4.1622   1.3999   0.9866 LP             1 S1                 0.0000
     41 ****         4.7733   1.6560  -0.6137 LP             1 S1                 0.0000
@<TRIPOS>BOND
    1    1    2 1     
    2    1   19 1     
    3    1   20 1     
    4    1   21 1     
    5    2    3 1     
    6    2    9 1     
    7    2   22 1     
    8    3    4 1     
    9    3   23 1     
   10    3   24 1     
   11    4    8 1     
   12    4    5 1     
   13    5    6 2     
   14    5   25 1     
   15    6    7 1     
   16    6   26 1     
   17    7    8 2     
   18    7   37 1     
   19    8   27 1     
   20    9   10 am    
   21    9   28 1     
   22   10   11 2     
   23   10   12 1     
   24   12   18 1     
   25   12   13 1     
   26   12   29 1     
   27   13   14 1     
   28   13   30 1     
   29   13   31 1     
   30   14   15 2     
   31   14   16 am    
   32   16   17 1     
   33   16   18 1     
   34   17   32 1     
   35   17   33 1     
   36   17   34 1     
   37   18   35 1     
   38   18   36 1     
   39   11   38 1     
   40   11   39 1     
   41   15   40 1     
   42   15   41 1     
@<TRIPOS>SUBSTRUCTURE
      1 S1             1
@<TRIPOS>SET
LONE_PAIRS      STATIC     ATOMS    <user>   **** ""
4 38 39 40 41
DONOR_HYDROGENS      STATIC     ATOMS    <user>   **** ""
2 37 28
ATOM$BLUE        STATIC     ATOMS    COLORGROUP SYSTEM
4 38 39 40 41
ATOM$RED        STATIC     ATOMS    COLORGROUP SYSTEM
2 37 28
