AV-unprocessed.smi:196|AV-procd|sdf|1528|dock1
  -GOLD-   2262019373D 1   1.00000     0.00000
 Structure written by MMmdl.
 47 50  0  0  0  0  0  0  0  0  1 V2000
  143.5290  132.6176  151.1095 C   0  0  0  0  0  0  0  0  0  0  0  0
  144.8753  133.2745  150.7668 C   0  0  2  0  0  0  0  0  0  0  0  0
  145.9123  132.4227  151.2456 O   0  0  0  0  0  0  0  0  0  0  0  0
  147.0447  133.2163  151.5510 C   0  0  0  0  0  0  0  0  0  0  0  0
  146.4180  134.4299  152.2195 C   0  0  0  0  0  0  0  0  0  0  0  0
  145.1577  134.6707  151.3910 C   0  0  1  0  0  0  0  0  0  0  0  0
  145.4998  135.5544  150.3363 O   0  0  0  0  0  0  0  0  0  0  0  0
  143.9998  135.3094  152.2025 C   0  0  0  0  0  0  0  0  0  0  0  0
  144.4405  136.3568  153.1110 N   0  0  0  0  0  0  0  0  0  0  0  0
  144.0343  136.5458  154.4120 C   0  0  0  0  0  0  0  0  0  0  0  0
  144.5858  137.5568  155.0249 N   0  0  0  0  0  0  0  0  0  0  0  0
  145.4281  138.1187  154.0715 C   0  0  0  0  0  0  0  0  0  0  0  0
  146.3242  139.2274  154.0632 C   0  0  0  0  0  0  0  0  0  0  0  0
  146.5253  140.0366  155.1380 N   0  0  0  0  0  0  0  0  0  0  0  0
  145.5317  140.0732  156.2047 C   0  0  0  0  0  0  0  0  0  0  0  0
  145.5425  141.5092  156.7284 C   0  0  2  0  0  0  0  0  0  0  0  0
  144.6431  142.2327  156.0594 F   0  0  0  0  0  0  0  0  0  0  0  0
  146.9459  141.9982  156.3841 C   0  0  0  0  0  0  0  0  0  0  0  0
  147.2613  141.3019  155.0498 C   0  0  1  0  0  0  0  0  0  0  0  0
  148.7743  141.0979  154.8718 C   0  0  0  0  0  0  0  0  0  0  0  0
  149.5446  142.1826  154.9819 N   0  0  0  0  0  0  0  0  0  0  0  0
  149.2431  139.9820  154.6524 O   0  0  0  0  0  0  0  0  0  0  0  0
  147.0093  139.4627  152.9124 N   0  0  0  0  0  0  0  0  0  0  0  0
  146.8298  138.6828  151.8430 C   0  0  0  0  0  0  0  0  0  0  0  0
  146.0292  137.6247  151.7078 N   0  0  0  0  0  0  0  0  0  0  0  0
  145.3453  137.3737  152.8604 C   0  0  0  0  0  0  0  0  0  0  0  0
  145.3027  141.5842  157.7894 H   0  0  0  0  0  0  0  0  0  0  0  0
  146.8576  141.8980  154.2292 H   0  0  0  0  0  0  0  0  0  0  0  0
  142.6905  133.2174  150.7558 H   0  0  0  0  0  0  0  0  0  0  0  0
  143.4161  132.4703  152.1836 H   0  0  0  0  0  0  0  0  0  0  0  0
  143.4497  131.6384  150.6370 H   0  0  0  0  0  0  0  0  0  0  0  0
  144.9678  133.3193  149.6798 H   0  0  0  0  0  0  0  0  0  0  0  0
  147.7438  132.6893  152.2005 H   0  0  0  0  0  0  0  0  0  0  0  0
  147.5632  133.4947  150.6323 H   0  0  0  0  0  0  0  0  0  0  0  0
  146.1499  134.1631  153.2425 H   0  0  0  0  0  0  0  0  0  0  0  0
  147.0886  135.2893  152.2658 H   0  0  0  0  0  0  0  0  0  0  0  0
  145.6613  135.0444  149.5571 H   0  0  0  0  0  0  0  0  0  0  0  0
  143.2518  135.7338  151.5319 H   0  0  0  0  0  0  0  0  0  0  0  0
  143.4879  134.5527  152.7975 H   0  0  0  0  0  0  0  0  0  0  0  0
  143.3165  135.9020  154.8989 H   0  0  0  0  0  0  0  0  0  0  0  0
  144.5348  139.7817  155.8703 H   0  0  0  0  0  0  0  0  0  0  0  0
  145.8435  139.3806  156.9874 H   0  0  0  0  0  0  0  0  0  0  0  0
  147.0062  143.0849  156.3160 H   0  0  0  0  0  0  0  0  0  0  0  0
  147.6370  141.6768  157.1657 H   0  0  0  0  0  0  0  0  0  0  0  0
  150.5460  142.1026  154.8815 H   0  0  0  0  0  0  0  0  0  0  0  0
  149.1213  143.0790  155.1734 H   0  0  0  0  0  0  0  0  0  0  0  0
  147.4111  138.9447  150.9714 H   0  0  0  0  0  0  0  0  0  0  0  0
  1  2  1  0  0  0  0
  1 29  1  0  0  0  0
  1 30  1  0  0  0  0
  1 31  1  0  0  0  0
  2  6  1  0  0  0  0
  2  3  1  0  0  0  0
  2 32  1  0  0  0  0
  3  4  1  0  0  0  0
  4  5  1  0  0  0  0
  4 33  1  0  0  0  0
  4 34  1  0  0  0  0
  5  6  1  0  0  0  0
  5 35  1  0  0  0  0
  5 36  1  0  0  0  0
  6  7  1  0  0  0  0
  6  8  1  0  0  0  0
  7 37  1  0  0  0  0
  8  9  1  0  0  0  0
  8 38  1  0  0  0  0
  8 39  1  0  0  0  0
  9 26  1  0  0  0  0
  9 10  1  0  0  0  0
 10 11  2  0  0  0  0
 10 40  1  0  0  0  0
 11 12  1  0  0  0  0
 12 26  2  0  0  0  0
 12 13  1  0  0  0  0
 13 14  1  0  0  0  0
 13 23  2  0  0  0  0
 14 19  1  0  0  0  0
 14 15  1  0  0  0  0
 15 16  1  0  0  0  0
 15 41  1  0  0  0  0
 15 42  1  0  0  0  0
 16 27  1  0  0  0  0
 16 17  1  0  0  0  0
 16 18  1  0  0  0  0
 18 19  1  0  0  0  0
 18 43  1  0  0  0  0
 18 44  1  0  0  0  0
 19 28  1  0  0  0  0
 19 20  1  0  0  0  0
 20 21  1  0  0  0  0
 20 22  2  0  0  0  0
 21 45  1  0  0  0  0
 21 46  1  0  0  0  0
 23 24  1  0  0  0  0
 24 25  2  0  0  0  0
 24 47  1  0  0  0  0
 25 26  1  0  0  0  0
M  END
> <s_m_source_file>
AV-unprocessed.smi

> <i_m_source_file_index>
196

> <i_lp_mmshare_version>
43012

> <i_f3d_flags>
0

> <s_epik_input>
W0NIMl0xW0NIMl1PW0NAQEhdKFtDSDNdKVtDQEBdMShbT0hdKVtDSDJdbihbY0hdbjIpYyhjMjMpbltjSF1uYzNONFtDSDJdW0NASF0oRilbQ0gyXVtDQEhdNEMoPU8pW05IMl0=

> <s_epik_cmdline>
J2VwaWtfcHl0aG9uJywgJy1waCcsICc3LjAnLCAnLXRuJywgJzgnLCAnLW1hJywgJzIwMCcsICctbWV0YWxfYmluZGluZycsICctaW1hZScsICc8aW5maWxlLm1hZT4nLCAnLW9tYWUnLCAnPG91dGZpbGUubWFlPic=

> <r_lp_tautomer_probability>
1

> <r_epik_Ionization_Penalty>
0.000857933

> <r_epik_Ionization_Penalty_Charging>
0

> <r_epik_Ionization_Penalty_Neutral>
0.000857933

> <r_epik_State_Penalty>
0.000462053

> <r_epik_Charging_Adjusted_Penalty>
0.000462053

> <i_epik_Tot_Q>
0

> <i_epik_Tot_abs_Q>
0

> <r_epik_Metal_State_Penalty>
-0

> <b_epik_Metal_Only>
0

> <s_lp_Force_Field>
OPLS_2005

> <r_lp_Energy>
42.3005

> <b_lp_Chiralities_Consistent>
1

> <s_lp_Variant>
AV-unprocessed.smi:196-1

> <Gold.Version>
5.8.1

> <Gold.Id.Protein>
6NUR|6NUR_protein|mol2

> <Gold.PLP.Fitness>
38.7361

> <Gold.PLP.PLP>
-31.2404

> <Gold.PLP.part.hbond>
-2.0000

> <Gold.PLP.part.metal>
0.0000

> <Gold.PLP.part.buried>
-5.4650

> <Gold.PLP.part.nonpolar>
-25.9218

> <Gold.PLP.part.repulsive>
2.2992

> <Gold.PLP.ligand.clash>
0.0000

> <Gold.PLP.ligand.torsion>
0.6813

> <Gold.PLP.Chemscore.Hbond>
2.0000

> <Gold.PLP.Chemscore.CHOScore>
0.8617

> <Gold.PLP.Chemscore.Metal>
0.0000

> <Gold.Chemscore.Hbonds>
donor molecule, donor type, donor heavy atom, donor atom, acceptor molecule, acceptor atom, score
      L1  H     7    37       P1  7921  1.00
      L1  H    21    46       P1  8028  1.00
      L1  C    24    47       P1  7957  0.87

> <Gold.PLP.Chemscore.Internal.Correction>
0.2731

> <Gold.Rescore>
     Score         DG    S(hbond)    S(metal)    S(lipo)     H(rot)  DE(clash)    DE(int)     intcor
      4.92     -10.61       1.94        0.00      45.21       2.60       0.38       5.31       ----

> <Gold.Chemscore.Fitness>
4.9238

> <Gold.Chemscore.DG>
-10.6113

> <Gold.Chemscore.ZeroCoef>
-5.4800

> <Gold.Chemscore.Hbond>
1.9430

> <Gold.Chemscore.Metal>
0.0000

> <Gold.Chemscore.Lipo>
45.2075

> <Gold.Chemscore.Internal_Hbond>
0.0000

> <Gold.Chemscore.DEClash>
0.3768

> <Gold.Chemscore.DEInternal>
5.3107

> <Gold.Chemscore.Rot>
2.5968

> <Gold.Chemscore.Internal.Correction>
   9.000000E+99

> <Gold.Chemscore.Hbonds>
donor molecule, donor type, donor heavy atom, donor atom, acceptor molecule, acceptor atom, score
      L1  H     7    37       P1  7921  0.93
      L1  H    21    46       P1  8028  1.00

> <Gold.Chemscore.Hbond.Weighted>
-6.4898

> <Gold.Chemscore.Metal.Weighted>
-0.0000

> <Gold.Chemscore.Lipo.Weighted>
-5.2893

> <Gold.Chemscore.Internal_Hbond.Weighted>
0.0000

> <Gold.Chemscore.DEClash.Weighted>
0.3768

> <Gold.Chemscore.DEInternal.Weighted>
5.3107

> <Gold.Chemscore.Rot.Weighted>
6.6477

> <Gold.Chemscore.Internal.Correction.Weighted>
   9.000000E+99

> <Gold.Protein.RotatedTorsions>
[ 6907 6896 6895 6894 ] final  -50.48 input  -60.11 | X-H torsion
[ 7974 7965 7964 7962 ] final   66.99 input  175.53 | X-H torsion
[ 8008 7997 7996 7995 ] final -132.73 input   59.86 | X-H torsion
[ 10167 10162 10161 10158 ] final -150.90 input  -65.29 | X-H torsion
[ 10718 10713 10712 10709 ] final  -33.71 input   66.30 | X-H torsion
[ 10763 10752 10751 10750 ] final   28.02 input  -60.55 | X-H torsion
[ 11005 11000 10999 10996 ] final  160.86 input  -57.11 | X-H torsion

> <Gold.Protein.ActiveResidues>
 VAL166  LYS551  ARG553  GLY616  TRP617  ASP618  TYR619  PRO620  LYS621  CYS622 
 ASP623  PHE694  ASN695  SER759  ASP760  ASP761  ALA762  ILE779  LEU786  VAL792 
 PHE793  MET794  SER795  GLU796  ALA797  LYS798  CYS799  TRP800  GLU811  SER814 

> <Gold.Protein.RotatedAtoms>
  150.8703  134.8075  159.7149 H   0  0  0  0  0  0  0  0  0  0  0  0  # atno 6907 bound_to 6896
  152.4710  134.4958  159.9719 H   0  0  0  0  0  0  0  0  0  0  0  0  # atno 6908 bound_to 6896
  151.5047  133.3458  159.2910 H   0  0  0  0  0  0  0  0  0  0  0  0  # atno 6909 bound_to 6896
  145.8200  139.3079  143.1049 H   0  0  0  0  0  0  0  0  0  0  0  0  # atno 7974 bound_to 7965
  155.3337  140.0468  157.3043 H   0  0  0  0  0  0  0  0  0  0  0  0  # atno 8008 bound_to 7997
  154.5314  140.2258  155.8763 H   0  0  0  0  0  0  0  0  0  0  0  0  # atno 8009 bound_to 7997
  156.1792  140.3078  155.9123 H   0  0  0  0  0  0  0  0  0  0  0  0  # atno 8010 bound_to 7997
  139.7314  143.8802  152.2536 H   0  0  0  0  0  0  0  0  0  0  0  0  # atno 10167 bound_to 10162
  156.3594  130.4321  149.7637 H   0  0  0  0  0  0  0  0  0  0  0  0  # atno 10718 bound_to 10713
  153.0518  135.6523  154.0674 H   0  0  0  0  0  0  0  0  0  0  0  0  # atno 10763 bound_to 10752
  154.0360  135.2907  155.3363 H   0  0  0  0  0  0  0  0  0  0  0  0  # atno 10764 bound_to 10752
  154.6811  135.5319  153.8331 H   0  0  0  0  0  0  0  0  0  0  0  0  # atno 10765 bound_to 10752
  140.2101  134.8273  157.3112 H   0  0  0  0  0  0  0  0  0  0  0  0  # atno 11005 bound_to 11000
  145.9685  140.8779  143.0174 LP  0  0  0  0  0  0  0  0  0  0  0  0  # atno 17320 bound_to 7965
  144.6748  140.1913  143.7396 LP  0  0  0  0  0  0  0  0  0  0  0  0  # atno 17321 bound_to 7965
  139.8727  144.7060  150.8969 LP  0  0  0  0  0  0  0  0  0  0  0  0  # atno 17342 bound_to 10162
  140.7772  143.3725  151.1623 LP  0  0  0  0  0  0  0  0  0  0  0  0  # atno 17343 bound_to 10162
  156.4807  130.8039  151.3054 LP  0  0  0  0  0  0  0  0  0  0  0  0  # atno 17370 bound_to 10713
  157.7471  131.0007  150.2935 LP  0  0  0  0  0  0  0  0  0  0  0  0  # atno 17371 bound_to 10713
  140.1960  134.4313  155.7689 LP  0  0  0  0  0  0  0  0  0  0  0  0  # atno 17394 bound_to 11000
  141.2226  133.7049  156.8105 LP  0  0  0  0  0  0  0  0  0  0  0  0  # atno 17395 bound_to 11000

$$$$
