AV-unprocessed.smi:3121|AV-procd|sdf|11895|dock2
  -GOLD-   2272017283D 1   1.00000     0.00000
 Structure written by MMmdl.
 24 25  0  0  0  0  0  0  0  0  2 V2000
  151.2286  145.3149  158.7408 C   0  0  0  0  0  0  0  0  0  0  0  0
  151.6492  145.3076  160.0842 C   0  0  0  0  0  0  0  0  0  0  0  0
  152.1262  144.1043  160.6393 C   0  0  0  0  0  0  0  0  0  0  0  0
  152.1631  142.9523  159.8238 C   0  0  0  0  0  0  0  0  0  0  0  0
  152.6617  141.6260  160.3803 C   0  0  1  0  0  0  0  0  0  0  0  0
  152.9102  140.5228  159.3549 C   0  0  0  0  0  0  0  0  0  0  0  0
  153.8051  139.5350  160.1171 C   0  0  0  0  0  0  0  0  0  0  0  0
  154.4336  140.2899  161.2245 N   0  3  0  0  0  0  0  0  0  0  0  0
  153.9878  141.6923  161.1366 C   0  0  0  0  0  0  0  0  0  0  0  0
  151.7589  142.9547  158.5324 N   0  0  0  0  0  0  0  0  0  0  0  0
  151.3028  144.1134  158.0091 C   0  0  0  0  0  0  0  0  0  0  0  0
  150.8564  146.2192  158.2824 H   0  0  0  0  0  0  0  0  0  0  0  0
  151.6056  146.2085  160.6785 H   0  0  0  0  0  0  0  0  0  0  0  0
  152.4531  144.0720  161.6683 H   0  0  0  0  0  0  0  0  0  0  0  0
  151.9081  141.2562  161.0785 H   0  0  0  0  0  0  0  0  0  0  0  0
  151.9902  140.0723  158.9813 H   0  0  0  0  0  0  0  0  0  0  0  0
  153.4611  140.9162  158.4995 H   0  0  0  0  0  0  0  0  0  0  0  0
  153.2104  138.7262  160.5427 H   0  0  0  0  0  0  0  0  0  0  0  0
  154.5597  139.0905  159.4678 H   0  0  0  0  0  0  0  0  0  0  0  0
  154.1151  139.8977  162.0993 H   0  0  0  0  0  0  0  0  0  0  0  0
  154.7341  142.2478  160.5669 H   0  0  0  0  0  0  0  0  0  0  0  0
  153.8971  142.1559  162.1192 H   0  0  0  0  0  0  0  0  0  0  0  0
  150.9870  144.0823  156.9768 H   0  0  0  0  0  0  0  0  0  0  0  0
  155.4410  140.2356  161.1746 H   0  0  0  0  0  0  0  0  0  0  0  0
  1 11  1  0  0  0  0
  1  2  2  0  0  0  0
  1 12  1  0  0  0  0
  2  3  1  0  0  0  0
  2 13  1  0  0  0  0
  3  4  2  0  0  0  0
  3 14  1  0  0  0  0
  4  5  1  0  0  0  0
  4 10  1  0  0  0  0
  5  9  1  0  0  0  0
  5  6  1  0  0  0  0
  5 15  1  0  0  0  0
  6  7  1  0  0  0  0
  6 16  1  0  0  0  0
  6 17  1  0  0  0  0
  7  8  1  0  0  0  0
  7 18  1  0  0  0  0
  7 19  1  0  0  0  0
  8  9  1  0  0  0  0
  8 20  1  0  0  0  0
  8 24  1  0  0  0  0
  9 21  1  0  0  0  0
  9 22  1  0  0  0  0
 10 11  2  0  0  0  0
 11 23  1  0  0  0  0
M  CHG  1   8   1
M  END
> <s_m_source_file>
AV-unprocessed.smi

> <i_m_source_file_index>
3121

> <i_lp_mmshare_version>
43012

> <i_f3d_flags>
0

> <s_epik_input>
bjFbY0hdW2NIXVtjSF1bY0hdYzFbQ0BASF0yW0NIMl1bQ0gyXVtOSF1bQ0gyXTI=

> <s_epik_cmdline>
J2VwaWtfcHl0aG9uJywgJy1waCcsICc3LjAnLCAnLXRuJywgJzgnLCAnLW1hJywgJzIwMCcsICctbWV0YWxfYmluZGluZycsICctaW1hZScsICc8aW5maWxlLm1hZT4nLCAnLW9tYWUnLCAnPG91dGZpbGUubWFlPic=

> <r_lp_tautomer_probability>
1

> <r_epik_Ionization_Penalty>
0.00154319

> <r_epik_Ionization_Penalty_Charging>
0.000126521

> <r_epik_Ionization_Penalty_Neutral>
0.00141667

> <r_epik_State_Penalty>
-0

> <r_epik_Charging_Adjusted_Penalty>
0.000126521

> <i_epik_Tot_Q>
1

> <i_epik_Tot_abs_Q>
1

> <r_epik_Metal_State_Penalty>
-0

> <b_epik_Metal_Only>
0

> <s_lp_Force_Field>
OPLS_2005

> <r_lp_Energy>
22.4968

> <b_lp_Chiralities_Consistent>
1

> <s_lp_Variant>
AV-unprocessed.smi:3121-2

> <Gold.Version>
5.8.1

> <Gold.Id.Protein>
6NUR|6NUR_protein|mol2

> <Gold.PLP.Fitness>
32.5235

> <Gold.PLP.PLP>
-30.0231

> <Gold.PLP.part.hbond>
0.0000

> <Gold.PLP.part.metal>
0.0000

> <Gold.PLP.part.buried>
-3.3362

> <Gold.PLP.part.nonpolar>
-26.4244

> <Gold.PLP.part.repulsive>
0.0349

> <Gold.PLP.ligand.clash>
0.0000

> <Gold.PLP.ligand.torsion>
0.2456

> <Gold.PLP.Chemscore.Hbond>
0.0000

> <Gold.PLP.Chemscore.CHOScore>
0.9971

> <Gold.PLP.Chemscore.Metal>
0.0000

> <Gold.Chemscore.Hbonds>
donor molecule, donor type, donor heavy atom, donor atom, acceptor molecule, acceptor atom, score
      L1  C    11    23       P1  8028  0.99

> <Gold.PLP.Chemscore.Internal.Correction>
0.0003

> <Gold.Rescore>
     Score         DG    S(hbond)    S(metal)    S(lipo)     H(rot)  DE(clash)    DE(int)     intcor
     13.99     -14.03       0.00        0.00      95.00       1.00       0.04       0.00       ----

> <Gold.Chemscore.Fitness>
13.9925

> <Gold.Chemscore.DG>
-14.0348

> <Gold.Chemscore.ZeroCoef>
-5.4800

> <Gold.Chemscore.Hbond>
0.0000

> <Gold.Chemscore.Metal>
0.0000

> <Gold.Chemscore.Lipo>
94.9986

> <Gold.Chemscore.Internal_Hbond>
0.0000

> <Gold.Chemscore.DEClash>
0.0416

> <Gold.Chemscore.DEInternal>
0.0007

> <Gold.Chemscore.Rot>
1.0000

> <Gold.Chemscore.Internal.Correction>
   9.000000E+99

> <Gold.Chemscore.Hbond.Weighted>
-0.0000

> <Gold.Chemscore.Metal.Weighted>
-0.0000

> <Gold.Chemscore.Lipo.Weighted>
-11.1148

> <Gold.Chemscore.Internal_Hbond.Weighted>
0.0000

> <Gold.Chemscore.DEClash.Weighted>
0.0416

> <Gold.Chemscore.DEInternal.Weighted>
0.0007

> <Gold.Chemscore.Rot.Weighted>
2.5600

> <Gold.Chemscore.Internal.Correction.Weighted>
   9.000000E+99

> <Gold.Protein.RotatedTorsions>
[ 6907 6896 6895 6894 ] final -126.33 input  -60.11 | X-H torsion
[ 7974 7965 7964 7962 ] final  -98.46 input  175.53 | X-H torsion
[ 8008 7997 7996 7995 ] final  -75.37 input   59.86 | X-H torsion
[ 10167 10162 10161 10158 ] final  -65.09 input  -65.29 | X-H torsion
[ 10718 10713 10712 10709 ] final  168.13 input   66.30 | X-H torsion
[ 10763 10752 10751 10750 ] final -154.56 input  -60.55 | X-H torsion
[ 11005 11000 10999 10996 ] final  -36.18 input  -57.11 | X-H torsion

> <Gold.Protein.ActiveResidues>
 VAL166  LYS551  ARG553  GLY616  TRP617  ASP618  TYR619  PRO620  LYS621  CYS622 
 ASP623  PHE694  ASN695  SER759  ASP760  ASP761  ALA762  ILE779  LEU786  VAL792 
 PHE793  MET794  SER795  GLU796  ALA797  LYS798  CYS799  TRP800  GLU811  SER814 

> <Gold.Protein.RotatedAtoms>
  150.8958  133.7183  159.2892 H   0  0  0  0  0  0  0  0  0  0  0  0  # atno 6907 bound_to 6896
  151.4718  135.1045  159.9763 H   0  0  0  0  0  0  0  0  0  0  0  0  # atno 6908 bound_to 6896
  152.4848  133.8296  159.7152 H   0  0  0  0  0  0  0  0  0  0  0  0  # atno 6909 bound_to 6896
  145.3203  140.9420  143.2719 H   0  0  0  0  0  0  0  0  0  0  0  0  # atno 7974 bound_to 7965
  154.5411  140.0745  156.8512 H   0  0  0  0  0  0  0  0  0  0  0  0  # atno 8008 bound_to 7997
  155.3179  140.3394  155.4224 H   0  0  0  0  0  0  0  0  0  0  0  0  # atno 8009 bound_to 7997
  156.1875  140.1674  156.8143 H   0  0  0  0  0  0  0  0  0  0  0  0  # atno 8010 bound_to 7997
  140.5754  143.2321  151.6452 H   0  0  0  0  0  0  0  0  0  0  0  0  # atno 10167 bound_to 10162
  157.0416  131.0288  151.2711 H   0  0  0  0  0  0  0  0  0  0  0  0  # atno 10718 bound_to 10713
  154.7850  135.3187  154.7907 H   0  0  0  0  0  0  0  0  0  0  0  0  # atno 10763 bound_to 10752
  153.8609  135.6853  153.4787 H   0  0  0  0  0  0  0  0  0  0  0  0  # atno 10764 bound_to 10752
  153.1498  135.4704  154.9559 H   0  0  0  0  0  0  0  0  0  0  0  0  # atno 10765 bound_to 10752
  140.9855  133.7033  156.1757 H   0  0  0  0  0  0  0  0  0  0  0  0  # atno 11005 bound_to 11000
  144.8945  139.4731  143.6662 LP  0  0  0  0  0  0  0  0  0  0  0  0  # atno 17320 bound_to 7965
  146.3085  139.7662  142.9038 LP  0  0  0  0  0  0  0  0  0  0  0  0  # atno 17321 bound_to 7965
  139.5140  144.3425  152.0727 LP  0  0  0  0  0  0  0  0  0  0  0  0  # atno 17342 bound_to 10162
  140.2568  144.4110  150.6201 LP  0  0  0  0  0  0  0  0  0  0  0  0  # atno 17343 bound_to 10162
  157.5100  130.7932  149.7695 LP  0  0  0  0  0  0  0  0  0  0  0  0  # atno 17370 bound_to 10713
  156.0036  130.3867  150.2513 LP  0  0  0  0  0  0  0  0  0  0  0  0  # atno 17371 bound_to 10713
  140.7121  134.4450  157.5581 LP  0  0  0  0  0  0  0  0  0  0  0  0  # atno 17394 bound_to 11000
  139.8968  134.8650  156.2070 LP  0  0  0  0  0  0  0  0  0  0  0  0  # atno 17395 bound_to 11000

$$$$
