AV-unprocessed.smi:542|AV-procd|sdf|2874|dock6
  -GOLD-   2262023363D 1   1.00000     0.00000
 Structure written by MMmdl.
 45 47  0  0  0  0  0  0  0  0  2 V2000
  151.4771  138.2055  154.4402 C   0  0  0  0  0  0  0  0  0  0  0  0
  151.4331  139.5845  154.7621 O   0  0  0  0  0  0  0  0  0  0  0  0
  152.1901  139.8953  155.9196 C   0  0  0  0  0  0  0  0  0  0  0  0
  151.5058  139.2618  157.1424 C   0  0  0  0  0  0  0  0  0  0  0  0
  152.3626  139.2641  158.3254 N   0  0  0  0  0  0  0  0  0  0  0  0
  152.7547  140.3167  159.1018 C   0  0  0  0  0  0  0  0  0  0  0  0
  152.3894  141.6476  158.8522 N   0  0  0  0  0  0  0  0  0  0  0  0
  151.3038  142.1316  157.9954 C   0  0  0  0  0  0  0  0  0  0  0  0
  150.4252  143.1780  158.7058 C   0  0  0  0  0  0  0  0  0  0  0  0
  151.2691  144.3770  159.1664 C   0  0  0  0  0  0  0  0  0  0  0  0
  150.4342  145.3988  159.9506 C   0  0  0  0  0  0  0  0  0  0  0  0
  152.4648  143.8620  159.9838 C   0  0  0  0  0  0  0  0  0  0  0  0
  153.2414  142.7857  159.2047 C   0  0  0  0  0  0  0  0  0  0  0  0
  153.4991  139.9696  160.1553 N   0  0  0  0  0  0  0  0  0  0  0  0
  153.6050  138.5944  160.0364 C   0  0  0  0  0  0  0  0  0  0  0  0
  152.9215  138.1432  158.9520 C   0  0  0  0  0  0  0  0  0  0  0  0
  152.8193  136.7116  158.5858 C   0  0  0  0  0  0  0  0  0  0  0  0
  152.1615  136.3483  157.6131 O   0  0  0  0  0  0  0  0  0  0  0  0
  153.5208  135.9055  159.4441 N   0  5  0  0  0  0  0  0  0  0  0  0
  154.2342  136.3230  160.5468 C   0  0  0  0  0  0  0  0  0  0  0  0
  154.8398  135.5293  161.2681 O   0  0  0  0  0  0  0  0  0  0  0  0
  154.2804  137.6552  160.8624 N   0  0  0  0  0  0  0  0  0  0  0  0
  155.0241  138.1279  162.0337 C   0  0  0  0  0  0  0  0  0  0  0  0
  150.8856  138.0191  153.5437 H   0  0  0  0  0  0  0  0  0  0  0  0
  151.0648  137.5989  155.2477 H   0  0  0  0  0  0  0  0  0  0  0  0
  152.4989  137.8789  154.2433 H   0  0  0  0  0  0  0  0  0  0  0  0
  153.2069  139.5184  155.8094 H   0  0  0  0  0  0  0  0  0  0  0  0
  152.2673  140.9766  156.0319 H   0  0  0  0  0  0  0  0  0  0  0  0
  150.5718  139.7704  157.3668 H   0  0  0  0  0  0  0  0  0  0  0  0
  151.2143  138.2352  156.9219 H   0  0  0  0  0  0  0  0  0  0  0  0
  151.7407  142.5710  157.0976 H   0  0  0  0  0  0  0  0  0  0  0  0
  150.6910  141.3082  157.6421 H   0  0  0  0  0  0  0  0  0  0  0  0
  149.6364  143.5136  158.0320 H   0  0  0  0  0  0  0  0  0  0  0  0
  149.9266  142.7255  159.5634 H   0  0  0  0  0  0  0  0  0  0  0  0
  151.6587  144.8765  158.2781 H   0  0  0  0  0  0  0  0  0  0  0  0
  150.0133  144.9573  160.8545 H   0  0  0  0  0  0  0  0  0  0  0  0
  149.6075  145.7749  159.3474 H   0  0  0  0  0  0  0  0  0  0  0  0
  151.0407  146.2542  160.2489 H   0  0  0  0  0  0  0  0  0  0  0  0
  153.1312  144.6883  160.2336 H   0  0  0  0  0  0  0  0  0  0  0  0
  152.1187  143.4451  160.9307 H   0  0  0  0  0  0  0  0  0  0  0  0
  154.0813  142.4476  159.8124 H   0  0  0  0  0  0  0  0  0  0  0  0
  153.6708  143.2100  158.2963 H   0  0  0  0  0  0  0  0  0  0  0  0
  154.6465  137.6568  162.9420 H   0  0  0  0  0  0  0  0  0  0  0  0
  154.9494  139.2059  162.1733 H   0  0  0  0  0  0  0  0  0  0  0  0
  156.0827  137.8836  161.9371 H   0  0  0  0  0  0  0  0  0  0  0  0
  1  2  1  0  0  0  0
  1 24  1  0  0  0  0
  1 25  1  0  0  0  0
  1 26  1  0  0  0  0
  2  3  1  0  0  0  0
  3  4  1  0  0  0  0
  3 27  1  0  0  0  0
  3 28  1  0  0  0  0
  4  5  1  0  0  0  0
  4 29  1  0  0  0  0
  4 30  1  0  0  0  0
  5 16  1  0  0  0  0
  5  6  1  0  0  0  0
  6  7  1  0  0  0  0
  6 14  2  0  0  0  0
  7 13  1  0  0  0  0
  7  8  1  0  0  0  0
  8  9  1  0  0  0  0
  8 31  1  0  0  0  0
  8 32  1  0  0  0  0
  9 10  1  0  0  0  0
  9 33  1  0  0  0  0
  9 34  1  0  0  0  0
 10 11  1  0  0  0  0
 10 12  1  0  0  0  0
 10 35  1  0  0  0  0
 11 36  1  0  0  0  0
 11 37  1  0  0  0  0
 11 38  1  0  0  0  0
 12 13  1  0  0  0  0
 12 39  1  0  0  0  0
 12 40  1  0  0  0  0
 13 41  1  0  0  0  0
 13 42  1  0  0  0  0
 14 15  1  0  0  0  0
 15 22  1  0  0  0  0
 15 16  2  0  0  0  0
 16 17  1  0  0  0  0
 17 18  2  0  0  0  0
 17 19  1  0  0  0  0
 19 20  1  0  0  0  0
 20 21  2  0  0  0  0
 20 22  1  0  0  0  0
 22 23  1  0  0  0  0
 23 43  1  0  0  0  0
 23 44  1  0  0  0  0
 23 45  1  0  0  0  0
M  CHG  1  19  -1
M  END
> <s_m_source_file>
AV-unprocessed.smi

> <i_m_source_file_index>
542

> <i_lp_mmshare_version>
43012

> <i_f3d_flags>
0

> <s_epik_input>
W0NIM11uMWMoPU8pW25IXWMoPU8pYyhjMTIpbihbQ0gyXVtDSDJdT1tDSDNdKWMobjIpTjNbQ0gyXVtDSDJdW0NIXShbQ0gzXSlbQ0gyXVtDSDJdMw==

> <s_epik_cmdline>
J2VwaWtfcHl0aG9uJywgJy1waCcsICc3LjAnLCAnLXRuJywgJzgnLCAnLW1hJywgJzIwMCcsICctbWV0YWxfYmluZGluZycsICctaW1hZScsICc8aW5maWxlLm1hZT4nLCAnLW9tYWUnLCAnPG91dGZpbGUubWFlPic=

> <r_lp_tautomer_probability>
1

> <r_epik_Ionization_Penalty>
5.11335

> <r_epik_Ionization_Penalty_Charging>
0.0783784

> <r_epik_Ionization_Penalty_Neutral>
5.03497

> <r_epik_State_Penalty>
5.01923

> <r_epik_Charging_Adjusted_Penalty>
5.09761

> <i_epik_Tot_Q>
-1

> <i_epik_Tot_abs_Q>
1

> <r_epik_Metal_State_Penalty>
1.13361

> <b_epik_Metal_Only>
1

> <s_lp_Force_Field>
OPLS_2005

> <r_lp_Energy>
42.8721

> <b_lp_Chiralities_Consistent>
1

> <s_lp_Variant>
AV-unprocessed.smi:542-2

> <Gold.Version>
5.8.1

> <Gold.Id.Protein>
6NUR|6NUR_protein|mol2

> <Gold.PLP.Fitness>
46.9890

> <Gold.PLP.PLP>
-38.6952

> <Gold.PLP.part.hbond>
-2.2673

> <Gold.PLP.part.metal>
0.0000

> <Gold.PLP.part.buried>
-4.1477

> <Gold.PLP.part.nonpolar>
-31.8082

> <Gold.PLP.part.repulsive>
0.0599

> <Gold.PLP.ligand.clash>
0.0000

> <Gold.PLP.ligand.torsion>
0.4176

> <Gold.PLP.Chemscore.Hbond>
3.0000

> <Gold.PLP.Chemscore.CHOScore>
0.0000

> <Gold.PLP.Chemscore.Metal>
0.0000

> <Gold.Chemscore.Hbonds>
donor molecule, donor type, donor heavy atom, donor atom, acceptor molecule, acceptor atom, score
      P1  H  6896  6907       L1    19  2.00
      P1  H  7989  7998       L1     2  1.00

> <Gold.PLP.Chemscore.Internal.Correction>
0.1290

> <Gold.Rescore>
     Score         DG    S(hbond)    S(metal)    S(lipo)     H(rot)  DE(clash)    DE(int)     intcor
     15.37     -17.25       1.28        0.00      95.39       1.44       0.44       1.45       ----

> <Gold.Chemscore.Fitness>
15.3654

> <Gold.Chemscore.DG>
-17.2508

> <Gold.Chemscore.ZeroCoef>
-5.4800

> <Gold.Chemscore.Hbond>
1.2843

> <Gold.Chemscore.Metal>
0.0000

> <Gold.Chemscore.Lipo>
95.3896

> <Gold.Chemscore.Internal_Hbond>
0.0000

> <Gold.Chemscore.DEClash>
0.4373

> <Gold.Chemscore.DEInternal>
1.4481

> <Gold.Chemscore.Rot>
1.4372

> <Gold.Chemscore.Internal.Correction>
   9.000000E+99

> <Gold.Chemscore.Hbonds>
donor molecule, donor type, donor heavy atom, donor atom, acceptor molecule, acceptor atom, score
      P1  H  6896  6907       L1    19  0.24
      P1  H  7989  7998       L1     2  0.77

> <Gold.Chemscore.Hbond.Weighted>
-4.2896

> <Gold.Chemscore.Metal.Weighted>
-0.0000

> <Gold.Chemscore.Lipo.Weighted>
-11.1606

> <Gold.Chemscore.Internal_Hbond.Weighted>
0.0000

> <Gold.Chemscore.DEClash.Weighted>
0.4373

> <Gold.Chemscore.DEInternal.Weighted>
1.4481

> <Gold.Chemscore.Rot.Weighted>
3.6793

> <Gold.Chemscore.Internal.Correction.Weighted>
   9.000000E+99

> <Gold.Protein.RotatedTorsions>
[ 6907 6896 6895 6894 ] final   47.53 input  -60.11 | X-H torsion
[ 7974 7965 7964 7962 ] final  -87.72 input  175.53 | X-H torsion
[ 8008 7997 7996 7995 ] final  -19.57 input   59.86 | X-H torsion
[ 10167 10162 10161 10158 ] final  -86.12 input  -65.29 | X-H torsion
[ 10718 10713 10712 10709 ] final   45.15 input   66.30 | X-H torsion
[ 10763 10752 10751 10750 ] final   -5.45 input  -60.55 | X-H torsion
[ 11005 11000 10999 10996 ] final -113.84 input  -57.11 | X-H torsion

> <Gold.Protein.ActiveResidues>
 VAL166  LYS551  ARG553  GLY616  TRP617  ASP618  TYR619  PRO620  LYS621  CYS622 
 ASP623  PHE694  ASN695  SER759  ASP760  ASP761  ALA762  ILE779  LEU786  VAL792 
 PHE793  MET794  SER795  GLU796  ALA797  LYS798  CYS799  TRP800  GLU811  SER814 

> <Gold.Protein.RotatedAtoms>
  152.2691  134.7952  160.0417 H   0  0  0  0  0  0  0  0  0  0  0  0  # atno 6907 bound_to 6896
  151.8571  133.3445  159.3700 H   0  0  0  0  0  0  0  0  0  0  0  0  # atno 6908 bound_to 6896
  150.7145  134.5170  159.5679 H   0  0  0  0  0  0  0  0  0  0  0  0  # atno 6909 bound_to 6896
  145.4628  140.9561  143.1960 H   0  0  0  0  0  0  0  0  0  0  0  0  # atno 7974 bound_to 7965
  154.4827  140.2085  155.9726 H   0  0  0  0  0  0  0  0  0  0  0  0  # atno 8008 bound_to 7997
  156.1190  140.3216  155.8150 H   0  0  0  0  0  0  0  0  0  0  0  0  # atno 8009 bound_to 7997
  155.4502  140.0516  157.2992 H   0  0  0  0  0  0  0  0  0  0  0  0  # atno 8010 bound_to 7997
  140.3972  143.2679  151.9189 H   0  0  0  0  0  0  0  0  0  0  0  0  # atno 10167 bound_to 10162
  157.4345  130.8044  149.7634 H   0  0  0  0  0  0  0  0  0  0  0  0  # atno 10718 bound_to 10713
  153.3987  135.7004  153.6441 H   0  0  0  0  0  0  0  0  0  0  0  0  # atno 10763 bound_to 10752
  153.4984  135.3657  155.2528 H   0  0  0  0  0  0  0  0  0  0  0  0  # atno 10764 bound_to 10752
  154.8709  135.4106  154.3318 H   0  0  0  0  0  0  0  0  0  0  0  0  # atno 10765 bound_to 10752
  141.0589  133.9567  157.2703 H   0  0  0  0  0  0  0  0  0  0  0  0  # atno 11005 bound_to 11000
  144.7992  139.6173  143.7079 LP  0  0  0  0  0  0  0  0  0  0  0  0  # atno 17320 bound_to 7965
  146.2441  139.6062  142.9471 LP  0  0  0  0  0  0  0  0  0  0  0  0  # atno 17321 bound_to 7965
  139.4786  144.5670  151.8149 LP  0  0  0  0  0  0  0  0  0  0  0  0  # atno 17342 bound_to 10162
  140.4778  144.1493  150.5927 LP  0  0  0  0  0  0  0  0  0  0  0  0  # atno 17343 bound_to 10162
  155.9925  130.3930  150.2938 LP  0  0  0  0  0  0  0  0  0  0  0  0  # atno 17370 bound_to 10713
  157.1098  131.0218  151.3052 LP  0  0  0  0  0  0  0  0  0  0  0  0  # atno 17371 bound_to 10713
  139.9415  135.0190  156.8722 LP  0  0  0  0  0  0  0  0  0  0  0  0  # atno 17394 bound_to 11000
  140.5908  134.0264  155.7499 LP  0  0  0  0  0  0  0  0  0  0  0  0  # atno 17395 bound_to 11000

$$$$
