#       Name:                AV-unprocessed.smi:24
#       Creating user name   scv26
#       Creation time:       Thu Mar 26 15:43:32 2020


#       File generated by GOLD software.
#

@<TRIPOS>MOLECULE
AV-unprocessed.smi:24
    72    76     1
SMALL
NO_CHARGES


@<TRIPOS>ATOM
      1 ****        -6.6862   0.3543   2.2313 C.3            1 S1                 0.0000
      2 ****        -5.7889   1.4125   2.5340 O.3            1 S1                 0.0000
      3 ****        -4.4365   1.1564   2.4613 C.ar           1 S1                 0.0000
      4 ****        -3.5646   2.2175   2.7790 C.ar           1 S1                 0.0000
      5 ****        -2.1683   2.0437   2.7318 C.ar           1 S1                 0.0000
      6 ****        -1.6182   0.8007   2.3590 C.ar           1 S1                 0.0000
      7 ****        -0.1008   0.6270   2.3232 C.3            1 S1                 0.0000
      8 ****         0.4294  -0.0487   3.5908 C.3            1 S1                 0.0000
      9 ****         1.1052  -1.2545   3.0293 C.2            1 S1                 0.0000
     10 ****         1.7576  -2.2566   3.9012 C.ar           1 S1                 0.0000
     11 ****         2.3382  -3.4082   3.3224 C.ar           1 S1                 0.0000
     12 ****         2.9589  -4.3629   4.1518 C.ar           1 S1                 0.0000
     13 ****         2.9996  -4.1687   5.5467 C.ar           1 S1                 0.0000
     14 ****         2.4202  -3.0187   6.1189 C.ar           1 S1                 0.0000
     15 ****         1.7966  -2.0569   5.2999 C.ar           1 S1                 0.0000
     16 ****         1.0575  -1.3265   1.7505 N.2            1 S1                 0.0000
     17 ****         0.3906  -0.2537   1.2552 N.am           1 S1                 0.0000
     18 ****         0.2881   0.0105  -0.0662 C.2            1 S1                 0.0000
     19 ****        -0.2302   1.0478  -0.4840 O.2            1 S1                 0.0000
     20 ****         0.8476  -1.0263  -1.0637 C.3            1 S1                 0.0000
     21 ****         0.6359  -0.6554  -2.4801 N.am           1 S1                 0.0000
     22 ****        -0.5656  -1.0565  -3.1151 C.2            1 S1                 0.0000
     23 ****        -1.4193  -1.7094  -2.5128 O.2            1 S1                 0.0000
     24 ****        -0.7128  -0.6388  -4.5048 C.2            1 S1                 0.0000
     25 ****        -1.8139  -0.9883  -5.1913 F              1 S1                 0.0000
     26 ****         0.2408   0.0942  -5.1156 C.2            1 S1                 0.0000
     27 ****         1.4007   0.4960  -4.4767 N.am           1 S1                 0.0000
     28 ****         2.4596   1.3251  -5.1735 C.3            1 S1                 0.0000
     29 ****         2.4526   2.7721  -4.6434 C.3            1 S1                 0.0000
     30 ****         2.3665   3.5947  -5.9136 C.3            1 S1                 0.0000
     31 ****         1.6132   2.6571  -6.8449 C.3            1 S1                 0.0000
     32 ****         2.1870   1.3918  -6.5447 O.3            1 S1                 0.0000
     33 ****         1.6237   0.1179  -3.1349 C.2            1 S1                 0.0000
     34 ****         2.6523   0.4634  -2.5489 O.2            1 S1                 0.0000
     35 ****        -2.4850  -0.2688   2.0448 C.ar           1 S1                 0.0000
     36 ****        -3.8814  -0.0945   2.0927 C.ar           1 S1                 0.0000
     37 ****        -7.7110   0.7100   2.3373 H              1 S1                 0.0000
     38 ****        -6.5565  -0.4854   2.9154 H              1 S1                 0.0000
     39 ****        -6.5623   0.0069   1.2046 H              1 S1                 0.0000
     40 ****        -3.9714   3.1768   3.0636 H              1 S1                 0.0000
     41 ****        -1.5205   2.8709   2.9818 H              1 S1                 0.0000
     42 ****         0.3704   1.6051   2.2070 H              1 S1                 0.0000
     43 ****         1.1356   0.5917   4.1202 H              1 S1                 0.0000
     44 ****        -0.3702  -0.3318   4.2769 H              1 S1                 0.0000
     45 ****         2.3164  -3.5753   2.2551 H              1 S1                 0.0000
     46 ****         3.4042  -5.2456   3.7173 H              1 S1                 0.0000
     47 ****         3.4761  -4.9032   6.1791 H              1 S1                 0.0000
     48 ****         2.4542  -2.8740   7.1888 H              1 S1                 0.0000
     49 ****         1.3607  -1.1842   5.7629 H              1 S1                 0.0000
     50 ****         1.9088  -1.1751  -0.8578 H              1 S1                 0.0000
     51 ****         0.3964  -1.9966  -0.8500 H              1 S1                 0.0000
     52 ****         0.0708   0.3675  -6.1457 H              1 S1                 0.0000
     53 ****         3.4002   0.7946  -5.0149 H              1 S1                 0.0000
     54 ****         1.5740   2.9428  -4.0191 H              1 S1                 0.0000
     55 ****         3.3487   2.9786  -4.0578 H              1 S1                 0.0000
     56 ****         1.8634   4.5513  -5.7710 H              1 S1                 0.0000
     57 ****         3.3664   3.7868  -6.3050 H              1 S1                 0.0000
     58 ****         0.5472   2.6531  -6.6130 H              1 S1                 0.0000
     59 ****         1.7371   2.9158  -7.8966 H              1 S1                 0.0000
     60 ****        -2.0836  -1.2323   1.7669 H              1 S1                 0.0000
     61 ****        -4.5057  -0.9387   1.8426 H              1 S1                 0.0000
     62 ****        -5.9851   1.7104   3.4683 LP             1 S1                 0.0000
     63 ****        -5.9845   2.1591   1.8981 LP             1 S1                 0.0000
     64 ****         1.4524  -2.0625   1.2006 LP             1 S1                 0.0000
     65 ****        -0.5894   1.7222   0.1611 LP             1 S1                 0.0000
     66 ****        -0.2915   1.2150  -1.4680 LP             1 S1                 0.0000
     67 ****        -1.2708  -1.9660  -1.5577 LP             1 S1                 0.0000
     68 ****        -2.2607  -1.9828  -2.9789 LP             1 S1                 0.0000
     69 ****         1.5460   0.6660  -6.7942 LP             1 S1                 0.0000
     70 ****         3.0361   1.2785  -7.0606 LP             1 S1                 0.0000
     71 ****         2.7984   0.1972  -1.5961 LP             1 S1                 0.0000
     72 ****         3.3403   1.0098  -3.0265 LP             1 S1                 0.0000
@<TRIPOS>BOND
    1    1    2 1     
    2    1   37 1     
    3    1   38 1     
    4    1   39 1     
    5    2    3 1     
    6    3   36 ar    
    7    3    4 ar    
    8    4    5 ar    
    9    4   40 1     
   10    5    6 ar    
   11    5   41 1     
   12    6    7 1     
   13    6   35 ar    
   14    7   17 1     
   15    7    8 1     
   16    7   42 1     
   17    8    9 1     
   18    8   43 1     
   19    8   44 1     
   20    9   10 1     
   21    9   16 2     
   22   10   15 ar    
   23   10   11 ar    
   24   11   12 ar    
   25   11   45 1     
   26   12   13 ar    
   27   12   46 1     
   28   13   14 ar    
   29   13   47 1     
   30   14   15 ar    
   31   14   48 1     
   32   15   49 1     
   33   16   17 1     
   34   17   18 am    
   35   18   19 2     
   36   18   20 1     
   37   20   21 1     
   38   20   50 1     
   39   20   51 1     
   40   21   33 am    
   41   21   22 am    
   42   22   23 2     
   43   22   24 1     
   44   24   25 1     
   45   24   26 2     
   46   26   27 1     
   47   26   52 1     
   48   27   28 1     
   49   27   33 am    
   50   28   32 1     
   51   28   29 1     
   52   28   53 1     
   53   29   30 1     
   54   29   54 1     
   55   29   55 1     
   56   30   31 1     
   57   30   56 1     
   58   30   57 1     
   59   31   32 1     
   60   31   58 1     
   61   31   59 1     
   62   33   34 2     
   63   35   36 ar    
   64   35   60 1     
   65   36   61 1     
   66    2   62 1     
   67    2   63 1     
   68   16   64 1     
   69   19   65 1     
   70   19   66 1     
   71   23   67 1     
   72   23   68 1     
   73   32   69 1     
   74   32   70 1     
   75   34   71 1     
   76   34   72 1     
@<TRIPOS>SUBSTRUCTURE
      1 S1             1
@<TRIPOS>SET
LONE_PAIRS      STATIC     ATOMS    <user>   **** ""
11 62 63 64 65 66 67 68 69 70 71 72
ATOM$BLUE        STATIC     ATOMS    COLORGROUP SYSTEM
11 62 63 64 65 66 67 68 69 70 71 72
