#       Name:                AV-unprocessed.smi:2489
#       Creating user name   scv26
#       Creation time:       Fri Mar 27 13:43:52 2020


#       File generated by GOLD software.
#

@<TRIPOS>MOLECULE
AV-unprocessed.smi:2489
    40    41     1
SMALL
NO_CHARGES


@<TRIPOS>ATOM
      1 ****        -4.2588   3.0771   0.5218 C.3            1 S1                 0.0000
      2 ****        -4.8062   1.7666   0.5235 O.3            1 S1                 0.0000
      3 ****        -3.9352   0.6988   0.4976 C.ar           1 S1                 0.0000
      4 ****        -4.4988  -0.5937   0.4833 C.ar           1 S1                 0.0000
      5 ****        -3.6568  -1.7211   0.4663 C.ar           1 S1                 0.0000
      6 ****        -2.3174  -1.5582   0.4573 N.pl3          1 S1                 1.0000
      7 ****        -1.7128  -0.3489   0.4558 C.ar           1 S1                 0.0000
      8 ****        -0.2921  -0.3390   0.4615 N.am           1 S1                 0.0000
      9 ****         0.5455   0.6319   0.0508 C.2            1 S1                 0.0000
     10 ****         0.1841   1.7144  -0.4110 O.2            1 S1                 0.0000
     11 ****         2.0433   0.3268   0.1897 C.3            1 S1                 0.0000
     12 ****         2.9301   1.0051  -0.8607 C.3            1 S1                 0.0000
     13 ****         4.0878   0.0376  -0.9565 C.3            1 S1                 0.0000
     14 ****         3.3767  -1.3079  -0.8371 C.3            1 S1                 0.0000
     15 ****         4.2609  -2.4376  -0.2986 C.3            1 S1                 0.0000
     16 ****         2.2745  -1.0755   0.0364 O.3            1 S1                 0.0000
     17 ****        -2.5206   0.8166   0.4899 C.ar           1 S1                 0.0000
     18 ****        -5.0695   3.8055   0.5279 H              1 S1                 0.0000
     19 ****        -3.6597   3.2586  -0.3716 H              1 S1                 0.0000
     20 ****        -3.6493   3.2557   1.4086 H              1 S1                 0.0000
     21 ****        -5.5717  -0.7190   0.4904 H              1 S1                 0.0000
     22 ****        -4.0121  -2.7413   0.4598 H              1 S1                 0.0000
     23 ****         0.1493  -1.2021   0.7445 H              1 S1                 0.0000
     24 ****         2.3743   0.6119   1.1893 H              1 S1                 0.0000
     25 ****         2.4254   1.0770  -1.8259 H              1 S1                 0.0000
     26 ****         3.2454   2.0059  -0.5640 H              1 S1                 0.0000
     27 ****         4.6559   0.1392  -1.8818 H              1 S1                 0.0000
     28 ****         4.7693   0.1900  -0.1182 H              1 S1                 0.0000
     29 ****         2.9716  -1.5859  -1.8113 H              1 S1                 0.0000
     30 ****         5.1179  -2.6083  -0.9506 H              1 S1                 0.0000
     31 ****         3.7021  -3.3713  -0.2321 H              1 S1                 0.0000
     32 ****         4.6383  -2.2040   0.6973 H              1 S1                 0.0000
     33 ****        -2.0590   1.7898   0.5242 H              1 S1                 0.0000
     34 ****        -1.7329  -2.3945   0.4451 H              1 S1                 0.0000
     35 ****        -5.3943   1.6895  -0.2816 LP             1 S1                 0.0000
     36 ****        -5.3605   1.6775   1.3510 LP             1 S1                 0.0000
     37 ****        -0.7905   1.9192  -0.5011 LP             1 S1                 0.0000
     38 ****         0.8652   2.3888  -0.6960 LP             1 S1                 0.0000
     39 ****         1.4558  -1.5040  -0.3459 LP             1 S1                 0.0000
     40 ****         2.4736  -1.4758   0.9309 LP             1 S1                 0.0000
@<TRIPOS>BOND
    1    1    2 1     
    2    1   18 1     
    3    1   19 1     
    4    1   20 1     
    5    2    3 1     
    6    3   17 ar    
    7    3    4 ar    
    8    4    5 ar    
    9    4   21 1     
   10    5    6 ar    
   11    5   22 1     
   12    6    7 ar    
   13    6   34 1     
   14    7    8 1     
   15    7   17 ar    
   16    8    9 am    
   17    8   23 1     
   18    9   10 2     
   19    9   11 1     
   20   11   16 1     
   21   11   12 1     
   22   11   24 1     
   23   12   13 1     
   24   12   25 1     
   25   12   26 1     
   26   13   14 1     
   27   13   27 1     
   28   13   28 1     
   29   14   15 1     
   30   14   16 1     
   31   14   29 1     
   32   15   30 1     
   33   15   31 1     
   34   15   32 1     
   35   17   33 1     
   36    2   35 1     
   37    2   36 1     
   38   10   37 1     
   39   10   38 1     
   40   16   39 1     
   41   16   40 1     
@<TRIPOS>SUBSTRUCTURE
      1 S1             1
@<TRIPOS>SET
LONE_PAIRS      STATIC     ATOMS    <user>   **** ""
6 35 36 37 38 39 40
DONOR_HYDROGENS      STATIC     ATOMS    <user>   **** ""
2 34 23
ATOM$BLUE        STATIC     ATOMS    COLORGROUP SYSTEM
6 35 36 37 38 39 40
ATOM$RED        STATIC     ATOMS    COLORGROUP SYSTEM
2 34 23
