AV-unprocessed.smi:1110|AV-procd|sdf|4790|dock10
  -GOLD-   22720 3333D 1   1.00000     0.00000
 Structure written by MMmdl.
 44 45  0  0  0  0  0  0  0  0  2 V2000
  149.3364  131.7787  155.7450 C   0  0  0  0  0  0  0  0  0  0  0  0
  148.2991  132.4542  154.8379 C   0  0  0  0  0  0  0  0  0  0  0  0
  148.8150  133.7532  154.1676 C   0  0  2  0  0  0  0  0  0  0  0  0
  149.1339  134.8640  155.1979 C   0  0  0  0  0  0  0  0  0  0  0  0
  149.8927  135.9578  154.5959 N   0  0  0  0  0  0  0  0  0  0  0  0
  150.7877  136.7273  155.2341 C   0  0  0  0  0  0  0  0  0  0  0  0
  151.1580  136.5217  156.3898 O   0  0  0  0  0  0  0  0  0  0  0  0
  151.3256  137.9311  154.4508 C   0  0  0  0  0  0  0  0  0  0  0  0
  150.8941  139.2150  155.0304 N   0  0  0  0  0  0  0  0  0  0  0  0
  149.8262  139.8817  154.3971 C   0  0  0  0  0  0  0  0  0  0  0  0
  149.3545  141.0552  154.8474 C   0  0  0  0  0  0  0  0  0  0  0  0
  149.9704  141.6358  156.0169 C   0  0  0  0  0  0  0  0  0  0  0  0
  150.9952  141.0096  156.6286 C   0  0  0  0  0  0  0  0  0  0  0  0
  151.5168  139.7290  156.1380 C   0  0  0  0  0  0  0  0  0  0  0  0
  152.4597  139.1552  156.6860 O   0  0  0  0  0  0  0  0  0  0  0  0
  147.9189  134.2588  153.0856 N   0  3  0  0  0  0  0  0  0  0  0  0
  147.7123  133.3371  151.9448 C   0  0  0  0  0  0  0  0  0  0  0  0
  146.3369  133.6871  151.3817 C   0  0  0  0  0  0  0  0  0  0  0  0
  145.5549  134.0895  152.6267 C   0  0  0  0  0  0  0  0  0  0  0  0
  146.5981  134.8042  153.4888 C   0  0  0  0  0  0  0  0  0  0  0  0
  148.9460  130.8423  156.1442 H   0  0  0  0  0  0  0  0  0  0  0  0
  149.6011  132.4081  156.5942 H   0  0  0  0  0  0  0  0  0  0  0  0
  150.2508  131.5481  155.1977 H   0  0  0  0  0  0  0  0  0  0  0  0
  148.0011  131.7305  154.0802 H   0  0  0  0  0  0  0  0  0  0  0  0
  147.4041  132.6555  155.4261 H   0  0  0  0  0  0  0  0  0  0  0  0
  149.7576  133.5138  153.6718 H   0  0  0  0  0  0  0  0  0  0  0  0
  148.2141  135.2316  155.6561 H   0  0  0  0  0  0  0  0  0  0  0  0
  149.7354  134.4608  156.0122 H   0  0  0  0  0  0  0  0  0  0  0  0
  149.6717  136.1896  153.6378 H   0  0  0  0  0  0  0  0  0  0  0  0
  152.4133  137.8556  154.4190 H   0  0  0  0  0  0  0  0  0  0  0  0
  151.0003  137.8777  153.4098 H   0  0  0  0  0  0  0  0  0  0  0  0
  149.4220  139.3860  153.5266 H   0  0  0  0  0  0  0  0  0  0  0  0
  148.5366  141.5529  154.3471 H   0  0  0  0  0  0  0  0  0  0  0  0
  149.6071  142.5767  156.4038 H   0  0  0  0  0  0  0  0  0  0  0  0
  151.4428  141.4592  157.5031 H   0  0  0  0  0  0  0  0  0  0  0  0
  148.5038  133.4456  151.2028 H   0  0  0  0  0  0  0  0  0  0  0  0
  147.7131  132.2994  152.2786 H   0  0  0  0  0  0  0  0  0  0  0  0
  146.4173  134.5373  150.7027 H   0  0  0  0  0  0  0  0  0  0  0  0
  145.8775  132.8610  150.8384 H   0  0  0  0  0  0  0  0  0  0  0  0
  144.6905  134.7154  152.4020 H   0  0  0  0  0  0  0  0  0  0  0  0
  145.1986  133.1961  153.1418 H   0  0  0  0  0  0  0  0  0  0  0  0
  146.3798  134.7164  154.5522 H   0  0  0  0  0  0  0  0  0  0  0  0
  146.5957  135.8685  153.2526 H   0  0  0  0  0  0  0  0  0  0  0  0
  148.4082  135.0476  152.6862 H   0  0  0  0  0  0  0  0  0  0  0  0
  1  2  1  0  0  0  0
  1 21  1  0  0  0  0
  1 22  1  0  0  0  0
  1 23  1  0  0  0  0
  2  3  1  0  0  0  0
  2 24  1  0  0  0  0
  2 25  1  0  0  0  0
  3  4  1  0  0  0  0
  3 16  1  0  0  0  0
  3 26  1  0  0  0  0
  4  5  1  0  0  0  0
  4 27  1  0  0  0  0
  4 28  1  0  0  0  0
  5  6  1  0  0  0  0
  5 29  1  0  0  0  0
  6  7  2  0  0  0  0
  6  8  1  0  0  0  0
  8  9  1  0  0  0  0
  8 30  1  0  0  0  0
  8 31  1  0  0  0  0
  9 14  1  0  0  0  0
  9 10  1  0  0  0  0
 10 11  2  0  0  0  0
 10 32  1  0  0  0  0
 11 12  1  0  0  0  0
 11 33  1  0  0  0  0
 12 13  2  0  0  0  0
 12 34  1  0  0  0  0
 13 14  1  0  0  0  0
 13 35  1  0  0  0  0
 14 15  2  0  0  0  0
 16 20  1  0  0  0  0
 16 17  1  0  0  0  0
 16 44  1  0  0  0  0
 17 18  1  0  0  0  0
 17 36  1  0  0  0  0
 17 37  1  0  0  0  0
 18 19  1  0  0  0  0
 18 38  1  0  0  0  0
 18 39  1  0  0  0  0
 19 20  1  0  0  0  0
 19 40  1  0  0  0  0
 19 41  1  0  0  0  0
 20 42  1  0  0  0  0
 20 43  1  0  0  0  0
M  CHG  1  16   1
M  END
> <s_m_source_file>
AV-unprocessed.smi

> <i_m_source_file_index>
1110

> <i_lp_mmshare_version>
43012

> <i_f3d_flags>
0

> <s_epik_input>
W0NIMl0xW0NIMl1bQ0gyXVtDSDJdTjFbQ0BIXShbQ0gyXVtDSDNdKVtDSDJdW05IXUMoPU8pW0NIMl1uMltjSF1bY0hdW2NIXVtjSF1jMj1P

> <s_epik_cmdline>
J2VwaWtfcHl0aG9uJywgJy1waCcsICc3LjAnLCAnLXRuJywgJzgnLCAnLW1hJywgJzIwMCcsICctbWV0YWxfYmluZGluZycsICctaW1hZScsICc8aW5maWxlLm1hZT4nLCAnLW9tYWUnLCAnPG91dGZpbGUubWFlPic=

> <r_lp_tautomer_probability>
1

> <r_epik_Ionization_Penalty>
0.00361135

> <r_epik_Ionization_Penalty_Charging>
0.00361127

> <r_epik_Ionization_Penalty_Neutral>
7.8489e-08

> <r_epik_State_Penalty>
0.00256751

> <r_epik_Charging_Adjusted_Penalty>
0.00617878

> <i_epik_Tot_Q>
1

> <i_epik_Tot_abs_Q>
1

> <r_epik_Metal_State_Penalty>
-0

> <b_epik_Metal_Only>
0

> <s_lp_Force_Field>
OPLS_2005

> <r_lp_Energy>
45.664

> <b_lp_Chiralities_Consistent>
1

> <s_lp_Variant>
AV-unprocessed.smi:1110-1

> <Gold.Version>
5.8.1

> <Gold.Id.Protein>
6NUR|6NUR_protein|mol2

> <Gold.PLP.Fitness>
55.3482

> <Gold.PLP.PLP>
-38.9784

> <Gold.PLP.part.hbond>
-4.8778

> <Gold.PLP.part.metal>
0.0000

> <Gold.PLP.part.buried>
0.0457

> <Gold.PLP.part.nonpolar>
-33.1298

> <Gold.PLP.part.repulsive>
0.0959

> <Gold.PLP.ligand.clash>
0.0000

> <Gold.PLP.ligand.torsion>
0.6113

> <Gold.PLP.Chemscore.Hbond>
5.0000

> <Gold.PLP.Chemscore.CHOScore>
0.7960

> <Gold.PLP.Chemscore.Metal>
0.0000

> <Gold.Chemscore.Hbonds>
donor molecule, donor type, donor heavy atom, donor atom, acceptor molecule, acceptor atom, score
      L1  H     5    29       P1  7948  1.00
      L1  H    16    44       P1  7948  1.89
      P1  H  7997  8010       L1    15  0.76
      L1  C    10    32       P1  7957  0.98

> <Gold.PLP.Chemscore.Internal.Correction>
0.2044

> <Gold.Rescore>
     Score         DG    S(hbond)    S(metal)    S(lipo)     H(rot)  DE(clash)    DE(int)     intcor
     19.12     -19.67       3.57        0.00      62.79       1.99       0.01       0.55       ----

> <Gold.Chemscore.Fitness>
19.1181

> <Gold.Chemscore.DG>
-19.6734

> <Gold.Chemscore.ZeroCoef>
-5.4800

> <Gold.Chemscore.Hbond>
3.5749

> <Gold.Chemscore.Metal>
0.0000

> <Gold.Chemscore.Lipo>
62.7868

> <Gold.Chemscore.Internal_Hbond>
0.0000

> <Gold.Chemscore.DEClash>
0.0089

> <Gold.Chemscore.DEInternal>
0.5465

> <Gold.Chemscore.Rot>
1.9893

> <Gold.Chemscore.Internal.Correction>
   9.000000E+99

> <Gold.Chemscore.Hbonds>
donor molecule, donor type, donor heavy atom, donor atom, acceptor molecule, acceptor atom, score
      L1  H     5    29       P1  7948  0.35
      L1  H    16    44       P1  7948  0.59
      P1  H  7997  8010       L1    15  0.73

> <Gold.Chemscore.Hbond.Weighted>
-11.9400

> <Gold.Chemscore.Metal.Weighted>
-0.0000

> <Gold.Chemscore.Lipo.Weighted>
-7.3461

> <Gold.Chemscore.Internal_Hbond.Weighted>
0.0000

> <Gold.Chemscore.DEClash.Weighted>
0.0089

> <Gold.Chemscore.DEInternal.Weighted>
0.5465

> <Gold.Chemscore.Rot.Weighted>
5.0927

> <Gold.Chemscore.Internal.Correction.Weighted>
   9.000000E+99

> <Gold.Protein.RotatedTorsions>
[ 6907 6896 6895 6894 ] final -137.93 input  -60.11 | X-H torsion
[ 7974 7965 7964 7962 ] final   64.81 input  175.53 | X-H torsion
[ 8008 7997 7996 7995 ] final   61.59 input   59.86 | X-H torsion
[ 10167 10162 10161 10158 ] final -154.85 input  -65.29 | X-H torsion
[ 10718 10713 10712 10709 ] final   42.93 input   66.30 | X-H torsion
[ 10763 10752 10751 10750 ] final   96.62 input  -60.55 | X-H torsion
[ 11005 11000 10999 10996 ] final  -95.27 input  -57.11 | X-H torsion

> <Gold.Protein.ActiveResidues>
 VAL166  LYS551  ARG553  GLY616  TRP617  ASP618  TYR619  PRO620  LYS621  CYS622 
 ASP623  PHE694  ASN695  SER759  ASP760  ASP761  ALA762  ILE779  LEU786  VAL792 
 PHE793  MET794  SER795  GLU796  ALA797  LYS798  CYS799  TRP800  GLU811  SER814 

> <Gold.Protein.RotatedAtoms>
  151.0286  133.5811  159.2663 H   0  0  0  0  0  0  0  0  0  0  0  0  # atno 6907 bound_to 6896
  151.2901  135.0738  159.9211 H   0  0  0  0  0  0  0  0  0  0  0  0  # atno 6908 bound_to 6896
  152.5339  133.9986  159.7938 H   0  0  0  0  0  0  0  0  0  0  0  0  # atno 6909 bound_to 6896
  145.8459  139.3224  143.0904 H   0  0  0  0  0  0  0  0  0  0  0  0  # atno 7974 bound_to 7965
  155.6008  140.3494  155.4593 H   0  0  0  0  0  0  0  0  0  0  0  0  # atno 8008 bound_to 7997
  156.0230  140.1258  157.0362 H   0  0  0  0  0  0  0  0  0  0  0  0  # atno 8009 bound_to 7997
  154.4322  140.1058  156.5976 H   0  0  0  0  0  0  0  0  0  0  0  0  # atno 8010 bound_to 7997
  139.6979  143.9311  152.2415 H   0  0  0  0  0  0  0  0  0  0  0  0  # atno 10167 bound_to 10162
  157.4103  130.7910  149.7424 H   0  0  0  0  0  0  0  0  0  0  0  0  # atno 10718 bound_to 10713
  153.2671  135.4212  155.0951 H   0  0  0  0  0  0  0  0  0  0  0  0  # atno 10763 bound_to 10752
  154.8442  135.3463  154.6296 H   0  0  0  0  0  0  0  0  0  0  0  0  # atno 10764 bound_to 10752
  153.6716  135.7043  153.5203 H   0  0  0  0  0  0  0  0  0  0  0  0  # atno 10765 bound_to 10752
  141.1447  133.8014  157.0412 H   0  0  0  0  0  0  0  0  0  0  0  0  # atno 11005 bound_to 11000
  145.9413  140.8977  143.0306 LP  0  0  0  0  0  0  0  0  0  0  0  0  # atno 17320 bound_to 7965
  144.6731  140.1552  143.7427 LP  0  0  0  0  0  0  0  0  0  0  0  0  # atno 17321 bound_to 7965
  139.9145  144.6836  150.8526 LP  0  0  0  0  0  0  0  0  0  0  0  0  # atno 17342 bound_to 10162
  140.7701  143.3419  151.2191 LP  0  0  0  0  0  0  0  0  0  0  0  0  # atno 17343 bound_to 10162
  155.9848  130.3988  150.3291 LP  0  0  0  0  0  0  0  0  0  0  0  0  # atno 17370 bound_to 10713
  157.1428  131.0301  151.2920 LP  0  0  0  0  0  0  0  0  0  0  0  0  # atno 17371 bound_to 10713
  140.0692  134.9712  157.1438 LP  0  0  0  0  0  0  0  0  0  0  0  0  # atno 17394 bound_to 11000
  140.3736  134.2364  155.7176 LP  0  0  0  0  0  0  0  0  0  0  0  0  # atno 17395 bound_to 11000

$$$$
