AV-unprocessed.smi:2799|AV-procd|sdf|10792|dock3
  -GOLD-   2272015223D 1   1.00000     0.00000
 Structure written by MMmdl.
 52 53  0  0  0  0  0  0  0  0  2 V2000
  145.7802  130.6950  151.7230 C   0  0  0  0  0  0  0  0  0  0  0  0
  145.8036  132.1872  151.3573 C   0  0  0  0  0  0  0  0  0  0  0  0
  145.9422  132.3616  149.8352 C   0  0  0  0  0  0  0  0  0  0  0  0
  146.9320  132.9128  152.1291 C   0  0  0  0  0  0  0  0  0  0  0  0
  146.6417  134.3430  152.4546 N   0  3  1  0  0  0  0  0  0  0  0  0
  145.7529  134.9668  151.4294 C   0  0  0  0  0  0  0  0  0  0  0  0
  145.5664  136.4716  151.6592 C   0  0  0  0  0  0  0  0  0  0  0  0
  144.9945  136.7309  153.0497 C   0  0  0  0  0  0  0  0  0  0  0  0
  145.9065  136.0911  154.0970 C   0  0  0  0  0  0  0  0  0  0  0  0
  146.1216  134.5750  153.8473 C   0  0  2  0  0  0  0  0  0  0  0  0
  147.0367  133.9832  154.9595 C   0  0  0  0  0  0  0  0  0  0  0  0
  146.8903  134.6598  156.2460 N   0  0  0  0  0  0  0  0  0  0  0  0
  147.0606  134.0808  157.4433 C   0  0  0  0  0  0  0  0  0  0  0  0
  147.3744  132.8983  157.5770 O   0  0  0  0  0  0  0  0  0  0  0  0
  146.8477  134.9624  158.4375 N   0  0  0  0  0  0  0  0  0  0  0  0
  146.8842  134.7725  159.8307 C   0  0  0  0  0  0  0  0  0  0  0  0
  147.0535  133.5751  160.4469 C   0  0  0  0  0  0  0  0  0  0  0  0
  147.0672  133.4772  161.8867 C   0  0  0  0  0  0  0  0  0  0  0  0
  146.9001  134.5970  162.6037 C   0  0  0  0  0  0  0  0  0  0  0  0
  146.7143  135.8459  161.9876 N   0  0  0  0  0  0  0  0  0  0  0  0
  146.5402  137.0118  162.8577 C   0  0  0  0  0  0  0  0  0  0  0  0
  146.6969  135.9995  160.6301 C   0  0  0  0  0  0  0  0  0  0  0  0
  146.5328  137.1087  160.1157 O   0  0  0  0  0  0  0  0  0  0  0  0
  146.7088  130.1993  151.4373 H   0  0  0  0  0  0  0  0  0  0  0  0
  144.9611  130.1796  151.2207 H   0  0  0  0  0  0  0  0  0  0  0  0
  145.6452  130.5551  152.7960 H   0  0  0  0  0  0  0  0  0  0  0  0
  144.8341  132.5804  151.6574 H   0  0  0  0  0  0  0  0  0  0  0  0
  146.8950  131.9713  149.4760 H   0  0  0  0  0  0  0  0  0  0  0  0
  145.8810  133.4104  149.5445 H   0  0  0  0  0  0  0  0  0  0  0  0
  145.1478  131.8334  149.3069 H   0  0  0  0  0  0  0  0  0  0  0  0
  147.1662  132.3794  153.0519 H   0  0  0  0  0  0  0  0  0  0  0  0
  147.8101  132.8259  151.4969 H   0  0  0  0  0  0  0  0  0  0  0  0
  146.1624  134.8459  150.4292 H   0  0  0  0  0  0  0  0  0  0  0  0
  144.7841  134.4645  151.4342 H   0  0  0  0  0  0  0  0  0  0  0  0
  146.5224  136.9850  151.5476 H   0  0  0  0  0  0  0  0  0  0  0  0
  144.9010  136.8852  150.9008 H   0  0  0  0  0  0  0  0  0  0  0  0
  144.9063  137.8029  153.2290 H   0  0  0  0  0  0  0  0  0  0  0  0
  143.9891  136.3146  153.1261 H   0  0  0  0  0  0  0  0  0  0  0  0
  146.8704  136.6024  154.0999 H   0  0  0  0  0  0  0  0  0  0  0  0
  145.4651  136.2665  155.0780 H   0  0  0  0  0  0  0  0  0  0  0  0
  145.1505  134.0808  153.9084 H   0  0  0  0  0  0  0  0  0  0  0  0
  146.8306  132.9315  155.1505 H   0  0  0  0  0  0  0  0  0  0  0  0
  148.0826  134.0492  154.6586 H   0  0  0  0  0  0  0  0  0  0  0  0
  146.6385  135.6375  156.2219 H   0  0  0  0  0  0  0  0  0  0  0  0
  146.6482  135.9114  158.1557 H   0  0  0  0  0  0  0  0  0  0  0  0
  147.1706  132.6575  159.8950 H   0  0  0  0  0  0  0  0  0  0  0  0
  147.2087  132.5240  162.3746 H   0  0  0  0  0  0  0  0  0  0  0  0
  146.8984  134.6060  163.6840 H   0  0  0  0  0  0  0  0  0  0  0  0
  145.6072  137.5289  162.6285 H   0  0  0  0  0  0  0  0  0  0  0  0
  147.3623  137.7152  162.7193 H   0  0  0  0  0  0  0  0  0  0  0  0
  146.5107  136.7479  163.9154 H   0  0  0  0  0  0  0  0  0  0  0  0
  147.5266  134.8274  152.4044 H   0  0  0  0  0  0  0  0  0  0  0  0
  1  2  1  0  0  0  0
  1 24  1  0  0  0  0
  1 25  1  0  0  0  0
  1 26  1  0  0  0  0
  2  3  1  0  0  0  0
  2  4  1  0  0  0  0
  2 27  1  0  0  0  0
  3 28  1  0  0  0  0
  3 29  1  0  0  0  0
  3 30  1  0  0  0  0
  4  5  1  0  0  0  0
  4 31  1  0  0  0  0
  4 32  1  0  0  0  0
  5 10  1  0  0  0  0
  5  6  1  0  0  0  0
  5 52  1  0  0  0  0
  6  7  1  0  0  0  0
  6 33  1  0  0  0  0
  6 34  1  0  0  0  0
  7  8  1  0  0  0  0
  7 35  1  0  0  0  0
  7 36  1  0  0  0  0
  8  9  1  0  0  0  0
  8 37  1  0  0  0  0
  8 38  1  0  0  0  0
  9 10  1  0  0  0  0
  9 39  1  0  0  0  0
  9 40  1  0  0  0  0
 10 11  1  0  0  0  0
 10 41  1  0  0  0  0
 11 12  1  0  0  0  0
 11 42  1  0  0  0  0
 11 43  1  0  0  0  0
 12 13  1  0  0  0  0
 12 44  1  0  0  0  0
 13 14  2  0  0  0  0
 13 15  1  0  0  0  0
 15 16  1  0  0  0  0
 15 45  1  0  0  0  0
 16 22  1  0  0  0  0
 16 17  2  0  0  0  0
 17 18  1  0  0  0  0
 17 46  1  0  0  0  0
 18 19  2  0  0  0  0
 18 47  1  0  0  0  0
 19 20  1  0  0  0  0
 19 48  1  0  0  0  0
 20 21  1  0  0  0  0
 20 22  1  0  0  0  0
 21 49  1  0  0  0  0
 21 50  1  0  0  0  0
 21 51  1  0  0  0  0
 22 23  2  0  0  0  0
M  CHG  1   5   1
M  END
> <s_m_source_file>
AV-unprocessed.smi

> <i_m_source_file_index>
2799

> <i_lp_mmshare_version>
43012

> <i_f3d_flags>
0

> <s_epik_input>
W0NIM11bQ0hdKFtDSDNdKVtDSDJdTjFbQ0gyXVtDSDJdW0NIMl1bQ0gyXVtDQEhdMVtDSDJdW05IXUMoPU8pW05IXWMyW2NIXVtjSF1bY0hdbihbQ0gzXSljMj1P

> <s_epik_cmdline>
J2VwaWtfcHl0aG9uJywgJy1waCcsICc3LjAnLCAnLXRuJywgJzgnLCAnLW1hJywgJzIwMCcsICctbWV0YWxfYmluZGluZycsICctaW1hZScsICc8aW5maWxlLm1hZT4nLCAnLW9tYWUnLCAnPG91dGZpbGUubWFlPic=

> <r_lp_tautomer_probability>
1

> <r_epik_Ionization_Penalty>
0.0010885

> <r_epik_Ionization_Penalty_Charging>
0.00106921

> <r_epik_Ionization_Penalty_Neutral>
1.92865e-05

> <r_epik_State_Penalty>
0.000697184

> <r_epik_Charging_Adjusted_Penalty>
0.0017664

> <i_epik_Tot_Q>
1

> <i_epik_Tot_abs_Q>
1

> <r_epik_Metal_State_Penalty>
-0

> <b_epik_Metal_Only>
0

> <s_lp_Force_Field>
OPLS_2005

> <r_lp_Energy>
36.993

> <b_lp_Chiralities_Consistent>
1

> <s_lp_Variant>
AV-unprocessed.smi:2799-4

> <Gold.Version>
5.8.1

> <Gold.Id.Protein>
6NUR|6NUR_protein|mol2

> <Gold.PLP.Fitness>
44.4584

> <Gold.PLP.PLP>
-37.9115

> <Gold.PLP.part.hbond>
-2.0000

> <Gold.PLP.part.metal>
0.0000

> <Gold.PLP.part.buried>
-4.0598

> <Gold.PLP.part.nonpolar>
-31.5447

> <Gold.PLP.part.repulsive>
0.0220

> <Gold.PLP.ligand.clash>
0.0000

> <Gold.PLP.ligand.torsion>
1.3239

> <Gold.PLP.Chemscore.Hbond>
3.0000

> <Gold.PLP.Chemscore.CHOScore>
0.0000

> <Gold.PLP.Chemscore.Metal>
0.0000

> <Gold.Chemscore.Hbonds>
donor molecule, donor type, donor heavy atom, donor atom, acceptor molecule, acceptor atom, score
      L1  H     5    52       P1  7948  1.95
      P1  H  6934  6947       L1    23  0.65

> <Gold.PLP.Chemscore.Internal.Correction>
0.1946

> <Gold.Rescore>
     Score         DG    S(hbond)    S(metal)    S(lipo)     H(rot)  DE(clash)    DE(int)     intcor
     15.03     -18.16       1.96        0.00      86.64       1.57       0.03       3.10       ----

> <Gold.Chemscore.Fitness>
15.0347

> <Gold.Chemscore.DG>
-18.1573

> <Gold.Chemscore.ZeroCoef>
-5.4800

> <Gold.Chemscore.Hbond>
1.9631

> <Gold.Chemscore.Metal>
0.0000

> <Gold.Chemscore.Lipo>
86.6369

> <Gold.Chemscore.Internal_Hbond>
0.0000

> <Gold.Chemscore.DEClash>
0.0255

> <Gold.Chemscore.DEInternal>
3.0972

> <Gold.Chemscore.Rot>
1.5688

> <Gold.Chemscore.Internal.Correction>
   9.000000E+99

> <Gold.Chemscore.Hbonds>
donor molecule, donor type, donor heavy atom, donor atom, acceptor molecule, acceptor atom, score
      L1  H     5    52       P1  7948  0.85
      P1  H  6934  6947       L1    23  0.65

> <Gold.Chemscore.Hbond.Weighted>
-6.5568

> <Gold.Chemscore.Metal.Weighted>
-0.0000

> <Gold.Chemscore.Lipo.Weighted>
-10.1365

> <Gold.Chemscore.Internal_Hbond.Weighted>
0.0000

> <Gold.Chemscore.DEClash.Weighted>
0.0255

> <Gold.Chemscore.DEInternal.Weighted>
3.0972

> <Gold.Chemscore.Rot.Weighted>
4.0161

> <Gold.Chemscore.Internal.Correction.Weighted>
   9.000000E+99

> <Gold.Protein.RotatedTorsions>
[ 6907 6896 6895 6894 ] final    7.79 input  -60.11 | X-H torsion
[ 7974 7965 7964 7962 ] final  -45.30 input  175.53 | X-H torsion
[ 8008 7997 7996 7995 ] final  -89.73 input   59.86 | X-H torsion
[ 10167 10162 10161 10158 ] final  113.94 input  -65.29 | X-H torsion
[ 10718 10713 10712 10709 ] final  -61.10 input   66.30 | X-H torsion
[ 10763 10752 10751 10750 ] final -165.98 input  -60.55 | X-H torsion
[ 11005 11000 10999 10996 ] final   55.54 input  -57.11 | X-H torsion

> <Gold.Protein.ActiveResidues>
 VAL166  LYS551  ARG553  GLY616  TRP617  ASP618  TYR619  PRO620  LYS621  CYS622 
 ASP623  PHE694  ASN695  SER759  ASP760  ASP761  ALA762  ILE779  LEU786  VAL792 
 PHE793  MET794  SER795  GLU796  ALA797  LYS798  CYS799  TRP800  GLU811  SER814 

> <Gold.Protein.RotatedAtoms>
  151.6956  135.0939  160.0241 H   0  0  0  0  0  0  0  0  0  0  0  0  # atno 6907 bound_to 6896
  152.3752  133.6467  159.6126 H   0  0  0  0  0  0  0  0  0  0  0  0  # atno 6908 bound_to 6896
  150.7703  133.9121  159.3414 H   0  0  0  0  0  0  0  0  0  0  0  0  # atno 6909 bound_to 6896
  145.9835  140.7258  142.9352 H   0  0  0  0  0  0  0  0  0  0  0  0  # atno 7974 bound_to 7965
  154.6901  140.0538  157.0354 H   0  0  0  0  0  0  0  0  0  0  0  0  # atno 8008 bound_to 7997
  155.0830  140.3211  155.4577 H   0  0  0  0  0  0  0  0  0  0  0  0  # atno 8009 bound_to 7997
  156.2725  140.2061  156.5957 H   0  0  0  0  0  0  0  0  0  0  0  0  # atno 8010 bound_to 7997
  139.6425  144.7124  151.2209 H   0  0  0  0  0  0  0  0  0  0  0  0  # atno 10167 bound_to 10162
  156.0945  130.4195  150.0947 H   0  0  0  0  0  0  0  0  0  0  0  0  # atno 10718 bound_to 10713
  154.6879  135.2965  154.9521 H   0  0  0  0  0  0  0  0  0  0  0  0  # atno 10763 bound_to 10752
  154.0494  135.6646  153.4803 H   0  0  0  0  0  0  0  0  0  0  0  0  # atno 10764 bound_to 10752
  153.0591  135.5126  154.7956 H   0  0  0  0  0  0  0  0  0  0  0  0  # atno 10765 bound_to 10752
  140.0599  134.5618  155.9165 H   0  0  0  0  0  0  0  0  0  0  0  0  # atno 11005 bound_to 11000
  144.6868  140.2948  143.7272 LP  0  0  0  0  0  0  0  0  0  0  0  0  # atno 17320 bound_to 7965
  145.7735  139.1865  143.2199 LP  0  0  0  0  0  0  0  0  0  0  0  0  # atno 17321 bound_to 7965
  140.7498  143.6288  150.8443 LP  0  0  0  0  0  0  0  0  0  0  0  0  # atno 17342 bound_to 10162
  139.9927  143.5830  152.2904 LP  0  0  0  0  0  0  0  0  0  0  0  0  # atno 17343 bound_to 10162
  156.8949  130.9601  151.3584 LP  0  0  0  0  0  0  0  0  0  0  0  0  # atno 17370 bound_to 10713
  157.6102  130.8577  149.8939 LP  0  0  0  0  0  0  0  0  0  0  0  0  # atno 17371 bound_to 10713
  141.1968  133.6593  156.5711 LP  0  0  0  0  0  0  0  0  0  0  0  0  # atno 17394 bound_to 11000
  140.3787  134.7542  157.4647 LP  0  0  0  0  0  0  0  0  0  0  0  0  # atno 17395 bound_to 11000

$$$$
