AV-unprocessed.smi:1298|AV-procd|sdf|5417|dock8
  -GOLD-   22720 4573D 1   1.00000     0.00000
 Structure written by MMmdl.
 30 31  0  0  0  0  0  0  0  0  1 V2000
  153.2025  142.6692  160.0333 C   0  0  0  0  0  0  0  0  0  0  0  0
  152.3975  143.5005  159.3548 C   0  0  0  0  0  0  0  0  0  0  0  0
  151.9948  145.0751  159.9392 Cl  0  0  0  0  0  0  0  0  0  0  0  0
  151.7622  143.2016  158.0130 C   0  0  0  0  0  0  0  0  0  0  0  0
  151.4251  141.4287  157.8035 S   0  0  0  0  0  0  0  0  0  0  0  0
  149.7528  141.4912  157.2286 C   0  0  0  0  0  0  0  0  0  0  0  0
  148.7267  141.9805  157.9325 N   0  0  0  0  0  0  0  0  0  0  0  0
  147.6218  141.8545  157.1221 N   0  0  0  0  0  0  0  0  0  0  0  0
  148.0690  141.2822  156.0033 C   0  0  0  0  0  0  0  0  0  0  0  0
  147.1989  140.9924  154.8212 C   0  0  0  0  0  0  0  0  0  0  0  0
  147.6283  141.3723  153.4208 C   0  0  0  0  0  0  0  0  0  0  0  0
  146.4904  142.1055  154.0807 C   0  0  0  0  0  0  0  0  0  0  0  0
  149.3966  141.0413  156.0061 N   0  0  0  0  0  0  0  0  0  0  0  0
  150.2276  140.4676  154.9546 C   0  0  0  0  0  0  0  0  0  0  0  0
  149.7913  139.0384  154.6251 C   0  0  0  0  0  0  0  0  0  0  0  0
  149.4194  138.7899  153.3669 N   0  0  0  0  0  0  0  0  0  0  0  0
  149.7949  138.1681  155.4931 O   0  0  0  0  0  0  0  0  0  0  0  0
  153.6262  142.9559  160.9846 H   0  0  0  0  0  0  0  0  0  0  0  0
  153.4474  141.6908  159.6467 H   0  0  0  0  0  0  0  0  0  0  0  0
  150.8327  143.7638  157.9153 H   0  0  0  0  0  0  0  0  0  0  0  0
  152.4301  143.5393  157.2193 H   0  0  0  0  0  0  0  0  0  0  0  0
  146.6719  140.0494  154.9532 H   0  0  0  0  0  0  0  0  0  0  0  0
  148.5677  141.9093  153.3034 H   0  0  0  0  0  0  0  0  0  0  0  0
  147.3829  140.6816  152.6168 H   0  0  0  0  0  0  0  0  0  0  0  0
  145.4841  141.9052  153.7187 H   0  0  0  0  0  0  0  0  0  0  0  0
  146.6752  143.1280  154.4045 H   0  0  0  0  0  0  0  0  0  0  0  0
  150.1637  141.0829  154.0573 H   0  0  0  0  0  0  0  0  0  0  0  0
  151.2718  140.4918  155.2665 H   0  0  0  0  0  0  0  0  0  0  0  0
  149.1261  137.8616  153.0996 H   0  0  0  0  0  0  0  0  0  0  0  0
  149.4361  139.5343  152.6845 H   0  0  0  0  0  0  0  0  0  0  0  0
  1  2  2  0  0  0  0
  1 18  1  0  0  0  0
  1 19  1  0  0  0  0
  2  3  1  0  0  0  0
  2  4  1  0  0  0  0
  4  5  1  0  0  0  0
  4 20  1  0  0  0  0
  4 21  1  0  0  0  0
  5  6  1  0  0  0  0
  6 13  1  0  0  0  0
  6  7  2  0  0  0  0
  7  8  1  0  0  0  0
  8  9  2  0  0  0  0
  9 10  1  0  0  0  0
  9 13  1  0  0  0  0
 10 12  1  0  0  0  0
 10 11  1  0  0  0  0
 10 22  1  0  0  0  0
 11 12  1  0  0  0  0
 11 23  1  0  0  0  0
 11 24  1  0  0  0  0
 12 25  1  0  0  0  0
 12 26  1  0  0  0  0
 13 14  1  0  0  0  0
 14 15  1  0  0  0  0
 14 27  1  0  0  0  0
 14 28  1  0  0  0  0
 15 16  1  0  0  0  0
 15 17  2  0  0  0  0
 16 29  1  0  0  0  0
 16 30  1  0  0  0  0
M  END
> <s_m_source_file>
AV-unprocessed.smi

> <i_m_source_file_index>
1298

> <i_lp_mmshare_version>
43012

> <i_f3d_flags>
0

> <s_epik_input>
W0NIMl09QyhDbClbQ0gyXVNjMW5uYyhbQ0hdMltDSDJdW0NIMl0yKW4xW0NIMl1DKD1PKVtOSDJd

> <s_epik_cmdline>
J2VwaWtfcHl0aG9uJywgJy1waCcsICc3LjAnLCAnLXRuJywgJzgnLCAnLW1hJywgJzIwMCcsICctbWV0YWxfYmluZGluZycsICctaW1hZScsICc8aW5maWxlLm1hZT4nLCAnLW9tYWUnLCAnPG91dGZpbGUubWFlPic=

> <r_lp_tautomer_probability>
1

> <r_epik_Ionization_Penalty>
2.01117e-07

> <r_epik_Ionization_Penalty_Charging>
0

> <r_epik_Ionization_Penalty_Neutral>
2.01117e-07

> <r_epik_State_Penalty>
-0

> <r_epik_Charging_Adjusted_Penalty>
0

> <i_epik_Tot_Q>
0

> <i_epik_Tot_abs_Q>
0

> <r_epik_Metal_State_Penalty>
-0

> <b_epik_Metal_Only>
0

> <s_lp_Force_Field>
OPLS_2005

> <r_lp_Energy>
3.32617

> <b_lp_Chiralities_Consistent>
1

> <s_lp_Variant>
AV-unprocessed.smi:1298-1

> <Gold.Version>
5.8.1

> <Gold.Id.Protein>
6NUR|6NUR_protein|mol2

> <Gold.PLP.Fitness>
39.1863

> <Gold.PLP.PLP>
-34.7452

> <Gold.PLP.part.hbond>
-2.0000

> <Gold.PLP.part.metal>
0.0000

> <Gold.PLP.part.buried>
-4.0095

> <Gold.PLP.part.nonpolar>
-29.4767

> <Gold.PLP.part.repulsive>
0.4024

> <Gold.PLP.ligand.clash>
0.0000

> <Gold.PLP.ligand.torsion>
0.8913

> <Gold.PLP.Chemscore.Hbond>
2.0000

> <Gold.PLP.Chemscore.CHOScore>
0.0000

> <Gold.PLP.Chemscore.Metal>
0.0000

> <Gold.Chemscore.Hbonds>
donor molecule, donor type, donor heavy atom, donor atom, acceptor molecule, acceptor atom, score
      L1  H    16    29       P1  7948  1.00
      L1  H    16    30       P1  7957  0.99

> <Gold.PLP.Chemscore.Internal.Correction>
0.2237

> <Gold.Rescore>
     Score         DG    S(hbond)    S(metal)    S(lipo)     H(rot)  DE(clash)    DE(int)     intcor
     14.15     -14.89       1.93        0.00      82.28       2.60       0.14       0.61       ----

> <Gold.Chemscore.Fitness>
14.1510

> <Gold.Chemscore.DG>
-14.8946

> <Gold.Chemscore.ZeroCoef>
-5.4800

> <Gold.Chemscore.Hbond>
1.9287

> <Gold.Chemscore.Metal>
0.0000

> <Gold.Chemscore.Lipo>
82.2757

> <Gold.Chemscore.Internal_Hbond>
0.0000

> <Gold.Chemscore.DEClash>
0.1357

> <Gold.Chemscore.DEInternal>
0.6079

> <Gold.Chemscore.Rot>
2.5990

> <Gold.Chemscore.Internal.Correction>
   9.000000E+99

> <Gold.Chemscore.Hbonds>
donor molecule, donor type, donor heavy atom, donor atom, acceptor molecule, acceptor atom, score
      L1  H    16    29       P1  7948  0.91
      L1  H    16    30       P1  7957  0.93

> <Gold.Chemscore.Hbond.Weighted>
-6.4418

> <Gold.Chemscore.Metal.Weighted>
-0.0000

> <Gold.Chemscore.Lipo.Weighted>
-9.6263

> <Gold.Chemscore.Internal_Hbond.Weighted>
0.0000

> <Gold.Chemscore.DEClash.Weighted>
0.1357

> <Gold.Chemscore.DEInternal.Weighted>
0.6079

> <Gold.Chemscore.Rot.Weighted>
6.6534

> <Gold.Chemscore.Internal.Correction.Weighted>
   9.000000E+99

> <Gold.Protein.RotatedTorsions>
[ 6907 6896 6895 6894 ] final  -47.94 input  -60.11 | X-H torsion
[ 7974 7965 7964 7962 ] final  158.05 input  175.53 | X-H torsion
[ 8008 7997 7996 7995 ] final -129.48 input   59.86 | X-H torsion
[ 10167 10162 10161 10158 ] final  104.15 input  -65.29 | X-H torsion
[ 10718 10713 10712 10709 ] final  129.43 input   66.30 | X-H torsion
[ 10763 10752 10751 10750 ] final -110.15 input  -60.55 | X-H torsion
[ 11005 11000 10999 10996 ] final  -92.97 input  -57.11 | X-H torsion

> <Gold.Protein.ActiveResidues>
 VAL166  LYS551  ARG553  GLY616  TRP617  ASP618  TYR619  PRO620  LYS621  CYS622 
 ASP623  PHE694  ASN695  SER759  ASP760  ASP761  ALA762  ILE779  LEU786  VAL792 
 PHE793  MET794  SER795  GLU796  ALA797  LYS798  CYS799  TRP800  GLU811  SER814 

> <Gold.Protein.RotatedAtoms>
  150.8956  134.8364  159.7323 H   0  0  0  0  0  0  0  0  0  0  0  0  # atno 6907 bound_to 6896
  152.4863  134.4581  159.9606 H   0  0  0  0  0  0  0  0  0  0  0  0  # atno 6908 bound_to 6896
  151.4638  133.3547  159.2848 H   0  0  0  0  0  0  0  0  0  0  0  0  # atno 6909 bound_to 6896
  144.7868  139.7425  143.6237 H   0  0  0  0  0  0  0  0  0  0  0  0  # atno 7974 bound_to 7965
  155.2800  140.0443  157.3014 H   0  0  0  0  0  0  0  0  0  0  0  0  # atno 8008 bound_to 7997
  154.5602  140.2344  155.8315 H   0  0  0  0  0  0  0  0  0  0  0  0  # atno 8009 bound_to 7997
  156.2041  140.3017  155.9597 H   0  0  0  0  0  0  0  0  0  0  0  0  # atno 8010 bound_to 7997
  139.7202  144.7060  151.0885 H   0  0  0  0  0  0  0  0  0  0  0  0  # atno 10167 bound_to 10162
  157.5155  131.1097  150.9231 H   0  0  0  0  0  0  0  0  0  0  0  0  # atno 10718 bound_to 10713
  154.8232  135.4574  154.0841 H   0  0  0  0  0  0  0  0  0  0  0  0  # atno 10763 bound_to 10752
  153.2177  135.6890  153.8043 H   0  0  0  0  0  0  0  0  0  0  0  0  # atno 10764 bound_to 10752
  153.7472  135.3303  155.3291 H   0  0  0  0  0  0  0  0  0  0  0  0  # atno 10765 bound_to 10752
  141.1509  133.7856  157.0094 H   0  0  0  0  0  0  0  0  0  0  0  0  # atno 11005 bound_to 11000
  146.2103  139.5455  142.9685 LP  0  0  0  0  0  0  0  0  0  0  0  0  # atno 17320 bound_to 7965
  145.5901  141.0371  143.2075 LP  0  0  0  0  0  0  0  0  0  0  0  0  # atno 17321 bound_to 7965
  140.7752  143.5177  150.9575 LP  0  0  0  0  0  0  0  0  0  0  0  0  # atno 17342 bound_to 10162
  139.8863  143.7008  152.3151 LP  0  0  0  0  0  0  0  0  0  0  0  0  # atno 17343 bound_to 10162
  156.9858  130.5544  149.5299 LP  0  0  0  0  0  0  0  0  0  0  0  0  # atno 17370 bound_to 10713
  156.0317  130.5408  150.8552 LP  0  0  0  0  0  0  0  0  0  0  0  0  # atno 17371 bound_to 10713
  140.0888  134.9605  157.1742 LP  0  0  0  0  0  0  0  0  0  0  0  0  # atno 17394 bound_to 11000
  140.3475  134.2636  155.7203 LP  0  0  0  0  0  0  0  0  0  0  0  0  # atno 17395 bound_to 11000

$$$$
