AV-unprocessed.smi:2344|AV-procd|sdf|9357|dock1
  -GOLD-   2272012583D 1   1.00000     0.00000
 Structure written by MMmdl.
 35 36  0  0  0  0  0  0  0  0  1 V2000
  150.9635  142.1560  156.3638 C   0  0  0  0  0  0  0  0  0  0  0  0
  150.2460  141.1034  155.5451 C   0  0  0  0  0  0  0  0  0  0  0  0
  149.0142  141.3871  154.9264 C   0  0  0  0  0  0  0  0  0  0  0  0
  148.3849  140.3781  154.1723 C   0  0  0  0  0  0  0  0  0  0  0  0
  149.0005  139.1116  154.0541 C   0  0  0  0  0  0  0  0  0  0  0  0
  148.2840  138.1654  153.2740 N   0  0  0  0  0  0  0  0  0  0  0  0
  146.9612  138.1135  153.0386 C   0  0  0  0  0  0  0  0  0  0  0  0
  146.1251  138.8989  153.4864 O   0  0  0  0  0  0  0  0  0  0  0  0
  146.6508  137.0843  152.2374 N   0  0  0  0  0  0  0  0  0  0  0  0
  145.3034  136.7598  151.7832 C   0  0  2  0  0  0  0  0  0  0  0  0
  144.5391  136.0508  152.8673 C   0  0  0  0  0  0  0  0  0  0  0  0
  144.0653  134.8707  152.4748 C   0  0  0  0  0  0  0  0  0  0  0  0
  144.4219  134.5418  151.0475 C   0  0  2  0  0  0  0  0  0  0  0  0
  145.1448  133.1909  150.9078 C   0  0  0  0  0  0  0  0  0  0  0  0
  145.3931  132.8980  149.5488 O   0  0  0  0  0  0  0  0  0  0  0  0
  145.2929  135.7462  150.6082 C   0  0  0  0  0  0  0  0  0  0  0  0
  150.1885  138.8482  154.6532 N   0  0  0  0  0  0  0  0  0  0  0  0
  150.7914  139.8157  155.3754 C   0  0  0  0  0  0  0  0  0  0  0  0
  144.7627  137.6702  151.5191 H   0  0  0  0  0  0  0  0  0  0  0  0
  143.4996  134.5280  150.4649 H   0  0  0  0  0  0  0  0  0  0  0  0
  150.2601  142.6861  157.0065 H   0  0  0  0  0  0  0  0  0  0  0  0
  151.4435  142.8811  155.7064 H   0  0  0  0  0  0  0  0  0  0  0  0
  151.7292  141.7068  156.9971 H   0  0  0  0  0  0  0  0  0  0  0  0
  148.5569  142.3605  155.0265 H   0  0  0  0  0  0  0  0  0  0  0  0
  147.4386  140.5792  153.6912 H   0  0  0  0  0  0  0  0  0  0  0  0
  148.8454  137.4492  152.8379 H   0  0  0  0  0  0  0  0  0  0  0  0
  147.3972  136.4869  151.9135 H   0  0  0  0  0  0  0  0  0  0  0  0
  144.3924  136.4839  153.8459 H   0  0  0  0  0  0  0  0  0  0  0  0
  143.4776  134.2038  153.0883 H   0  0  0  0  0  0  0  0  0  0  0  0
  146.0989  133.2165  151.4348 H   0  0  0  0  0  0  0  0  0  0  0  0
  144.5542  132.3858  151.3465 H   0  0  0  0  0  0  0  0  0  0  0  0
  145.7732  133.6611  149.1407 H   0  0  0  0  0  0  0  0  0  0  0  0
  144.8901  136.2072  149.7055 H   0  0  0  0  0  0  0  0  0  0  0  0
  146.3048  135.4189  150.3632 H   0  0  0  0  0  0  0  0  0  0  0  0
  151.7354  139.5516  155.8288 H   0  0  0  0  0  0  0  0  0  0  0  0
  1  2  1  0  0  0  0
  1 21  1  0  0  0  0
  1 22  1  0  0  0  0
  1 23  1  0  0  0  0
  2 18  1  0  0  0  0
  2  3  2  0  0  0  0
  3  4  1  0  0  0  0
  3 24  1  0  0  0  0
  4  5  2  0  0  0  0
  4 25  1  0  0  0  0
  5  6  1  0  0  0  0
  5 17  1  0  0  0  0
  6  7  1  0  0  0  0
  6 26  1  0  0  0  0
  7  8  2  0  0  0  0
  7  9  1  0  0  0  0
  9 10  1  0  0  0  0
  9 27  1  0  0  0  0
 10 19  1  0  0  0  0
 10 16  1  0  0  0  0
 10 11  1  0  0  0  0
 11 12  2  0  0  0  0
 11 28  1  0  0  0  0
 12 13  1  0  0  0  0
 12 29  1  0  0  0  0
 13 20  1  0  0  0  0
 13 14  1  0  0  0  0
 13 16  1  0  0  0  0
 14 15  1  0  0  0  0
 14 30  1  0  0  0  0
 14 31  1  0  0  0  0
 15 32  1  0  0  0  0
 16 33  1  0  0  0  0
 16 34  1  0  0  0  0
 17 18  2  0  0  0  0
 18 35  1  0  0  0  0
M  END
> <s_m_source_file>
AV-unprocessed.smi

> <i_m_source_file_index>
2344

> <i_lp_mmshare_version>
43012

> <i_f3d_flags>
0

> <s_epik_input>
W0NIM11jMVtjSF1bY0hdYyhuW2NIXTEpW05IXUMoPU8pW05IXVtDQEBIXTJbQ0hdPVtDSF1bQ0BASF0oW0NIMl0yKVtDSDJdW09IXQ==

> <s_epik_cmdline>
J2VwaWtfcHl0aG9uJywgJy1waCcsICc3LjAnLCAnLXRuJywgJzgnLCAnLW1hJywgJzIwMCcsICctbWV0YWxfYmluZGluZycsICctaW1hZScsICc8aW5maWxlLm1hZT4nLCAnLW9tYWUnLCAnPG91dGZpbGUubWFlPic=

> <r_lp_tautomer_probability>
1

> <r_epik_Ionization_Penalty>
5.7643e-05

> <r_epik_Ionization_Penalty_Charging>
0

> <r_epik_Ionization_Penalty_Neutral>
5.7643e-05

> <r_epik_State_Penalty>
-0

> <r_epik_Charging_Adjusted_Penalty>
0

> <i_epik_Tot_Q>
0

> <i_epik_Tot_abs_Q>
0

> <r_epik_Metal_State_Penalty>
-0

> <b_epik_Metal_Only>
0

> <s_lp_Force_Field>
OPLS_2005

> <r_lp_Energy>
16.9507

> <b_lp_Chiralities_Consistent>
1

> <s_lp_Variant>
AV-unprocessed.smi:2344-1

> <Gold.Version>
5.8.1

> <Gold.Id.Protein>
6NUR|6NUR_protein|mol2

> <Gold.PLP.Fitness>
38.6262

> <Gold.PLP.PLP>
-30.3331

> <Gold.PLP.part.hbond>
-3.5926

> <Gold.PLP.part.metal>
0.0000

> <Gold.PLP.part.buried>
-2.0926

> <Gold.PLP.part.nonpolar>
-25.7260

> <Gold.PLP.part.repulsive>
0.5321

> <Gold.PLP.ligand.clash>
0.0000

> <Gold.PLP.ligand.torsion>
0.3688

> <Gold.PLP.Chemscore.Hbond>
3.0000

> <Gold.PLP.Chemscore.CHOScore>
0.0000

> <Gold.PLP.Chemscore.Metal>
0.0000

> <Gold.Chemscore.Hbonds>
donor molecule, donor type, donor heavy atom, donor atom, acceptor molecule, acceptor atom, score
      L1  H     6    26       P1  7948  1.00
      L1  H     9    27       P1  7948  0.96
      L1  H    15    32       P1  7921  0.90

> <Gold.PLP.Chemscore.Internal.Correction>
0.0308

> <Gold.Rescore>
     Score         DG    S(hbond)    S(metal)    S(lipo)     H(rot)  DE(clash)    DE(int)     intcor
     15.12     -17.71       2.75        0.00      65.79       1.82       0.68       1.91       ----

> <Gold.Chemscore.Fitness>
15.1172

> <Gold.Chemscore.DG>
-17.7144

> <Gold.Chemscore.ZeroCoef>
-5.4800

> <Gold.Chemscore.Hbond>
2.7523

> <Gold.Chemscore.Metal>
0.0000

> <Gold.Chemscore.Lipo>
65.7854

> <Gold.Chemscore.Internal_Hbond>
0.0000

> <Gold.Chemscore.DEClash>
0.6836

> <Gold.Chemscore.DEInternal>
1.9136

> <Gold.Chemscore.Rot>
1.8184

> <Gold.Chemscore.Internal.Correction>
   9.000000E+99

> <Gold.Chemscore.Hbonds>
donor molecule, donor type, donor heavy atom, donor atom, acceptor molecule, acceptor atom, score
      L1  H     6    26       P1  7948  0.89
      L1  H     9    27       P1  7948  0.89
      L1  H    15    32       P1  7921  0.17

> <Gold.Chemscore.Hbond.Weighted>
-9.1926

> <Gold.Chemscore.Metal.Weighted>
-0.0000

> <Gold.Chemscore.Lipo.Weighted>
-7.6969

> <Gold.Chemscore.Internal_Hbond.Weighted>
0.0000

> <Gold.Chemscore.DEClash.Weighted>
0.6836

> <Gold.Chemscore.DEInternal.Weighted>
1.9136

> <Gold.Chemscore.Rot.Weighted>
4.6551

> <Gold.Chemscore.Internal.Correction.Weighted>
   9.000000E+99

> <Gold.Protein.RotatedTorsions>
[ 6907 6896 6895 6894 ] final   76.59 input  -60.11 | X-H torsion
[ 7974 7965 7964 7962 ] final  -93.91 input  175.53 | X-H torsion
[ 8008 7997 7996 7995 ] final  112.90 input   59.86 | X-H torsion
[ 10167 10162 10161 10158 ] final  151.34 input  -65.29 | X-H torsion
[ 10718 10713 10712 10709 ] final    5.82 input   66.30 | X-H torsion
[ 10763 10752 10751 10750 ] final -174.93 input  -60.55 | X-H torsion
[ 11005 11000 10999 10996 ] final   12.44 input  -57.11 | X-H torsion

> <Gold.Protein.ActiveResidues>
 VAL166  LYS551  ARG553  GLY616  TRP617  ASP618  TYR619  PRO620  LYS621  CYS622 
 ASP623  PHE694  ASN695  SER759  ASP760  ASP761  ALA762  ILE779  LEU786  VAL792 
 PHE793  MET794  SER795  GLU796  ALA797  LYS798  CYS799  TRP800  GLU811  SER814 

> <Gold.Protein.RotatedAtoms>
  152.5080  134.3946  159.9395 H   0  0  0  0  0  0  0  0  0  0  0  0  # atno 6907 bound_to 6896
  151.3907  133.3783  159.2728 H   0  0  0  0  0  0  0  0  0  0  0  0  # atno 6908 bound_to 6896
  150.9435  134.8862  159.7686 H   0  0  0  0  0  0  0  0  0  0  0  0  # atno 6909 bound_to 6896
  145.3802  140.9516  143.2398 H   0  0  0  0  0  0  0  0  0  0  0  0  # atno 7974 bound_to 7965
  156.2223  140.2990  155.9982 H   0  0  0  0  0  0  0  0  0  0  0  0  # atno 8008 bound_to 7997
  155.2449  140.0424  157.2996 H   0  0  0  0  0  0  0  0  0  0  0  0  # atno 8009 bound_to 7997
  154.5860  140.2388  155.7994 H   0  0  0  0  0  0  0  0  0  0  0  0  # atno 8010 bound_to 7997
  139.4841  144.5449  151.7502 H   0  0  0  0  0  0  0  0  0  0  0  0  # atno 10167 bound_to 10162
  156.9131  130.5763  149.5647 H   0  0  0  0  0  0  0  0  0  0  0  0  # atno 10718 bound_to 10713
  154.5905  135.2844  155.0640 H   0  0  0  0  0  0  0  0  0  0  0  0  # atno 10763 bound_to 10752
  154.1943  135.6435  153.5072 H   0  0  0  0  0  0  0  0  0  0  0  0  # atno 10764 bound_to 10752
  153.0119  135.5454  154.6589 H   0  0  0  0  0  0  0  0  0  0  0  0  # atno 10765 bound_to 10752
  140.4919  134.0832  155.7773 H   0  0  0  0  0  0  0  0  0  0  0  0  # atno 11005 bound_to 11000
  144.8513  139.5318  143.6855 LP  0  0  0  0  0  0  0  0  0  0  0  0  # atno 17320 bound_to 7965
  146.2845  139.6967  142.9205 LP  0  0  0  0  0  0  0  0  0  0  0  0  # atno 17321 bound_to 7965
  140.4994  144.1192  150.5967 LP  0  0  0  0  0  0  0  0  0  0  0  0  # atno 17342 bound_to 10162
  140.4080  143.2671  151.9867 LP  0  0  0  0  0  0  0  0  0  0  0  0  # atno 17343 bound_to 10162
  156.0526  130.5593  150.9023 LP  0  0  0  0  0  0  0  0  0  0  0  0  # atno 17370 bound_to 10713
  157.5955  131.0943  150.9048 LP  0  0  0  0  0  0  0  0  0  0  0  0  # atno 17371 bound_to 10713
  141.1480  133.9021  157.2169 LP  0  0  0  0  0  0  0  0  0  0  0  0  # atno 17394 bound_to 11000
  139.9764  135.0112  156.9642 LP  0  0  0  0  0  0  0  0  0  0  0  0  # atno 17395 bound_to 11000

$$$$
