AV-unprocessed.smi:55|AV-procd|sdf|568|dock3
  -GOLD-   2262016473D 1   1.00000     0.00000
 Structure written by MMmdl.
 31 32  0  0  0  0  0  0  0  0  1 V2000
  151.9164  143.5538  159.4481 C   0  0  0  0  0  0  0  0  0  0  0  0
  152.8853  142.6944  160.2431 C   0  0  0  0  0  0  0  0  0  0  0  0
  153.4278  141.5557  159.7414 C   0  0  0  0  0  0  0  0  0  0  0  0
  154.3123  140.7480  160.4424 N   0  0  0  0  0  0  0  0  0  0  0  0
  154.8771  139.4927  159.8160 C   0  0  1  0  0  0  0  0  0  0  0  0
  154.4605  138.2508  160.6106 C   0  0  0  0  0  0  0  0  0  0  0  0
  153.3987  137.6353  159.7185 C   0  0  2  0  0  0  0  0  0  0  0  0
  153.3570  136.2315  159.8740 O   0  0  0  0  0  0  0  0  0  0  0  0
  153.8599  138.0548  158.3205 C   0  0  1  0  0  0  0  0  0  0  0  0
  152.7280  138.0838  157.2824 C   0  0  0  0  0  0  0  0  0  0  0  0
  153.2574  138.3383  155.9989 O   0  0  0  0  0  0  0  0  0  0  0  0
  154.3625  139.3723  158.5238 O   0  0  0  0  0  0  0  0  0  0  0  0
  154.6782  141.1041  161.7579 C   0  0  0  0  0  0  0  0  0  0  0  0
  155.4397  140.4310  162.4512 O   0  0  0  0  0  0  0  0  0  0  0  0
  154.1250  142.2758  162.2719 N   0  0  0  0  0  0  0  0  0  0  0  0
  153.2368  143.1196  161.6006 C   0  0  0  0  0  0  0  0  0  0  0  0
  152.8158  144.1292  162.1629 O   0  0  0  0  0  0  0  0  0  0  0  0
  155.9593  139.6102  159.7464 H   0  0  0  0  0  0  0  0  0  0  0  0
  152.4219  138.0621  159.9488 H   0  0  0  0  0  0  0  0  0  0  0  0
  154.6793  137.4094  157.9970 H   0  0  0  0  0  0  0  0  0  0  0  0
  154.3864  142.5355  163.2118 H   0  0  0  0  0  0  0  0  0  0  0  0
  151.7401  143.1485  158.4515 H   0  0  0  0  0  0  0  0  0  0  0  0
  152.3088  144.5646  159.3332 H   0  0  0  0  0  0  0  0  0  0  0  0
  150.9548  143.6153  159.9589 H   0  0  0  0  0  0  0  0  0  0  0  0
  153.1527  141.2640  158.7389 H   0  0  0  0  0  0  0  0  0  0  0  0
  155.3298  137.5973  160.6990 H   0  0  0  0  0  0  0  0  0  0  0  0
  154.1040  138.4983  161.6116 H   0  0  0  0  0  0  0  0  0  0  0  0
  153.9681  135.8422  159.2670 H   0  0  0  0  0  0  0  0  0  0  0  0
  152.2291  137.1150  157.2434 H   0  0  0  0  0  0  0  0  0  0  0  0
  151.9727  138.8275  157.5387 H   0  0  0  0  0  0  0  0  0  0  0  0
  152.9339  137.6792  155.4039 H   0  0  0  0  0  0  0  0  0  0  0  0
  1  2  1  0  0  0  0
  1 22  1  0  0  0  0
  1 23  1  0  0  0  0
  1 24  1  0  0  0  0
  2 16  1  0  0  0  0
  2  3  2  0  0  0  0
  3  4  1  0  0  0  0
  3 25  1  0  0  0  0
  4  5  1  0  0  0  0
  4 13  1  0  0  0  0
  5 18  1  0  0  0  0
  5 12  1  0  0  0  0
  5  6  1  0  0  0  0
  6  7  1  0  0  0  0
  6 26  1  0  0  0  0
  6 27  1  0  0  0  0
  7 19  1  0  0  0  0
  7  8  1  0  0  0  0
  7  9  1  0  0  0  0
  8 28  1  0  0  0  0
  9 20  1  0  0  0  0
  9 10  1  0  0  0  0
  9 12  1  0  0  0  0
 10 11  1  0  0  0  0
 10 29  1  0  0  0  0
 10 30  1  0  0  0  0
 11 31  1  0  0  0  0
 13 14  2  0  0  0  0
 13 15  1  0  0  0  0
 15 21  1  0  0  0  0
 15 16  1  0  0  0  0
 16 17  2  0  0  0  0
M  END
> <s_m_source_file>
AV-unprocessed.smi

> <i_m_source_file_index>
55

> <i_lp_mmshare_version>
43012

> <i_f3d_flags>
0

> <s_epik_input>
Tz1jMVtuSF1jKD1PKW4oW2NIXWMxW0NIM10pW0NAQEhdMltDSDJdW0NAQEhdKFtPSF0pW0NAQEhdKE8yKVtDSDJdW09IXQ==

> <s_epik_cmdline>
J2VwaWtfcHl0aG9uJywgJy1waCcsICc3LjAnLCAnLXRuJywgJzgnLCAnLW1hJywgJzIwMCcsICctbWV0YWxfYmluZGluZycsICctaW1hZScsICc8aW5maWxlLm1hZT4nLCAnLW9tYWUnLCAnPG91dGZpbGUubWFlPic=

> <r_lp_tautomer_probability>
0.999537

> <r_epik_Ionization_Penalty>
0.00121888

> <r_epik_Ionization_Penalty_Charging>
0.00121876

> <r_epik_Ionization_Penalty_Neutral>
1.19946e-07

> <r_epik_State_Penalty>
0.000805124

> <r_epik_Charging_Adjusted_Penalty>
0.00202389

> <i_epik_Tot_Q>
0

> <i_epik_Tot_abs_Q>
0

> <r_epik_Metal_State_Penalty>
0.662472

> <b_epik_Metal_Only>
0

> <s_epik_Chemistry_Notes>
This compound contains an acetal/aminal-like group ( X-CH(R)-Y where X, Y are N, S, or O) that may be acid/base labile, releasing an aldehyde.

> <s_lp_Force_Field>
OPLS_2005

> <r_lp_Energy>
24.9253

> <b_lp_Chiralities_Consistent>
1

> <s_lp_Variant>
AV-unprocessed.smi:55-8

> <Gold.Version>
5.8.1

> <Gold.Id.Protein>
6NUR|6NUR_protein|mol2

> <Gold.PLP.Fitness>
37.5912

> <Gold.PLP.PLP>
-30.6382

> <Gold.PLP.part.hbond>
-3.9111

> <Gold.PLP.part.metal>
0.0000

> <Gold.PLP.part.buried>
-3.2686

> <Gold.PLP.part.nonpolar>
-22.2357

> <Gold.PLP.part.repulsive>
0.2038

> <Gold.PLP.ligand.clash>
0.0000

> <Gold.PLP.ligand.torsion>
0.0440

> <Gold.PLP.Chemscore.Hbond>
2.3440

> <Gold.PLP.Chemscore.CHOScore>
0.0000

> <Gold.PLP.Chemscore.Metal>
0.0000

> <Gold.Chemscore.Hbonds>
donor molecule, donor type, donor heavy atom, donor atom, acceptor molecule, acceptor atom, score
      P1  H  6896  6909       L1     8  0.75
      P1  H  7997  8009       L1    12  0.62
      P1  H  7997  8010       L1    11  0.55

> <Gold.PLP.Chemscore.Internal.Correction>
0.0089

> <Gold.Rescore>
     Score         DG    S(hbond)    S(metal)    S(lipo)     H(rot)  DE(clash)    DE(int)     intcor
     11.85     -12.04       2.43        0.00      46.29       2.73       0.11       0.08       ----

> <Gold.Chemscore.Fitness>
11.8473

> <Gold.Chemscore.DG>
-12.0359

> <Gold.Chemscore.ZeroCoef>
-5.4800

> <Gold.Chemscore.Hbond>
2.4302

> <Gold.Chemscore.Metal>
0.0000

> <Gold.Chemscore.Lipo>
46.2884

> <Gold.Chemscore.Internal_Hbond>
0.0000

> <Gold.Chemscore.DEClash>
0.1103

> <Gold.Chemscore.DEInternal>
0.0784

> <Gold.Chemscore.Rot>
2.7253

> <Gold.Chemscore.Internal.Correction>
   9.000000E+99

> <Gold.Chemscore.Hbonds>
donor molecule, donor type, donor heavy atom, donor atom, acceptor molecule, acceptor atom, score
      P1  H  6896  6909       L1     8  0.09
      P1  H  7997  8009       L1    12  0.47
      P1  H  7997  8010       L1    11  0.40

> <Gold.Chemscore.Hbond.Weighted>
-8.1170

> <Gold.Chemscore.Metal.Weighted>
-0.0000

> <Gold.Chemscore.Lipo.Weighted>
-5.4157

> <Gold.Chemscore.Internal_Hbond.Weighted>
0.0000

> <Gold.Chemscore.DEClash.Weighted>
0.1103

> <Gold.Chemscore.DEInternal.Weighted>
0.0784

> <Gold.Chemscore.Rot.Weighted>
6.9769

> <Gold.Chemscore.Internal.Correction.Weighted>
   9.000000E+99

> <Gold.Protein.RotatedTorsions>
[ 6907 6896 6895 6894 ] final  172.26 input  -60.11 | X-H torsion
[ 7974 7965 7964 7962 ] final  -19.11 input  175.53 | X-H torsion
[ 8008 7997 7996 7995 ] final   97.45 input   59.86 | X-H torsion
[ 10167 10162 10161 10158 ] final   50.95 input  -65.29 | X-H torsion
[ 10718 10713 10712 10709 ] final -169.14 input   66.30 | X-H torsion
[ 10763 10752 10751 10750 ] final -134.06 input  -60.55 | X-H torsion
[ 11005 11000 10999 10996 ] final  149.21 input  -57.11 | X-H torsion

> <Gold.Protein.ActiveResidues>
 VAL166  LYS551  ARG553  GLY616  TRP617  ASP618  TYR619  PRO620  LYS621  CYS622 
 ASP623  PHE694  ASN695  SER759  ASP760  ASP761  ALA762  ILE779  LEU786  VAL792 
 PHE793  MET794  SER795  GLU796  ALA797  LYS798  CYS799  TRP800  GLU811  SER814 

> <Gold.Protein.RotatedAtoms>
  151.7870  133.3355  159.3487 H   0  0  0  0  0  0  0  0  0  0  0  0  # atno 6907 bound_to 6896
  150.7405  134.5877  159.5981 H   0  0  0  0  0  0  0  0  0  0  0  0  # atno 6908 bound_to 6896
  152.3236  134.7350  160.0359 H   0  0  0  0  0  0  0  0  0  0  0  0  # atno 6909 bound_to 6896
  146.1858  140.4015  142.8477 H   0  0  0  0  0  0  0  0  0  0  0  0  # atno 7974 bound_to 7965
  156.0903  140.3258  155.7807 H   0  0  0  0  0  0  0  0  0  0  0  0  # atno 8008 bound_to 7997
  155.5008  140.0569  157.2957 H   0  0  0  0  0  0  0  0  0  0  0  0  # atno 8009 bound_to 7997
  154.4634  140.1977  156.0200 H   0  0  0  0  0  0  0  0  0  0  0  0  # atno 8010 bound_to 7997
  140.2671  144.3308  150.6301 H   0  0  0  0  0  0  0  0  0  0  0  0  # atno 10167 bound_to 10162
  156.7072  130.9219  151.3085 H   0  0  0  0  0  0  0  0  0  0  0  0  # atno 10718 bound_to 10713
  154.8724  135.3746  154.4674 H   0  0  0  0  0  0  0  0  0  0  0  0  # atno 10763 bound_to 10752
  153.5337  135.7027  153.5675 H   0  0  0  0  0  0  0  0  0  0  0  0  # atno 10764 bound_to 10752
  153.3868  135.3982  155.1860 H   0  0  0  0  0  0  0  0  0  0  0  0  # atno 10765 bound_to 10752
  140.1025  134.8974  157.1817 H   0  0  0  0  0  0  0  0  0  0  0  0  # atno 11005 bound_to 11000
  144.8395  140.6835  143.6238 LP  0  0  0  0  0  0  0  0  0  0  0  0  # atno 17320 bound_to 7965
  145.3942  139.1610  143.4212 LP  0  0  0  0  0  0  0  0  0  0  0  0  # atno 17321 bound_to 7965
  140.5920  143.2168  151.7236 LP  0  0  0  0  0  0  0  0  0  0  0  0  # atno 17342 bound_to 10162
  139.5000  144.3925  152.0265 LP  0  0  0  0  0  0  0  0  0  0  0  0  # atno 17343 bound_to 10162
  157.6950  130.9273  150.0620 LP  0  0  0  0  0  0  0  0  0  0  0  0  # atno 17370 bound_to 10713
  156.1687  130.3646  149.9196 LP  0  0  0  0  0  0  0  0  0  0  0  0  # atno 17371 bound_to 10713
  140.3200  134.2927  155.7248 LP  0  0  0  0  0  0  0  0  0  0  0  0  # atno 17394 bound_to 11000
  141.2109  133.7704  156.9897 LP  0  0  0  0  0  0  0  0  0  0  0  0  # atno 17395 bound_to 11000

$$$$
