AV-unprocessed.smi:2439|AV-procd|sdf|9606|dock8
  -GOLD-   2272013243D 1   1.00000     0.00000
 Structure written by MMmdl.
 41 43  0  0  0  0  0  0  0  0  2 V2000
  154.5095  140.2069  159.1405 N   0  0  0  0  0  0  0  0  0  0  0  0
  153.6966  141.0144  159.3012 C   0  0  0  0  0  0  0  0  0  0  0  0
  152.6726  142.0326  159.5027 C   0  0  0  0  0  0  0  0  0  0  0  0
  152.9764  143.1582  160.2970 C   0  0  0  0  0  0  0  0  0  0  0  0
  151.9914  144.1424  160.4971 C   0  0  0  0  0  0  0  0  0  0  0  0
  150.7360  143.9613  159.8896 C   0  0  0  0  0  0  0  0  0  0  0  0
  150.4321  142.8899  159.1278 N   0  0  0  0  0  0  0  0  0  0  0  0
  151.3753  141.9357  158.9313 C   0  0  0  0  0  0  0  0  0  0  0  0
  151.0295  140.8293  158.1329 N   0  0  0  0  0  0  0  0  0  0  0  0
  151.1827  140.8415  156.6829 C   0  0  0  0  0  0  0  0  0  0  0  0
  149.9507  140.2766  155.9552 C   0  0  1  0  0  0  0  0  0  0  0  0
  148.6443  140.8583  156.5238 C   0  0  0  0  0  0  0  0  0  0  0  0
  147.4750  140.3700  155.7515 N   0  3  1  0  0  0  0  0  0  0  0  0
  146.1675  140.8447  156.2754 C   0  0  0  0  0  0  0  0  0  0  0  0
  145.9036  142.3230  155.9301 C   0  0  0  0  0  0  0  0  0  0  0  0
  146.0320  142.5695  154.4208 C   0  0  0  0  0  0  0  0  0  0  0  0
  147.3931  142.0752  153.9108 C   0  0  0  0  0  0  0  0  0  0  0  0
  147.6255  140.5951  154.2872 C   0  0  1  0  0  0  0  0  0  0  0  0
  148.9913  140.0675  153.8055 C   0  0  0  0  0  0  0  0  0  0  0  0
  150.0402  140.6357  154.5804 O   0  0  0  0  0  0  0  0  0  0  0  0
  153.9509  143.2708  160.7506 H   0  0  0  0  0  0  0  0  0  0  0  0
  152.1939  145.0149  161.1007 H   0  0  0  0  0  0  0  0  0  0  0  0
  149.9541  144.6948  160.0196 H   0  0  0  0  0  0  0  0  0  0  0  0
  150.5664  140.0388  158.5587 H   0  0  0  0  0  0  0  0  0  0  0  0
  151.3875  141.8596  156.3497 H   0  0  0  0  0  0  0  0  0  0  0  0
  152.0658  140.2565  156.4247 H   0  0  0  0  0  0  0  0  0  0  0  0
  149.9306  139.1895  156.0512 H   0  0  0  0  0  0  0  0  0  0  0  0
  148.5334  140.5642  157.5684 H   0  0  0  0  0  0  0  0  0  0  0  0
  148.6863  141.9474  156.5059 H   0  0  0  0  0  0  0  0  0  0  0  0
  145.3808  140.2265  155.8408 H   0  0  0  0  0  0  0  0  0  0  0  0
  146.1187  140.6891  157.3537 H   0  0  0  0  0  0  0  0  0  0  0  0
  144.9066  142.6083  156.2670 H   0  0  0  0  0  0  0  0  0  0  0  0
  146.6000  142.9655  156.4692 H   0  0  0  0  0  0  0  0  0  0  0  0
  145.2315  142.0481  153.8945 H   0  0  0  0  0  0  0  0  0  0  0  0
  145.9100  143.6305  154.2008 H   0  0  0  0  0  0  0  0  0  0  0  0
  147.4405  142.1947  152.8280 H   0  0  0  0  0  0  0  0  0  0  0  0
  148.1872  142.7012  154.3191 H   0  0  0  0  0  0  0  0  0  0  0  0
  146.8526  140.0065  153.7905 H   0  0  0  0  0  0  0  0  0  0  0  0
  149.0299  138.9793  153.8763 H   0  0  0  0  0  0  0  0  0  0  0  0
  149.1479  140.3169  152.7558 H   0  0  0  0  0  0  0  0  0  0  0  0
  147.4758  139.3677  155.8787 H   0  0  0  0  0  0  0  0  0  0  0  0
  1  2  3  0  0  0  0
  2  3  1  0  0  0  0
  3  8  1  0  0  0  0
  3  4  2  0  0  0  0
  4  5  1  0  0  0  0
  4 21  1  0  0  0  0
  5  6  2  0  0  0  0
  5 22  1  0  0  0  0
  6  7  1  0  0  0  0
  6 23  1  0  0  0  0
  7  8  2  0  0  0  0
  8  9  1  0  0  0  0
  9 10  1  0  0  0  0
  9 24  1  0  0  0  0
 10 11  1  0  0  0  0
 10 25  1  0  0  0  0
 10 26  1  0  0  0  0
 11 20  1  0  0  0  0
 11 12  1  0  0  0  0
 11 27  1  0  0  0  0
 12 13  1  0  0  0  0
 12 28  1  0  0  0  0
 12 29  1  0  0  0  0
 13 18  1  0  0  0  0
 13 14  1  0  0  0  0
 13 41  1  0  0  0  0
 14 15  1  0  0  0  0
 14 30  1  0  0  0  0
 14 31  1  0  0  0  0
 15 16  1  0  0  0  0
 15 32  1  0  0  0  0
 15 33  1  0  0  0  0
 16 17  1  0  0  0  0
 16 34  1  0  0  0  0
 16 35  1  0  0  0  0
 17 18  1  0  0  0  0
 17 36  1  0  0  0  0
 17 37  1  0  0  0  0
 18 19  1  0  0  0  0
 18 38  1  0  0  0  0
 19 20  1  0  0  0  0
 19 39  1  0  0  0  0
 19 40  1  0  0  0  0
M  CHG  1  13   1
M  END
> <s_m_source_file>
AV-unprocessed.smi

> <i_m_source_file_index>
2439

> <i_lp_mmshare_version>
43012

> <i_f3d_flags>
0

> <s_epik_input>
TiNDYzFbY0hdW2NIXVtjSF1uYzFbTkhdW0NIMl1bQ0BIXShbQ0gyXTIpT1tDSDJdW0NAQEhdKE4yMylbQ0gyXVtDSDJdW0NIMl1bQ0gyXTM=

> <s_epik_cmdline>
J2VwaWtfcHl0aG9uJywgJy1waCcsICc3LjAnLCAnLXRuJywgJzgnLCAnLW1hJywgJzIwMCcsICctbWV0YWxfYmluZGluZycsICctaW1hZScsICc8aW5maWxlLm1hZT4nLCAnLW9tYWUnLCAnPG91dGZpbGUubWFlPic=

> <r_epik_Ionization_Penalty>
0.0803594

> <r_epik_Ionization_Penalty_Charging>
0.0803403

> <r_epik_Ionization_Penalty_Neutral>
1.90988e-05

> <r_epik_State_Penalty>
0.0711481

> <r_epik_Charging_Adjusted_Penalty>
0.151488

> <i_epik_Tot_Q>
1

> <i_epik_Tot_abs_Q>
1

> <r_epik_Metal_State_Penalty>
0.0711482

> <b_epik_Metal_Only>
0

> <s_lp_Force_Field>
OPLS_2005

> <r_lp_Energy>
29.8986

> <b_lp_Chiralities_Consistent>
1

> <s_lp_Variant>
AV-unprocessed.smi:2439-4

> <Gold.Version>
5.8.1

> <Gold.Id.Protein>
6NUR|6NUR_protein|mol2

> <Gold.PLP.Fitness>
38.8476

> <Gold.PLP.PLP>
-35.0052

> <Gold.PLP.part.hbond>
-2.0000

> <Gold.PLP.part.metal>
0.0000

> <Gold.PLP.part.buried>
-3.6397

> <Gold.PLP.part.nonpolar>
-29.2654

> <Gold.PLP.part.repulsive>
0.3012

> <Gold.PLP.ligand.clash>
0.0000

> <Gold.PLP.ligand.torsion>
0.9362

> <Gold.PLP.Chemscore.Hbond>
1.9040

> <Gold.PLP.Chemscore.CHOScore>
0.0000

> <Gold.PLP.Chemscore.Metal>
0.0000

> <Gold.Chemscore.Hbonds>
donor molecule, donor type, donor heavy atom, donor atom, acceptor molecule, acceptor atom, score
      P1  H  7989  7998       L1    20  0.82
      P1  H  7997  8008       L1     1  0.93

> <Gold.PLP.Chemscore.Internal.Correction>
0.0028

> <Gold.Rescore>
     Score         DG    S(hbond)    S(metal)    S(lipo)     H(rot)  DE(clash)    DE(int)     intcor
     15.50     -17.23       1.49        0.00      85.56       1.27       0.88       0.84       ----

> <Gold.Chemscore.Fitness>
15.5026

> <Gold.Chemscore.DG>
-17.2261

> <Gold.Chemscore.ZeroCoef>
-5.4800

> <Gold.Chemscore.Hbond>
1.4900

> <Gold.Chemscore.Metal>
0.0000

> <Gold.Chemscore.Lipo>
85.5571

> <Gold.Chemscore.Internal_Hbond>
0.0000

> <Gold.Chemscore.DEClash>
0.8835

> <Gold.Chemscore.DEInternal>
0.8400

> <Gold.Chemscore.Rot>
1.2659

> <Gold.Chemscore.Internal.Correction>
   9.000000E+99

> <Gold.Chemscore.Hbonds>
donor molecule, donor type, donor heavy atom, donor atom, acceptor molecule, acceptor atom, score
      P1  H  7989  7998       L1    20  0.60
      P1  H  7997  8008       L1     1  0.76

> <Gold.Chemscore.Hbond.Weighted>
-4.9767

> <Gold.Chemscore.Metal.Weighted>
-0.0000

> <Gold.Chemscore.Lipo.Weighted>
-10.0102

> <Gold.Chemscore.Internal_Hbond.Weighted>
0.0000

> <Gold.Chemscore.DEClash.Weighted>
0.8835

> <Gold.Chemscore.DEInternal.Weighted>
0.8400

> <Gold.Chemscore.Rot.Weighted>
3.2408

> <Gold.Chemscore.Internal.Correction.Weighted>
   9.000000E+99

> <Gold.Protein.RotatedTorsions>
[ 6907 6896 6895 6894 ] final -152.67 input  -60.11 | X-H torsion
[ 7974 7965 7964 7962 ] final  161.68 input  175.53 | X-H torsion
[ 8008 7997 7996 7995 ] final -117.63 input   59.86 | X-H torsion
[ 10167 10162 10161 10158 ] final  -36.16 input  -65.29 | X-H torsion
[ 10718 10713 10712 10709 ] final -147.33 input   66.30 | X-H torsion
[ 10763 10752 10751 10750 ] final  176.07 input  -60.55 | X-H torsion
[ 11005 11000 10999 10996 ] final  128.75 input  -57.11 | X-H torsion

> <Gold.Protein.ActiveResidues>
 VAL166  LYS551  ARG553  GLY616  TRP617  ASP618  TYR619  PRO620  LYS621  CYS622 
 ASP623  PHE694  ASN695  SER759  ASP760  ASP761  ALA762  ILE779  LEU786  VAL792 
 PHE793  MET794  SER795  GLU796  ALA797  LYS798  CYS799  TRP800  GLU811  SER814 

> <Gold.Protein.RotatedAtoms>
  151.2312  133.4449  159.2603 H   0  0  0  0  0  0  0  0  0  0  0  0  # atno 6907 bound_to 6896
  151.0793  134.9848  159.8358 H   0  0  0  0  0  0  0  0  0  0  0  0  # atno 6908 bound_to 6896
  152.5422  134.2253  159.8856 H   0  0  0  0  0  0  0  0  0  0  0  0  # atno 6909 bound_to 6896
  144.7674  139.7932  143.6310 H   0  0  0  0  0  0  0  0  0  0  0  0  # atno 7974 bound_to 7965
  155.0868  140.0394  157.2656 H   0  0  0  0  0  0  0  0  0  0  0  0  # atno 8008 bound_to 7997
  154.6863  140.2644  155.6832 H   0  0  0  0  0  0  0  0  0  0  0  0  # atno 8009 bound_to 7997
  156.2713  140.2768  156.1426 H   0  0  0  0  0  0  0  0  0  0  0  0  # atno 8010 bound_to 7997
  140.7149  143.3427  151.2322 H   0  0  0  0  0  0  0  0  0  0  0  0  # atno 10167 bound_to 10162
  156.4062  130.7958  151.2173 H   0  0  0  0  0  0  0  0  0  0  0  0  # atno 10718 bound_to 10713
  154.4762  135.2773  155.1605 H   0  0  0  0  0  0  0  0  0  0  0  0  # atno 10763 bound_to 10752
  154.3334  135.6185  153.5566 H   0  0  0  0  0  0  0  0  0  0  0  0  # atno 10764 bound_to 10752
  152.9870  135.5771  154.5153 H   0  0  0  0  0  0  0  0  0  0  0  0  # atno 10765 bound_to 10752
  139.9577  134.9609  156.9047 H   0  0  0  0  0  0  0  0  0  0  0  0  # atno 11005 bound_to 11000
  146.1792  139.4977  142.9877 LP  0  0  0  0  0  0  0  0  0  0  0  0  # atno 17320 bound_to 7965
  145.6429  141.0280  143.1802 LP  0  0  0  0  0  0  0  0  0  0  0  0  # atno 17321 bound_to 7965
  139.6939  143.9646  152.2873 LP  0  0  0  0  0  0  0  0  0  0  0  0  # atno 17342 bound_to 10162
  139.9316  144.6737  150.8357 LP  0  0  0  0  0  0  0  0  0  0  0  0  # atno 17343 bound_to 10162
  157.7505  131.0271  150.3993 LP  0  0  0  0  0  0  0  0  0  0  0  0  # atno 17370 bound_to 10713
  156.4282  130.3966  149.6778 LP  0  0  0  0  0  0  0  0  0  0  0  0  # atno 17371 bound_to 10713
  140.5570  134.0571  155.7387 LP  0  0  0  0  0  0  0  0  0  0  0  0  # atno 17394 bound_to 11000
  141.1251  133.9396  157.2651 LP  0  0  0  0  0  0  0  0  0  0  0  0  # atno 17395 bound_to 11000

$$$$
