#       Name:                AV-unprocessed.smi:2452
#       Creating user name   scv26
#       Creation time:       Fri Mar 27 13:32:32 2020


#       File generated by GOLD software.
#

@<TRIPOS>MOLECULE
AV-unprocessed.smi:2452
    41    42     1
SMALL
NO_CHARGES


@<TRIPOS>ATOM
      1 ****        -3.2728  -3.2542  -2.0447 C.3            1 S1                 0.0000
      2 ****        -3.5555  -1.8489  -1.5975 C.2            1 S1                 0.0000
      3 ****        -4.7608  -1.3304  -1.7668 N.2            1 S1                 0.0000
      4 ****        -4.6996  -0.0208  -1.2662 O.3            1 S1                 0.0000
      5 ****        -3.4451   0.2232  -0.7987 C.2            1 S1                 0.0000
      6 ****        -3.1938   1.6007  -0.2799 C.3            1 S1                 0.0000
      7 ****        -2.6973  -0.9124  -0.9638 C.2            1 S1                 0.0000
      8 ****        -1.3317  -1.1495  -0.6618 N.am           1 S1                 0.0000
      9 ****        -0.6233  -0.6419   0.3587 C.2            1 S1                 0.0000
     10 ****        -1.0735   0.0995   1.2317 O.2            1 S1                 0.0000
     11 ****         0.6481  -1.0634   0.3268 N.am           1 S1                 0.0000
     12 ****         1.6764  -0.6933   1.2927 C.3            1 S1                 0.0000
     13 ****         2.2458   0.7059   1.0052 C.3            1 S1                 0.0000
     14 ****         3.3168   1.1538   1.9978 C.3            1 S1                 0.0000
     15 ****         4.1549   2.1417   1.1994 C.3            1 S1                 0.0000
     16 ****         3.7223   1.9146  -0.2521 C.3            1 S1                 0.0000
     17 ****         2.9512   0.7221  -0.2257 O.3            1 S1                 0.0000
     18 ****        -2.2082  -3.4065  -2.2226 H              1 S1                 0.0000
     19 ****        -3.7975  -3.4890  -2.9714 H              1 S1                 0.0000
     20 ****        -3.5895  -3.9743  -1.2900 H              1 S1                 0.0000
     21 ****        -2.1866   1.9342  -0.5297 H              1 S1                 0.0000
     22 ****        -3.3075   1.6329   0.8036 H              1 S1                 0.0000
     23 ****        -3.8961   2.3139  -0.7116 H              1 S1                 0.0000
     24 ****        -0.8665  -1.8367  -1.2364 H              1 S1                 0.0000
     25 ****         0.9309  -1.6734  -0.4260 H              1 S1                 0.0000
     26 ****         1.2649  -0.7330   2.3026 H              1 S1                 0.0000
     27 ****         2.4711  -1.4388   1.2524 H              1 S1                 0.0000
     28 ****         1.4475   1.4500   0.9692 H              1 S1                 0.0000
     29 ****         2.8922   1.5898   2.9026 H              1 S1                 0.0000
     30 ****         3.9375   0.3064   2.2927 H              1 S1                 0.0000
     31 ****         3.9612   3.1713   1.5027 H              1 S1                 0.0000
     32 ****         5.2188   1.9456   1.3370 H              1 S1                 0.0000
     33 ****         3.0959   2.7380  -0.5986 H              1 S1                 0.0000
     34 ****         4.5687   1.8217  -0.9332 H              1 S1                 0.0000
     35 ****        -5.5565  -1.7815  -2.1708 LP             1 S1                 0.0000
     36 ****        -5.3596   0.0838  -0.5222 LP             1 S1                 0.0000
     37 ****        -4.9157   0.6267  -1.9969 LP             1 S1                 0.0000
     38 ****        -2.0370   0.3666   1.2129 LP             1 S1                 0.0000
     39 ****        -0.4758   0.4349   1.9600 LP             1 S1                 0.0000
     40 ****         2.3066   0.7139  -0.9901 LP             1 S1                 0.0000
     41 ****         3.5514  -0.0754  -0.2872 LP             1 S1                 0.0000
@<TRIPOS>BOND
    1    1    2 1     
    2    1   18 1     
    3    1   19 1     
    4    1   20 1     
    5    2    7 1     
    6    2    3 2     
    7    3    4 1     
    8    4    5 1     
    9    5    6 1     
   10    5    7 2     
   11    6   21 1     
   12    6   22 1     
   13    6   23 1     
   14    7    8 1     
   15    8    9 am    
   16    8   24 1     
   17    9   10 2     
   18    9   11 am    
   19   11   12 1     
   20   11   25 1     
   21   12   13 1     
   22   12   26 1     
   23   12   27 1     
   24   13   17 1     
   25   13   14 1     
   26   13   28 1     
   27   14   15 1     
   28   14   29 1     
   29   14   30 1     
   30   15   16 1     
   31   15   31 1     
   32   15   32 1     
   33   16   17 1     
   34   16   33 1     
   35   16   34 1     
   36    3   35 1     
   37    4   36 1     
   38    4   37 1     
   39   10   38 1     
   40   10   39 1     
   41   17   40 1     
   42   17   41 1     
@<TRIPOS>SUBSTRUCTURE
      1 S1             1
@<TRIPOS>SET
LONE_PAIRS      STATIC     ATOMS    <user>   **** ""
7 35 36 37 38 39 40 41
DONOR_HYDROGENS      STATIC     ATOMS    <user>   **** ""
2 24 25
ATOM$BLUE        STATIC     ATOMS    COLORGROUP SYSTEM
7 35 36 37 38 39 40 41
ATOM$RED        STATIC     ATOMS    COLORGROUP SYSTEM
2 24 25
