#       Name:                AV-unprocessed.smi:2054
#       Creating user name   scv26
#       Creation time:       Fri Mar 27 11:00:04 2020


#       File generated by GOLD software.
#

@<TRIPOS>MOLECULE
AV-unprocessed.smi:2054
    46    47     1
SMALL
NO_CHARGES


@<TRIPOS>ATOM
      1 ****        -5.6620  -3.3148   0.8421 C.3            1 S1                 0.0000
      2 ****        -5.6059  -2.1051  -0.5438 S.o2           1 S1                 0.0000
      3 ****        -5.8269  -2.8504  -1.7928 O.2            1 S1                 0.0000
      4 ****        -6.4604  -0.9540  -0.2146 O.2            1 S1                 0.0000
      5 ****        -3.9578  -1.5627  -0.5300 N.3            1 S1                 0.0000
      6 ****        -3.5239  -0.7390   0.6164 C.3            1 S1                 0.0000
      7 ****        -1.9913  -0.6691   0.7166 C.3            1 S1                 0.0000
      8 ****        -1.3708  -0.1646  -0.5963 C.3            1 S1                 0.0000
      9 ****         0.1597  -0.1024  -0.5051 C.2            1 S1                 0.0000
     10 ****         0.8106  -1.1171  -0.2528 O.2            1 S1                 0.0000
     11 ****         0.7246   1.0971  -0.7134 N.am           1 S1                 0.0000
     12 ****         2.1584   1.3606  -0.6843 C.3            1 S1                 0.0000
     13 ****         2.6849   1.4819   0.7557 C.3            1 S1                 0.0000
     14 ****         4.1766   1.7489   0.7997 C.ar           1 S1                 0.0000
     15 ****         4.7036   3.0463   0.9789 C.ar           1 S1                 0.0000
     16 ****         6.1028   3.2240   1.0017 C.ar           1 S1                 0.0000
     17 ****         6.9438   2.1028   0.8447 C.ar           1 S1                 0.0000
     18 ****         6.3637   0.8300   0.6681 C.ar           1 S1                 0.0000
     19 ****         5.0189   0.7006   0.6512 N.pl3          1 S1                 1.0000
     20 ****        -1.8219  -1.0984  -1.7303 C.3            1 S1                 0.0000
     21 ****        -3.3551  -1.1721  -1.8206 C.3            1 S1                 0.0000
     22 ****        -6.6468  -3.7800   0.8715 H              1 S1                 0.0000
     23 ****        -5.4795  -2.8101   1.7895 H              1 S1                 0.0000
     24 ****        -4.9052  -4.0830   0.6850 H              1 S1                 0.0000
     25 ****        -3.9415   0.2629   0.5089 H              1 S1                 0.0000
     26 ****        -3.9284  -1.1486   1.5408 H              1 S1                 0.0000
     27 ****        -1.7118  -0.0128   1.5418 H              1 S1                 0.0000
     28 ****        -1.6033  -1.6586   0.9647 H              1 S1                 0.0000
     29 ****        -1.7504   0.8388  -0.7982 H              1 S1                 0.0000
     30 ****         0.1183   1.8787  -0.9173 H              1 S1                 0.0000
     31 ****         2.6901   0.5753  -1.2242 H              1 S1                 0.0000
     32 ****         2.3426   2.2887  -1.2261 H              1 S1                 0.0000
     33 ****         2.1620   2.2844   1.2779 H              1 S1                 0.0000
     34 ****         2.4796   0.5674   1.3140 H              1 S1                 0.0000
     35 ****         4.0466   3.8959   1.0955 H              1 S1                 0.0000
     36 ****         6.5257   4.2088   1.1373 H              1 S1                 0.0000
     37 ****         8.0180   2.2177   0.8590 H              1 S1                 0.0000
     38 ****         6.9300  -0.0811   0.5409 H              1 S1                 0.0000
     39 ****        -1.4190  -0.7541  -2.6835 H              1 S1                 0.0000
     40 ****        -1.4246  -2.1026  -1.5735 H              1 S1                 0.0000
     41 ****        -3.6292  -1.8918  -2.5915 H              1 S1                 0.0000
     42 ****        -3.7661  -0.2089  -2.1256 H              1 S1                 0.0000
     43 ****         4.6205  -0.2300   0.5217 H              1 S1                 0.0000
     44 ****        -3.5276  -2.4467  -0.3470 LP             1 S1                 0.0000
     45 ****         0.3419  -1.9882  -0.1060 LP             1 S1                 0.0000
     46 ****         1.8078  -1.0699  -0.1947 LP             1 S1                 0.0000
@<TRIPOS>BOND
    1    1    2 1     
    2    1   22 1     
    3    1   23 1     
    4    1   24 1     
    5    2    3 2     
    6    2    4 2     
    7    2    5 1     
    8    5   21 1     
    9    5    6 1     
   10    6    7 1     
   11    6   25 1     
   12    6   26 1     
   13    7    8 1     
   14    7   27 1     
   15    7   28 1     
   16    8    9 1     
   17    8   20 1     
   18    8   29 1     
   19    9   10 2     
   20    9   11 am    
   21   11   12 1     
   22   11   30 1     
   23   12   13 1     
   24   12   31 1     
   25   12   32 1     
   26   13   14 1     
   27   13   33 1     
   28   13   34 1     
   29   14   19 ar    
   30   14   15 ar    
   31   15   16 ar    
   32   15   35 1     
   33   16   17 ar    
   34   16   36 1     
   35   17   18 ar    
   36   17   37 1     
   37   18   19 ar    
   38   18   38 1     
   39   19   43 1     
   40   20   21 1     
   41   20   39 1     
   42   20   40 1     
   43   21   41 1     
   44   21   42 1     
   45    5   44 1     
   46   10   45 1     
   47   10   46 1     
@<TRIPOS>SUBSTRUCTURE
      1 S1             1
@<TRIPOS>SET
LONE_PAIRS      STATIC     ATOMS    <user>   **** ""
5 3 4 44 45 46
DONOR_HYDROGENS      STATIC     ATOMS    <user>   **** ""
2 30 43
ATOM$BLUE        STATIC     ATOMS    COLORGROUP SYSTEM
5 3 4 44 45 46
ATOM$RED        STATIC     ATOMS    COLORGROUP SYSTEM
2 30 43
