AV-unprocessed.smi:618|AV-procd|sdf|3078|dock2
  -GOLD-   22720 0 03D 1   1.00000     0.00000
 Structure written by MMmdl.
 41 43  0  0  0  0  0  0  0  0  2 V2000
  150.3040  135.0867  156.0922 O   0  0  0  0  0  0  0  0  0  0  0  0
  149.8815  135.3801  154.9740 C   0  0  0  0  0  0  0  0  0  0  0  0
  149.1720  134.5367  154.2115 N   0  0  0  0  0  0  0  0  0  0  0  0
  148.7923  133.1811  154.5956 C   0  0  0  0  0  0  0  0  0  0  0  0
  148.2577  132.3750  153.3983 C   0  0  2  0  0  0  0  0  0  0  0  0
  147.5204  133.2663  152.3865 C   0  0  0  0  0  0  0  0  0  0  0  0
  146.9756  132.4689  151.2583 N   0  3  2  0  0  0  0  0  0  0  0  0
  146.0223  133.2436  150.4327 C   0  0  0  0  0  0  0  0  0  0  0  0
  144.6092  132.8530  150.9041 C   0  0  0  0  0  0  0  0  0  0  0  0
  144.8124  131.7715  151.9709 C   0  0  0  0  0  0  0  0  0  0  0  0
  146.2307  131.2699  151.7018 C   0  0  2  0  0  0  0  0  0  0  0  0
  146.9136  130.5193  152.8632 C   0  0  0  0  0  0  0  0  0  0  0  0
  147.3258  131.4168  153.8833 O   0  0  0  0  0  0  0  0  0  0  0  0
  150.0703  136.5566  154.3527 N   0  0  0  0  0  0  0  0  0  0  0  0
  150.7472  137.7109  154.8313 C   0  0  0  0  0  0  0  0  0  0  0  0
  151.7292  137.5351  155.8278 C   0  0  0  0  0  0  0  0  0  0  0  0
  152.4273  138.6583  156.3097 C   0  0  0  0  0  0  0  0  0  0  0  0
  152.1210  139.9206  155.7660 C   0  0  0  0  0  0  0  0  0  0  0  0
  151.1962  140.1055  154.8006 N   0  0  0  0  0  0  0  0  0  0  0  0
  150.5288  139.0237  154.3443 C   0  0  0  0  0  0  0  0  0  0  0  0
  148.8674  134.8552  153.3031 H   0  0  0  0  0  0  0  0  0  0  0  0
  149.6662  132.6874  155.0216 H   0  0  0  0  0  0  0  0  0  0  0  0
  148.0439  133.2245  155.3887 H   0  0  0  0  0  0  0  0  0  0  0  0
  149.0886  131.8716  152.9007 H   0  0  0  0  0  0  0  0  0  0  0  0
  146.7102  133.7943  152.8923 H   0  0  0  0  0  0  0  0  0  0  0  0
  148.1943  134.0266  151.9899 H   0  0  0  0  0  0  0  0  0  0  0  0
  146.1983  134.3190  150.4891 H   0  0  0  0  0  0  0  0  0  0  0  0
  146.1544  132.9502  149.3905 H   0  0  0  0  0  0  0  0  0  0  0  0
  144.0668  133.7073  151.3105 H   0  0  0  0  0  0  0  0  0  0  0  0
  144.0289  132.4633  150.0666 H   0  0  0  0  0  0  0  0  0  0  0  0
  144.7512  132.2158  152.9654 H   0  0  0  0  0  0  0  0  0  0  0  0
  144.0673  130.9774  151.9140 H   0  0  0  0  0  0  0  0  0  0  0  0
  146.1780  130.5927  150.8475 H   0  0  0  0  0  0  0  0  0  0  0  0
  146.2332  129.7813  153.2884 H   0  0  0  0  0  0  0  0  0  0  0  0
  147.7812  129.9670  152.4982 H   0  0  0  0  0  0  0  0  0  0  0  0
  149.7320  136.6170  153.4034 H   0  0  0  0  0  0  0  0  0  0  0  0
  151.9443  136.5533  156.2239 H   0  0  0  0  0  0  0  0  0  0  0  0
  153.1802  138.5550  157.0770 H   0  0  0  0  0  0  0  0  0  0  0  0
  152.6364  140.8044  156.1120 H   0  0  0  0  0  0  0  0  0  0  0  0
  149.8225  139.2324  153.5562 H   0  0  0  0  0  0  0  0  0  0  0  0
  147.7576  132.1767  150.6892 H   0  0  0  0  0  0  0  0  0  0  0  0
  1  2  2  0  0  0  0
  2  3  1  0  0  0  0
  2 14  1  0  0  0  0
  3  4  1  0  0  0  0
  3 21  1  0  0  0  0
  4  5  1  0  0  0  0
  4 22  1  0  0  0  0
  4 23  1  0  0  0  0
  5 13  1  0  0  0  0
  5  6  1  0  0  0  0
  5 24  1  0  0  0  0
  6  7  1  0  0  0  0
  6 25  1  0  0  0  0
  6 26  1  0  0  0  0
  7 11  1  0  0  0  0
  7  8  1  0  0  0  0
  7 41  1  0  0  0  0
  8  9  1  0  0  0  0
  8 27  1  0  0  0  0
  8 28  1  0  0  0  0
  9 10  1  0  0  0  0
  9 29  1  0  0  0  0
  9 30  1  0  0  0  0
 10 11  1  0  0  0  0
 10 31  1  0  0  0  0
 10 32  1  0  0  0  0
 11 12  1  0  0  0  0
 11 33  1  0  0  0  0
 12 13  1  0  0  0  0
 12 34  1  0  0  0  0
 12 35  1  0  0  0  0
 14 15  1  0  0  0  0
 14 36  1  0  0  0  0
 15 20  1  0  0  0  0
 15 16  2  0  0  0  0
 16 17  1  0  0  0  0
 16 37  1  0  0  0  0
 17 18  2  0  0  0  0
 17 38  1  0  0  0  0
 18 19  1  0  0  0  0
 18 39  1  0  0  0  0
 19 20  2  0  0  0  0
 20 40  1  0  0  0  0
M  CHG  1   7   1
M  END
> <s_m_source_file>
AV-unprocessed.smi

> <i_m_source_file_index>
618

> <i_lp_mmshare_version>
43012

> <i_f3d_flags>
0

> <s_epik_input>
W2NIXTFuW2NIXVtjSF1bY0hdYzFbTkhdQyg9TylbTkhdW0NIMl1bQ0BIXShbQ0gyXTIpT1tDSDJdW0NAQEhdKE4yMylbQ0gyXVtDSDJdW0NIMl0z

> <s_epik_cmdline>
J2VwaWtfcHl0aG9uJywgJy1waCcsICc3LjAnLCAnLXRuJywgJzgnLCAnLW1hJywgJzIwMCcsICctbWV0YWxfYmluZGluZycsICctaW1hZScsICc8aW5maWxlLm1hZT4nLCAnLW9tYWUnLCAnPG91dGZpbGUubWFlPic=

> <r_epik_Ionization_Penalty>
0.111044

> <r_epik_Ionization_Penalty_Charging>
0.10673

> <r_epik_Ionization_Penalty_Neutral>
0.00431361

> <r_epik_State_Penalty>
0.0978747

> <r_epik_Charging_Adjusted_Penalty>
0.204605

> <i_epik_Tot_Q>
1

> <i_epik_Tot_abs_Q>
1

> <r_epik_Metal_State_Penalty>
0.0947591

> <b_epik_Metal_Only>
0

> <s_lp_Force_Field>
OPLS_2005

> <r_lp_Energy>
38.4037

> <b_lp_Chiralities_Consistent>
1

> <s_lp_Variant>
AV-unprocessed.smi:618-5

> <Gold.Version>
5.8.1

> <Gold.Id.Protein>
6NUR|6NUR_protein|mol2

> <Gold.PLP.Fitness>
49.7796

> <Gold.PLP.PLP>
-35.8923

> <Gold.PLP.part.hbond>
-4.8445

> <Gold.PLP.part.metal>
0.0000

> <Gold.PLP.part.buried>
-2.6754

> <Gold.PLP.part.nonpolar>
-28.4372

> <Gold.PLP.part.repulsive>
0.2997

> <Gold.PLP.ligand.clash>
0.0000

> <Gold.PLP.ligand.torsion>
0.5340

> <Gold.PLP.Chemscore.Hbond>
3.9840

> <Gold.PLP.Chemscore.CHOScore>
1.0000

> <Gold.PLP.Chemscore.Metal>
0.0000

> <Gold.Chemscore.Hbonds>
donor molecule, donor type, donor heavy atom, donor atom, acceptor molecule, acceptor atom, score
      L1  H     3    21       P1  7948  0.98
      L1  H     7    41       P1 10747  0.98
      L1  H    14    36       P1  7948  1.00
      P1  H  7989  7998       L1    19  1.00
      L1  C    20    40       P1  7957  1.00

> <Gold.PLP.Chemscore.Internal.Correction>
0.0032

> <Gold.Rescore>
     Score         DG    S(hbond)    S(metal)    S(lipo)     H(rot)  DE(clash)    DE(int)     intcor
     19.75     -21.74       2.77        0.00      87.49       1.27       0.01       1.98       ----

> <Gold.Chemscore.Fitness>
19.7527

> <Gold.Chemscore.DG>
-21.7433

> <Gold.Chemscore.ZeroCoef>
-5.4800

> <Gold.Chemscore.Hbond>
2.7743

> <Gold.Chemscore.Metal>
0.0000

> <Gold.Chemscore.Lipo>
87.4946

> <Gold.Chemscore.Internal_Hbond>
0.0000

> <Gold.Chemscore.DEClash>
0.0121

> <Gold.Chemscore.DEInternal>
1.9785

> <Gold.Chemscore.Rot>
1.2656

> <Gold.Chemscore.Internal.Correction>
   9.000000E+99

> <Gold.Chemscore.Hbonds>
donor molecule, donor type, donor heavy atom, donor atom, acceptor molecule, acceptor atom, score
      L1  H     3    21       P1  7948  0.28
      L1  H     7    41       P1 10747  0.93
      L1  H    14    36       P1  7948  0.40
      P1  H  7989  7998       L1    19  0.46

> <Gold.Chemscore.Hbond.Weighted>
-9.2663

> <Gold.Chemscore.Metal.Weighted>
-0.0000

> <Gold.Chemscore.Lipo.Weighted>
-10.2369

> <Gold.Chemscore.Internal_Hbond.Weighted>
0.0000

> <Gold.Chemscore.DEClash.Weighted>
0.0121

> <Gold.Chemscore.DEInternal.Weighted>
1.9785

> <Gold.Chemscore.Rot.Weighted>
3.2399

> <Gold.Chemscore.Internal.Correction.Weighted>
   9.000000E+99

> <Gold.Protein.RotatedTorsions>
[ 6907 6896 6895 6894 ] final  -44.28 input  -60.11 | X-H torsion
[ 7974 7965 7964 7962 ] final  105.64 input  175.53 | X-H torsion
[ 8008 7997 7996 7995 ] final   74.62 input   59.86 | X-H torsion
[ 10167 10162 10161 10158 ] final  -18.42 input  -65.29 | X-H torsion
[ 10718 10713 10712 10709 ] final   73.39 input   66.30 | X-H torsion
[ 10763 10752 10751 10750 ] final -102.14 input  -60.55 | X-H torsion
[ 11005 11000 10999 10996 ] final  -19.76 input  -57.11 | X-H torsion

> <Gold.Protein.ActiveResidues>
 VAL166  LYS551  ARG553  GLY616  TRP617  ASP618  TYR619  PRO620  LYS621  CYS622 
 ASP623  PHE694  ASN695  SER759  ASP760  ASP761  ALA762  ILE779  LEU786  VAL792 
 PHE793  MET794  SER795  GLU796  ALA797  LYS798  CYS799  TRP800  GLU811  SER814 

> <Gold.Protein.RotatedAtoms>
  150.9345  134.8759  159.7572 H   0  0  0  0  0  0  0  0  0  0  0  0  # atno 6907 bound_to 6896
  152.5053  134.4030  159.9433 H   0  0  0  0  0  0  0  0  0  0  0  0  # atno 6908 bound_to 6896
  151.4055  133.3704  159.2772 H   0  0  0  0  0  0  0  0  0  0  0  0  # atno 6909 bound_to 6896
  145.3170  139.2523  143.3732 H   0  0  0  0  0  0  0  0  0  0  0  0  # atno 7974 bound_to 7965
  155.8010  140.3476  155.5402 H   0  0  0  0  0  0  0  0  0  0  0  0  # atno 8008 bound_to 7997
  155.8538  140.0960  157.1678 H   0  0  0  0  0  0  0  0  0  0  0  0  # atno 8009 bound_to 7997
  154.4009  140.1371  156.3864 H   0  0  0  0  0  0  0  0  0  0  0  0  # atno 8010 bound_to 7997
  140.7258  143.4918  150.9982 H   0  0  0  0  0  0  0  0  0  0  0  0  # atno 10167 bound_to 10162
  157.6545  130.9626  150.1062 H   0  0  0  0  0  0  0  0  0  0  0  0  # atno 10718 bound_to 10713
  154.7711  135.4871  153.9651 H   0  0  0  0  0  0  0  0  0  0  0  0  # atno 10763 bound_to 10752
  153.1369  135.6764  153.9096 H   0  0  0  0  0  0  0  0  0  0  0  0  # atno 10764 bound_to 10752
  153.8782  135.3135  155.3423 H   0  0  0  0  0  0  0  0  0  0  0  0  # atno 10765 bound_to 10752
  140.8398  133.7935  155.9848 H   0  0  0  0  0  0  0  0  0  0  0  0  # atno 11005 bound_to 11000
  146.3096  140.3719  142.8675 LP  0  0  0  0  0  0  0  0  0  0  0  0  # atno 17320 bound_to 7965
  144.8970  140.7595  143.5891 LP  0  0  0  0  0  0  0  0  0  0  0  0  # atno 17321 bound_to 7965
  139.8623  143.7299  152.3172 LP  0  0  0  0  0  0  0  0  0  0  0  0  # atno 17342 bound_to 10162
  139.7519  144.7532  151.0494 LP  0  0  0  0  0  0  0  0  0  0  0  0  # atno 17343 bound_to 10162
  156.1971  130.3658  149.8835 LP  0  0  0  0  0  0  0  0  0  0  0  0  # atno 17370 bound_to 10713
  156.6748  130.8835  151.3567 LP  0  0  0  0  0  0  0  0  0  0  0  0  # atno 17371 bound_to 10713
  140.8907  134.2498  157.5095 LP  0  0  0  0  0  0  0  0  0  0  0  0  # atno 17394 bound_to 11000
  139.8703  134.9660  156.4548 LP  0  0  0  0  0  0  0  0  0  0  0  0  # atno 17395 bound_to 11000

$$$$
