AV-unprocessed.smi:1662|AV-procd|sdf|6660|dock1
  -GOLD-   22720 7373D 1   1.00000     0.00000
 Structure written by MMmdl.
 47 48  0  0  0  0  0  0  0  0  1 V2000
  146.6530  142.4685  153.8801 C   0  0  0  0  0  0  0  0  0  0  0  0
  146.6684  142.4639  155.3848 C   0  0  0  0  0  0  0  0  0  0  0  0
  147.6269  141.8096  155.9533 N   0  0  0  0  0  0  0  0  0  0  0  0
  147.7418  141.7514  157.3290 N   0  0  0  0  0  0  0  0  0  0  0  0
  148.9418  141.0373  157.7996 C   0  0  0  0  0  0  0  0  0  0  0  0
  150.2632  141.7840  157.5426 C   0  0  0  0  0  0  0  0  0  0  0  0
  150.5567  142.1188  156.3959 O   0  0  0  0  0  0  0  0  0  0  0  0
  151.0454  142.0415  158.6031 N   0  0  0  0  0  0  0  0  0  0  0  0
  152.3350  142.7254  158.5990 C   0  0  1  0  0  0  0  0  0  0  0  0
  152.1428  144.2412  158.3972 C   0  0  0  0  0  0  0  0  0  0  0  0
  151.4583  144.8933  159.6077 C   0  0  0  0  0  0  0  0  0  0  0  0
  152.2348  144.6029  160.8991 C   0  0  0  0  0  0  0  0  0  0  0  0
  152.4267  143.0907  161.1379 C   0  0  2  0  0  0  0  0  0  0  0  0
  153.1992  142.8646  162.4495 C   0  0  0  0  0  0  0  0  0  0  0  0
  153.1079  142.4227  159.9092 C   0  0  1  0  0  0  0  0  0  0  0  0
  153.3202  140.9056  160.0916 C   0  0  0  0  0  0  0  0  0  0  0  0
  146.8803  142.3443  158.2056 C   0  0  0  0  0  0  0  0  0  0  0  0
  147.0286  142.2785  159.4266 O   0  0  0  0  0  0  0  0  0  0  0  0
  145.7931  143.0779  157.5546 C   0  0  0  0  0  0  0  0  0  0  0  0
  144.8736  143.7208  158.4368 C   0  0  0  0  0  0  0  0  0  0  0  0
  144.1213  144.2541  159.1365 N   0  0  0  0  0  0  0  0  0  0  0  0
  145.6762  143.1511  156.2051 C   0  0  0  0  0  0  0  0  0  0  0  0
  144.5716  143.9073  155.4802 C   0  0  0  0  0  0  0  0  0  0  0  0
  145.7131  142.0686  153.5000 H   0  0  0  0  0  0  0  0  0  0  0  0
  147.4597  141.8637  153.4631 H   0  0  0  0  0  0  0  0  0  0  0  0
  146.7703  143.4817  153.4960 H   0  0  0  0  0  0  0  0  0  0  0  0
  148.8638  140.8180  158.8658 H   0  0  0  0  0  0  0  0  0  0  0  0
  149.0059  140.0639  157.3099 H   0  0  0  0  0  0  0  0  0  0  0  0
  150.7143  141.7277  159.5038 H   0  0  0  0  0  0  0  0  0  0  0  0
  152.9236  142.3425  157.7633 H   0  0  0  0  0  0  0  0  0  0  0  0
  153.1158  144.7086  158.2406 H   0  0  0  0  0  0  0  0  0  0  0  0
  151.5656  144.4356  157.4924 H   0  0  0  0  0  0  0  0  0  0  0  0
  151.3831  145.9700  159.4541 H   0  0  0  0  0  0  0  0  0  0  0  0
  150.4358  144.5249  159.7016 H   0  0  0  0  0  0  0  0  0  0  0  0
  153.2084  145.0929  160.8516 H   0  0  0  0  0  0  0  0  0  0  0  0
  151.7081  145.0497  161.7431 H   0  0  0  0  0  0  0  0  0  0  0  0
  151.4378  142.6476  161.2665 H   0  0  0  0  0  0  0  0  0  0  0  0
  154.2270  143.2201  162.3717 H   0  0  0  0  0  0  0  0  0  0  0  0
  153.2276  141.8110  162.7259 H   0  0  0  0  0  0  0  0  0  0  0  0
  152.7277  143.3951  163.2772 H   0  0  0  0  0  0  0  0  0  0  0  0
  154.0984  142.8676  159.8018 H   0  0  0  0  0  0  0  0  0  0  0  0
  152.3905  140.3940  160.3428 H   0  0  0  0  0  0  0  0  0  0  0  0
  154.0395  140.6928  160.8818 H   0  0  0  0  0  0  0  0  0  0  0  0
  153.7106  140.4536  159.1795 H   0  0  0  0  0  0  0  0  0  0  0  0
  143.8906  144.4053  156.1698 H   0  0  0  0  0  0  0  0  0  0  0  0
  143.9789  143.2252  154.8697 H   0  0  0  0  0  0  0  0  0  0  0  0
  144.9950  144.6730  154.8293 H   0  0  0  0  0  0  0  0  0  0  0  0
  1  2  1  0  0  0  0
  1 24  1  0  0  0  0
  1 25  1  0  0  0  0
  1 26  1  0  0  0  0
  2 22  1  0  0  0  0
  2  3  2  0  0  0  0
  3  4  1  0  0  0  0
  4  5  1  0  0  0  0
  4 17  1  0  0  0  0
  5  6  1  0  0  0  0
  5 27  1  0  0  0  0
  5 28  1  0  0  0  0
  6  7  2  0  0  0  0
  6  8  1  0  0  0  0
  8  9  1  0  0  0  0
  8 29  1  0  0  0  0
  9 15  1  0  0  0  0
  9 10  1  0  0  0  0
  9 30  1  0  0  0  0
 10 11  1  0  0  0  0
 10 31  1  0  0  0  0
 10 32  1  0  0  0  0
 11 12  1  0  0  0  0
 11 33  1  0  0  0  0
 11 34  1  0  0  0  0
 12 13  1  0  0  0  0
 12 35  1  0  0  0  0
 12 36  1  0  0  0  0
 13 14  1  0  0  0  0
 13 15  1  0  0  0  0
 13 37  1  0  0  0  0
 14 38  1  0  0  0  0
 14 39  1  0  0  0  0
 14 40  1  0  0  0  0
 15 16  1  0  0  0  0
 15 41  1  0  0  0  0
 16 42  1  0  0  0  0
 16 43  1  0  0  0  0
 16 44  1  0  0  0  0
 17 18  2  0  0  0  0
 17 19  1  0  0  0  0
 19 20  1  0  0  0  0
 19 22  2  0  0  0  0
 20 21  3  0  0  0  0
 22 23  1  0  0  0  0
 23 45  1  0  0  0  0
 23 46  1  0  0  0  0
 23 47  1  0  0  0  0
M  END
> <s_m_source_file>
AV-unprocessed.smi

> <i_m_source_file_index>
1662

> <i_lp_mmshare_version>
43012

> <i_f3d_flags>
0

> <s_epik_input>
TiNDYyhjMVtDSDNdKWMoPU8pbihuYzFbQ0gzXSlbQ0gyXUMoPU8pW05IXVtDQEBIXTJbQ0gyXVtDSDJdW0NIMl1bQ0BASF0oW0NIM10pW0NASF0yW0NIM10=

> <s_epik_cmdline>
J2VwaWtfcHl0aG9uJywgJy1waCcsICc3LjAnLCAnLXRuJywgJzgnLCAnLW1hJywgJzIwMCcsICctbWV0YWxfYmluZGluZycsICctaW1hZScsICc8aW5maWxlLm1hZT4nLCAnLW9tYWUnLCAnPG91dGZpbGUubWFlPic=

> <r_lp_tautomer_probability>
1

> <r_epik_Ionization_Penalty>
1.90709e-08

> <r_epik_Ionization_Penalty_Charging>
2.37982e-11

> <r_epik_Ionization_Penalty_Neutral>
1.90471e-08

> <r_epik_State_Penalty>
-0

> <r_epik_Charging_Adjusted_Penalty>
2.37982e-11

> <i_epik_Tot_Q>
0

> <i_epik_Tot_abs_Q>
0

> <r_epik_Metal_State_Penalty>
-0

> <b_epik_Metal_Only>
0

> <s_lp_Force_Field>
OPLS_2005

> <r_lp_Energy>
25.169

> <b_lp_Chiralities_Consistent>
1

> <s_lp_Variant>
AV-unprocessed.smi:1662-4

> <Gold.Version>
5.8.1

> <Gold.Id.Protein>
6NUR|6NUR_protein|mol2

> <Gold.PLP.Fitness>
49.7703

> <Gold.PLP.PLP>
-48.1049

> <Gold.PLP.part.hbond>
-1.2194

> <Gold.PLP.part.metal>
0.0000

> <Gold.PLP.part.buried>
-8.3778

> <Gold.PLP.part.nonpolar>
-38.0110

> <Gold.PLP.part.repulsive>
0.3976

> <Gold.PLP.ligand.clash>
0.0000

> <Gold.PLP.ligand.torsion>
0.3495

> <Gold.PLP.Chemscore.Hbond>
0.7840

> <Gold.PLP.Chemscore.CHOScore>
0.0000

> <Gold.PLP.Chemscore.Metal>
0.0000

> <Gold.Chemscore.Hbonds>
donor molecule, donor type, donor heavy atom, donor atom, acceptor molecule, acceptor atom, score
      P1  H  6934  6946       L1    18  0.78

> <Gold.PLP.Chemscore.Internal.Correction>
0.0125

> <Gold.Rescore>
     Score         DG    S(hbond)    S(metal)    S(lipo)     H(rot)  DE(clash)    DE(int)     intcor
     18.33     -18.89       1.28        0.00     109.97       1.45       0.03       0.54       ----

> <Gold.Chemscore.Fitness>
18.3275

> <Gold.Chemscore.DG>
-18.8941

> <Gold.Chemscore.ZeroCoef>
-5.4800

> <Gold.Chemscore.Hbond>
1.2757

> <Gold.Chemscore.Metal>
0.0000

> <Gold.Chemscore.Lipo>
109.9673

> <Gold.Chemscore.Internal_Hbond>
0.0000

> <Gold.Chemscore.DEClash>
0.0279

> <Gold.Chemscore.DEInternal>
0.5386

> <Gold.Chemscore.Rot>
1.4504

> <Gold.Chemscore.Internal.Correction>
   9.000000E+99

> <Gold.Chemscore.Hbonds>
donor molecule, donor type, donor heavy atom, donor atom, acceptor molecule, acceptor atom, score
      P1  H  6933  6944       L1    18  0.01
      P1  H  6934  6946       L1    18  0.77

> <Gold.Chemscore.Hbond.Weighted>
-4.2608

> <Gold.Chemscore.Metal.Weighted>
-0.0000

> <Gold.Chemscore.Lipo.Weighted>
-12.8662

> <Gold.Chemscore.Internal_Hbond.Weighted>
0.0000

> <Gold.Chemscore.DEClash.Weighted>
0.0279

> <Gold.Chemscore.DEInternal.Weighted>
0.5386

> <Gold.Chemscore.Rot.Weighted>
3.7129

> <Gold.Chemscore.Internal.Correction.Weighted>
   9.000000E+99

> <Gold.Protein.RotatedTorsions>
[ 6907 6896 6895 6894 ] final -107.65 input  -60.11 | X-H torsion
[ 7974 7965 7964 7962 ] final    9.89 input  175.53 | X-H torsion
[ 8008 7997 7996 7995 ] final   -1.30 input   59.86 | X-H torsion
[ 10167 10162 10161 10158 ] final   31.47 input  -65.29 | X-H torsion
[ 10718 10713 10712 10709 ] final -120.54 input   66.30 | X-H torsion
[ 10763 10752 10751 10750 ] final -113.01 input  -60.55 | X-H torsion
[ 11005 11000 10999 10996 ] final -157.20 input  -57.11 | X-H torsion

> <Gold.Protein.ActiveResidues>
 VAL166  LYS551  ARG553  GLY616  TRP617  ASP618  TYR619  PRO620  LYS621  CYS622 
 ASP623  PHE694  ASN695  SER759  ASP760  ASP761  ALA762  ILE779  LEU786  VAL792 
 PHE793  MET794  SER795  GLU796  ALA797  LYS798  CYS799  TRP800  GLU811  SER814 

> <Gold.Protein.RotatedAtoms>
  150.7456  133.9794  159.3571 H   0  0  0  0  0  0  0  0  0  0  0  0  # atno 6907 bound_to 6896
  151.7734  135.0778  160.0372 H   0  0  0  0  0  0  0  0  0  0  0  0  # atno 6908 bound_to 6896
  152.3323  133.5935  159.5854 H   0  0  0  0  0  0  0  0  0  0  0  0  # atno 6909 bound_to 6896
  146.2397  139.9716  142.8446 H   0  0  0  0  0  0  0  0  0  0  0  0  # atno 7974 bound_to 7965
  154.6484  140.2563  155.7242 H   0  0  0  0  0  0  0  0  0  0  0  0  # atno 8008 bound_to 7997
  156.2563  140.2873  156.0828 H   0  0  0  0  0  0  0  0  0  0  0  0  # atno 8009 bound_to 7997
  155.1489  140.0382  157.2806 H   0  0  0  0  0  0  0  0  0  0  0  0  # atno 8010 bound_to 7997
  140.4585  144.0942  150.6207 H   0  0  0  0  0  0  0  0  0  0  0  0  # atno 10167 bound_to 10162
  156.1266  130.6364  150.9553 H   0  0  0  0  0  0  0  0  0  0  0  0  # atno 10718 bound_to 10713
  154.8376  135.4470  154.1282 H   0  0  0  0  0  0  0  0  0  0  0  0  # atno 10763 bound_to 10752
  153.2500  135.6925  153.7696 H   0  0  0  0  0  0  0  0  0  0  0  0  # atno 10764 bound_to 10752
  153.7012  135.3371  155.3201 H   0  0  0  0  0  0  0  0  0  0  0  0  # atno 10765 bound_to 10752
  140.6673  134.4285  157.5233 H   0  0  0  0  0  0  0  0  0  0  0  0  # atno 11005 bound_to 11000
  145.1675  140.9704  143.4341 LP  0  0  0  0  0  0  0  0  0  0  0  0  # atno 17320 bound_to 7965
  145.0059  139.3555  143.6144 LP  0  0  0  0  0  0  0  0  0  0  0  0  # atno 17321 bound_to 7965
  140.4122  143.2651  151.9819 LP  0  0  0  0  0  0  0  0  0  0  0  0  # atno 17342 bound_to 10162
  139.4803  144.5905  151.7779 LP  0  0  0  0  0  0  0  0  0  0  0  0  # atno 17343 bound_to 10162
  157.6447  131.0905  150.8178 LP  0  0  0  0  0  0  0  0  0  0  0  0  # atno 17370 bound_to 10713
  156.8268  130.5002  149.5336 LP  0  0  0  0  0  0  0  0  0  0  0  0  # atno 17371 bound_to 10713
  139.8993  134.8594  156.1965 LP  0  0  0  0  0  0  0  0  0  0  0  0  # atno 17394 bound_to 11000
  141.0419  133.6933  156.1614 LP  0  0  0  0  0  0  0  0  0  0  0  0  # atno 17395 bound_to 11000

$$$$
