AV-unprocessed.smi:1661|AV-procd|sdf|6654|dock4
  -GOLD-   22720 7363D 1   1.00000     0.00000
 Structure written by MMmdl.
 38 39  0  0  0  0  0  0  0  0  2 V2000
  143.7258  132.1302  150.4227 C   0  0  0  0  0  0  0  0  0  0  0  0
  144.6954  133.3134  150.2572 C   0  0  2  0  0  0  0  0  0  0  0  0
  146.1582  132.9310  150.5465 C   0  0  0  0  0  0  0  0  0  0  0  0
  146.4253  132.7432  152.0508 C   0  0  0  0  0  0  0  0  0  0  0  0
  146.0412  133.9527  152.8240 N   0  3  2  0  0  0  0  0  0  0  0  0
  146.4113  133.8394  154.2577 C   0  0  0  0  0  0  0  0  0  0  0  0
  147.9268  133.6457  154.4634 C   0  0  0  0  0  0  0  0  0  0  0  0
  148.6802  134.8250  154.0530 N   0  0  0  0  0  0  0  0  0  0  0  0
  149.6320  135.4200  154.7865 C   0  0  0  0  0  0  0  0  0  0  0  0
  149.9608  135.0323  155.9079 O   0  0  0  0  0  0  0  0  0  0  0  0
  150.1600  136.4741  154.1399 N   0  0  0  0  0  0  0  0  0  0  0  0
  151.1788  137.3583  154.5839 C   0  0  0  0  0  0  0  0  0  0  0  0
  152.2030  136.9811  155.3652 N   0  0  0  0  0  0  0  0  0  0  0  0
  153.0537  138.0408  155.6535 N   0  0  0  0  0  0  0  0  0  0  0  0
  152.6382  139.1732  155.0790 C   0  0  0  0  0  0  0  0  0  0  0  0
  151.1668  139.0563  154.1295 S   0  0  0  0  0  0  0  0  0  0  0  0
  144.6118  134.3048  152.6119 C   0  0  0  0  0  0  0  0  0  0  0  0
  144.3063  134.5275  151.1196 C   0  0  0  0  0  0  0  0  0  0  0  0
  143.7092  131.7494  151.4434 H   0  0  0  0  0  0  0  0  0  0  0  0
  144.0035  131.3039  149.7678 H   0  0  0  0  0  0  0  0  0  0  0  0
  142.7075  132.4220  150.1644 H   0  0  0  0  0  0  0  0  0  0  0  0
  144.6345  133.6183  149.2117 H   0  0  0  0  0  0  0  0  0  0  0  0
  146.4268  132.0247  150.0024 H   0  0  0  0  0  0  0  0  0  0  0  0
  146.8142  133.7159  150.1672 H   0  0  0  0  0  0  0  0  0  0  0  0
  145.8837  131.8764  152.4318 H   0  0  0  0  0  0  0  0  0  0  0  0
  147.4865  132.5369  152.1959 H   0  0  0  0  0  0  0  0  0  0  0  0
  146.0538  134.7141  154.8029 H   0  0  0  0  0  0  0  0  0  0  0  0
  145.8947  132.9794  154.6861 H   0  0  0  0  0  0  0  0  0  0  0  0
  148.1452  133.4110  155.5067 H   0  0  0  0  0  0  0  0  0  0  0  0
  148.2973  132.8089  153.8729 H   0  0  0  0  0  0  0  0  0  0  0  0
  148.4723  135.2059  153.1411 H   0  0  0  0  0  0  0  0  0  0  0  0
  149.7895  136.6698  153.2218 H   0  0  0  0  0  0  0  0  0  0  0  0
  153.2017  140.0843  155.2157 H   0  0  0  0  0  0  0  0  0  0  0  0
  143.9757  133.5175  153.0182 H   0  0  0  0  0  0  0  0  0  0  0  0
  144.3616  135.2156  153.1542 H   0  0  0  0  0  0  0  0  0  0  0  0
  144.8574  135.4028  150.7730 H   0  0  0  0  0  0  0  0  0  0  0  0
  143.2502  134.7635  150.9846 H   0  0  0  0  0  0  0  0  0  0  0  0
  146.5916  134.7113  152.4471 H   0  0  0  0  0  0  0  0  0  0  0  0
  1  2  1  0  0  0  0
  1 19  1  0  0  0  0
  1 20  1  0  0  0  0
  1 21  1  0  0  0  0
  2 18  1  0  0  0  0
  2  3  1  0  0  0  0
  2 22  1  0  0  0  0
  3  4  1  0  0  0  0
  3 23  1  0  0  0  0
  3 24  1  0  0  0  0
  4  5  1  0  0  0  0
  4 25  1  0  0  0  0
  4 26  1  0  0  0  0
  5  6  1  0  0  0  0
  5 17  1  0  0  0  0
  5 38  1  0  0  0  0
  6  7  1  0  0  0  0
  6 27  1  0  0  0  0
  6 28  1  0  0  0  0
  7  8  1  0  0  0  0
  7 29  1  0  0  0  0
  7 30  1  0  0  0  0
  8  9  1  0  0  0  0
  8 31  1  0  0  0  0
  9 10  2  0  0  0  0
  9 11  1  0  0  0  0
 11 12  1  0  0  0  0
 11 32  1  0  0  0  0
 12 16  1  0  0  0  0
 12 13  2  0  0  0  0
 13 14  1  0  0  0  0
 14 15  2  0  0  0  0
 15 16  1  0  0  0  0
 15 33  1  0  0  0  0
 17 18  1  0  0  0  0
 17 34  1  0  0  0  0
 17 35  1  0  0  0  0
 18 36  1  0  0  0  0
 18 37  1  0  0  0  0
M  CHG  1   5   1
M  END
> <s_m_source_file>
AV-unprocessed.smi

> <i_m_source_file_index>
1661

> <i_lp_mmshare_version>
43012

> <i_f3d_flags>
0

> <s_epik_input>
W0NIM11bQ0hdMVtDSDJdW0NIMl1OKFtDSDJdW0NIMl0xKVtDSDJdW0NIMl1bTkhdQyg9TylbTkhdYzJubltjSF1zMg==

> <s_epik_cmdline>
J2VwaWtfcHl0aG9uJywgJy1waCcsICc3LjAnLCAnLXRuJywgJzgnLCAnLW1hJywgJzIwMCcsICctbWV0YWxfYmluZGluZycsICctaW1hZScsICc8aW5maWxlLm1hZT4nLCAnLW9tYWUnLCAnPG91dGZpbGUubWFlPic=

> <r_lp_tautomer_probability>
1

> <r_epik_Ionization_Penalty>
0.0053917

> <r_epik_Ionization_Penalty_Charging>
0.00168873

> <r_epik_Ionization_Penalty_Neutral>
0.00370297

> <r_epik_State_Penalty>
-0

> <r_epik_Charging_Adjusted_Penalty>
0.00168873

> <i_epik_Tot_Q>
1

> <i_epik_Tot_abs_Q>
1

> <r_epik_Metal_State_Penalty>
0.36997

> <b_epik_Metal_Only>
0

> <s_lp_Force_Field>
OPLS_2005

> <r_lp_Energy>
16.5964

> <b_lp_Chiralities_Consistent>
1

> <s_lp_Variant>
AV-unprocessed.smi:1661-2

> <Gold.Version>
5.8.1

> <Gold.Id.Protein>
6NUR|6NUR_protein|mol2

> <Gold.PLP.Fitness>
39.7230

> <Gold.PLP.PLP>
-31.3256

> <Gold.PLP.part.hbond>
-4.2782

> <Gold.PLP.part.metal>
0.0000

> <Gold.PLP.part.buried>
-3.6558

> <Gold.PLP.part.nonpolar>
-23.9612

> <Gold.PLP.part.repulsive>
0.1309

> <Gold.PLP.ligand.clash>
0.0000

> <Gold.PLP.ligand.torsion>
0.3112

> <Gold.PLP.Chemscore.Hbond>
3.0000

> <Gold.PLP.Chemscore.CHOScore>
0.0000

> <Gold.PLP.Chemscore.Metal>
0.0000

> <Gold.Chemscore.Hbonds>
donor molecule, donor type, donor heavy atom, donor atom, acceptor molecule, acceptor atom, score
      L1  H     8    31       P1  7948  0.94
      L1  H    11    32       P1  7948  1.00
      P1  H 10752 10765       L1    13  0.90

> <Gold.PLP.Chemscore.Internal.Correction>
0.0199

> <Gold.Rescore>
     Score         DG    S(hbond)    S(metal)    S(lipo)     H(rot)  DE(clash)    DE(int)     intcor
     16.52     -16.99       2.49        0.00      64.54       1.70       0.02       0.45       ----

> <Gold.Chemscore.Fitness>
16.5218

> <Gold.Chemscore.DG>
-16.9904

> <Gold.Chemscore.ZeroCoef>
-5.4800

> <Gold.Chemscore.Hbond>
2.4919

> <Gold.Chemscore.Metal>
0.0000

> <Gold.Chemscore.Lipo>
64.5405

> <Gold.Chemscore.Internal_Hbond>
0.0000

> <Gold.Chemscore.DEClash>
0.0202

> <Gold.Chemscore.DEInternal>
0.4484

> <Gold.Chemscore.Rot>
1.7046

> <Gold.Chemscore.Internal.Correction>
   9.000000E+99

> <Gold.Chemscore.Hbonds>
donor molecule, donor type, donor heavy atom, donor atom, acceptor molecule, acceptor atom, score
      L1  H     8    31       P1  7948  0.82
      L1  H    11    32       P1  7948  0.24
      P1  H 10752 10765       L1    13  0.67

> <Gold.Chemscore.Hbond.Weighted>
-8.3231

> <Gold.Chemscore.Metal.Weighted>
-0.0000

> <Gold.Chemscore.Lipo.Weighted>
-7.5512

> <Gold.Chemscore.Internal_Hbond.Weighted>
0.0000

> <Gold.Chemscore.DEClash.Weighted>
0.0202

> <Gold.Chemscore.DEInternal.Weighted>
0.4484

> <Gold.Chemscore.Rot.Weighted>
4.3638

> <Gold.Chemscore.Internal.Correction.Weighted>
   9.000000E+99

> <Gold.Protein.RotatedTorsions>
[ 6907 6896 6895 6894 ] final -165.67 input  -60.11 | X-H torsion
[ 7974 7965 7964 7962 ] final  -33.05 input  175.53 | X-H torsion
[ 8008 7997 7996 7995 ] final  -21.58 input   59.86 | X-H torsion
[ 10167 10162 10161 10158 ] final  138.23 input  -65.29 | X-H torsion
[ 10718 10713 10712 10709 ] final   81.06 input   66.30 | X-H torsion
[ 10763 10752 10751 10750 ] final -163.95 input  -60.55 | X-H torsion
[ 11005 11000 10999 10996 ] final  -88.14 input  -57.11 | X-H torsion

> <Gold.Protein.ActiveResidues>
 VAL166  LYS551  ARG553  GLY616  TRP617  ASP618  TYR619  PRO620  LYS621  CYS622 
 ASP623  PHE694  ASN695  SER759  ASP760  ASP761  ALA762  ILE779  LEU786  VAL792 
 PHE793  MET794  SER795  GLU796  ALA797  LYS798  CYS799  TRP800  GLU811  SER814 

> <Gold.Protein.RotatedAtoms>
  151.4313  133.3669  159.2768 H   0  0  0  0  0  0  0  0  0  0  0  0  # atno 6907 bound_to 6896
  150.9223  134.8642  159.7507 H   0  0  0  0  0  0  0  0  0  0  0  0  # atno 6908 bound_to 6896
  152.4988  134.4252  159.9546 H   0  0  0  0  0  0  0  0  0  0  0  0  # atno 6909 bound_to 6896
  146.0942  140.5868  142.8850 H   0  0  0  0  0  0  0  0  0  0  0  0  # atno 7974 bound_to 7965
  154.4697  140.2031  156.0026 H   0  0  0  0  0  0  0  0  0  0  0  0  # atno 8008 bound_to 7997
  156.0989  140.3247  155.7886 H   0  0  0  0  0  0  0  0  0  0  0  0  # atno 8009 bound_to 7997
  155.4831  140.0540  157.2955 H   0  0  0  0  0  0  0  0  0  0  0  0  # atno 8010 bound_to 7997
  139.5118  144.6365  151.5682 H   0  0  0  0  0  0  0  0  0  0  0  0  # atno 10167 bound_to 10162
  157.6823  130.9987  150.2171 H   0  0  0  0  0  0  0  0  0  0  0  0  # atno 10718 bound_to 10713
  154.7075  135.2999  154.9249 H   0  0  0  0  0  0  0  0  0  0  0  0  # atno 10763 bound_to 10752
  154.0161  135.6688  153.4773 H   0  0  0  0  0  0  0  0  0  0  0  0  # atno 10764 bound_to 10752
  153.0728  135.5051  154.8253 H   0  0  0  0  0  0  0  0  0  0  0  0  # atno 10765 bound_to 10752
  141.1606  133.7552  156.9408 H   0  0  0  0  0  0  0  0  0  0  0  0  # atno 11005 bound_to 11000
  144.7382  140.4869  143.6888 LP  0  0  0  0  0  0  0  0  0  0  0  0  # atno 17320 bound_to 7965
  145.5981  139.1501  143.3144 LP  0  0  0  0  0  0  0  0  0  0  0  0  # atno 17321 bound_to 7965
  140.6116  143.9425  150.6457 LP  0  0  0  0  0  0  0  0  0  0  0  0  # atno 17342 bound_to 10162
  140.2670  143.3483  152.1272 LP  0  0  0  0  0  0  0  0  0  0  0  0  # atno 17343 bound_to 10162
  156.2830  130.3736  149.7917 LP  0  0  0  0  0  0  0  0  0  0  0  0  # atno 17370 bound_to 10713
  156.5599  130.8379  151.3325 LP  0  0  0  0  0  0  0  0  0  0  0  0  # atno 17371 bound_to 10713
  140.1323  134.9348  157.2354 LP  0  0  0  0  0  0  0  0  0  0  0  0  # atno 17394 bound_to 11000
  140.2938  134.3210  155.7308 LP  0  0  0  0  0  0  0  0  0  0  0  0  # atno 17395 bound_to 11000

$$$$
