AV-unprocessed.smi:1900|AV-procd|sdf|7713|dock4
  -GOLD-   22720 9453D 1   1.00000     0.00000
 Structure written by MMmdl.
 43 44  0  0  0  0  0  0  0  0  1 V2000
  153.1068  138.5936  155.0906 C   0  0  0  0  0  0  0  0  0  0  0  0
  151.6652  139.0269  155.3755 C   0  0  2  0  0  0  0  0  0  0  0  0
  150.6757  138.4618  154.3404 C   0  0  0  0  0  0  0  0  0  0  0  0
  149.3203  138.9460  154.5644 N   0  0  0  0  0  0  0  0  0  0  0  0
  148.3811  138.3526  153.6124 C   0  0  0  0  0  0  0  0  0  0  0  0
  146.9776  138.9854  153.5913 C   0  0  0  0  0  0  0  0  0  0  0  0
  146.0995  138.4637  152.4397 C   0  0  0  0  0  0  0  0  0  0  0  0
  146.4466  137.0944  152.0782 N   0  0  0  0  0  0  0  0  0  0  0  0
  145.5592  136.1090  151.8785 C   0  0  0  0  0  0  0  0  0  0  0  0
  144.3411  136.2607  151.9749 O   0  0  0  0  0  0  0  0  0  0  0  0
  146.1713  134.9562  151.5626 N   0  0  0  0  0  0  0  0  0  0  0  0
  145.5584  133.7090  151.2834 C   0  0  0  0  0  0  0  0  0  0  0  0
  144.2146  133.4301  150.8962 C   0  0  0  0  0  0  0  0  0  0  0  0
  144.0247  132.1292  150.7261 N   0  0  0  0  0  0  0  0  0  0  0  0
  145.2284  131.5776  150.9995 N   0  0  0  0  0  0  0  0  0  0  0  0
  146.1894  132.5025  151.3434 C   0  0  0  0  0  0  0  0  0  0  0  0
  149.3236  140.4067  154.5238 C   0  0  0  0  0  0  0  0  0  0  0  0
  150.3206  141.0240  155.5239 C   0  0  1  0  0  0  0  0  0  0  0  0
  149.8467  140.9314  156.9846 C   0  0  0  0  0  0  0  0  0  0  0  0
  151.6184  140.4526  155.3482 O   0  0  0  0  0  0  0  0  0  0  0  0
  145.3760  130.5797  150.9475 H   0  0  0  0  0  0  0  0  0  0  0  0
  153.2014  137.5077  155.1074 H   0  0  0  0  0  0  0  0  0  0  0  0
  153.7895  138.9984  155.8379 H   0  0  0  0  0  0  0  0  0  0  0  0
  153.4376  138.9439  154.1126 H   0  0  0  0  0  0  0  0  0  0  0  0
  151.3915  138.6750  156.3705 H   0  0  0  0  0  0  0  0  0  0  0  0
  151.0024  138.7328  153.3351 H   0  0  0  0  0  0  0  0  0  0  0  0
  150.6904  137.3724  154.3895 H   0  0  0  0  0  0  0  0  0  0  0  0
  148.8066  138.3935  152.6087 H   0  0  0  0  0  0  0  0  0  0  0  0
  148.2638  137.2926  153.8422 H   0  0  0  0  0  0  0  0  0  0  0  0
  146.4797  138.8351  154.5488 H   0  0  0  0  0  0  0  0  0  0  0  0
  147.0863  140.0655  153.4885 H   0  0  0  0  0  0  0  0  0  0  0  0
  145.0500  138.4862  152.7333 H   0  0  0  0  0  0  0  0  0  0  0  0
  146.1884  139.1068  151.5623 H   0  0  0  0  0  0  0  0  0  0  0  0
  147.4285  136.8829  151.9777 H   0  0  0  0  0  0  0  0  0  0  0  0
  147.1795  134.9721  151.5164 H   0  0  0  0  0  0  0  0  0  0  0  0
  143.3854  134.1023  150.7345 H   0  0  0  0  0  0  0  0  0  0  0  0
  147.2040  132.2281  151.5916 H   0  0  0  0  0  0  0  0  0  0  0  0
  149.5791  140.7404  153.5170 H   0  0  0  0  0  0  0  0  0  0  0  0
  148.3302  140.7998  154.7365 H   0  0  0  0  0  0  0  0  0  0  0  0
  150.4182  142.0841  155.2883 H   0  0  0  0  0  0  0  0  0  0  0  0
  148.9071  141.4674  157.1210 H   0  0  0  0  0  0  0  0  0  0  0  0
  150.5797  141.3715  157.6607 H   0  0  0  0  0  0  0  0  0  0  0  0
  149.6793  139.9008  157.2964 H   0  0  0  0  0  0  0  0  0  0  0  0
  1  2  1  0  0  0  0
  1 22  1  0  0  0  0
  1 23  1  0  0  0  0
  1 24  1  0  0  0  0
  2 20  1  0  0  0  0
  2  3  1  0  0  0  0
  2 25  1  0  0  0  0
  3  4  1  0  0  0  0
  3 26  1  0  0  0  0
  3 27  1  0  0  0  0
  4  5  1  0  0  0  0
  4 17  1  0  0  0  0
  5  6  1  0  0  0  0
  5 28  1  0  0  0  0
  5 29  1  0  0  0  0
  6  7  1  0  0  0  0
  6 30  1  0  0  0  0
  6 31  1  0  0  0  0
  7  8  1  0  0  0  0
  7 32  1  0  0  0  0
  7 33  1  0  0  0  0
  8  9  1  0  0  0  0
  8 34  1  0  0  0  0
  9 10  2  0  0  0  0
  9 11  1  0  0  0  0
 11 12  1  0  0  0  0
 11 35  1  0  0  0  0
 12 16  2  0  0  0  0
 12 13  1  0  0  0  0
 13 14  2  0  0  0  0
 13 36  1  0  0  0  0
 14 15  1  0  0  0  0
 15 21  1  0  0  0  0
 15 16  1  0  0  0  0
 16 37  1  0  0  0  0
 17 18  1  0  0  0  0
 17 38  1  0  0  0  0
 17 39  1  0  0  0  0
 18 19  1  0  0  0  0
 18 20  1  0  0  0  0
 18 40  1  0  0  0  0
 19 41  1  0  0  0  0
 19 42  1  0  0  0  0
 19 43  1  0  0  0  0
M  END
> <s_m_source_file>
AV-unprocessed.smi

> <i_m_source_file_index>
1900

> <i_lp_mmshare_version>
43012

> <i_f3d_flags>
0

> <s_epik_input>
W0NIM11bQ0BASF0xW0NIMl1OKFtDSDJdW0NASF0oTzEpW0NIM10pW0NIMl1bQ0gyXVtDSDJdW05IXUMoPU8pW05IXWMyW2NIXW5bbkhdW2NIXTI=

> <s_epik_cmdline>
J2VwaWtfcHl0aG9uJywgJy1waCcsICc3LjAnLCAnLXRuJywgJzgnLCAnLW1hJywgJzIwMCcsICctbWV0YWxfYmluZGluZycsICctaW1hZScsICc8aW5maWxlLm1hZT4nLCAnLW9tYWUnLCAnPG91dGZpbGUubWFlPic=

> <r_lp_tautomer_probability>
0.5

> <r_epik_Ionization_Penalty>
0.594715

> <r_epik_Ionization_Penalty_Charging>
0

> <r_epik_Ionization_Penalty_Neutral>
0.594715

> <r_epik_State_Penalty>
0.608529

> <r_epik_Charging_Adjusted_Penalty>
0.608529

> <i_epik_Tot_Q>
0

> <i_epik_Tot_abs_Q>
0

> <r_epik_Metal_State_Penalty>
0.608528

> <b_epik_Metal_Only>
0

> <s_lp_Force_Field>
OPLS_2005

> <r_lp_Energy>
27.7437

> <b_lp_Chiralities_Consistent>
1

> <s_lp_Variant>
AV-unprocessed.smi:1900-5

> <Gold.Version>
5.8.1

> <Gold.Id.Protein>
6NUR|6NUR_protein|mol2

> <Gold.PLP.Fitness>
43.8698

> <Gold.PLP.PLP>
-31.3785

> <Gold.PLP.part.hbond>
-3.0000

> <Gold.PLP.part.metal>
0.0000

> <Gold.PLP.part.buried>
0.0475

> <Gold.PLP.part.nonpolar>
-29.6962

> <Gold.PLP.part.repulsive>
1.7891

> <Gold.PLP.ligand.clash>
0.0000

> <Gold.PLP.ligand.torsion>
0.4500

> <Gold.PLP.Chemscore.Hbond>
2.4627

> <Gold.PLP.Chemscore.CHOScore>
1.9877

> <Gold.PLP.Chemscore.Metal>
0.0000

> <Gold.Chemscore.Hbonds>
donor molecule, donor type, donor heavy atom, donor atom, acceptor molecule, acceptor atom, score
      L1  H     8    34       P1  7948  1.00
      L1  H    11    35       P1  7948  0.63
      P1  H  7989  7998       L1    20  0.53
      L1  C    13    36       P1 10186  0.65
      L1  C    16    37       P1 10747  0.83

> <Gold.PLP.Chemscore.Internal.Correction>
0.0402

> <Gold.Rescore>
     Score         DG    S(hbond)    S(metal)    S(lipo)     H(rot)  DE(clash)    DE(int)     intcor
     13.93     -16.18       1.83        0.00      80.43       1.88       0.83       1.42       ----

> <Gold.Chemscore.Fitness>
13.9277

> <Gold.Chemscore.DG>
-16.1806

> <Gold.Chemscore.ZeroCoef>
-5.4800

> <Gold.Chemscore.Hbond>
1.8273

> <Gold.Chemscore.Metal>
0.0000

> <Gold.Chemscore.Lipo>
80.4262

> <Gold.Chemscore.Internal_Hbond>
0.0000

> <Gold.Chemscore.DEClash>
0.8327

> <Gold.Chemscore.DEInternal>
1.4202

> <Gold.Chemscore.Rot>
1.8799

> <Gold.Chemscore.Internal.Correction>
   9.000000E+99

> <Gold.Chemscore.Hbonds>
donor molecule, donor type, donor heavy atom, donor atom, acceptor molecule, acceptor atom, score
      L1  H     8    34       P1  7948  1.00
      L1  H    11    35       P1  7948  0.48
      P1  H  7989  7998       L1    20  0.02

> <Gold.Chemscore.Hbond.Weighted>
-6.1033

> <Gold.Chemscore.Metal.Weighted>
-0.0000

> <Gold.Chemscore.Lipo.Weighted>
-9.4099

> <Gold.Chemscore.Internal_Hbond.Weighted>
0.0000

> <Gold.Chemscore.DEClash.Weighted>
0.8327

> <Gold.Chemscore.DEInternal.Weighted>
1.4202

> <Gold.Chemscore.Rot.Weighted>
4.8126

> <Gold.Chemscore.Internal.Correction.Weighted>
   9.000000E+99

> <Gold.Protein.RotatedTorsions>
[ 6907 6896 6895 6894 ] final  139.63 input  -60.11 | X-H torsion
[ 7974 7965 7964 7962 ] final  -38.50 input  175.53 | X-H torsion
[ 8008 7997 7996 7995 ] final   72.14 input   59.86 | X-H torsion
[ 10167 10162 10161 10158 ] final -155.90 input  -65.29 | X-H torsion
[ 10718 10713 10712 10709 ] final  -73.48 input   66.30 | X-H torsion
[ 10763 10752 10751 10750 ] final  -41.02 input  -60.55 | X-H torsion
[ 11005 11000 10999 10996 ] final  -32.84 input  -57.11 | X-H torsion

> <Gold.Protein.ActiveResidues>
 VAL166  LYS551  ARG553  GLY616  TRP617  ASP618  TYR619  PRO620  LYS621  CYS622 
 ASP623  PHE694  ASN695  SER759  ASP760  ASP761  ALA762  ILE779  LEU786  VAL792 
 PHE793  MET794  SER795  GLU796  ALA797  LYS798  CYS799  TRP800  GLU811  SER814 

> <Gold.Protein.RotatedAtoms>
  152.2527  133.5228  159.5334 H   0  0  0  0  0  0  0  0  0  0  0  0  # atno 6907 bound_to 6896
  150.7099  134.0938  159.3950 H   0  0  0  0  0  0  0  0  0  0  0  0  # atno 6908 bound_to 6896
  151.8858  135.0436  160.0544 H   0  0  0  0  0  0  0  0  0  0  0  0  # atno 6909 bound_to 6896
  146.0481  140.6519  142.9055 H   0  0  0  0  0  0  0  0  0  0  0  0  # atno 7974 bound_to 7965
  155.7645  140.3486  155.5215 H   0  0  0  0  0  0  0  0  0  0  0  0  # atno 8008 bound_to 7997
  155.8882  140.1013  157.1458 H   0  0  0  0  0  0  0  0  0  0  0  0  # atno 8009 bound_to 7997
  154.4031  140.1309  156.4269 H   0  0  0  0  0  0  0  0  0  0  0  0  # atno 8010 bound_to 7997
  139.6894  143.9447  152.2377 H   0  0  0  0  0  0  0  0  0  0  0  0  # atno 10167 bound_to 10162
  156.0279  130.4395  150.2749 H   0  0  0  0  0  0  0  0  0  0  0  0  # atno 10718 bound_to 10713
  153.9555  135.6745  153.4744 H   0  0  0  0  0  0  0  0  0  0  0  0  # atno 10763 bound_to 10752
  153.0863  135.4897  154.8600 H   0  0  0  0  0  0  0  0  0  0  0  0  # atno 10764 bound_to 10752
  154.7301  135.3136  154.8864 H   0  0  0  0  0  0  0  0  0  0  0  0  # atno 10765 bound_to 10752
  140.9586  133.7178  156.1333 H   0  0  0  0  0  0  0  0  0  0  0  0  # atno 11005 bound_to 11000
  144.7108  140.4031  143.7082 LP  0  0  0  0  0  0  0  0  0  0  0  0  # atno 17320 bound_to 7965
  145.6771  139.1611  143.2721 LP  0  0  0  0  0  0  0  0  0  0  0  0  # atno 17321 bound_to 7965
  139.9258  144.6771  150.8413 LP  0  0  0  0  0  0  0  0  0  0  0  0  # atno 17342 bound_to 10162
  140.7678  143.3343  151.2343 LP  0  0  0  0  0  0  0  0  0  0  0  0  # atno 17343 bound_to 10162
  157.0852  131.0154  151.3142 LP  0  0  0  0  0  0  0  0  0  0  0  0  # atno 17370 bound_to 10713
  157.4897  130.7814  149.7495 LP  0  0  0  0  0  0  0  0  0  0  0  0  # atno 17371 bound_to 10713
  140.7500  134.4055  157.5542 LP  0  0  0  0  0  0  0  0  0  0  0  0  # atno 17394 bound_to 11000
  139.8870  134.8893  156.2551 LP  0  0  0  0  0  0  0  0  0  0  0  0  # atno 17395 bound_to 11000

$$$$
