AV-unprocessed.smi:2473|AV-procd|sdf|9749|dock2
  -GOLD-   2272013393D 1   1.00000     0.00000
 Structure written by MMmdl.
 47 48  0  0  0  0  0  0  0  0  1 V2000
  156.5633  141.0319  166.2635 C   0  0  0  0  0  0  0  0  0  0  0  0
  156.6235  140.0579  165.0782 C   0  0  2  0  0  0  0  0  0  0  0  0
  156.0789  140.7085  163.7954 C   0  0  0  0  0  0  0  0  0  0  0  0
  156.1441  139.7405  162.5978 C   0  0  2  0  0  0  0  0  0  0  0  0
  155.5902  140.4135  161.3352 C   0  0  0  0  0  0  0  0  0  0  0  0
  156.3584  140.8502  160.4777 O   0  0  0  0  0  0  0  0  0  0  0  0
  154.2530  140.4614  161.2204 N   0  0  0  0  0  0  0  0  0  0  0  0
  153.5189  140.9341  160.0492 C   0  0  0  0  0  0  0  0  0  0  0  0
  152.4688  142.0027  160.4122 C   0  0  0  0  0  0  0  0  0  0  0  0
  152.0097  142.8268  159.2446 C   0  0  0  0  0  0  0  0  0  0  0  0
  152.1069  144.1520  159.2012 N   0  0  0  0  0  0  0  0  0  0  0  0
  151.6137  144.5045  157.9499 C   0  0  0  0  0  0  0  0  0  0  0  0
  151.2273  143.3713  157.2766 C   0  0  0  0  0  0  0  0  0  0  0  0
  151.4858  142.2990  158.1197 N   0  0  0  0  0  0  0  0  0  0  0  0
  151.2345  140.9029  157.8160 C   0  0  0  0  0  0  0  0  0  0  0  0
  155.3734  138.4405  162.9193 C   0  0  0  0  0  0  0  0  0  0  0  0
  155.8596  137.7385  164.2123 C   0  0  0  0  0  0  0  0  0  0  0  0
  154.8869  136.5913  164.5492 C   0  0  0  0  0  0  0  0  0  0  0  0
  157.2622  137.1225  164.0142 C   0  0  0  0  0  0  0  0  0  0  0  0
  155.8591  138.7529  165.3840 C   0  0  0  0  0  0  0  0  0  0  0  0
  155.5367  141.3268  166.4831 H   0  0  0  0  0  0  0  0  0  0  0  0
  157.1326  141.9383  166.0556 H   0  0  0  0  0  0  0  0  0  0  0  0
  156.9806  140.5807  167.1640 H   0  0  0  0  0  0  0  0  0  0  0  0
  157.6747  139.8179  164.9174 H   0  0  0  0  0  0  0  0  0  0  0  0
  155.0490  141.0300  163.9618 H   0  0  0  0  0  0  0  0  0  0  0  0
  156.6483  141.6118  163.5742 H   0  0  0  0  0  0  0  0  0  0  0  0
  157.1906  139.4946  162.4133 H   0  0  0  0  0  0  0  0  0  0  0  0
  153.7024  140.0864  161.9792 H   0  0  0  0  0  0  0  0  0  0  0  0
  154.2353  141.3520  159.3420 H   0  0  0  0  0  0  0  0  0  0  0  0
  153.0375  140.1012  159.5343 H   0  0  0  0  0  0  0  0  0  0  0  0
  151.6095  141.5292  160.8872 H   0  0  0  0  0  0  0  0  0  0  0  0
  152.8856  142.6765  161.1612 H   0  0  0  0  0  0  0  0  0  0  0  0
  151.5759  145.5363  157.6339 H   0  0  0  0  0  0  0  0  0  0  0  0
  150.8028  143.2428  156.2919 H   0  0  0  0  0  0  0  0  0  0  0  0
  150.8854  140.7989  156.7885 H   0  0  0  0  0  0  0  0  0  0  0  0
  150.4722  140.5104  158.4892 H   0  0  0  0  0  0  0  0  0  0  0  0
  152.1504  140.3242  157.9330 H   0  0  0  0  0  0  0  0  0  0  0  0
  154.3125  138.6754  163.0245 H   0  0  0  0  0  0  0  0  0  0  0  0
  155.4429  137.7511  162.0764 H   0  0  0  0  0  0  0  0  0  0  0  0
  155.1861  136.0704  165.4594 H   0  0  0  0  0  0  0  0  0  0  0  0
  154.8485  135.8540  163.7465 H   0  0  0  0  0  0  0  0  0  0  0  0
  153.8714  136.9585  164.7029 H   0  0  0  0  0  0  0  0  0  0  0  0
  157.5961  136.6063  164.9149 H   0  0  0  0  0  0  0  0  0  0  0  0
  158.0190  137.8673  163.7734 H   0  0  0  0  0  0  0  0  0  0  0  0
  157.2603  136.3932  163.2036 H   0  0  0  0  0  0  0  0  0  0  0  0
  156.2737  138.2849  166.2780 H   0  0  0  0  0  0  0  0  0  0  0  0
  154.8282  139.0089  165.6337 H   0  0  0  0  0  0  0  0  0  0  0  0
  1  2  1  0  0  0  0
  1 21  1  0  0  0  0
  1 22  1  0  0  0  0
  1 23  1  0  0  0  0
  2 20  1  0  0  0  0
  2  3  1  0  0  0  0
  2 24  1  0  0  0  0
  3  4  1  0  0  0  0
  3 25  1  0  0  0  0
  3 26  1  0  0  0  0
  4  5  1  0  0  0  0
  4 16  1  0  0  0  0
  4 27  1  0  0  0  0
  5  6  2  0  0  0  0
  5  7  1  0  0  0  0
  7  8  1  0  0  0  0
  7 28  1  0  0  0  0
  8  9  1  0  0  0  0
  8 29  1  0  0  0  0
  8 30  1  0  0  0  0
  9 10  1  0  0  0  0
  9 31  1  0  0  0  0
  9 32  1  0  0  0  0
 10 14  1  0  0  0  0
 10 11  2  0  0  0  0
 11 12  1  0  0  0  0
 12 13  2  0  0  0  0
 12 33  1  0  0  0  0
 13 14  1  0  0  0  0
 13 34  1  0  0  0  0
 14 15  1  0  0  0  0
 15 35  1  0  0  0  0
 15 36  1  0  0  0  0
 15 37  1  0  0  0  0
 16 17  1  0  0  0  0
 16 38  1  0  0  0  0
 16 39  1  0  0  0  0
 17 18  1  0  0  0  0
 17 19  1  0  0  0  0
 17 20  1  0  0  0  0
 18 40  1  0  0  0  0
 18 41  1  0  0  0  0
 18 42  1  0  0  0  0
 19 43  1  0  0  0  0
 19 44  1  0  0  0  0
 19 45  1  0  0  0  0
 20 46  1  0  0  0  0
 20 47  1  0  0  0  0
M  END
> <s_m_source_file>
AV-unprocessed.smi

> <i_m_source_file_index>
2473

> <i_lp_mmshare_version>
43012

> <i_f3d_flags>
0

> <s_epik_input>
W0NIM11bQ0BASF0oW0NIMl0xKVtDSDJdW0NASF0oW0NIMl1DMShbQ0gzXSlbQ0gzXSlDKD1PKVtOSF1bQ0gyXVtDSDJdYzJuW2NIXVtjSF1uMltDSDNd

> <s_epik_cmdline>
J2VwaWtfcHl0aG9uJywgJy1waCcsICc3LjAnLCAnLXRuJywgJzgnLCAnLW1hJywgJzIwMCcsICctbWV0YWxfYmluZGluZycsICctaW1hZScsICc8aW5maWxlLm1hZT4nLCAnLW9tYWUnLCAnPG91dGZpbGUubWFlPic=

> <r_lp_tautomer_probability>
1

> <r_epik_Ionization_Penalty>
1.22858

> <r_epik_Ionization_Penalty_Charging>
1.22858

> <r_epik_Ionization_Penalty_Neutral>
2.12671e-08

> <r_epik_State_Penalty>
1.2965

> <r_epik_Charging_Adjusted_Penalty>
2.52508

> <i_epik_Tot_Q>
0

> <i_epik_Tot_abs_Q>
0

> <r_epik_Metal_State_Penalty>
0.411461

> <b_epik_Metal_Only>
0

> <s_lp_Force_Field>
OPLS_2005

> <r_lp_Energy>
12.8127

> <b_lp_Chiralities_Consistent>
1

> <s_lp_Variant>
AV-unprocessed.smi:2473-7

> <Gold.Version>
5.8.1

> <Gold.Id.Protein>
6NUR|6NUR_protein|mol2

> <Gold.PLP.Fitness>
47.6008

> <Gold.PLP.PLP>
-45.7742

> <Gold.PLP.part.hbond>
-1.0000

> <Gold.PLP.part.metal>
0.0000

> <Gold.PLP.part.buried>
-4.7785

> <Gold.PLP.part.nonpolar>
-39.7586

> <Gold.PLP.part.repulsive>
0.0452

> <Gold.PLP.ligand.clash>
0.0000

> <Gold.PLP.ligand.torsion>
0.5947

> <Gold.PLP.Chemscore.Hbond>
0.0000

> <Gold.PLP.Chemscore.CHOScore>
1.0000

> <Gold.PLP.Chemscore.Metal>
0.0000

> <Gold.Chemscore.Hbonds>
donor molecule, donor type, donor heavy atom, donor atom, acceptor molecule, acceptor atom, score
      L1  C    13    34       P1  8028  0.74

> <Gold.PLP.Chemscore.Internal.Correction>
0.0160

> <Gold.Rescore>
     Score         DG    S(hbond)    S(metal)    S(lipo)     H(rot)  DE(clash)    DE(int)     intcor
     12.07     -14.45       0.00        0.00     109.72       1.51       1.50       0.88       ----

> <Gold.Chemscore.Fitness>
12.0734

> <Gold.Chemscore.DG>
-14.4489

> <Gold.Chemscore.ZeroCoef>
-5.4800

> <Gold.Chemscore.Hbond>
0.0000

> <Gold.Chemscore.Metal>
0.0000

> <Gold.Chemscore.Lipo>
109.7165

> <Gold.Chemscore.Internal_Hbond>
0.0000

> <Gold.Chemscore.DEClash>
1.4958

> <Gold.Chemscore.DEInternal>
0.8797

> <Gold.Chemscore.Rot>
1.5109

> <Gold.Chemscore.Internal.Correction>
   9.000000E+99

> <Gold.Chemscore.Hbond.Weighted>
-0.0000

> <Gold.Chemscore.Metal.Weighted>
-0.0000

> <Gold.Chemscore.Lipo.Weighted>
-12.8368

> <Gold.Chemscore.Internal_Hbond.Weighted>
0.0000

> <Gold.Chemscore.DEClash.Weighted>
1.4958

> <Gold.Chemscore.DEInternal.Weighted>
0.8797

> <Gold.Chemscore.Rot.Weighted>
3.8680

> <Gold.Chemscore.Internal.Correction.Weighted>
   9.000000E+99

> <Gold.Protein.RotatedTorsions>
[ 6907 6896 6895 6894 ] final  -57.18 input  -60.11 | X-H torsion
[ 7974 7965 7964 7962 ] final  -25.62 input  175.53 | X-H torsion
[ 8008 7997 7996 7995 ] final   38.99 input   59.86 | X-H torsion
[ 10167 10162 10161 10158 ] final   12.69 input  -65.29 | X-H torsion
[ 10718 10713 10712 10709 ] final   98.58 input   66.30 | X-H torsion
[ 10763 10752 10751 10750 ] final  -19.94 input  -60.55 | X-H torsion
[ 11005 11000 10999 10996 ] final  155.26 input  -57.11 | X-H torsion

> <Gold.Protein.ActiveResidues>
 VAL166  LYS551  ARG553  GLY616  TRP617  ASP618  TYR619  PRO620  LYS621  CYS622 
 ASP623  PHE694  ASN695  SER759  ASP760  ASP761  ALA762  ILE779  LEU786  VAL792 
 PHE793  MET794  SER795  GLU796  ALA797  LYS798  CYS799  TRP800  GLU811  SER814 

> <Gold.Protein.RotatedAtoms>
  150.8107  134.7260  159.6684 H   0  0  0  0  0  0  0  0  0  0  0  0  # atno 6907 bound_to 6896
  152.4227  134.5923  159.9987 H   0  0  0  0  0  0  0  0  0  0  0  0  # atno 6908 bound_to 6896
  151.6133  133.3308  159.3108 H   0  0  0  0  0  0  0  0  0  0  0  0  # atno 6909 bound_to 6896
  146.1479  140.4911  142.8624 H   0  0  0  0  0  0  0  0  0  0  0  0  # atno 7974 bound_to 7965
  155.2293  140.3337  155.4305 H   0  0  0  0  0  0  0  0  0  0  0  0  # atno 8008 bound_to 7997
  156.2301  140.1847  156.7310 H   0  0  0  0  0  0  0  0  0  0  0  0  # atno 8009 bound_to 7997
  154.5964  140.0630  156.9294 H   0  0  0  0  0  0  0  0  0  0  0  0  # atno 8010 bound_to 7997
  140.6052  143.8523  150.7006 H   0  0  0  0  0  0  0  0  0  0  0  0  # atno 10167 bound_to 10162
  157.6893  131.0644  150.4817 H   0  0  0  0  0  0  0  0  0  0  0  0  # atno 10718 bound_to 10713
  153.6127  135.6995  153.5341 H   0  0  0  0  0  0  0  0  0  0  0  0  # atno 10763 bound_to 10752
  153.3003  135.4131  155.1246 H   0  0  0  0  0  0  0  0  0  0  0  0  # atno 10764 bound_to 10752
  154.8560  135.3647  154.5665 H   0  0  0  0  0  0  0  0  0  0  0  0  # atno 10765 bound_to 10752
  140.1565  134.8639  157.2520 H   0  0  0  0  0  0  0  0  0  0  0  0  # atno 11005 bound_to 11000
  144.7868  140.5953  143.6568 LP  0  0  0  0  0  0  0  0  0  0  0  0  # atno 17320 bound_to 7965
  145.4894  139.1490  143.3718 LP  0  0  0  0  0  0  0  0  0  0  0  0  # atno 17321 bound_to 7965
  140.2078  143.3907  152.1741 LP  0  0  0  0  0  0  0  0  0  0  0  0  # atno 17342 bound_to 10162
  139.5319  144.7169  151.5025 LP  0  0  0  0  0  0  0  0  0  0  0  0  # atno 17343 bound_to 10162
  156.5149  130.4148  149.6281 LP  0  0  0  0  0  0  0  0  0  0  0  0  # atno 17370 bound_to 10713
  156.3207  130.7279  151.2190 LP  0  0  0  0  0  0  0  0  0  0  0  0  # atno 17371 bound_to 10713
  140.2541  134.3648  155.7431 LP  0  0  0  0  0  0  0  0  0  0  0  0  # atno 17394 bound_to 11000
  141.2205  133.7333  156.8981 LP  0  0  0  0  0  0  0  0  0  0  0  0  # atno 17395 bound_to 11000

$$$$
