AV-unprocessed.smi:2772|AV-procd|sdf|10670|dock2
  -GOLD-   2272015113D 1   1.00000     0.00000
 Structure written by MMmdl.
 54 56  0  0  0  0  0  0  0  0  2 V2000
  153.2244  143.1163  160.5217 C   0  0  0  0  0  0  0  0  0  0  0  0
  152.3407  142.9131  159.3089 C   0  0  0  0  0  0  0  0  0  0  0  0
  152.2831  143.8813  158.2858 C   0  0  0  0  0  0  0  0  0  0  0  0
  151.4489  143.6414  157.1769 C   0  0  0  0  0  0  0  0  0  0  0  0
  150.7080  142.4359  157.1263 C   0  0  0  0  0  0  0  0  0  0  0  0
  149.8205  142.0810  156.0739 N   0  0  0  0  0  0  0  0  0  0  0  0
  149.4557  140.8559  155.6583 C   0  0  0  0  0  0  0  0  0  0  0  0
  149.8301  139.7925  156.1522 O   0  0  0  0  0  0  0  0  0  0  0  0
  148.5989  140.9281  154.6295 N   0  0  0  0  0  0  0  0  0  0  0  0
  148.0093  139.7798  153.9467 C   0  0  2  0  0  0  0  0  0  0  0  0
  147.2349  140.2462  152.7077 C   0  0  0  0  0  0  0  0  0  0  0  0
  146.5337  139.0711  152.0037 C   0  0  0  0  0  0  0  0  0  0  0  0
  145.6242  138.3301  152.9268 N   0  3  1  0  0  0  0  0  0  0  0  0
  144.8259  137.2320  152.2892 C   0  0  0  0  0  0  0  0  0  0  0  0
  143.9361  136.4386  153.2771 C   0  0  0  0  0  0  0  0  0  0  0  0
  143.2210  135.2629  152.5890 C   0  0  0  0  0  0  0  0  0  0  0  0
  144.2008  134.3525  152.0019 N   0  0  0  0  0  0  0  0  0  0  0  0
  143.5093  133.2151  151.4115 C   0  0  0  0  0  0  0  0  0  0  0  0
  144.9580  135.0488  150.9651 C   0  0  0  0  0  0  0  0  0  0  0  0
  145.7503  136.2141  151.5817 C   0  0  0  0  0  0  0  0  0  0  0  0
  146.3704  137.8586  154.1291 C   0  0  0  0  0  0  0  0  0  0  0  0
  147.0507  139.0175  154.8743 C   0  0  0  0  0  0  0  0  0  0  0  0
  150.8325  141.5431  158.2118 C   0  0  0  0  0  0  0  0  0  0  0  0
  151.6297  141.7656  159.2782 N   0  0  0  0  0  0  0  0  0  0  0  0
  153.5455  144.1550  160.6043 H   0  0  0  0  0  0  0  0  0  0  0  0
  154.1126  142.4883  160.4495 H   0  0  0  0  0  0  0  0  0  0  0  0
  152.6906  142.8540  161.4356 H   0  0  0  0  0  0  0  0  0  0  0  0
  152.8616  144.7912  158.3475 H   0  0  0  0  0  0  0  0  0  0  0  0
  151.3878  144.3889  156.4019 H   0  0  0  0  0  0  0  0  0  0  0  0
  149.3695  142.8579  155.6134 H   0  0  0  0  0  0  0  0  0  0  0  0
  148.3410  141.8435  154.2902 H   0  0  0  0  0  0  0  0  0  0  0  0
  148.8073  139.1088  153.6223 H   0  0  0  0  0  0  0  0  0  0  0  0
  146.4903  140.9907  152.9942 H   0  0  0  0  0  0  0  0  0  0  0  0
  147.9113  140.7401  152.0091 H   0  0  0  0  0  0  0  0  0  0  0  0
  145.9790  139.4957  151.1682 H   0  0  0  0  0  0  0  0  0  0  0  0
  147.2715  138.3837  151.5873 H   0  0  0  0  0  0  0  0  0  0  0  0
  144.1646  137.6836  151.5475 H   0  0  0  0  0  0  0  0  0  0  0  0
  144.5368  136.0612  154.1064 H   0  0  0  0  0  0  0  0  0  0  0  0
  143.1674  137.0812  153.7066 H   0  0  0  0  0  0  0  0  0  0  0  0
  142.6200  134.7247  153.3232 H   0  0  0  0  0  0  0  0  0  0  0  0
  142.5368  135.6300  151.8221 H   0  0  0  0  0  0  0  0  0  0  0  0
  144.2250  132.5174  150.9750 H   0  0  0  0  0  0  0  0  0  0  0  0
  142.8178  133.5301  150.6286 H   0  0  0  0  0  0  0  0  0  0  0  0
  142.9425  132.6751  152.1708 H   0  0  0  0  0  0  0  0  0  0  0  0
  145.6499  134.3518  150.4907 H   0  0  0  0  0  0  0  0  0  0  0  0
  144.2876  135.4150  150.1855 H   0  0  0  0  0  0  0  0  0  0  0  0
  146.3233  136.6836  150.7843 H   0  0  0  0  0  0  0  0  0  0  0  0
  146.4798  135.8206  152.2915 H   0  0  0  0  0  0  0  0  0  0  0  0
  145.7072  137.3553  154.8295 H   0  0  0  0  0  0  0  0  0  0  0  0
  147.1180  137.1236  153.8265 H   0  0  0  0  0  0  0  0  0  0  0  0
  147.5916  138.6261  155.7369 H   0  0  0  0  0  0  0  0  0  0  0  0
  146.2912  139.6950  155.2674 H   0  0  0  0  0  0  0  0  0  0  0  0
  150.2778  140.6163  158.2248 H   0  0  0  0  0  0  0  0  0  0  0  0
  144.9506  139.0099  153.2494 H   0  0  0  0  0  0  0  0  0  0  0  0
  1  2  1  0  0  0  0
  1 25  1  0  0  0  0
  1 26  1  0  0  0  0
  1 27  1  0  0  0  0
  2 24  1  0  0  0  0
  2  3  2  0  0  0  0
  3  4  1  0  0  0  0
  3 28  1  0  0  0  0
  4  5  2  0  0  0  0
  4 29  1  0  0  0  0
  5  6  1  0  0  0  0
  5 23  1  0  0  0  0
  6  7  1  0  0  0  0
  6 30  1  0  0  0  0
  7  8  2  0  0  0  0
  7  9  1  0  0  0  0
  9 10  1  0  0  0  0
  9 31  1  0  0  0  0
 10 22  1  0  0  0  0
 10 11  1  0  0  0  0
 10 32  1  0  0  0  0
 11 12  1  0  0  0  0
 11 33  1  0  0  0  0
 11 34  1  0  0  0  0
 12 13  1  0  0  0  0
 12 35  1  0  0  0  0
 12 36  1  0  0  0  0
 13 14  1  0  0  0  0
 13 21  1  0  0  0  0
 13 54  1  0  0  0  0
 14 20  1  0  0  0  0
 14 15  1  0  0  0  0
 14 37  1  0  0  0  0
 15 16  1  0  0  0  0
 15 38  1  0  0  0  0
 15 39  1  0  0  0  0
 16 17  1  0  0  0  0
 16 40  1  0  0  0  0
 16 41  1  0  0  0  0
 17 18  1  0  0  0  0
 17 19  1  0  0  0  0
 18 42  1  0  0  0  0
 18 43  1  0  0  0  0
 18 44  1  0  0  0  0
 19 20  1  0  0  0  0
 19 45  1  0  0  0  0
 19 46  1  0  0  0  0
 20 47  1  0  0  0  0
 20 48  1  0  0  0  0
 21 22  1  0  0  0  0
 21 49  1  0  0  0  0
 21 50  1  0  0  0  0
 22 51  1  0  0  0  0
 22 52  1  0  0  0  0
 23 24  2  0  0  0  0
 23 53  1  0  0  0  0
M  CHG  1  13   1
M  END
> <s_m_source_file>
AV-unprocessed.smi

> <i_m_source_file_index>
2772

> <i_lp_mmshare_version>
43012

> <i_f3d_flags>
0

> <s_epik_input>
W0NIM11jMVtjSF1bY0hdYyhbY0hdbjEpW05IXUMoPU8pW05IXVtDSF0yW0NIMl1bQ0gyXU4oW0NIMl1bQ0gyXTIpW0NIXTNbQ0gyXVtDSDJdTihbQ0gzXSlbQ0gyXVtDSDJdMw==

> <s_epik_cmdline>
J2VwaWtfcHl0aG9uJywgJy1waCcsICc3LjAnLCAnLXRuJywgJzgnLCAnLW1hJywgJzIwMCcsICctbWV0YWxfYmluZGluZycsICctaW1hZScsICc8aW5maWxlLm1hZT4nLCAnLW9tYWUnLCAnPG91dGZpbGUubWFlPic=

> <r_epik_Ionization_Penalty>
1.38854

> <r_epik_Ionization_Penalty_Charging>
0.00081195

> <r_epik_Ionization_Penalty_Neutral>
1.38772

> <r_epik_State_Penalty>
1.56122

> <r_epik_Charging_Adjusted_Penalty>
1.56203

> <i_epik_Tot_Q>
1

> <i_epik_Tot_abs_Q>
1

> <r_epik_Metal_State_Penalty>
1.5614

> <b_epik_Metal_Only>
0

> <s_lp_Force_Field>
OPLS_2005

> <r_lp_Energy>
35.3566

> <b_lp_Chiralities_Consistent>
1

> <s_lp_Variant>
AV-unprocessed.smi:2772-7

> <Gold.Version>
5.8.1

> <Gold.Id.Protein>
6NUR|6NUR_protein|mol2

> <Gold.PLP.Fitness>
48.2834

> <Gold.PLP.PLP>
-40.3999

> <Gold.PLP.part.hbond>
-2.4316

> <Gold.PLP.part.metal>
0.0000

> <Gold.PLP.part.buried>
1.3480

> <Gold.PLP.part.nonpolar>
-40.0497

> <Gold.PLP.part.repulsive>
0.3292

> <Gold.PLP.ligand.clash>
0.0000

> <Gold.PLP.ligand.torsion>
0.2768

> <Gold.PLP.Chemscore.Hbond>
2.8000

> <Gold.PLP.Chemscore.CHOScore>
0.0000

> <Gold.PLP.Chemscore.Metal>
0.0000

> <Gold.Chemscore.Hbonds>
donor molecule, donor type, donor heavy atom, donor atom, acceptor molecule, acceptor atom, score
      L1  H     6    30       P1  8028  0.96
      L1  H    13    54       P1 10175  1.35

> <Gold.PLP.Chemscore.Internal.Correction>
0.0371

> <Gold.Rescore>
     Score         DG    S(hbond)    S(metal)    S(lipo)     H(rot)  DE(clash)    DE(int)     intcor
     19.14     -23.12       1.80        0.00     125.45       1.19       2.35       1.62       ----

> <Gold.Chemscore.Fitness>
19.1440

> <Gold.Chemscore.DG>
-23.1210

> <Gold.Chemscore.ZeroCoef>
-5.4800

> <Gold.Chemscore.Hbond>
1.8001

> <Gold.Chemscore.Metal>
0.0000

> <Gold.Chemscore.Lipo>
125.4496

> <Gold.Chemscore.Internal_Hbond>
0.0000

> <Gold.Chemscore.DEClash>
2.3543

> <Gold.Chemscore.DEInternal>
1.6227

> <Gold.Chemscore.Rot>
1.1910

> <Gold.Chemscore.Internal.Correction>
   9.000000E+99

> <Gold.Chemscore.Hbonds>
donor molecule, donor type, donor heavy atom, donor atom, acceptor molecule, acceptor atom, score
      L1  H     6    30       P1  8028  0.92
      L1  H    13    54       P1 10175  0.65

> <Gold.Chemscore.Hbond.Weighted>
-6.0123

> <Gold.Chemscore.Metal.Weighted>
-0.0000

> <Gold.Chemscore.Lipo.Weighted>
-14.6776

> <Gold.Chemscore.Internal_Hbond.Weighted>
0.0000

> <Gold.Chemscore.DEClash.Weighted>
2.3543

> <Gold.Chemscore.DEInternal.Weighted>
1.6227

> <Gold.Chemscore.Rot.Weighted>
3.0489

> <Gold.Chemscore.Internal.Correction.Weighted>
   9.000000E+99

> <Gold.Protein.RotatedTorsions>
[ 6907 6896 6895 6894 ] final   78.97 input  -60.11 | X-H torsion
[ 7974 7965 7964 7962 ] final -155.44 input  175.53 | X-H torsion
[ 8008 7997 7996 7995 ] final  -74.80 input   59.86 | X-H torsion
[ 10167 10162 10161 10158 ] final  139.22 input  -65.29 | X-H torsion
[ 10718 10713 10712 10709 ] final   86.20 input   66.30 | X-H torsion
[ 10763 10752 10751 10750 ] final   75.76 input  -60.55 | X-H torsion
[ 11005 11000 10999 10996 ] final -126.12 input  -57.11 | X-H torsion

> <Gold.Protein.ActiveResidues>
 VAL166  LYS551  ARG553  GLY616  TRP617  ASP618  TYR619  PRO620  LYS621  CYS622 
 ASP623  PHE694  ASN695  SER759  ASP760  ASP761  ALA762  ILE779  LEU786  VAL792 
 PHE793  MET794  SER795  GLU796  ALA797  LYS798  CYS799  TRP800  GLU811  SER814 

> <Gold.Protein.RotatedAtoms>
  152.5180  134.3583  159.9275 H   0  0  0  0  0  0  0  0  0  0  0  0  # atno 6907 bound_to 6896
  151.3535  133.3910  159.2690 H   0  0  0  0  0  0  0  0  0  0  0  0  # atno 6908 bound_to 6896
  150.9708  134.9100  159.7845 H   0  0  0  0  0  0  0  0  0  0  0  0  # atno 6909 bound_to 6896
  144.7640  140.4249  143.5956 H   0  0  0  0  0  0  0  0  0  0  0  0  # atno 7974 bound_to 7965
  154.5362  140.0755  156.8431 H   0  0  0  0  0  0  0  0  0  0  0  0  # atno 8008 bound_to 7997
  155.3274  140.3399  155.4222 H   0  0  0  0  0  0  0  0  0  0  0  0  # atno 8009 bound_to 7997
  156.1830  140.1659  156.8225 H   0  0  0  0  0  0  0  0  0  0  0  0  # atno 8010 bound_to 7997
  139.5086  144.6307  151.5824 H   0  0  0  0  0  0  0  0  0  0  0  0  # atno 10167 bound_to 10162
  157.6925  131.0206  150.2937 H   0  0  0  0  0  0  0  0  0  0  0  0  # atno 10718 bound_to 10713
  153.0677  135.4976  154.8236 H   0  0  0  0  0  0  0  0  0  0  0  0  # atno 10763 bound_to 10752
  154.6978  135.2996  154.9389 H   0  0  0  0  0  0  0  0  0  0  0  0  # atno 10764 bound_to 10752
  154.0122  135.6753  153.4819 H   0  0  0  0  0  0  0  0  0  0  0  0  # atno 10765 bound_to 10752
  140.9707  134.0809  157.3872 H   0  0  0  0  0  0  0  0  0  0  0  0  # atno 11005 bound_to 11000
  145.6529  139.1568  143.2852 LP  0  0  0  0  0  0  0  0  0  0  0  0  # atno 17320 bound_to 7965
  146.1730  140.6616  142.9224 LP  0  0  0  0  0  0  0  0  0  0  0  0  # atno 17321 bound_to 7965
  140.6039  143.9559  150.6405 LP  0  0  0  0  0  0  0  0  0  0  0  0  # atno 17342 bound_to 10162
  140.2780  143.3409  152.1177 LP  0  0  0  0  0  0  0  0  0  0  0  0  # atno 17343 bound_to 10162
  156.3464  130.3824  149.7365 LP  0  0  0  0  0  0  0  0  0  0  0  0  # atno 17370 bound_to 10713
  156.4857  130.8062  151.3074 LP  0  0  0  0  0  0  0  0  0  0  0  0  # atno 17371 bound_to 10713
  139.8911  135.0116  156.6773 LP  0  0  0  0  0  0  0  0  0  0  0  0  # atno 17394 bound_to 11000
  140.7333  133.9040  155.8226 LP  0  0  0  0  0  0  0  0  0  0  0  0  # atno 17395 bound_to 11000

$$$$
