AV-unprocessed.smi:3183|AV-procd|sdf|12153|dock2
  -GOLD-   2272017593D 1   1.00000     0.00000
 Structure written by MMmdl.
 43 44  0  0  0  0  0  0  0  0  2 V2000
  153.0046  142.9828  162.3235 C   0  0  0  0  0  0  0  0  0  0  0  0
  152.9336  143.0522  160.7878 C   0  0  2  0  0  0  0  0  0  0  0  0
  151.9834  144.1903  160.3612 C   0  0  0  0  0  0  0  0  0  0  0  0
  151.8793  144.3136  158.8348 C   0  0  0  0  0  0  0  0  0  0  0  0
  151.4231  142.9883  158.2071 C   0  0  1  0  0  0  0  0  0  0  0  0
  151.3592  143.1130  156.7349 N   0  3  0  0  0  0  0  0  0  0  0  0
  150.9717  141.8768  156.0260 C   0  0  0  0  0  0  0  0  0  0  0  0
  149.5990  142.0327  155.3549 C   0  0  0  0  0  0  0  0  0  0  0  0
  149.1337  140.8179  154.6102 C   0  0  0  0  0  0  0  0  0  0  0  0
  149.6476  139.5507  154.5522 C   0  0  0  0  0  0  0  0  0  0  0  0
  148.7642  138.8542  153.6831 C   0  0  0  0  0  0  0  0  0  0  0  0
  147.7846  139.6202  153.2379 N   0  0  0  0  0  0  0  0  0  0  0  0
  148.0075  140.8247  153.8038 N   0  0  0  0  0  0  0  0  0  0  0  0
  147.0868  141.9066  153.5076 C   0  0  0  0  0  0  0  0  0  0  0  0
  152.3826  141.8551  158.6076 C   0  0  0  0  0  0  0  0  0  0  0  0
  152.5055  141.7082  160.1393 C   0  0  1  0  0  0  0  0  0  0  0  0
  153.4594  140.5484  160.4775 C   0  0  0  0  0  0  0  0  0  0  0  0
  152.0510  142.6721  162.7516 H   0  0  0  0  0  0  0  0  0  0  0  0
  153.2555  143.9559  162.7467 H   0  0  0  0  0  0  0  0  0  0  0  0
  153.7695  142.2855  162.6639 H   0  0  0  0  0  0  0  0  0  0  0  0
  153.9320  143.3017  160.4249 H   0  0  0  0  0  0  0  0  0  0  0  0
  150.9907  144.0164  160.7790 H   0  0  0  0  0  0  0  0  0  0  0  0
  152.3278  145.1381  160.7764 H   0  0  0  0  0  0  0  0  0  0  0  0
  151.1787  145.1095  158.5799 H   0  0  0  0  0  0  0  0  0  0  0  0
  152.8470  144.6090  158.4265 H   0  0  0  0  0  0  0  0  0  0  0  0
  150.4306  142.7499  158.5942 H   0  0  0  0  0  0  0  0  0  0  0  0
  150.6899  143.8343  156.5067 H   0  0  0  0  0  0  0  0  0  0  0  0
  151.7304  141.6431  155.2773 H   0  0  0  0  0  0  0  0  0  0  0  0
  150.9486  141.0508  156.7384 H   0  0  0  0  0  0  0  0  0  0  0  0
  148.8580  142.2869  156.1140 H   0  0  0  0  0  0  0  0  0  0  0  0
  149.6331  142.8782  154.6664 H   0  0  0  0  0  0  0  0  0  0  0  0
  150.5249  139.1712  155.0547 H   0  0  0  0  0  0  0  0  0  0  0  0
  148.8054  137.8228  153.3653 H   0  0  0  0  0  0  0  0  0  0  0  0
  147.3815  142.8220  154.0195 H   0  0  0  0  0  0  0  0  0  0  0  0
  146.0823  141.6325  153.8317 H   0  0  0  0  0  0  0  0  0  0  0  0
  147.0753  142.0948  152.4337 H   0  0  0  0  0  0  0  0  0  0  0  0
  152.0337  140.9156  158.1765 H   0  0  0  0  0  0  0  0  0  0  0  0
  153.3693  142.0410  158.1801 H   0  0  0  0  0  0  0  0  0  0  0  0
  151.5201  141.4439  160.5263 H   0  0  0  0  0  0  0  0  0  0  0  0
  154.4846  140.7779  160.1850 H   0  0  0  0  0  0  0  0  0  0  0  0
  153.1643  139.6357  159.9590 H   0  0  0  0  0  0  0  0  0  0  0  0
  153.4576  140.3192  161.5427 H   0  0  0  0  0  0  0  0  0  0  0  0
  152.2672  143.4030  156.4008 H   0  0  0  0  0  0  0  0  0  0  0  0
  1  2  1  0  0  0  0
  1 18  1  0  0  0  0
  1 19  1  0  0  0  0
  1 20  1  0  0  0  0
  2 16  1  0  0  0  0
  2  3  1  0  0  0  0
  2 21  1  0  0  0  0
  3  4  1  0  0  0  0
  3 22  1  0  0  0  0
  3 23  1  0  0  0  0
  4  5  1  0  0  0  0
  4 24  1  0  0  0  0
  4 25  1  0  0  0  0
  5  6  1  0  0  0  0
  5 15  1  0  0  0  0
  5 26  1  0  0  0  0
  6  7  1  0  0  0  0
  6 27  1  0  0  0  0
  6 43  1  0  0  0  0
  7  8  1  0  0  0  0
  7 28  1  0  0  0  0
  7 29  1  0  0  0  0
  8  9  1  0  0  0  0
  8 30  1  0  0  0  0
  8 31  1  0  0  0  0
  9 13  1  0  0  0  0
  9 10  2  0  0  0  0
 10 11  1  0  0  0  0
 10 32  1  0  0  0  0
 11 12  2  0  0  0  0
 11 33  1  0  0  0  0
 12 13  1  0  0  0  0
 13 14  1  0  0  0  0
 14 34  1  0  0  0  0
 14 35  1  0  0  0  0
 14 36  1  0  0  0  0
 15 16  1  0  0  0  0
 15 37  1  0  0  0  0
 15 38  1  0  0  0  0
 16 17  1  0  0  0  0
 16 39  1  0  0  0  0
 17 40  1  0  0  0  0
 17 41  1  0  0  0  0
 17 42  1  0  0  0  0
M  CHG  1   6   1
M  END
> <s_m_source_file>
AV-unprocessed.smi

> <i_m_source_file_index>
3183

> <i_lp_mmshare_version>
43012

> <i_f3d_flags>
0

> <s_epik_input>
W0NIM11bQ0BASF0xW0NIMl1bQ0gyXVtDQEhdKFtDSDJdW0NASF0xW0NIM10pW05IXVtDSDJdW0NIMl1jMltjSF1bY0hdbm4yW0NIM10=

> <s_epik_cmdline>
J2VwaWtfcHl0aG9uJywgJy1waCcsICc3LjAnLCAnLXRuJywgJzgnLCAnLW1hJywgJzIwMCcsICctbWV0YWxfYmluZGluZycsICctaW1hZScsICc8aW5maWxlLm1hZT4nLCAnLW9tYWUnLCAnPG91dGZpbGUubWFlPic=

> <r_lp_tautomer_probability>
1

> <r_epik_Ionization_Penalty>
0.000327718

> <r_epik_Ionization_Penalty_Charging>
0.000294043

> <r_epik_Ionization_Penalty_Neutral>
3.36755e-05

> <r_epik_State_Penalty>
-0

> <r_epik_Charging_Adjusted_Penalty>
0.000294043

> <i_epik_Tot_Q>
1

> <i_epik_Tot_abs_Q>
1

> <r_epik_Metal_State_Penalty>
-0

> <b_epik_Metal_Only>
0

> <s_lp_Force_Field>
OPLS_2005

> <r_lp_Energy>
14.1595

> <b_lp_Chiralities_Consistent>
1

> <s_lp_Variant>
AV-unprocessed.smi:3183-1

> <Gold.Version>
5.8.1

> <Gold.Id.Protein>
6NUR|6NUR_protein|mol2

> <Gold.PLP.Fitness>
49.1384

> <Gold.PLP.PLP>
-41.0015

> <Gold.PLP.part.hbond>
-1.0000

> <Gold.PLP.part.metal>
0.0000

> <Gold.PLP.part.buried>
-1.2238

> <Gold.PLP.part.nonpolar>
-38.7587

> <Gold.PLP.part.repulsive>
0.2329

> <Gold.PLP.ligand.clash>
0.0000

> <Gold.PLP.ligand.torsion>
0.4353

> <Gold.PLP.Chemscore.Hbond>
2.0000

> <Gold.PLP.Chemscore.CHOScore>
1.0000

> <Gold.PLP.Chemscore.Metal>
0.0000

> <Gold.Chemscore.Hbonds>
donor molecule, donor type, donor heavy atom, donor atom, acceptor molecule, acceptor atom, score
      L1  H     6    27       P1  8028  1.33
      L1  C    11    33       P1  7948  1.00

> <Gold.PLP.Chemscore.Internal.Correction>
0.0075

> <Gold.Rescore>
     Score         DG    S(hbond)    S(metal)    S(lipo)     H(rot)  DE(clash)    DE(int)     intcor
     18.90     -19.83       1.00        0.00     124.29       1.38       0.44       0.49       ----

> <Gold.Chemscore.Fitness>
18.8951

> <Gold.Chemscore.DG>
-19.8342

> <Gold.Chemscore.ZeroCoef>
-5.4800

> <Gold.Chemscore.Hbond>
0.9992

> <Gold.Chemscore.Metal>
0.0000

> <Gold.Chemscore.Lipo>
124.2857

> <Gold.Chemscore.Internal_Hbond>
0.0000

> <Gold.Chemscore.DEClash>
0.4446

> <Gold.Chemscore.DEInternal>
0.4945

> <Gold.Chemscore.Rot>
1.3768

> <Gold.Chemscore.Internal.Correction>
   9.000000E+99

> <Gold.Chemscore.Hbonds>
donor molecule, donor type, donor heavy atom, donor atom, acceptor molecule, acceptor atom, score
      L1  H     6    27       P1  8028  0.66

> <Gold.Chemscore.Hbond.Weighted>
-3.3374

> <Gold.Chemscore.Metal.Weighted>
-0.0000

> <Gold.Chemscore.Lipo.Weighted>
-14.5414

> <Gold.Chemscore.Internal_Hbond.Weighted>
0.0000

> <Gold.Chemscore.DEClash.Weighted>
0.4446

> <Gold.Chemscore.DEInternal.Weighted>
0.4945

> <Gold.Chemscore.Rot.Weighted>
3.5247

> <Gold.Chemscore.Internal.Correction.Weighted>
   9.000000E+99

> <Gold.Protein.RotatedTorsions>
[ 6907 6896 6895 6894 ] final -137.20 input  -60.11 | X-H torsion
[ 7974 7965 7964 7962 ] final  137.38 input  175.53 | X-H torsion
[ 8008 7997 7996 7995 ] final  135.99 input   59.86 | X-H torsion
[ 10167 10162 10161 10158 ] final  126.06 input  -65.29 | X-H torsion
[ 10718 10713 10712 10709 ] final  156.65 input   66.30 | X-H torsion
[ 10763 10752 10751 10750 ] final   98.51 input  -60.55 | X-H torsion
[ 11005 11000 10999 10996 ] final  -74.37 input  -57.11 | X-H torsion

> <Gold.Protein.ActiveResidues>
 VAL166  LYS551  ARG553  GLY616  TRP617  ASP618  TYR619  PRO620  LYS621  CYS622 
 ASP623  PHE694  ASN695  SER759  ASP760  ASP761  ALA762  ILE779  LEU786  VAL792 
 PHE793  MET794  SER795  GLU796  ALA797  LYS798  CYS799  TRP800  GLU811  SER814 

> <Gold.Protein.RotatedAtoms>
  151.0195  133.5890  159.2672 H   0  0  0  0  0  0  0  0  0  0  0  0  # atno 6907 bound_to 6896
  151.3012  135.0768  159.9249 H   0  0  0  0  0  0  0  0  0  0  0  0  # atno 6908 bound_to 6896
  152.5319  133.9877  159.7890 H   0  0  0  0  0  0  0  0  0  0  0  0  # atno 6909 bound_to 6896
  144.9473  139.4859  143.5543 H   0  0  0  0  0  0  0  0  0  0  0  0  # atno 7974 bound_to 7965
  156.3004  140.2456  156.3672 H   0  0  0  0  0  0  0  0  0  0  0  0  # atno 8008 bound_to 7997
  154.8822  140.0412  157.1808 H   0  0  0  0  0  0  0  0  0  0  0  0  # atno 8009 bound_to 7997
  154.8684  140.2931  155.5500 H   0  0  0  0  0  0  0  0  0  0  0  0  # atno 8010 bound_to 7997
  139.5651  144.6906  151.3932 H   0  0  0  0  0  0  0  0  0  0  0  0  # atno 10167 bound_to 10162
  157.2021  131.0678  151.2019 H   0  0  0  0  0  0  0  0  0  0  0  0  # atno 10718 bound_to 10713
  153.2900  135.4146  155.1158 H   0  0  0  0  0  0  0  0  0  0  0  0  # atno 10763 bound_to 10752
  154.8517  135.3516  154.5995 H   0  0  0  0  0  0  0  0  0  0  0  0  # atno 10764 bound_to 10752
  153.6417  135.7056  153.5297 H   0  0  0  0  0  0  0  0  0  0  0  0  # atno 10765 bound_to 10752
  141.1634  133.6909  156.7354 H   0  0  0  0  0  0  0  0  0  0  0  0  # atno 11005 bound_to 11000
  146.3308  139.8535  142.8869 LP  0  0  0  0  0  0  0  0  0  0  0  0  # atno 17320 bound_to 7965
  145.2897  141.0163  143.3670 LP  0  0  0  0  0  0  0  0  0  0  0  0  # atno 17321 bound_to 7965
  140.6934  143.7806  150.7290 LP  0  0  0  0  0  0  0  0  0  0  0  0  # atno 17342 bound_to 10162
  140.1296  143.4538  152.2263 LP  0  0  0  0  0  0  0  0  0  0  0  0  # atno 17343 bound_to 10162
  157.3756  130.7204  149.6595 LP  0  0  0  0  0  0  0  0  0  0  0  0  # atno 17370 bound_to 10713
  155.9699  130.4186  150.4338 LP  0  0  0  0  0  0  0  0  0  0  0  0  # atno 17371 bound_to 10713
  140.2714  134.8389  157.3850 LP  0  0  0  0  0  0  0  0  0  0  0  0  # atno 17394 bound_to 11000
  140.1518  134.4840  155.7956 LP  0  0  0  0  0  0  0  0  0  0  0  0  # atno 17395 bound_to 11000

$$$$
