AV-unprocessed.smi:1762|AV-procd|sdf|7125|dock4
  -GOLD-   22720 8363D 1   1.00000     0.00000
 Structure written by MMmdl.
 52 53  0  0  0  0  0  0  0  0  3 V2000
  147.0656  144.1150  160.1924 C   0  0  0  0  0  0  0  0  0  0  0  0
  148.3562  144.2268  159.3730 C   0  0  2  0  0  0  0  0  0  0  0  0
  148.5985  142.9839  158.4995 C   0  0  0  0  0  0  0  0  0  0  0  0
  149.8870  143.0875  157.7539 N   0  3  2  0  0  0  0  0  0  0  0  0
  150.1282  141.9275  156.8293 C   0  0  1  0  0  0  0  0  0  0  0  0
  150.4149  140.6348  157.6320 C   0  0  0  0  0  0  0  0  0  0  0  0
  149.5219  140.1781  158.3541 O   0  0  0  0  0  0  0  0  0  0  0  0
  151.6911  140.2015  157.4349 N   0  5  0  0  0  0  0  0  0  0  0  0
  152.3344  139.1634  158.2383 C   0  0  0  0  0  0  0  0  0  0  0  0
  152.3123  139.5543  159.7345 C   0  0  0  0  0  0  0  0  0  0  0  0
  153.6562  139.4083  160.4407 C   0  0  0  0  0  0  0  0  0  0  0  0
  153.7472  139.5357  161.8455 C   0  0  0  0  0  0  0  0  0  0  0  0
  155.0064  139.3831  162.4570 C   0  0  0  0  0  0  0  0  0  0  0  0
  156.1246  139.1051  161.6481 C   0  0  0  0  0  0  0  0  0  0  0  0
  155.9326  138.9884  160.2574 C   0  0  0  0  0  0  0  0  0  0  0  0
  154.7298  139.1313  159.6607 N   0  0  0  0  0  0  0  0  0  0  0  0
  149.0010  141.6960  155.7654 C   0  0  0  0  0  0  0  0  0  0  0  0
  147.6925  141.1088  156.3348 C   0  0  0  0  0  0  0  0  0  0  0  0
  149.4739  140.8607  154.5594 C   0  0  0  0  0  0  0  0  0  0  0  0
  150.9875  143.3537  158.7215 C   0  0  0  0  0  0  0  0  0  0  0  0
  150.6745  144.5782  159.6030 C   0  0  2  0  0  0  0  0  0  0  0  0
  151.7566  144.8198  160.6612 C   0  0  0  0  0  0  0  0  0  0  0  0
  149.4415  144.3715  160.2777 O   0  0  0  0  0  0  0  0  0  0  0  0
  146.1958  144.0145  159.5426 H   0  0  0  0  0  0  0  0  0  0  0  0
  146.9180  145.0016  160.8095 H   0  0  0  0  0  0  0  0  0  0  0  0
  147.0906  143.2488  160.8542 H   0  0  0  0  0  0  0  0  0  0  0  0
  148.2886  145.1146  158.7415 H   0  0  0  0  0  0  0  0  0  0  0  0
  148.6112  142.0855  159.1191 H   0  0  0  0  0  0  0  0  0  0  0  0
  147.7529  142.8833  157.8196 H   0  0  0  0  0  0  0  0  0  0  0  0
  151.0219  142.1979  156.2610 H   0  0  0  0  0  0  0  0  0  0  0  0
  151.8586  138.1902  158.1091 H   0  0  0  0  0  0  0  0  0  0  0  0
  153.3699  139.0238  157.9272 H   0  0  0  0  0  0  0  0  0  0  0  0
  151.9775  140.5875  159.8398 H   0  0  0  0  0  0  0  0  0  0  0  0
  151.5777  138.9466  160.2657 H   0  0  0  0  0  0  0  0  0  0  0  0
  152.8715  139.7498  162.4406 H   0  0  0  0  0  0  0  0  0  0  0  0
  155.1122  139.4779  163.5276 H   0  0  0  0  0  0  0  0  0  0  0  0
  157.1055  138.9833  162.0827 H   0  0  0  0  0  0  0  0  0  0  0  0
  156.7671  138.7727  159.6066 H   0  0  0  0  0  0  0  0  0  0  0  0
  148.7560  142.6647  155.3321 H   0  0  0  0  0  0  0  0  0  0  0  0
  147.8171  140.0726  156.6492 H   0  0  0  0  0  0  0  0  0  0  0  0
  146.9051  141.1208  155.5808 H   0  0  0  0  0  0  0  0  0  0  0  0
  147.3275  141.6725  157.1927 H   0  0  0  0  0  0  0  0  0  0  0  0
  149.6780  139.8251  154.8333 H   0  0  0  0  0  0  0  0  0  0  0  0
  150.3843  141.2759  154.1261 H   0  0  0  0  0  0  0  0  0  0  0  0
  148.7167  140.8449  153.7750 H   0  0  0  0  0  0  0  0  0  0  0  0
  151.1460  142.4693  159.3408 H   0  0  0  0  0  0  0  0  0  0  0  0
  151.9237  143.5593  158.2063 H   0  0  0  0  0  0  0  0  0  0  0  0
  150.5978  145.4700  158.9782 H   0  0  0  0  0  0  0  0  0  0  0  0
  152.7261  145.0041  160.1981 H   0  0  0  0  0  0  0  0  0  0  0  0
  151.8599  143.9600  161.3238 H   0  0  0  0  0  0  0  0  0  0  0  0
  151.5124  145.6860  161.2763 H   0  0  0  0  0  0  0  0  0  0  0  0
  149.8154  143.9028  157.1621 H   0  0  0  0  0  0  0  0  0  0  0  0
  1  2  1  0  0  0  0
  1 24  1  0  0  0  0
  1 25  1  0  0  0  0
  1 26  1  0  0  0  0
  2 23  1  0  0  0  0
  2  3  1  0  0  0  0
  2 27  1  0  0  0  0
  3  4  1  0  0  0  0
  3 28  1  0  0  0  0
  3 29  1  0  0  0  0
  4  5  1  0  0  0  0
  4 20  1  0  0  0  0
  4 52  1  0  0  0  0
  5  6  1  0  0  0  0
  5 17  1  0  0  0  0
  5 30  1  0  0  0  0
  6  7  2  0  0  0  0
  6  8  1  0  0  0  0
  8  9  1  0  0  0  0
  9 10  1  0  0  0  0
  9 31  1  0  0  0  0
  9 32  1  0  0  0  0
 10 11  1  0  0  0  0
 10 33  1  0  0  0  0
 10 34  1  0  0  0  0
 11 16  1  0  0  0  0
 11 12  2  0  0  0  0
 12 13  1  0  0  0  0
 12 35  1  0  0  0  0
 13 14  2  0  0  0  0
 13 36  1  0  0  0  0
 14 15  1  0  0  0  0
 14 37  1  0  0  0  0
 15 16  2  0  0  0  0
 15 38  1  0  0  0  0
 17 18  1  0  0  0  0
 17 19  1  0  0  0  0
 17 39  1  0  0  0  0
 18 40  1  0  0  0  0
 18 41  1  0  0  0  0
 18 42  1  0  0  0  0
 19 43  1  0  0  0  0
 19 44  1  0  0  0  0
 19 45  1  0  0  0  0
 20 21  1  0  0  0  0
 20 46  1  0  0  0  0
 20 47  1  0  0  0  0
 21 22  1  0  0  0  0
 21 23  1  0  0  0  0
 21 48  1  0  0  0  0
 22 49  1  0  0  0  0
 22 50  1  0  0  0  0
 22 51  1  0  0  0  0
M  CHG  1   4   1
M  CHG  1   8  -1
M  END
> <s_m_source_file>
AV-unprocessed.smi

> <i_m_source_file_index>
1762

> <i_lp_mmshare_version>
43012

> <i_f3d_flags>
0

> <s_epik_input>
W0NIM11bQ0BASF0xW0NIMl1OKFtDSDJdW0NASF0oTzEpW0NIM10pW0NAQEhdKFtDSF0oW0NIM10pW0NIM10pQyg9TylbTkhdW0NIMl1bQ0gyXWMyW2NIXVtjSF1bY0hdW2NIXW4y

> <s_epik_cmdline>
J2VwaWtfcHl0aG9uJywgJy1waCcsICc3LjAnLCAnLXRuJywgJzgnLCAnLW1hJywgJzIwMCcsICctbWV0YWxfYmluZGluZycsICctaW1hZScsICc8aW5maWxlLm1hZT4nLCAnLW9tYWUnLCAnPG91dGZpbGUubWFlPic=

> <r_epik_Ionization_Penalty>
7.82966

> <r_epik_Ionization_Penalty_Charging>
7.7461

> <r_epik_Ionization_Penalty_Neutral>
0.0835571

> <r_epik_State_Penalty>
8.52273

> <r_epik_Charging_Adjusted_Penalty>
16.2688

> <i_epik_Tot_Q>
0

> <i_epik_Tot_abs_Q>
2

> <r_epik_Metal_State_Penalty>
4.47451

> <b_epik_Metal_Only>
1

> <s_lp_Force_Field>
OPLS_2005

> <r_lp_Energy>
21.2393

> <b_lp_Chiralities_Consistent>
1

> <s_lp_Variant>
AV-unprocessed.smi:1762-27

> <Gold.Version>
5.8.1

> <Gold.Id.Protein>
6NUR|6NUR_protein|mol2

> <Gold.PLP.Fitness>
41.1574

> <Gold.PLP.PLP>
-33.1613

> <Gold.PLP.part.hbond>
-2.3863

> <Gold.PLP.part.metal>
0.0000

> <Gold.PLP.part.buried>
-0.9120

> <Gold.PLP.part.nonpolar>
-29.6851

> <Gold.PLP.part.repulsive>
0.2121

> <Gold.PLP.ligand.clash>
0.0000

> <Gold.PLP.ligand.torsion>
0.7108

> <Gold.PLP.Chemscore.Hbond>
3.0000

> <Gold.PLP.Chemscore.CHOScore>
0.0000

> <Gold.PLP.Chemscore.Metal>
0.0000

> <Gold.Chemscore.Hbonds>
donor molecule, donor type, donor heavy atom, donor atom, acceptor molecule, acceptor atom, score
      L1  H     4    52       P1  8028  1.86

> <Gold.PLP.Chemscore.Internal.Correction>
0.4177

> <Gold.Rescore>
     Score         DG    S(hbond)    S(metal)    S(lipo)     H(rot)  DE(clash)    DE(int)     intcor
     14.05     -18.09       1.35        0.00     104.18       1.60       0.41       3.62       ----

> <Gold.Chemscore.Fitness>
14.0530

> <Gold.Chemscore.DG>
-18.0898

> <Gold.Chemscore.ZeroCoef>
-5.4800

> <Gold.Chemscore.Hbond>
1.3533

> <Gold.Chemscore.Metal>
0.0000

> <Gold.Chemscore.Lipo>
104.1757

> <Gold.Chemscore.Internal_Hbond>
0.0000

> <Gold.Chemscore.DEClash>
0.4132

> <Gold.Chemscore.DEInternal>
3.6235

> <Gold.Chemscore.Rot>
1.6012

> <Gold.Chemscore.Internal.Correction>
   9.000000E+99

> <Gold.Chemscore.Hbonds>
donor molecule, donor type, donor heavy atom, donor atom, acceptor molecule, acceptor atom, score
      L1  H     4    52       P1  8028  0.74
      P1  H  7997  8008       L1    16  0.01

> <Gold.Chemscore.Hbond.Weighted>
-4.5202

> <Gold.Chemscore.Metal.Weighted>
-0.0000

> <Gold.Chemscore.Lipo.Weighted>
-12.1886

> <Gold.Chemscore.Internal_Hbond.Weighted>
0.0000

> <Gold.Chemscore.DEClash.Weighted>
0.4132

> <Gold.Chemscore.DEInternal.Weighted>
3.6235

> <Gold.Chemscore.Rot.Weighted>
4.0990

> <Gold.Chemscore.Internal.Correction.Weighted>
   9.000000E+99

> <Gold.Protein.RotatedTorsions>
[ 6907 6896 6895 6894 ] final  -29.30 input  -60.11 | X-H torsion
[ 7974 7965 7964 7962 ] final  -15.45 input  175.53 | X-H torsion
[ 8008 7997 7996 7995 ] final -120.40 input   59.86 | X-H torsion
[ 10167 10162 10161 10158 ] final    7.86 input  -65.29 | X-H torsion
[ 10718 10713 10712 10709 ] final  165.45 input   66.30 | X-H torsion
[ 10763 10752 10751 10750 ] final  133.27 input  -60.55 | X-H torsion
[ 11005 11000 10999 10996 ] final  -89.62 input  -57.11 | X-H torsion

> <Gold.Protein.ActiveResidues>
 VAL166  LYS551  ARG553  GLY616  TRP617  ASP618  TYR619  PRO620  LYS621  CYS622 
 ASP623  PHE694  ASN695  SER759  ASP760  ASP761  ALA762  ILE779  LEU786  VAL792 
 PHE793  MET794  SER795  GLU796  ALA797  LYS798  CYS799  TRP800  GLU811  SER814 

> <Gold.Protein.RotatedAtoms>
  151.1210  135.0079  159.8538 H   0  0  0  0  0  0  0  0  0  0  0  0  # atno 6907 bound_to 6896
  152.5448  134.1722  159.8611 H   0  0  0  0  0  0  0  0  0  0  0  0  # atno 6908 bound_to 6896
  151.1781  133.4697  159.2627 H   0  0  0  0  0  0  0  0  0  0  0  0  # atno 6909 bound_to 6896
  146.2031  140.3494  142.8416 H   0  0  0  0  0  0  0  0  0  0  0  0  # atno 7974 bound_to 7965
  155.1312  140.0400  157.2775 H   0  0  0  0  0  0  0  0  0  0  0  0  # atno 8008 bound_to 7997
  154.6542  140.2576  155.7154 H   0  0  0  0  0  0  0  0  0  0  0  0  # atno 8009 bound_to 7997
  156.2591  140.2830  156.0988 H   0  0  0  0  0  0  0  0  0  0  0  0  # atno 8010 bound_to 7997
  140.6347  143.7913  150.7343 H   0  0  0  0  0  0  0  0  0  0  0  0  # atno 10167 bound_to 10162
  157.0799  131.0389  151.2579 H   0  0  0  0  0  0  0  0  0  0  0  0  # atno 10718 bound_to 10713
  153.8043  135.3137  155.3394 H   0  0  0  0  0  0  0  0  0  0  0  0  # atno 10763 bound_to 10752
  154.8076  135.4687  154.0436 H   0  0  0  0  0  0  0  0  0  0  0  0  # atno 10764 bound_to 10752
  153.1794  135.6891  153.8586 H   0  0  0  0  0  0  0  0  0  0  0  0  # atno 10765 bound_to 10752
  141.1581  133.7641  156.9621 H   0  0  0  0  0  0  0  0  0  0  0  0  # atno 11005 bound_to 11000
  144.8730  140.7298  143.6035 LP  0  0  0  0  0  0  0  0  0  0  0  0  # atno 17320 bound_to 7965
  145.3413  139.1731  143.4484 LP  0  0  0  0  0  0  0  0  0  0  0  0  # atno 17321 bound_to 7965
  140.1532  143.4340  152.2117 LP  0  0  0  0  0  0  0  0  0  0  0  0  # atno 17342 bound_to 10162
  139.5558  144.7372  151.4297 LP  0  0  0  0  0  0  0  0  0  0  0  0  # atno 17343 bound_to 10162
  157.4809  130.7764  149.7413 LP  0  0  0  0  0  0  0  0  0  0  0  0  # atno 17370 bound_to 10713
  155.9926  130.3929  150.2933 LP  0  0  0  0  0  0  0  0  0  0  0  0  # atno 17371 bound_to 10713
  140.1186  134.9431  157.2170 LP  0  0  0  0  0  0  0  0  0  0  0  0  # atno 17394 bound_to 11000
  140.3101  134.3033  155.7269 LP  0  0  0  0  0  0  0  0  0  0  0  0  # atno 17395 bound_to 11000

$$$$
