AV-unprocessed.smi:150|AV-procd|sdf|1243|dock6
  -GOLD-   2262018463D 1   1.00000     0.00000
 Structure written by MMmdl.
 55 57  0  0  0  0  0  0  0  0  1 V2000
  151.0354  141.7616  158.0058 C   0  0  0  0  0  0  0  0  0  0  0  0
  150.7301  140.3263  157.5501 C   0  0  0  0  0  0  0  0  0  0  0  0
  151.7656  139.3512  158.1361 C   0  0  0  0  0  0  0  0  0  0  0  0
  150.6498  140.2568  156.0088 C   0  0  0  0  0  0  0  0  0  0  0  0
  149.9808  138.9916  155.4014 C   0  0  1  0  0  0  0  0  0  0  0  0
  149.3113  139.2216  154.0239 C   0  0  0  0  0  0  0  0  0  0  0  0
  149.2252  138.0203  153.2878 O   0  0  0  0  0  0  0  0  0  0  0  0
  150.9036  137.8457  155.3771 N   0  0  0  0  0  0  0  0  0  0  0  0
  152.2858  138.0893  154.9752 C   0  0  0  0  0  0  0  0  0  0  0  0
  150.7450  136.7688  156.1931 C   0  0  0  0  0  0  0  0  0  0  0  0
  151.7749  135.9063  156.3991 N   0  0  0  0  0  0  0  0  0  0  0  0
  151.6195  134.8392  157.1876 C   0  0  0  0  0  0  0  0  0  0  0  0
  150.5334  134.4468  157.8550 N   0  0  0  0  0  0  0  0  0  0  0  0
  149.4918  135.3018  157.6486 C   0  0  0  0  0  0  0  0  0  0  0  0
  149.5113  136.4752  156.8418 C   0  0  0  0  0  0  0  0  0  0  0  0
  148.2691  137.0978  156.8856 N   0  0  0  0  0  0  0  0  0  0  0  0
  147.5565  136.3350  157.6683 C   0  0  0  0  0  0  0  0  0  0  0  0
  148.2090  135.2286  158.1633 N   0  0  0  0  0  0  0  0  0  0  0  0
  147.6569  134.2165  159.0513 C   0  0  0  0  0  0  0  0  0  0  0  0
  146.8581  134.7923  160.2473 C   0  0  0  0  0  0  0  0  0  0  0  0
  145.6424  135.3183  159.7442 O   0  0  0  0  0  0  0  0  0  0  0  0
  146.5233  133.6739  161.2547 C   0  0  0  0  0  0  0  0  0  0  0  0
  145.8817  134.2232  162.5411 C   0  0  0  0  0  0  0  0  0  0  0  0
  146.7272  135.2073  163.1237 O   0  0  0  0  0  0  0  0  0  0  0  0
  146.9108  136.3402  162.2838 C   0  0  0  0  0  0  0  0  0  0  0  0
  147.6123  135.9247  160.9784 C   0  0  0  0  0  0  0  0  0  0  0  0
  152.0048  142.0978  157.6363 H   0  0  0  0  0  0  0  0  0  0  0  0
  151.0509  141.8347  159.0937 H   0  0  0  0  0  0  0  0  0  0  0  0
  150.2804  142.4595  157.6428 H   0  0  0  0  0  0  0  0  0  0  0  0
  149.7545  140.0731  157.9633 H   0  0  0  0  0  0  0  0  0  0  0  0
  152.7579  139.5304  157.7212 H   0  0  0  0  0  0  0  0  0  0  0  0
  151.5017  138.3131  157.9373 H   0  0  0  0  0  0  0  0  0  0  0  0
  151.8347  139.4594  159.2187 H   0  0  0  0  0  0  0  0  0  0  0  0
  150.1306  141.1484  155.6588 H   0  0  0  0  0  0  0  0  0  0  0  0
  151.6641  140.3351  155.6147 H   0  0  0  0  0  0  0  0  0  0  0  0
  149.1984  138.6775  156.0919 H   0  0  0  0  0  0  0  0  0  0  0  0
  148.3140  139.6486  154.1307 H   0  0  0  0  0  0  0  0  0  0  0  0
  149.8928  139.9210  153.4226 H   0  0  0  0  0  0  0  0  0  0  0  0
  149.6355  138.1538  152.4470 H   0  0  0  0  0  0  0  0  0  0  0  0
  152.5080  137.5581  154.0497 H   0  0  0  0  0  0  0  0  0  0  0  0
  152.9897  137.7582  155.7402 H   0  0  0  0  0  0  0  0  0  0  0  0
  152.4653  139.1504  154.7997 H   0  0  0  0  0  0  0  0  0  0  0  0
  152.4897  134.2091  157.2983 H   0  0  0  0  0  0  0  0  0  0  0  0
  146.5258  136.5570  157.9035 H   0  0  0  0  0  0  0  0  0  0  0  0
  147.0277  133.5485  158.4611 H   0  0  0  0  0  0  0  0  0  0  0  0
  148.4845  133.6066  159.4163 H   0  0  0  0  0  0  0  0  0  0  0  0
  145.7263  135.4295  158.8097 H   0  0  0  0  0  0  0  0  0  0  0  0
  145.8683  132.9306  160.7981 H   0  0  0  0  0  0  0  0  0  0  0  0
  147.4393  133.1473  161.5259 H   0  0  0  0  0  0  0  0  0  0  0  0
  144.8955  134.6451  162.3414 H   0  0  0  0  0  0  0  0  0  0  0  0
  145.7382  133.4157  163.2593 H   0  0  0  0  0  0  0  0  0  0  0  0
  145.9503  136.8157  162.0801 H   0  0  0  0  0  0  0  0  0  0  0  0
  147.5181  137.0741  162.8139 H   0  0  0  0  0  0  0  0  0  0  0  0
  148.6210  135.5868  161.2193 H   0  0  0  0  0  0  0  0  0  0  0  0
  147.7261  136.7970  160.3338 H   0  0  0  0  0  0  0  0  0  0  0  0
  1  2  1  0  0  0  0
  1 27  1  0  0  0  0
  1 28  1  0  0  0  0
  1 29  1  0  0  0  0
  2  3  1  0  0  0  0
  2  4  1  0  0  0  0
  2 30  1  0  0  0  0
  3 31  1  0  0  0  0
  3 32  1  0  0  0  0
  3 33  1  0  0  0  0
  4  5  1  0  0  0  0
  4 34  1  0  0  0  0
  4 35  1  0  0  0  0
  5  6  1  0  0  0  0
  5  8  1  0  0  0  0
  5 36  1  0  0  0  0
  6  7  1  0  0  0  0
  6 37  1  0  0  0  0
  6 38  1  0  0  0  0
  7 39  1  0  0  0  0
  8  9  1  0  0  0  0
  8 10  1  0  0  0  0
  9 40  1  0  0  0  0
  9 41  1  0  0  0  0
  9 42  1  0  0  0  0
 10 15  1  0  0  0  0
 10 11  2  0  0  0  0
 11 12  1  0  0  0  0
 12 13  2  0  0  0  0
 12 43  1  0  0  0  0
 13 14  1  0  0  0  0
 14 18  1  0  0  0  0
 14 15  2  0  0  0  0
 15 16  1  0  0  0  0
 16 17  2  0  0  0  0
 17 18  1  0  0  0  0
 17 44  1  0  0  0  0
 18 19  1  0  0  0  0
 19 20  1  0  0  0  0
 19 45  1  0  0  0  0
 19 46  1  0  0  0  0
 20 26  1  0  0  0  0
 20 21  1  0  0  0  0
 20 22  1  0  0  0  0
 21 47  1  0  0  0  0
 22 23  1  0  0  0  0
 22 48  1  0  0  0  0
 22 49  1  0  0  0  0
 23 24  1  0  0  0  0
 23 50  1  0  0  0  0
 23 51  1  0  0  0  0
 24 25  1  0  0  0  0
 25 26  1  0  0  0  0
 25 52  1  0  0  0  0
 25 53  1  0  0  0  0
 26 54  1  0  0  0  0
 26 55  1  0  0  0  0
M  END
> <s_m_source_file>
AV-unprocessed.smi

> <i_m_source_file_index>
150

> <i_lp_mmshare_version>
43012

> <i_f3d_flags>
0

> <s_epik_input>
W0NIM11bQ0hdKFtDSDNdKVtDSDJdW0NASF0oW0NIMl1bT0hdKU4oW0NIM10pYyhuW2NIXW4xKWMoYzEyKW5bY0hdbjJbQ0gyXUMzKFtPSF0pW0NIMl1bQ0gyXU9bQ0gyXVtDSDJdMw==

> <s_epik_cmdline>
J2VwaWtfcHl0aG9uJywgJy1waCcsICc3LjAnLCAnLXRuJywgJzgnLCAnLW1hJywgJzIwMCcsICctbWV0YWxfYmluZGluZycsICctaW1hZScsICc8aW5maWxlLm1hZT4nLCAnLW9tYWUnLCAnPG91dGZpbGUubWFlPic=

> <r_lp_tautomer_probability>
1

> <r_epik_Ionization_Penalty>
0.00548416

> <r_epik_Ionization_Penalty_Charging>
0

> <r_epik_Ionization_Penalty_Neutral>
0.00548416

> <r_epik_State_Penalty>
0.0038135

> <r_epik_Charging_Adjusted_Penalty>
0.0038135

> <i_epik_Tot_Q>
0

> <i_epik_Tot_abs_Q>
0

> <r_epik_Metal_State_Penalty>
-0

> <b_epik_Metal_Only>
0

> <s_lp_Force_Field>
OPLS_2005

> <r_lp_Energy>
26.5114

> <b_lp_Chiralities_Consistent>
1

> <s_lp_Variant>
AV-unprocessed.smi:150-2

> <Gold.Version>
5.8.1

> <Gold.Id.Protein>
6NUR|6NUR_protein|mol2

> <Gold.PLP.Fitness>
44.7526

> <Gold.PLP.PLP>
-38.3518

> <Gold.PLP.part.hbond>
-4.0000

> <Gold.PLP.part.metal>
0.0000

> <Gold.PLP.part.buried>
-6.0384

> <Gold.PLP.part.nonpolar>
-30.2144

> <Gold.PLP.part.repulsive>
0.0481

> <Gold.PLP.ligand.clash>
0.0000

> <Gold.PLP.ligand.torsion>
1.4124

> <Gold.PLP.Chemscore.Hbond>
2.7176

> <Gold.PLP.Chemscore.CHOScore>
0.0000

> <Gold.PLP.Chemscore.Metal>
0.0000

> <Gold.Chemscore.Hbonds>
donor molecule, donor type, donor heavy atom, donor atom, acceptor molecule, acceptor atom, score
      L1  H     7    39       P1  7957  0.23
      P1  H  6896  6907       L1    13  0.58
      P1  H 10752 10763       L1    11  0.73

> <Gold.PLP.Chemscore.Internal.Correction>
1.0728

> <Gold.Rescore>
     Score         DG    S(hbond)    S(metal)    S(lipo)     H(rot)  DE(clash)    DE(int)     intcor
      9.97     -13.68       2.04        0.00      86.16       3.40       0.07       3.64       ----

> <Gold.Chemscore.Fitness>
9.9674

> <Gold.Chemscore.DG>
-13.6833

> <Gold.Chemscore.ZeroCoef>
-5.4800

> <Gold.Chemscore.Hbond>
2.0437

> <Gold.Chemscore.Metal>
0.0000

> <Gold.Chemscore.Lipo>
86.1551

> <Gold.Chemscore.Internal_Hbond>
0.0000

> <Gold.Chemscore.DEClash>
0.0742

> <Gold.Chemscore.DEInternal>
3.6417

> <Gold.Chemscore.Rot>
3.3995

> <Gold.Chemscore.Internal.Correction>
   9.000000E+99

> <Gold.Chemscore.Hbonds>
donor molecule, donor type, donor heavy atom, donor atom, acceptor molecule, acceptor atom, score
      L1  H     7    39       P1  7957  0.05
      P1  H  6896  6907       L1    13  0.48
      P1  H 10752 10763       L1    11  0.57

> <Gold.Chemscore.Hbond.Weighted>
-6.8259

> <Gold.Chemscore.Metal.Weighted>
-0.0000

> <Gold.Chemscore.Lipo.Weighted>
-10.0801

> <Gold.Chemscore.Internal_Hbond.Weighted>
0.0000

> <Gold.Chemscore.DEClash.Weighted>
0.0742

> <Gold.Chemscore.DEInternal.Weighted>
3.6417

> <Gold.Chemscore.Rot.Weighted>
8.7028

> <Gold.Chemscore.Internal.Correction.Weighted>
   9.000000E+99

> <Gold.Protein.RotatedTorsions>
[ 6907 6896 6895 6894 ] final -109.12 input  -60.11 | X-H torsion
[ 7974 7965 7964 7962 ] final -152.71 input  175.53 | X-H torsion
[ 8008 7997 7996 7995 ] final  110.82 input   59.86 | X-H torsion
[ 10167 10162 10161 10158 ] final  -33.06 input  -65.29 | X-H torsion
[ 10718 10713 10712 10709 ] final -160.25 input   66.30 | X-H torsion
[ 10763 10752 10751 10750 ] final   64.73 input  -60.55 | X-H torsion
[ 11005 11000 10999 10996 ] final -155.75 input  -57.11 | X-H torsion

> <Gold.Protein.ActiveResidues>
 VAL166  LYS551  ARG553  GLY616  TRP617  ASP618  TYR619  PRO620  LYS621  CYS622 
 ASP623  PHE694  ASN695  SER759  ASP760  ASP761  ALA762  ILE779  LEU786  VAL792 
 PHE793  MET794  SER795  GLU796  ALA797  LYS798  CYS799  TRP800  GLU811  SER814 

> <Gold.Protein.RotatedAtoms>
  150.7543  133.9576  159.3505 H   0  0  0  0  0  0  0  0  0  0  0  0  # atno 6907 bound_to 6896
  151.7499  135.0833  160.0338 H   0  0  0  0  0  0  0  0  0  0  0  0  # atno 6908 bound_to 6896
  152.3473  133.6100  159.5955 H   0  0  0  0  0  0  0  0  0  0  0  0  # atno 6909 bound_to 6896
  144.7779  140.4625  143.5860 H   0  0  0  0  0  0  0  0  0  0  0  0  # atno 7974 bound_to 7965
  156.2080  140.3031  155.9670 H   0  0  0  0  0  0  0  0  0  0  0  0  # atno 8008 bound_to 7997
  155.2793  140.0437  157.3031 H   0  0  0  0  0  0  0  0  0  0  0  0  # atno 8009 bound_to 7997
  154.5660  140.2334  155.8271 H   0  0  0  0  0  0  0  0  0  0  0  0  # atno 8010 bound_to 7997
  140.7211  143.3648  151.1892 H   0  0  0  0  0  0  0  0  0  0  0  0  # atno 10167 bound_to 10162
  156.5795  130.8723  151.2860 H   0  0  0  0  0  0  0  0  0  0  0  0  # atno 10718 bound_to 10713
  153.0067  135.5382  154.6557 H   0  0  0  0  0  0  0  0  0  0  0  0  # atno 10763 bound_to 10752
  154.5778  135.2847  155.0765 H   0  0  0  0  0  0  0  0  0  0  0  0  # atno 10764 bound_to 10752
  154.1906  135.6501  153.5111 H   0  0  0  0  0  0  0  0  0  0  0  0  # atno 10765 bound_to 10752
  140.6831  134.4123  157.5225 H   0  0  0  0  0  0  0  0  0  0  0  0  # atno 11005 bound_to 11000
  145.6132  139.1515  143.3064 LP  0  0  0  0  0  0  0  0  0  0  0  0  # atno 17320 bound_to 7965
  146.1970  140.6247  142.9119 LP  0  0  0  0  0  0  0  0  0  0  0  0  # atno 17321 bound_to 7965
  139.7207  143.9227  152.2984 LP  0  0  0  0  0  0  0  0  0  0  0  0  # atno 17342 bound_to 10162
  139.8983  144.6926  150.8693 LP  0  0  0  0  0  0  0  0  0  0  0  0  # atno 17343 bound_to 10162
  157.7330  130.9723  150.1955 LP  0  0  0  0  0  0  0  0  0  0  0  0  # atno 17370 bound_to 10713
  156.2644  130.3714  149.8097 LP  0  0  0  0  0  0  0  0  0  0  0  0  # atno 17371 bound_to 10713
  139.8946  134.8703  156.2171 LP  0  0  0  0  0  0  0  0  0  0  0  0  # atno 17394 bound_to 11000
  141.0302  133.6993  156.1416 LP  0  0  0  0  0  0  0  0  0  0  0  0  # atno 17395 bound_to 11000

$$$$
