AV-unprocessed.smi:1920|AV-procd|sdf|7784|dock6
  -GOLD-   22720 9533D 1   1.00000     0.00000
 Structure written by MMmdl.
 36 37  0  0  0  0  0  0  0  0  1 V2000
  146.9535  142.1602  154.1416 C   0  0  0  0  0  0  0  0  0  0  0  0
  147.8956  141.2602  154.9524 C   0  0  1  0  0  0  0  0  0  0  0  0
  148.5096  140.1508  154.0743 C   0  0  0  0  0  0  0  0  0  0  0  0
  147.5089  139.2601  153.5143 N   0  0  0  0  0  0  0  0  0  0  0  0
  147.1005  139.1834  152.1892 C   0  0  0  0  0  0  0  0  0  0  0  0
  146.1400  138.1992  152.1304 C   0  0  0  0  0  0  0  0  0  0  0  0
  145.9485  137.6539  153.3978 N   0  0  0  0  0  0  0  0  0  0  0  0
  146.7939  138.3311  154.1638 C   0  0  0  0  0  0  0  0  0  0  0  0
  148.9477  142.0831  155.5478 N   0  0  0  0  0  0  0  0  0  0  0  0
  150.0408  141.6261  156.1795 C   0  0  0  0  0  0  0  0  0  0  0  0
  150.2690  140.4303  156.3636 O   0  0  0  0  0  0  0  0  0  0  0  0
  151.0309  142.6887  156.6708 C   0  0  0  0  0  0  0  0  0  0  0  0
  151.1681  142.7604  158.2084 C   0  0  1  0  0  0  0  0  0  0  0  0
  151.9052  141.5860  158.8061 C   0  0  0  0  0  0  0  0  0  0  0  0
  152.9531  141.9525  159.5395 C   0  0  0  0  0  0  0  0  0  0  0  0
  153.1315  143.4444  159.5831 C   0  0  0  0  0  0  0  0  0  0  0  0
  151.9934  143.9830  158.6869 C   0  0  0  0  0  0  0  0  0  0  0  0
  146.1410  141.5810  153.7019 H   0  0  0  0  0  0  0  0  0  0  0  0
  147.4816  142.6616  153.3298 H   0  0  0  0  0  0  0  0  0  0  0  0
  146.5046  142.9284  154.7725 H   0  0  0  0  0  0  0  0  0  0  0  0
  147.2961  140.7902  155.7341 H   0  0  0  0  0  0  0  0  0  0  0  0
  149.0633  140.5924  153.2448 H   0  0  0  0  0  0  0  0  0  0  0  0
  149.2258  139.5607  154.6485 H   0  0  0  0  0  0  0  0  0  0  0  0
  147.5115  139.8213  151.4206 H   0  0  0  0  0  0  0  0  0  0  0  0
  145.5776  137.8432  151.2798 H   0  0  0  0  0  0  0  0  0  0  0  0
  146.8918  138.1491  155.2242 H   0  0  0  0  0  0  0  0  0  0  0  0
  148.8482  143.0831  155.4497 H   0  0  0  0  0  0  0  0  0  0  0  0
  152.0099  142.4969  156.2284 H   0  0  0  0  0  0  0  0  0  0  0  0
  150.7042  143.6558  156.2875 H   0  0  0  0  0  0  0  0  0  0  0  0
  150.1777  142.7945  158.6649 H   0  0  0  0  0  0  0  0  0  0  0  0
  151.5843  140.5663  158.6540 H   0  0  0  0  0  0  0  0  0  0  0  0
  153.6123  141.2769  160.0646 H   0  0  0  0  0  0  0  0  0  0  0  0
  153.0425  143.8029  160.6092 H   0  0  0  0  0  0  0  0  0  0  0  0
  154.1142  143.7211  159.2003 H   0  0  0  0  0  0  0  0  0  0  0  0
  152.4124  144.5336  157.8438 H   0  0  0  0  0  0  0  0  0  0  0  0
  151.3638  144.6822  159.2385 H   0  0  0  0  0  0  0  0  0  0  0  0
  1  2  1  0  0  0  0
  1 18  1  0  0  0  0
  1 19  1  0  0  0  0
  1 20  1  0  0  0  0
  2  3  1  0  0  0  0
  2  9  1  0  0  0  0
  2 21  1  0  0  0  0
  3  4  1  0  0  0  0
  3 22  1  0  0  0  0
  3 23  1  0  0  0  0
  4  8  1  0  0  0  0
  4  5  1  0  0  0  0
  5  6  2  0  0  0  0
  5 24  1  0  0  0  0
  6  7  1  0  0  0  0
  6 25  1  0  0  0  0
  7  8  2  0  0  0  0
  8 26  1  0  0  0  0
  9 10  1  0  0  0  0
  9 27  1  0  0  0  0
 10 11  2  0  0  0  0
 10 12  1  0  0  0  0
 12 13  1  0  0  0  0
 12 28  1  0  0  0  0
 12 29  1  0  0  0  0
 13 17  1  0  0  0  0
 13 14  1  0  0  0  0
 13 30  1  0  0  0  0
 14 15  2  0  0  0  0
 14 31  1  0  0  0  0
 15 16  1  0  0  0  0
 15 32  1  0  0  0  0
 16 17  1  0  0  0  0
 16 33  1  0  0  0  0
 16 34  1  0  0  0  0
 17 35  1  0  0  0  0
 17 36  1  0  0  0  0
M  END
> <s_m_source_file>
AV-unprocessed.smi

> <i_m_source_file_index>
1920

> <i_lp_mmshare_version>
43012

> <i_f3d_flags>
0

> <s_epik_input>
W2NIXTFuW2NIXVtjSF1uMVtDSDJdW0NAQEhdKFtDSDNdKVtOSF1DKD1PKVtDSDJdW0NAQEhdMltDSF09W0NIXVtDSDJdW0NIMl0y

> <s_epik_cmdline>
J2VwaWtfcHl0aG9uJywgJy1waCcsICc3LjAnLCAnLXRuJywgJzgnLCAnLW1hJywgJzIwMCcsICctbWV0YWxfYmluZGluZycsICctaW1hZScsICc8aW5maWxlLm1hZT4nLCAnLW9tYWUnLCAnPG91dGZpbGUubWFlPic=

> <r_lp_tautomer_probability>
1

> <r_epik_Ionization_Penalty>
0.635367

> <r_epik_Ionization_Penalty_Charging>
0.635367

> <r_epik_Ionization_Penalty_Neutral>
2.1249e-08

> <r_epik_State_Penalty>
0.65258

> <r_epik_Charging_Adjusted_Penalty>
1.28795

> <i_epik_Tot_Q>
0

> <i_epik_Tot_abs_Q>
0

> <r_epik_Metal_State_Penalty>
0.310403

> <b_epik_Metal_Only>
0

> <s_lp_Force_Field>
OPLS_2005

> <r_lp_Energy>
18.2419

> <b_lp_Chiralities_Consistent>
1

> <s_lp_Variant>
AV-unprocessed.smi:1920-8

> <Gold.Version>
5.8.1

> <Gold.Id.Protein>
6NUR|6NUR_protein|mol2

> <Gold.PLP.Fitness>
43.3868

> <Gold.PLP.PLP>
-35.2611

> <Gold.PLP.part.hbond>
-1.0000

> <Gold.PLP.part.metal>
0.0000

> <Gold.PLP.part.buried>
-0.2218

> <Gold.PLP.part.nonpolar>
-35.0812

> <Gold.PLP.part.repulsive>
0.3273

> <Gold.PLP.ligand.clash>
0.0000

> <Gold.PLP.ligand.torsion>
0.3191

> <Gold.PLP.Chemscore.Hbond>
1.0000

> <Gold.PLP.Chemscore.CHOScore>
1.9119

> <Gold.PLP.Chemscore.Metal>
0.0000

> <Gold.Chemscore.Hbonds>
donor molecule, donor type, donor heavy atom, donor atom, acceptor molecule, acceptor atom, score
      L1  H     9    27       P1  8028  1.00
      L1  C     5    24       P1  7957  0.86
      L1  C     6    25       P1 10171  1.00

> <Gold.PLP.Chemscore.Internal.Correction>
0.0283

> <Gold.Rescore>
     Score         DG    S(hbond)    S(metal)    S(lipo)     H(rot)  DE(clash)    DE(int)     intcor
     14.58     -15.58       1.00        0.00     100.00       1.93       0.18       0.82       ----

> <Gold.Chemscore.Fitness>
14.5759

> <Gold.Chemscore.DG>
-15.5756

> <Gold.Chemscore.ZeroCoef>
-5.4800

> <Gold.Chemscore.Hbond>
0.9996

> <Gold.Chemscore.Metal>
0.0000

> <Gold.Chemscore.Lipo>
99.9959

> <Gold.Chemscore.Internal_Hbond>
0.0000

> <Gold.Chemscore.DEClash>
0.1768

> <Gold.Chemscore.DEInternal>
0.8230

> <Gold.Chemscore.Rot>
1.9306

> <Gold.Chemscore.Internal.Correction>
   9.000000E+99

> <Gold.Chemscore.Hbonds>
donor molecule, donor type, donor heavy atom, donor atom, acceptor molecule, acceptor atom, score
      L1  H     9    27       P1  8028  1.00

> <Gold.Chemscore.Hbond.Weighted>
-3.3385

> <Gold.Chemscore.Metal.Weighted>
-0.0000

> <Gold.Chemscore.Lipo.Weighted>
-11.6995

> <Gold.Chemscore.Internal_Hbond.Weighted>
0.0000

> <Gold.Chemscore.DEClash.Weighted>
0.1768

> <Gold.Chemscore.DEInternal.Weighted>
0.8230

> <Gold.Chemscore.Rot.Weighted>
4.9424

> <Gold.Chemscore.Internal.Correction.Weighted>
   9.000000E+99

> <Gold.Protein.RotatedTorsions>
[ 6907 6896 6895 6894 ] final   -1.15 input  -60.11 | X-H torsion
[ 7974 7965 7964 7962 ] final   99.99 input  175.53 | X-H torsion
[ 8008 7997 7996 7995 ] final -130.77 input   59.86 | X-H torsion
[ 10167 10162 10161 10158 ] final  164.96 input  -65.29 | X-H torsion
[ 10718 10713 10712 10709 ] final  119.41 input   66.30 | X-H torsion
[ 10763 10752 10751 10750 ] final -151.00 input  -60.55 | X-H torsion
[ 11005 11000 10999 10996 ] final  167.04 input  -57.11 | X-H torsion

> <Gold.Protein.ActiveResidues>
 VAL166  LYS551  ARG553  GLY616  TRP617  ASP618  TYR619  PRO620  LYS621  CYS622 
 ASP623  PHE694  ASN695  SER759  ASP760  ASP761  ALA762  ILE779  LEU786  VAL792 
 PHE793  MET794  SER795  GLU796  ALA797  LYS798  CYS799  TRP800  GLU811  SER814 

> <Gold.Protein.RotatedAtoms>
  151.5507  135.1067  159.9948 H   0  0  0  0  0  0  0  0  0  0  0  0  # atno 6907 bound_to 6896
  152.4492  133.7592  159.6748 H   0  0  0  0  0  0  0  0  0  0  0  0  # atno 6908 bound_to 6896
  150.8416  133.7860  159.3083 H   0  0  0  0  0  0  0  0  0  0  0  0  # atno 6909 bound_to 6896
  145.3915  139.2362  143.3349 H   0  0  0  0  0  0  0  0  0  0  0  0  # atno 7974 bound_to 7965
  155.3013  140.0453  157.3029 H   0  0  0  0  0  0  0  0  0  0  0  0  # atno 8008 bound_to 7997
  154.5485  140.2310  155.8491 H   0  0  0  0  0  0  0  0  0  0  0  0  # atno 8009 bound_to 7997
  156.1945  140.3042  155.9407 H   0  0  0  0  0  0  0  0  0  0  0  0  # atno 8010 bound_to 7997
  139.4897  144.4181  151.9219 H   0  0  0  0  0  0  0  0  0  0  0  0  # atno 10167 bound_to 10162
  157.5963  131.1057  150.7892 H   0  0  0  0  0  0  0  0  0  0  0  0  # atno 10718 bound_to 10713
  154.8085  135.3270  154.7369 H   0  0  0  0  0  0  0  0  0  0  0  0  # atno 10763 bound_to 10752
  153.8023  135.6902  153.4858 H   0  0  0  0  0  0  0  0  0  0  0  0  # atno 10764 bound_to 10752
  153.1846  135.4573  155.0017 H   0  0  0  0  0  0  0  0  0  0  0  0  # atno 10765 bound_to 10752
  140.2727  134.7814  157.3689 H   0  0  0  0  0  0  0  0  0  0  0  0  # atno 11005 bound_to 11000
  146.2795  140.4599  142.8782 LP  0  0  0  0  0  0  0  0  0  0  0  0  # atno 17320 bound_to 7965
  144.8437  140.6896  143.6213 LP  0  0  0  0  0  0  0  0  0  0  0  0  # atno 17321 bound_to 7965
  140.3625  144.2956  150.5931 LP  0  0  0  0  0  0  0  0  0  0  0  0  # atno 17342 bound_to 10162
  140.5391  143.2227  151.8115 LP  0  0  0  0  0  0  0  0  0  0  0  0  # atno 17343 bound_to 10162
  156.8302  130.5013  149.5332 LP  0  0  0  0  0  0  0  0  0  0  0  0  # atno 17370 bound_to 10713
  156.1027  130.5981  150.9920 LP  0  0  0  0  0  0  0  0  0  0  0  0  # atno 17371 bound_to 10713
  140.1358  134.5036  155.8070 LP  0  0  0  0  0  0  0  0  0  0  0  0  # atno 17394 bound_to 11000
  141.2175  133.6806  156.7121 LP  0  0  0  0  0  0  0  0  0  0  0  0  # atno 17395 bound_to 11000

$$$$
