AV-unprocessed.smi:1535|AV-procd|sdf|6185|dock8
  -GOLD-   22720 6343D 1   1.00000     0.00000
 Structure written by MMmdl.
 47 48  0  0  0  0  0  0  0  0  2 V2000
  151.3985  143.9440  159.8318 C   0  0  0  0  0  0  0  0  0  0  0  0
  151.4551  142.7529  158.8914 C   0  0  0  0  0  0  0  0  0  0  0  0
  150.6794  142.7714  157.7102 C   0  0  0  0  0  0  0  0  0  0  0  0
  150.7036  141.6832  156.8105 C   0  0  0  0  0  0  0  0  0  0  0  0
  150.0370  141.4915  155.6124 N   0  0  0  0  0  0  0  0  0  0  0  0
  150.4708  140.2871  155.2530 C   0  0  0  0  0  0  0  0  0  0  0  0
  151.3443  139.6757  156.0759 N   0  0  0  0  0  0  0  0  0  0  0  0
  151.9468  138.3667  155.8953 C   0  0  0  0  0  0  0  0  0  0  0  0
  151.2219  137.5203  154.8314 C   0  0  1  0  0  0  0  0  0  0  0  0
  152.0999  137.2644  153.7515 O   0  0  0  0  0  0  0  0  0  0  0  0
  150.7504  136.1699  155.4058 C   0  0  0  0  0  0  0  0  0  0  0  0
  149.6693  135.5617  154.5892 N   0  3  1  0  0  0  0  0  0  0  0  0
  149.9136  134.1247  154.3261 C   0  0  0  0  0  0  0  0  0  0  0  0
  148.3105  135.8177  155.1349 C   0  0  0  0  0  0  0  0  0  0  0  0
  148.2768  135.7573  156.6731 C   0  0  1  0  0  0  0  0  0  0  0  0
  146.8425  135.8498  157.2088 C   0  0  0  0  0  0  0  0  0  0  0  0
  148.9423  134.5422  157.1706 C   0  0  0  0  0  0  0  0  0  0  0  0
  149.4685  133.5900  157.5625 N   0  0  0  0  0  0  0  0  0  0  0  0
  151.5309  140.5665  157.1280 C   0  0  0  0  0  0  0  0  0  0  0  0
  152.3092  140.5373  158.2987 C   0  0  0  0  0  0  0  0  0  0  0  0
  152.2740  141.6332  159.1863 C   0  0  0  0  0  0  0  0  0  0  0  0
  153.1200  141.5927  160.4465 C   0  0  0  0  0  0  0  0  0  0  0  0
  150.7058  144.7046  159.4704 H   0  0  0  0  0  0  0  0  0  0  0  0
  152.3825  144.4038  159.9247 H   0  0  0  0  0  0  0  0  0  0  0  0
  151.0658  143.6342  160.8229 H   0  0  0  0  0  0  0  0  0  0  0  0
  150.0568  143.6247  157.4841 H   0  0  0  0  0  0  0  0  0  0  0  0
  150.1355  139.8219  154.3375 H   0  0  0  0  0  0  0  0  0  0  0  0
  152.9959  138.5004  155.6283 H   0  0  0  0  0  0  0  0  0  0  0  0
  151.9353  137.8515  156.8567 H   0  0  0  0  0  0  0  0  0  0  0  0
  150.3749  138.0903  154.4492 H   0  0  0  0  0  0  0  0  0  0  0  0
  151.5843  137.1081  152.9742 H   0  0  0  0  0  0  0  0  0  0  0  0
  151.6091  135.4976  155.4518 H   0  0  0  0  0  0  0  0  0  0  0  0
  150.4037  136.2852  156.4341 H   0  0  0  0  0  0  0  0  0  0  0  0
  149.9170  133.5525  155.2547 H   0  0  0  0  0  0  0  0  0  0  0  0
  150.8766  133.9826  153.8343 H   0  0  0  0  0  0  0  0  0  0  0  0
  149.1525  133.7049  153.6694 H   0  0  0  0  0  0  0  0  0  0  0  0
  147.9508  136.7838  154.7773 H   0  0  0  0  0  0  0  0  0  0  0  0
  147.6081  135.0770  154.7519 H   0  0  0  0  0  0  0  0  0  0  0  0
  148.8353  136.5982  157.0833 H   0  0  0  0  0  0  0  0  0  0  0  0
  146.8316  135.8288  158.2989 H   0  0  0  0  0  0  0  0  0  0  0  0
  146.2331  135.0178  156.8547 H   0  0  0  0  0  0  0  0  0  0  0  0
  146.3617  136.7757  156.8921 H   0  0  0  0  0  0  0  0  0  0  0  0
  152.9295  139.6795  158.5120 H   0  0  0  0  0  0  0  0  0  0  0  0
  153.6742  140.6568  160.5244 H   0  0  0  0  0  0  0  0  0  0  0  0
  152.4920  141.6831  161.3330 H   0  0  0  0  0  0  0  0  0  0  0  0
  153.8416  142.4098  160.4478 H   0  0  0  0  0  0  0  0  0  0  0  0
  149.7199  136.0262  153.6930 H   0  0  0  0  0  0  0  0  0  0  0  0
  1  2  1  0  0  0  0
  1 23  1  0  0  0  0
  1 24  1  0  0  0  0
  1 25  1  0  0  0  0
  2 21  1  0  0  0  0
  2  3  2  0  0  0  0
  3  4  1  0  0  0  0
  3 26  1  0  0  0  0
  4 19  2  0  0  0  0
  4  5  1  0  0  0  0
  5  6  2  0  0  0  0
  6  7  1  0  0  0  0
  6 27  1  0  0  0  0
  7  8  1  0  0  0  0
  7 19  1  0  0  0  0
  8  9  1  0  0  0  0
  8 28  1  0  0  0  0
  8 29  1  0  0  0  0
  9 10  1  0  0  0  0
  9 11  1  0  0  0  0
  9 30  1  0  0  0  0
 10 31  1  0  0  0  0
 11 12  1  0  0  0  0
 11 32  1  0  0  0  0
 11 33  1  0  0  0  0
 12 13  1  0  0  0  0
 12 14  1  0  0  0  0
 12 47  1  0  0  0  0
 13 34  1  0  0  0  0
 13 35  1  0  0  0  0
 13 36  1  0  0  0  0
 14 15  1  0  0  0  0
 14 37  1  0  0  0  0
 14 38  1  0  0  0  0
 15 16  1  0  0  0  0
 15 17  1  0  0  0  0
 15 39  1  0  0  0  0
 16 40  1  0  0  0  0
 16 41  1  0  0  0  0
 16 42  1  0  0  0  0
 17 18  3  0  0  0  0
 19 20  1  0  0  0  0
 20 21  2  0  0  0  0
 20 43  1  0  0  0  0
 21 22  1  0  0  0  0
 22 44  1  0  0  0  0
 22 45  1  0  0  0  0
 22 46  1  0  0  0  0
M  CHG  1  12   1
M  END
> <s_m_source_file>
AV-unprocessed.smi

> <i_m_source_file_index>
1535

> <i_lp_mmshare_version>
43012

> <i_f3d_flags>
0

> <s_epik_input>
W0NIM11jKFtjSF0xKWMoW0NIM10pW2NIXWMoYzEyKW4oW2NIXW4yKVtDSDJdW0NASF0oW09IXSlbQ0gyXU4oW0NIM10pW0NIMl1bQ0BIXShbQ0gzXSlDI04=

> <s_epik_cmdline>
J2VwaWtfcHl0aG9uJywgJy1waCcsICc3LjAnLCAnLXRuJywgJzgnLCAnLW1hJywgJzIwMCcsICctbWV0YWxfYmluZGluZycsICctaW1hZScsICc8aW5maWxlLm1hZT4nLCAnLW9tYWUnLCAnPG91dGZpbGUubWFlPic=

> <r_epik_Ionization_Penalty>
2.21058

> <r_epik_Ionization_Penalty_Charging>
2.12381

> <r_epik_Ionization_Penalty_Neutral>
0.0867699

> <r_epik_State_Penalty>
2.36208

> <r_epik_Charging_Adjusted_Penalty>
4.48589

> <i_epik_Tot_Q>
1

> <i_epik_Tot_abs_Q>
1

> <r_epik_Metal_State_Penalty>
2.2818

> <b_epik_Metal_Only>
0

> <s_lp_Force_Field>
OPLS_2005

> <r_lp_Energy>
14.5736

> <b_lp_Chiralities_Consistent>
1

> <s_lp_Variant>
AV-unprocessed.smi:1535-16

> <Gold.Version>
5.8.1

> <Gold.Id.Protein>
6NUR|6NUR_protein|mol2

> <Gold.PLP.Fitness>
50.8306

> <Gold.PLP.PLP>
-39.5483

> <Gold.PLP.part.hbond>
-4.7437

> <Gold.PLP.part.metal>
0.0000

> <Gold.PLP.part.buried>
-1.0775

> <Gold.PLP.part.nonpolar>
-32.7141

> <Gold.PLP.part.repulsive>
0.1525

> <Gold.PLP.ligand.clash>
0.0000

> <Gold.PLP.ligand.torsion>
2.0544

> <Gold.PLP.Chemscore.Hbond>
5.0000

> <Gold.PLP.Chemscore.CHOScore>
0.0000

> <Gold.PLP.Chemscore.Metal>
0.0000

> <Gold.Chemscore.Hbonds>
donor molecule, donor type, donor heavy atom, donor atom, acceptor molecule, acceptor atom, score
      L1  H    10    31       P1  7949  0.98
      L1  H    12    47       P1  7948  1.92
      P1  H  6896  6908       L1    18  0.68
      P1  H 10752 10764       L1    10  0.98

> <Gold.PLP.Chemscore.Internal.Correction>
0.3910

> <Gold.Rescore>
     Score         DG    S(hbond)    S(metal)    S(lipo)     H(rot)  DE(clash)    DE(int)     intcor
     17.66     -21.06       3.16        0.00      99.82       2.60       0.23       3.17       ----

> <Gold.Chemscore.Fitness>
17.6638

> <Gold.Chemscore.DG>
-21.0626

> <Gold.Chemscore.ZeroCoef>
-5.4800

> <Gold.Chemscore.Hbond>
3.1641

> <Gold.Chemscore.Metal>
0.0000

> <Gold.Chemscore.Lipo>
99.8168

> <Gold.Chemscore.Internal_Hbond>
0.0000

> <Gold.Chemscore.DEClash>
0.2317

> <Gold.Chemscore.DEInternal>
3.1672

> <Gold.Chemscore.Rot>
2.6031

> <Gold.Chemscore.Internal.Correction>
   9.000000E+99

> <Gold.Chemscore.Hbonds>
donor molecule, donor type, donor heavy atom, donor atom, acceptor molecule, acceptor atom, score
      L1  H    10    31       P1  7949  0.89
      L1  H    12    47       P1  7948  0.23
      P1  H  6896  6908       L1    18  0.65
      P1  H 10752 10764       L1    10  0.34

> <Gold.Chemscore.Hbond.Weighted>
-10.5680

> <Gold.Chemscore.Metal.Weighted>
-0.0000

> <Gold.Chemscore.Lipo.Weighted>
-11.6786

> <Gold.Chemscore.Internal_Hbond.Weighted>
0.0000

> <Gold.Chemscore.DEClash.Weighted>
0.2317

> <Gold.Chemscore.DEInternal.Weighted>
3.1672

> <Gold.Chemscore.Rot.Weighted>
6.6640

> <Gold.Chemscore.Internal.Correction.Weighted>
   9.000000E+99

> <Gold.Protein.RotatedTorsions>
[ 6907 6896 6895 6894 ] final  121.34 input  -60.11 | X-H torsion
[ 7974 7965 7964 7962 ] final -132.17 input  175.53 | X-H torsion
[ 8008 7997 7996 7995 ] final  113.63 input   59.86 | X-H torsion
[ 10167 10162 10161 10158 ] final  -82.14 input  -65.29 | X-H torsion
[ 10718 10713 10712 10709 ] final  -40.52 input   66.30 | X-H torsion
[ 10763 10752 10751 10750 ] final -104.21 input  -60.55 | X-H torsion
[ 11005 11000 10999 10996 ] final -120.14 input  -57.11 | X-H torsion

> <Gold.Protein.ActiveResidues>
 VAL166  LYS551  ARG553  GLY616  TRP617  ASP618  TYR619  PRO620  LYS621  CYS622 
 ASP623  PHE694  ASN695  SER759  ASP760  ASP761  ALA762  ILE779  LEU786  VAL792 
 PHE793  MET794  SER795  GLU796  ALA797  LYS798  CYS799  TRP800  GLU811  SER814 

> <Gold.Protein.RotatedAtoms>
  152.4329  133.7309  159.6586 H   0  0  0  0  0  0  0  0  0  0  0  0  # atno 6907 bound_to 6896
  150.8210  133.8243  159.3145 H   0  0  0  0  0  0  0  0  0  0  0  0  # atno 6908 bound_to 6896
  151.5925  135.1055  160.0094 H   0  0  0  0  0  0  0  0  0  0  0  0  # atno 6909 bound_to 6896
  144.9310  140.7129  143.4905 H   0  0  0  0  0  0  0  0  0  0  0  0  # atno 7974 bound_to 7965
  156.2270  140.2975  156.0092 H   0  0  0  0  0  0  0  0  0  0  0  0  # atno 8008 bound_to 7997
  155.2329  140.0419  157.2982 H   0  0  0  0  0  0  0  0  0  0  0  0  # atno 8009 bound_to 7997
  154.5932  140.2407  155.7900 H   0  0  0  0  0  0  0  0  0  0  0  0  # atno 8010 bound_to 7997
  140.4347  143.2536  151.8710 H   0  0  0  0  0  0  0  0  0  0  0  0  # atno 10167 bound_to 10162
  156.2805  130.4216  149.8342 H   0  0  0  0  0  0  0  0  0  0  0  0  # atno 10718 bound_to 10713
  154.7862  135.4795  153.9951 H   0  0  0  0  0  0  0  0  0  0  0  0  # atno 10763 bound_to 10752
  153.1564  135.6800  153.8814 H   0  0  0  0  0  0  0  0  0  0  0  0  # atno 10764 bound_to 10752
  153.8442  135.3175  155.3406 H   0  0  0  0  0  0  0  0  0  0  0  0  # atno 10765 bound_to 10752
  141.0165  134.0188  157.3343 H   0  0  0  0  0  0  0  0  0  0  0  0  # atno 11005 bound_to 11000
  145.3141  139.1809  143.4623 LP  0  0  0  0  0  0  0  0  0  0  0  0  # atno 17320 bound_to 7965
  146.3247  140.3150  142.8629 LP  0  0  0  0  0  0  0  0  0  0  0  0  # atno 17321 bound_to 7965
  139.4786  144.5296  151.8686 LP  0  0  0  0  0  0  0  0  0  0  0  0  # atno 17342 bound_to 10162
  140.4387  144.2016  150.5890 LP  0  0  0  0  0  0  0  0  0  0  0  0  # atno 17343 bound_to 10162
  156.5791  130.8458  151.3378 LP  0  0  0  0  0  0  0  0  0  0  0  0  # atno 17370 bound_to 10713
  157.7313  130.9697  150.1872 LP  0  0  0  0  0  0  0  0  0  0  0  0  # atno 17371 bound_to 10713
  139.9120  135.0191  156.7729 LP  0  0  0  0  0  0  0  0  0  0  0  0  # atno 17394 bound_to 11000
  140.6646  133.9614  155.7823 LP  0  0  0  0  0  0  0  0  0  0  0  0  # atno 17395 bound_to 11000

$$$$
