AV-unprocessed.smi:1056|AV-procd|sdf|4646|dock8
  -GOLD-   22720 3153D 1   1.00000     0.00000
 Structure written by MMmdl.
 45 47  0  0  0  0  0  0  0  0  4 V2000
  152.7518  142.5866  161.0052 C   0  0  0  0  0  0  0  0  0  0  0  0
  152.3603  141.9430  159.6858 C   0  0  0  0  0  0  0  0  0  0  0  0
  151.4857  142.6452  158.8266 C   0  0  0  0  0  0  0  0  0  0  0  0
  151.1483  142.0321  157.6258 C   0  0  0  0  0  0  0  0  0  0  0  0
  150.3258  142.4609  156.5826 N   0  3  0  0  0  0  0  0  0  0  0  0
  150.3000  141.5131  155.6060 C   0  0  0  0  0  0  0  0  0  0  0  0
  151.0898  140.4812  156.0116 N   0  0  0  0  0  0  0  0  0  0  0  0
  151.4049  139.2185  155.3221 C   0  0  0  0  0  0  0  0  0  0  0  0
  150.1641  138.3674  154.9733 C   0  0  2  0  0  0  0  0  0  0  0  0
  150.5815  137.2349  154.2346 O   0  0  0  0  0  0  0  0  0  0  0  0
  149.1030  139.1373  154.1560 C   0  0  0  0  0  0  0  0  0  0  0  0
  147.9877  138.2751  153.6862 N   0  3  2  0  0  0  0  0  0  0  0  0
  147.0248  139.0089  152.8243 C   0  0  0  0  0  0  0  0  0  0  0  0
  146.0800  138.0215  152.1128 C   0  0  0  0  0  0  0  0  0  0  0  0
  145.5481  137.0450  153.0703 N   0  5  0  0  0  0  0  0  0  0  0  0
  146.1116  136.6882  154.2663 C   0  0  0  0  0  0  0  0  0  0  0  0
  145.7339  135.7664  154.9860 O   0  0  0  0  0  0  0  0  0  0  0  0
  147.2947  137.5468  154.7884 C   0  0  0  0  0  0  0  0  0  0  0  0
  151.6462  140.7640  157.2659 C   0  0  0  0  0  0  0  0  0  0  0  0
  152.5091  140.0590  158.1027 C   0  0  0  0  0  0  0  0  0  0  0  0
  152.8652  140.6660  159.3282 C   0  0  0  0  0  0  0  0  0  0  0  0
  153.8070  139.9210  160.2588 C   0  0  0  0  0  0  0  0  0  0  0  0
  152.3196  143.5824  161.1071 H   0  0  0  0  0  0  0  0  0  0  0  0
  153.8350  142.6862  161.0777 H   0  0  0  0  0  0  0  0  0  0  0  0
  152.4021  141.9834  161.8433 H   0  0  0  0  0  0  0  0  0  0  0  0
  151.0985  143.6184  159.0915 H   0  0  0  0  0  0  0  0  0  0  0  0
  149.7494  141.5674  154.6776 H   0  0  0  0  0  0  0  0  0  0  0  0
  151.9409  139.4793  154.4084 H   0  0  0  0  0  0  0  0  0  0  0  0
  152.1087  138.6443  155.9239 H   0  0  0  0  0  0  0  0  0  0  0  0
  149.7411  138.0140  155.9125 H   0  0  0  0  0  0  0  0  0  0  0  0
  149.9390  137.0514  153.5659 H   0  0  0  0  0  0  0  0  0  0  0  0
  148.6891  139.9560  154.7461 H   0  0  0  0  0  0  0  0  0  0  0  0
  149.5920  139.5979  153.2964 H   0  0  0  0  0  0  0  0  0  0  0  0
  146.4558  139.7146  153.4322 H   0  0  0  0  0  0  0  0  0  0  0  0
  147.5530  139.5941  152.0706 H   0  0  0  0  0  0  0  0  0  0  0  0
  145.2872  138.5771  151.6129 H   0  0  0  0  0  0  0  0  0  0  0  0
  146.6367  137.5199  151.3210 H   0  0  0  0  0  0  0  0  0  0  0  0
  147.9905  136.8903  155.3096 H   0  0  0  0  0  0  0  0  0  0  0  0
  146.9095  138.2578  155.5207 H   0  0  0  0  0  0  0  0  0  0  0  0
  152.8973  139.0877  157.8354 H   0  0  0  0  0  0  0  0  0  0  0  0
  154.0756  138.9437  159.8565 H   0  0  0  0  0  0  0  0  0  0  0  0
  153.3415  139.7632  161.2320 H   0  0  0  0  0  0  0  0  0  0  0  0
  154.7281  140.4865  160.4024 H   0  0  0  0  0  0  0  0  0  0  0  0
  148.3936  137.5713  153.0865 H   0  0  0  0  0  0  0  0  0  0  0  0
  149.8211  143.3371  156.5355 H   0  0  0  0  0  0  0  0  0  0  0  0
  1  2  1  0  0  0  0
  1 23  1  0  0  0  0
  1 24  1  0  0  0  0
  1 25  1  0  0  0  0
  2 21  1  0  0  0  0
  2  3  2  0  0  0  0
  3  4  1  0  0  0  0
  3 26  1  0  0  0  0
  4 19  2  0  0  0  0
  4  5  1  0  0  0  0
  5  6  2  0  0  0  0
  5 45  1  0  0  0  0
  6  7  1  0  0  0  0
  6 27  1  0  0  0  0
  7  8  1  0  0  0  0
  7 19  1  0  0  0  0
  8  9  1  0  0  0  0
  8 28  1  0  0  0  0
  8 29  1  0  0  0  0
  9 10  1  0  0  0  0
  9 11  1  0  0  0  0
  9 30  1  0  0  0  0
 10 31  1  0  0  0  0
 11 12  1  0  0  0  0
 11 32  1  0  0  0  0
 11 33  1  0  0  0  0
 12 18  1  0  0  0  0
 12 13  1  0  0  0  0
 12 44  1  0  0  0  0
 13 14  1  0  0  0  0
 13 34  1  0  0  0  0
 13 35  1  0  0  0  0
 14 15  1  0  0  0  0
 14 36  1  0  0  0  0
 14 37  1  0  0  0  0
 15 16  1  0  0  0  0
 16 17  2  0  0  0  0
 16 18  1  0  0  0  0
 18 38  1  0  0  0  0
 18 39  1  0  0  0  0
 19 20  1  0  0  0  0
 20 21  2  0  0  0  0
 20 40  1  0  0  0  0
 21 22  1  0  0  0  0
 22 41  1  0  0  0  0
 22 42  1  0  0  0  0
 22 43  1  0  0  0  0
M  CHG  1   5   1
M  CHG  1  12   1
M  CHG  1  15  -1
M  END
> <s_m_source_file>
AV-unprocessed.smi

> <i_m_source_file_index>
1056

> <i_lp_mmshare_version>
43012

> <i_f3d_flags>
0

> <s_epik_input>
W0NIM11jKFtjSF0xKWMoW0NIM10pW2NIXWMoYzEyKW4oW2NIXW4yKVtDSDJdW0NASF0oW09IXSlbQ0gyXU4zW0NIMl1bQ0gyXVtOSF1DKD1PKVtDSDJdMw==

> <s_epik_cmdline>
J2VwaWtfcHl0aG9uJywgJy1waCcsICc3LjAnLCAnLXRuJywgJzgnLCAnLW1hJywgJzIwMCcsICctbWV0YWxfYmluZGluZycsICctaW1hZScsICc8aW5maWxlLm1hZT4nLCAnLW9tYWUnLCAnPG91dGZpbGUubWFlPic=

> <r_epik_Ionization_Penalty>
6.22415

> <r_epik_Ionization_Penalty_Charging>
6.22415

> <r_epik_Ionization_Penalty_Neutral>
4.02797e-07

> <r_epik_State_Penalty>
6.37716

> <r_epik_Charging_Adjusted_Penalty>
12.6013

> <i_epik_Tot_Q>
1

> <i_epik_Tot_abs_Q>
3

> <r_epik_Metal_State_Penalty>
2.53509

> <b_epik_Metal_Only>
1

> <s_lp_Force_Field>
OPLS_2005

> <r_lp_Energy>
27.0798

> <b_lp_Chiralities_Consistent>
1

> <s_lp_Variant>
AV-unprocessed.smi:1056-17

> <Gold.Version>
5.8.1

> <Gold.Id.Protein>
6NUR|6NUR_protein|mol2

> <Gold.PLP.Fitness>
56.0568

> <Gold.PLP.PLP>
-41.4151

> <Gold.PLP.part.hbond>
-4.0816

> <Gold.PLP.part.metal>
0.0000

> <Gold.PLP.part.buried>
-1.3447

> <Gold.PLP.part.nonpolar>
-35.5374

> <Gold.PLP.part.repulsive>
0.3124

> <Gold.PLP.ligand.clash>
0.0000

> <Gold.PLP.ligand.torsion>
0.0543

> <Gold.PLP.Chemscore.Hbond>
4.9100

> <Gold.PLP.Chemscore.CHOScore>
0.0000

> <Gold.PLP.Chemscore.Metal>
0.0000

> <Gold.Chemscore.Hbonds>
donor molecule, donor type, donor heavy atom, donor atom, acceptor molecule, acceptor atom, score
      L1  H     5    45       P1  8028  2.00
      L1  H    10    31       P1  7948  0.84
      L1  H    12    44       P1  7948  2.00

> <Gold.PLP.Chemscore.Internal.Correction>
0.0202

> <Gold.Rescore>
     Score         DG    S(hbond)    S(metal)    S(lipo)     H(rot)  DE(clash)    DE(int)     intcor
     18.44     -19.61       2.53        0.00     100.50       2.37       0.44       0.73       ----

> <Gold.Chemscore.Fitness>
18.4438

> <Gold.Chemscore.DG>
-19.6066

> <Gold.Chemscore.ZeroCoef>
-5.4800

> <Gold.Chemscore.Hbond>
2.5274

> <Gold.Chemscore.Metal>
0.0000

> <Gold.Chemscore.Lipo>
100.5015

> <Gold.Chemscore.Internal_Hbond>
0.0000

> <Gold.Chemscore.DEClash>
0.4370

> <Gold.Chemscore.DEInternal>
0.7258

> <Gold.Chemscore.Rot>
2.3724

> <Gold.Chemscore.Internal.Correction>
   9.000000E+99

> <Gold.Chemscore.Hbonds>
donor molecule, donor type, donor heavy atom, donor atom, acceptor molecule, acceptor atom, score
      L1  H     5    45       P1  8028  0.98
      L1  H    10    31       P1  7948  0.33
      L1  H    12    44       P1  7948  1.00

> <Gold.Chemscore.Hbond.Weighted>
-8.4414

> <Gold.Chemscore.Metal.Weighted>
-0.0000

> <Gold.Chemscore.Lipo.Weighted>
-11.7587

> <Gold.Chemscore.Internal_Hbond.Weighted>
0.0000

> <Gold.Chemscore.DEClash.Weighted>
0.4370

> <Gold.Chemscore.DEInternal.Weighted>
0.7258

> <Gold.Chemscore.Rot.Weighted>
6.0734

> <Gold.Chemscore.Internal.Correction.Weighted>
   9.000000E+99

> <Gold.Protein.RotatedTorsions>
[ 6907 6896 6895 6894 ] final   57.34 input  -60.11 | X-H torsion
[ 7974 7965 7964 7962 ] final   66.84 input  175.53 | X-H torsion
[ 8008 7997 7996 7995 ] final -142.52 input   59.86 | X-H torsion
[ 10167 10162 10161 10158 ] final -169.64 input  -65.29 | X-H torsion
[ 10718 10713 10712 10709 ] final  -66.10 input   66.30 | X-H torsion
[ 10763 10752 10751 10750 ] final -112.39 input  -60.55 | X-H torsion
[ 11005 11000 10999 10996 ] final -120.83 input  -57.11 | X-H torsion

> <Gold.Protein.ActiveResidues>
 VAL166  LYS551  ARG553  GLY616  TRP617  ASP618  TYR619  PRO620  LYS621  CYS622 
 ASP623  PHE694  ASN695  SER759  ASP760  ASP761  ALA762  ILE779  LEU786  VAL792 
 PHE793  MET794  SER795  GLU796  ALA797  LYS798  CYS799  TRP800  GLU811  SER814 

> <Gold.Protein.RotatedAtoms>
  152.3722  134.6717  160.0172 H   0  0  0  0  0  0  0  0  0  0  0  0  # atno 6907 bound_to 6896
  151.7007  133.3305  159.3274 H   0  0  0  0  0  0  0  0  0  0  0  0  # atno 6908 bound_to 6896
  150.7682  134.6553  159.6355 H   0  0  0  0  0  0  0  0  0  0  0  0  # atno 6909 bound_to 6896
  145.8218  139.3089  143.1039 H   0  0  0  0  0  0  0  0  0  0  0  0  # atno 7974 bound_to 7965
  155.4956  140.0571  157.2947 H   0  0  0  0  0  0  0  0  0  0  0  0  # atno 8008 bound_to 7997
  154.4606  140.1994  156.0205 H   0  0  0  0  0  0  0  0  0  0  0  0  # atno 8009 bound_to 7997
  156.0883  140.3237  155.7787 H   0  0  0  0  0  0  0  0  0  0  0  0  # atno 8010 bound_to 7997
  139.5910  144.1213  152.1634 H   0  0  0  0  0  0  0  0  0  0  0  0  # atno 10167 bound_to 10162
  156.0631  130.4257  150.1660 H   0  0  0  0  0  0  0  0  0  0  0  0  # atno 10718 bound_to 10713
  154.8347  135.4492  154.1187 H   0  0  0  0  0  0  0  0  0  0  0  0  # atno 10763 bound_to 10752
  153.2429  135.6918  153.7769 H   0  0  0  0  0  0  0  0  0  0  0  0  # atno 10764 bound_to 10752
  153.7110  135.3356  155.3222 H   0  0  0  0  0  0  0  0  0  0  0  0  # atno 10765 bound_to 10752
  141.0115  134.0257  157.3407 H   0  0  0  0  0  0  0  0  0  0  0  0  # atno 11005 bound_to 11000
  145.9667  140.8793  143.0183 LP  0  0  0  0  0  0  0  0  0  0  0  0  # atno 17320 bound_to 7965
  144.6747  140.1888  143.7398 LP  0  0  0  0  0  0  0  0  0  0  0  0  # atno 17321 bound_to 7965
  140.0787  144.5718  150.7138 LP  0  0  0  0  0  0  0  0  0  0  0  0  # atno 17342 bound_to 10162
  140.7173  143.2556  151.4393 LP  0  0  0  0  0  0  0  0  0  0  0  0  # atno 17343 bound_to 10162
  156.9725  130.9839  151.3455 LP  0  0  0  0  0  0  0  0  0  0  0  0  # atno 17370 bound_to 10713
  157.5654  130.8274  149.8321 LP  0  0  0  0  0  0  0  0  0  0  0  0  # atno 17371 bound_to 10713
  139.9092  135.0186  156.7621 LP  0  0  0  0  0  0  0  0  0  0  0  0  # atno 17394 bound_to 11000
  140.6725  133.9546  155.7865 LP  0  0  0  0  0  0  0  0  0  0  0  0  # atno 17395 bound_to 11000

$$$$
