#       Name:                AV-unprocessed.smi:3032
#       Creating user name   scv26
#       Creation time:       Fri Mar 27 16:52:34 2020


#       File generated by GOLD software.
#

@<TRIPOS>MOLECULE
AV-unprocessed.smi:3032
    41    42     1
SMALL
NO_CHARGES


@<TRIPOS>ATOM
      1 ****        -3.3088   1.1963   1.1452 C.3            1 S1                 0.0000
      2 ****        -2.6710   0.2128   0.1538 C.3            1 S1                 0.0000
      3 ****        -3.2962   0.3401  -1.2487 C.3            1 S1                 0.0000
      4 ****        -2.6505  -0.6351  -2.2461 C.3            1 S1                 0.0000
      5 ****        -1.1271  -0.4428  -2.3074 C.3            1 S1                 0.0000
      6 ****        -0.4921  -0.5883  -0.9091 C.3            1 S1                 0.0000
      7 ****         1.0257  -0.3740  -0.9613 C.2            1 S1                 0.0000
      8 ****         1.4873   0.6860  -1.3850 O.2            1 S1                 0.0000
      9 ****         1.7881  -1.3789  -0.5002 N.am           1 S1                 0.0000
     10 ****         3.2417  -1.3410  -0.3545 C.3            1 S1                 0.0000
     11 ****         3.6732  -1.0311   1.0925 C.3            1 S1                 0.0000
     12 ****         3.1131   0.2468   1.6346 C.2            1 S1                 0.0000
     13 ****         2.0528   0.2738   2.4451 N.pl3          1 S1                 0.0000
     14 ****         1.7473   1.5549   2.7377 N.2            1 S1                 0.0000
     15 ****         2.6798   2.2243   2.0624 C.2            1 S1                 0.0000
     16 ****         3.5675   1.4634   1.3542 N.2            1 S1                 0.0000
     17 ****        -1.1434   0.4011   0.0808 C.3            1 S1                 0.0000
     18 ****         1.5260  -0.5133   2.7960 H              1 S1                 0.0000
     19 ****        -3.1530   2.2297   0.8338 H              1 S1                 0.0000
     20 ****        -2.8821   1.0813   2.1420 H              1 S1                 0.0000
     21 ****        -4.3833   1.0310   1.2259 H              1 S1                 0.0000
     22 ****        -2.8681  -0.7958   0.5197 H              1 S1                 0.0000
     23 ****        -4.3693   0.1521  -1.1981 H              1 S1                 0.0000
     24 ****        -3.1792   1.3614  -1.6134 H              1 S1                 0.0000
     25 ****        -2.8777  -1.6610  -1.9540 H              1 S1                 0.0000
     26 ****        -3.0830  -0.4925  -3.2369 H              1 S1                 0.0000
     27 ****        -0.6953  -1.1716  -2.9947 H              1 S1                 0.0000
     28 ****        -0.9065   0.5421  -2.7226 H              1 S1                 0.0000
     29 ****        -0.6841  -1.6024  -0.5535 H              1 S1                 0.0000
     30 ****         1.3214  -2.2162  -0.1830 H              1 S1                 0.0000
     31 ****         3.6404  -2.3101  -0.6549 H              1 S1                 0.0000
     32 ****         3.6789  -0.6098  -1.0365 H              1 S1                 0.0000
     33 ****         3.3725  -1.8500   1.7476 H              1 S1                 0.0000
     34 ****         4.7611  -0.9822   1.1472 H              1 S1                 0.0000
     35 ****         2.7233   3.3033   2.0803 H              1 S1                 0.0000
     36 ****        -0.9189   1.4279  -0.2141 H              1 S1                 0.0000
     37 ****        -0.7113   0.2672   1.0737 H              1 S1                 0.0000
     38 ****         0.8721   1.4103  -1.6963 LP             1 S1                 0.0000
     39 ****         2.4774   0.8226  -1.4177 LP             1 S1                 0.0000
     40 ****         1.0107   1.9102   3.3132 LP             1 S1                 0.0000
     41 ****         4.3409   1.7435   0.7855 LP             1 S1                 0.0000
@<TRIPOS>BOND
    1    1    2 1     
    2    1   19 1     
    3    1   20 1     
    4    1   21 1     
    5    2   17 1     
    6    2    3 1     
    7    2   22 1     
    8    3    4 1     
    9    3   23 1     
   10    3   24 1     
   11    4    5 1     
   12    4   25 1     
   13    4   26 1     
   14    5    6 1     
   15    5   27 1     
   16    5   28 1     
   17    6    7 1     
   18    6   17 1     
   19    6   29 1     
   20    7    8 2     
   21    7    9 am    
   22    9   10 1     
   23    9   30 1     
   24   10   11 1     
   25   10   31 1     
   26   10   32 1     
   27   11   33 1     
   28   11   34 1     
   29   11   12 1     
   30   12   16 2     
   31   12   13 1     
   32   13   18 1     
   33   13   14 1     
   34   14   15 2     
   35   15   16 1     
   36   15   35 1     
   37   17   36 1     
   38   17   37 1     
   39    8   38 1     
   40    8   39 1     
   41   14   40 1     
   42   16   41 1     
@<TRIPOS>SUBSTRUCTURE
      1 S1             1
@<TRIPOS>SET
LONE_PAIRS      STATIC     ATOMS    <user>   **** ""
4 38 39 40 41
DONOR_HYDROGENS      STATIC     ATOMS    <user>   **** ""
2 30 18
ATOM$BLUE        STATIC     ATOMS    COLORGROUP SYSTEM
4 38 39 40 41
ATOM$RED        STATIC     ATOMS    COLORGROUP SYSTEM
2 30 18
