AV-unprocessed.smi:843|AV-procd|sdf|3922|dock6
  -GOLD-   22720 1383D 1   1.00000     0.00000
 Structure written by MMmdl.
 46 47  0  0  0  0  0  0  0  0  2 V2000
  144.1407  132.5059  149.9039 C   0  0  0  0  0  0  0  0  0  0  0  0
  143.9678  131.9719  151.3336 C   0  0  0  0  0  0  0  0  0  0  0  0
  144.0762  133.0376  152.3621 N   0  3  2  0  0  0  0  0  0  0  0  0
  143.1680  134.1795  152.0785 C   0  0  0  0  0  0  0  0  0  0  0  0
  143.2029  135.2236  153.2105 C   0  0  0  0  0  0  0  0  0  0  0  0
  144.6291  135.7312  153.4938 C   0  0  2  0  0  0  0  0  0  0  0  0
  145.1344  136.6941  152.3927 C   0  0  0  0  0  0  0  0  0  0  0  0
  146.4660  137.2196  152.6818 N   0  0  0  0  0  0  0  0  0  0  0  0
  146.7365  138.2507  153.4954 C   0  0  0  0  0  0  0  0  0  0  0  0
  145.8710  138.8734  154.1096 O   0  0  0  0  0  0  0  0  0  0  0  0
  148.0572  138.4955  153.5424 N   0  0  0  0  0  0  0  0  0  0  0  0
  148.7593  139.5153  154.2449 C   0  0  0  0  0  0  0  0  0  0  0  0
  148.1629  140.7120  154.7132 C   0  0  0  0  0  0  0  0  0  0  0  0
  148.9615  141.6579  155.3817 C   0  0  0  0  0  0  0  0  0  0  0  0
  150.3293  141.3796  155.5532 C   0  0  0  0  0  0  0  0  0  0  0  0
  150.9147  140.2513  155.1026 N   0  0  0  0  0  0  0  0  0  0  0  0
  150.1470  139.3376  154.4573 C   0  0  0  0  0  0  0  0  0  0  0  0
  150.7517  138.1866  153.9890 O   0  0  0  0  0  0  0  0  0  0  0  0
  152.1287  137.9745  154.2818 C   0  0  0  0  0  0  0  0  0  0  0  0
  145.5391  134.5110  153.7446 C   0  0  0  0  0  0  0  0  0  0  0  0
  145.4727  133.4925  152.5935 C   0  0  0  0  0  0  0  0  0  0  0  0
  144.1673  131.6826  149.1896 H   0  0  0  0  0  0  0  0  0  0  0  0
  145.0727  133.0620  149.7999 H   0  0  0  0  0  0  0  0  0  0  0  0
  143.3212  133.1599  149.6073 H   0  0  0  0  0  0  0  0  0  0  0  0
  143.0166  131.4475  151.4362 H   0  0  0  0  0  0  0  0  0  0  0  0
  144.7494  131.2309  151.5059 H   0  0  0  0  0  0  0  0  0  0  0  0
  143.4403  134.6361  151.1261 H   0  0  0  0  0  0  0  0  0  0  0  0
  142.1466  133.8140  151.9674 H   0  0  0  0  0  0  0  0  0  0  0  0
  142.5446  136.0589  152.9691 H   0  0  0  0  0  0  0  0  0  0  0  0
  142.7970  134.7744  154.1180 H   0  0  0  0  0  0  0  0  0  0  0  0
  144.5915  136.3079  154.4193 H   0  0  0  0  0  0  0  0  0  0  0  0
  145.1107  136.2202  151.4109 H   0  0  0  0  0  0  0  0  0  0  0  0
  144.4610  137.5489  152.3235 H   0  0  0  0  0  0  0  0  0  0  0  0
  147.2418  136.7637  152.2238 H   0  0  0  0  0  0  0  0  0  0  0  0
  148.6440  137.8487  153.0357 H   0  0  0  0  0  0  0  0  0  0  0  0
  147.1183  140.9344  154.5651 H   0  0  0  0  0  0  0  0  0  0  0  0
  148.5347  142.5790  155.7503 H   0  0  0  0  0  0  0  0  0  0  0  0
  150.9721  142.0840  156.0601 H   0  0  0  0  0  0  0  0  0  0  0  0
  152.4524  137.0352  153.8338 H   0  0  0  0  0  0  0  0  0  0  0  0
  152.3019  137.9053  155.3568 H   0  0  0  0  0  0  0  0  0  0  0  0
  152.7519  138.7688  153.8684 H   0  0  0  0  0  0  0  0  0  0  0  0
  146.5700  134.8181  153.9173 H   0  0  0  0  0  0  0  0  0  0  0  0
  145.2252  134.0183  154.6659 H   0  0  0  0  0  0  0  0  0  0  0  0
  146.1092  132.6455  152.8459 H   0  0  0  0  0  0  0  0  0  0  0  0
  145.8757  133.9227  151.6760 H   0  0  0  0  0  0  0  0  0  0  0  0
  143.7536  132.6316  153.2288 H   0  0  0  0  0  0  0  0  0  0  0  0
  1  2  1  0  0  0  0
  1 22  1  0  0  0  0
  1 23  1  0  0  0  0
  1 24  1  0  0  0  0
  2  3  1  0  0  0  0
  2 25  1  0  0  0  0
  2 26  1  0  0  0  0
  3 21  1  0  0  0  0
  3  4  1  0  0  0  0
  3 46  1  0  0  0  0
  4  5  1  0  0  0  0
  4 27  1  0  0  0  0
  4 28  1  0  0  0  0
  5  6  1  0  0  0  0
  5 29  1  0  0  0  0
  5 30  1  0  0  0  0
  6  7  1  0  0  0  0
  6 20  1  0  0  0  0
  6 31  1  0  0  0  0
  7  8  1  0  0  0  0
  7 32  1  0  0  0  0
  7 33  1  0  0  0  0
  8  9  1  0  0  0  0
  8 34  1  0  0  0  0
  9 10  2  0  0  0  0
  9 11  1  0  0  0  0
 11 12  1  0  0  0  0
 11 35  1  0  0  0  0
 12 17  1  0  0  0  0
 12 13  2  0  0  0  0
 13 14  1  0  0  0  0
 13 36  1  0  0  0  0
 14 15  2  0  0  0  0
 14 37  1  0  0  0  0
 15 16  1  0  0  0  0
 15 38  1  0  0  0  0
 16 17  2  0  0  0  0
 17 18  1  0  0  0  0
 18 19  1  0  0  0  0
 19 39  1  0  0  0  0
 19 40  1  0  0  0  0
 19 41  1  0  0  0  0
 20 21  1  0  0  0  0
 20 42  1  0  0  0  0
 20 43  1  0  0  0  0
 21 44  1  0  0  0  0
 21 45  1  0  0  0  0
M  CHG  1   3   1
M  END
> <s_m_source_file>
AV-unprocessed.smi

> <i_m_source_file_index>
843

> <i_lp_mmshare_version>
43012

> <i_f3d_flags>
0

> <s_epik_input>
W0NIM11bQ0gyXU4xW0NIMl1bQ0gyXVtDSF0oW0NIMl1bQ0gyXTEpW0NIMl1bTkhdQyg9TylbTkhdYzJbY0hdW2NIXVtjSF1uYzJPW0NIM10=

> <s_epik_cmdline>
J2VwaWtfcHl0aG9uJywgJy1waCcsICc3LjAnLCAnLXRuJywgJzgnLCAnLW1hJywgJzIwMCcsICctbWV0YWxfYmluZGluZycsICctaW1hZScsICc8aW5maWxlLm1hZT4nLCAnLW9tYWUnLCAnPG91dGZpbGUubWFlPic=

> <r_lp_tautomer_probability>
1

> <r_epik_Ionization_Penalty>
0.00115026

> <r_epik_Ionization_Penalty_Charging>
0.00106265

> <r_epik_Ionization_Penalty_Neutral>
8.76119e-05

> <r_epik_State_Penalty>
0.000695551

> <r_epik_Charging_Adjusted_Penalty>
0.0017582

> <i_epik_Tot_Q>
1

> <i_epik_Tot_abs_Q>
1

> <r_epik_Metal_State_Penalty>
-0

> <b_epik_Metal_Only>
0

> <s_lp_Force_Field>
OPLS_2005

> <r_lp_Energy>
22.0854

> <b_lp_Chiralities_Consistent>
1

> <s_lp_Variant>
AV-unprocessed.smi:843-2

> <Gold.Version>
5.8.1

> <Gold.Id.Protein>
6NUR|6NUR_protein|mol2

> <Gold.PLP.Fitness>
44.8822

> <Gold.PLP.PLP>
-32.6678

> <Gold.PLP.part.hbond>
-4.1718

> <Gold.PLP.part.metal>
0.0000

> <Gold.PLP.part.buried>
-5.5402

> <Gold.PLP.part.nonpolar>
-25.5732

> <Gold.PLP.part.repulsive>
0.4670

> <Gold.PLP.ligand.clash>
0.0000

> <Gold.PLP.ligand.torsion>
0.3221

> <Gold.PLP.Chemscore.Hbond>
4.2725

> <Gold.PLP.Chemscore.CHOScore>
0.0000

> <Gold.PLP.Chemscore.Metal>
0.0000

> <Gold.Chemscore.Hbonds>
donor molecule, donor type, donor heavy atom, donor atom, acceptor molecule, acceptor atom, score
      L1  H     3    46       P1 10957  1.79
      L1  H     8    34       P1  7948  1.00
      L1  H    11    35       P1  7948  1.00
      P1  H  7989  7998       L1    16  0.60

> <Gold.PLP.Chemscore.Internal.Correction>
0.0410

> <Gold.Rescore>
     Score         DG    S(hbond)    S(metal)    S(lipo)     H(rot)  DE(clash)    DE(int)     intcor
     17.30     -19.13       2.73        0.00      74.75       1.65       0.46       1.37       ----

> <Gold.Chemscore.Fitness>
17.2991

> <Gold.Chemscore.DG>
-19.1318

> <Gold.Chemscore.ZeroCoef>
-5.4800

> <Gold.Chemscore.Hbond>
2.7331

> <Gold.Chemscore.Metal>
0.0000

> <Gold.Chemscore.Lipo>
74.7463

> <Gold.Chemscore.Internal_Hbond>
0.0000

> <Gold.Chemscore.DEClash>
0.4637

> <Gold.Chemscore.DEInternal>
1.3691

> <Gold.Chemscore.Rot>
1.6492

> <Gold.Chemscore.Internal.Correction>
   9.000000E+99

> <Gold.Chemscore.Hbonds>
donor molecule, donor type, donor heavy atom, donor atom, acceptor molecule, acceptor atom, score
      L1  H     3    46       P1 10957  0.26
      L1  H     8    34       P1  7948  1.00
      L1  H    11    35       P1  7948  0.94
      P1  H  7989  7998       L1    16  0.01

> <Gold.Chemscore.Hbond.Weighted>
-9.1284

> <Gold.Chemscore.Metal.Weighted>
-0.0000

> <Gold.Chemscore.Lipo.Weighted>
-8.7453

> <Gold.Chemscore.Internal_Hbond.Weighted>
0.0000

> <Gold.Chemscore.DEClash.Weighted>
0.4637

> <Gold.Chemscore.DEInternal.Weighted>
1.3691

> <Gold.Chemscore.Rot.Weighted>
4.2219

> <Gold.Chemscore.Internal.Correction.Weighted>
   9.000000E+99

> <Gold.Protein.RotatedTorsions>
[ 6907 6896 6895 6894 ] final  -35.50 input  -60.11 | X-H torsion
[ 7974 7965 7964 7962 ] final  160.30 input  175.53 | X-H torsion
[ 8008 7997 7996 7995 ] final -152.00 input   59.86 | X-H torsion
[ 10167 10162 10161 10158 ] final  112.29 input  -65.29 | X-H torsion
[ 10718 10713 10712 10709 ] final  -90.99 input   66.30 | X-H torsion
[ 10763 10752 10751 10750 ] final  159.54 input  -60.55 | X-H torsion
[ 11005 11000 10999 10996 ] final  -29.55 input  -57.11 | X-H torsion

> <Gold.Protein.ActiveResidues>
 VAL166  LYS551  ARG553  GLY616  TRP617  ASP618  TYR619  PRO620  LYS621  CYS622 
 ASP623  PHE694  ASN695  SER759  ASP760  ASP761  ALA762  ILE779  LEU786  VAL792 
 PHE793  MET794  SER795  GLU796  ALA797  LYS798  CYS799  TRP800  GLU811  SER814 

> <Gold.Protein.RotatedAtoms>
  151.0390  134.9593  159.8151 H   0  0  0  0  0  0  0  0  0  0  0  0  # atno 6907 bound_to 6896
  152.5360  134.2683  159.8971 H   0  0  0  0  0  0  0  0  0  0  0  0  # atno 6908 bound_to 6896
  151.2694  133.4220  159.2654 H   0  0  0  0  0  0  0  0  0  0  0  0  # atno 6909 bound_to 6896
  144.7744  139.7737  143.6284 H   0  0  0  0  0  0  0  0  0  0  0  0  # atno 7974 bound_to 7965
  155.6483  140.0709  157.2595 H   0  0  0  0  0  0  0  0  0  0  0  0  # atno 8008 bound_to 7997
  154.4168  140.1738  156.1696 H   0  0  0  0  0  0  0  0  0  0  0  0  # atno 8009 bound_to 7997
  155.9798  140.3354  155.6656 H   0  0  0  0  0  0  0  0  0  0  0  0  # atno 8010 bound_to 7997
  139.6547  144.7129  151.1981 H   0  0  0  0  0  0  0  0  0  0  0  0  # atno 10167 bound_to 10162
  155.9991  130.4931  150.5407 H   0  0  0  0  0  0  0  0  0  0  0  0  # atno 10718 bound_to 10713
  154.2334  135.2777  155.2881 H   0  0  0  0  0  0  0  0  0  0  0  0  # atno 10763 bound_to 10752
  154.5605  135.5648  153.7006 H   0  0  0  0  0  0  0  0  0  0  0  0  # atno 10764 bound_to 10752
  153.0015  135.6296  154.2477 H   0  0  0  0  0  0  0  0  0  0  0  0  # atno 10765 bound_to 10752
  140.9305  133.7341  156.0930 H   0  0  0  0  0  0  0  0  0  0  0  0  # atno 11005 bound_to 11000
  146.1914  139.5156  142.9803 LP  0  0  0  0  0  0  0  0  0  0  0  0  # atno 17320 bound_to 7965
  145.6228  141.0319  143.1905 LP  0  0  0  0  0  0  0  0  0  0  0  0  # atno 17321 bound_to 7965
  140.7553  143.6093  150.8622 LP  0  0  0  0  0  0  0  0  0  0  0  0  # atno 17342 bound_to 10162
  139.9744  143.6021  152.2963 LP  0  0  0  0  0  0  0  0  0  0  0  0  # atno 17343 bound_to 10162
  157.3344  131.0705  151.1836 LP  0  0  0  0  0  0  0  0  0  0  0  0  # atno 17370 bound_to 10713
  157.2706  130.6702  149.6017 LP  0  0  0  0  0  0  0  0  0  0  0  0  # atno 17371 bound_to 10713
  140.7868  134.3663  157.5474 LP  0  0  0  0  0  0  0  0  0  0  0  0  # atno 17394 bound_to 11000
  139.8795  134.9116  156.3040 LP  0  0  0  0  0  0  0  0  0  0  0  0  # atno 17395 bound_to 11000

$$$$
