#       Name:                AV-unprocessed.smi:2909
#       Creating user name   scv26
#       Creation time:       Fri Mar 27 16:06:28 2020


#       File generated by GOLD software.
#

@<TRIPOS>MOLECULE
AV-unprocessed.smi:2909
    47    48     1
SMALL
NO_CHARGES


@<TRIPOS>ATOM
      1 ****        -3.8352   0.5830   3.4426 C.3            1 S1                 0.0000
      2 ****        -3.4404   1.4136   2.2691 C.2            1 S1                 0.0000
      3 ****        -3.0587   1.0659   1.0042 C.2            1 S1                 0.0000
      4 ****        -2.8032   2.3114   0.3569 C.2            1 S1                 0.0000
      5 ****        -2.3419   2.5402  -1.0597 C.3            1 S1                 0.0000
      6 ****        -0.8166   2.6634  -1.1380 C.2            1 S1                 0.0000
      7 ****        -0.3079   3.6085  -1.7404 O.2            1 S1                 0.0000
      8 ****        -0.0987   1.6927  -0.5498 N.am           1 S1                 0.0000
      9 ****         1.3593   1.6013  -0.5253 C.3            1 S1                 0.0000
     10 ****         1.9002   0.9522  -1.8117 C.3            1 S1                 0.0000
     11 ****         1.5227  -0.5358  -1.9161 C.3            1 S1                 0.0000
     12 ****         1.9824  -1.3568  -0.6855 C.3            1 S1                 0.0000
     13 ****         1.5706  -2.8553  -0.7881 C.3            1 S1                 0.0000
     14 ****         2.0279  -3.6832   0.4288 C.3            1 S1                 0.0000
     15 ****         2.0924  -3.5308  -2.0713 C.3            1 S1                 0.0000
     16 ****         1.4472  -0.6886   0.6057 C.3            1 S1                 0.0000
     17 ****         1.8203   0.8015   0.7037 C.3            1 S1                 0.0000
     18 ****        -3.0183   3.3479   1.1555 N.2            1 S1                 0.0000
     19 ****        -3.4023   2.7881   2.3176 N.pl3          1 S1                 0.0000
     20 ****        -3.6338   3.3496   3.1250 H              1 S1                 0.0000
     21 ****        -4.2711  -0.3628   3.1198 H              1 S1                 0.0000
     22 ****        -4.5718   1.0988   4.0591 H              1 S1                 0.0000
     23 ****        -2.9687   0.3603   4.0653 H              1 S1                 0.0000
     24 ****        -2.9681   0.0686   0.5996 H              1 S1                 0.0000
     25 ****        -2.6561   1.7136  -1.6978 H              1 S1                 0.0000
     26 ****        -2.8016   3.4399  -1.4717 H              1 S1                 0.0000
     27 ****        -0.6042   0.9565  -0.0786 H              1 S1                 0.0000
     28 ****         1.7669   2.6103  -0.4417 H              1 S1                 0.0000
     29 ****         1.5399   1.4903  -2.6892 H              1 S1                 0.0000
     30 ****         2.9869   1.0449  -1.8278 H              1 S1                 0.0000
     31 ****         0.4436  -0.6330  -2.0420 H              1 S1                 0.0000
     32 ****         1.9736  -0.9252  -2.8278 H              1 S1                 0.0000
     33 ****         3.0722  -1.3134  -0.6507 H              1 S1                 0.0000
     34 ****         0.4812  -2.9049  -0.8196 H              1 S1                 0.0000
     35 ****         3.1035  -3.5969   0.5859 H              1 S1                 0.0000
     36 ****         1.7985  -4.7408   0.2945 H              1 S1                 0.0000
     37 ****         1.5260  -3.3752   1.3453 H              1 S1                 0.0000
     38 ****         3.1743  -3.4293  -2.1614 H              1 S1                 0.0000
     39 ****         1.6368  -3.1127  -2.9681 H              1 S1                 0.0000
     40 ****         1.8596  -4.5961  -2.0777 H              1 S1                 0.0000
     41 ****         0.3633  -0.8001   0.6562 H              1 S1                 0.0000
     42 ****         1.8471  -1.1852   1.4887 H              1 S1                 0.0000
     43 ****         2.9029   0.8911   0.8034 H              1 S1                 0.0000
     44 ****         1.3973   1.2321   1.6122 H              1 S1                 0.0000
     45 ****        -0.8898   4.2942  -2.1776 LP             1 S1                 0.0000
     46 ****         0.6874   3.6907  -1.7926 LP             1 S1                 0.0000
     47 ****        -2.9183   4.3200   0.9435 LP             1 S1                 0.0000
@<TRIPOS>BOND
    1    1    2 1     
    2    1   21 1     
    3    1   22 1     
    4    1   23 1     
    5    2   19 1     
    6    2    3 2     
    7    3    4 1     
    8    3   24 1     
    9    4    5 1     
   10    4   18 2     
   11    5    6 1     
   12    5   25 1     
   13    5   26 1     
   14    6    7 2     
   15    6    8 am    
   16    8    9 1     
   17    8   27 1     
   18    9   17 1     
   19    9   10 1     
   20    9   28 1     
   21   10   11 1     
   22   10   29 1     
   23   10   30 1     
   24   11   12 1     
   25   11   31 1     
   26   11   32 1     
   27   12   13 1     
   28   12   16 1     
   29   12   33 1     
   30   13   14 1     
   31   13   15 1     
   32   13   34 1     
   33   14   35 1     
   34   14   36 1     
   35   14   37 1     
   36   15   38 1     
   37   15   39 1     
   38   15   40 1     
   39   16   17 1     
   40   16   41 1     
   41   16   42 1     
   42   17   43 1     
   43   17   44 1     
   44   18   19 1     
   45   19   20 1     
   46    7   45 1     
   47    7   46 1     
   48   18   47 1     
@<TRIPOS>SUBSTRUCTURE
      1 S1             1
@<TRIPOS>SET
LONE_PAIRS      STATIC     ATOMS    <user>   **** ""
3 45 46 47
DONOR_HYDROGENS      STATIC     ATOMS    <user>   **** ""
2 27 20
ATOM$BLUE        STATIC     ATOMS    COLORGROUP SYSTEM
3 45 46 47
ATOM$RED        STATIC     ATOMS    COLORGROUP SYSTEM
2 27 20
