AV-unprocessed.smi:499|AV-procd|sdf|2733|dock1
  -GOLD-   2262023183D 1   1.00000     0.00000
 Structure written by MMmdl.
 36 37  0  0  0  0  0  0  0  0  1 V2000
  146.3785  143.0573  157.3572 C   0  0  0  0  0  0  0  0  0  0  0  0
  146.9799  141.8820  156.5608 C   0  0  2  0  0  0  0  0  0  0  0  0
  146.8027  140.6622  157.3704 C   0  0  0  0  0  0  0  0  0  0  0  0
  146.6663  139.7056  158.0077 N   0  0  0  0  0  0  0  0  0  0  0  0
  148.4213  142.0851  156.3930 N   0  0  0  0  0  0  0  0  0  0  0  0
  149.3330  141.2135  155.9294 C   0  0  0  0  0  0  0  0  0  0  0  0
  149.0557  140.0800  155.5374 O   0  0  0  0  0  0  0  0  0  0  0  0
  150.7809  141.7220  155.8867 C   0  0  0  0  0  0  0  0  0  0  0  0
  151.3843  141.8662  157.2221 N   0  0  0  0  0  0  0  0  0  0  0  0
  151.1260  143.0634  157.9180 C   0  0  0  0  0  0  0  0  0  0  0  0
  151.6091  143.3143  159.1500 C   0  0  0  0  0  0  0  0  0  0  0  0
  151.3619  144.6421  159.8490 C   0  0  0  0  0  0  0  0  0  0  0  0
  151.8644  145.6375  159.1200 F   0  0  0  0  0  0  0  0  0  0  0  0
  150.0576  144.8643  160.0133 F   0  0  0  0  0  0  0  0  0  0  0  0
  151.9461  144.6704  161.0475 F   0  0  0  0  0  0  0  0  0  0  0  0
  152.4524  142.2893  159.7330 C   0  0  0  0  0  0  0  0  0  0  0  0
  152.7215  141.1446  159.0750 C   0  0  0  0  0  0  0  0  0  0  0  0
  152.1749  140.8800  157.7422 C   0  0  0  0  0  0  0  0  0  0  0  0
  152.4132  139.8381  157.1308 O   0  0  0  0  0  0  0  0  0  0  0  0
  146.2328  141.7235  155.2316 C   0  0  0  0  0  0  0  0  0  0  0  0
  146.9414  141.4099  153.9324 C   0  0  0  0  0  0  0  0  0  0  0  0
  146.2932  142.7623  154.1346 C   0  0  0  0  0  0  0  0  0  0  0  0
  145.3256  142.8783  157.5779 H   0  0  0  0  0  0  0  0  0  0  0  0
  146.4359  143.9982  156.8098 H   0  0  0  0  0  0  0  0  0  0  0  0
  146.8922  143.1954  158.3094 H   0  0  0  0  0  0  0  0  0  0  0  0
  148.7657  142.9906  156.6783 H   0  0  0  0  0  0  0  0  0  0  0  0
  151.3645  141.0326  155.2753 H   0  0  0  0  0  0  0  0  0  0  0  0
  150.8179  142.6749  155.3551 H   0  0  0  0  0  0  0  0  0  0  0  0
  150.5154  143.7736  157.3793 H   0  0  0  0  0  0  0  0  0  0  0  0
  152.8741  142.4396  160.7159 H   0  0  0  0  0  0  0  0  0  0  0  0
  153.3532  140.4025  159.5408 H   0  0  0  0  0  0  0  0  0  0  0  0
  145.2718  141.2249  155.3395 H   0  0  0  0  0  0  0  0  0  0  0  0
  148.0286  141.3692  153.9300 H   0  0  0  0  0  0  0  0  0  0  0  0
  146.4519  140.7160  153.2521 H   0  0  0  0  0  0  0  0  0  0  0  0
  145.3735  142.9662  153.5901 H   0  0  0  0  0  0  0  0  0  0  0  0
  146.9492  143.6194  154.2707 H   0  0  0  0  0  0  0  0  0  0  0  0
  1  2  1  0  0  0  0
  1 23  1  0  0  0  0
  1 24  1  0  0  0  0
  1 25  1  0  0  0  0
  2  3  1  0  0  0  0
  2  5  1  0  0  0  0
  2 20  1  0  0  0  0
  3  4  3  0  0  0  0
  5  6  1  0  0  0  0
  5 26  1  0  0  0  0
  6  7  2  0  0  0  0
  6  8  1  0  0  0  0
  8  9  1  0  0  0  0
  8 27  1  0  0  0  0
  8 28  1  0  0  0  0
  9 18  1  0  0  0  0
  9 10  1  0  0  0  0
 10 11  2  0  0  0  0
 10 29  1  0  0  0  0
 11 12  1  0  0  0  0
 11 16  1  0  0  0  0
 12 13  1  0  0  0  0
 12 14  1  0  0  0  0
 12 15  1  0  0  0  0
 16 17  2  0  0  0  0
 16 30  1  0  0  0  0
 17 18  1  0  0  0  0
 17 31  1  0  0  0  0
 18 19  2  0  0  0  0
 20 22  1  0  0  0  0
 20 21  1  0  0  0  0
 20 32  1  0  0  0  0
 21 22  1  0  0  0  0
 21 33  1  0  0  0  0
 21 34  1  0  0  0  0
 22 35  1  0  0  0  0
 22 36  1  0  0  0  0
M  END
> <s_m_source_file>
AV-unprocessed.smi

> <i_m_source_file_index>
499

> <i_lp_mmshare_version>
43012

> <i_f3d_flags>
0

> <s_epik_input>
W0NIMl0xW0NIMl1bQ0hdMVtDQF0oW0NIM10pKEMjTilbTkhdQyg9TylbQ0gyXW4yW2NIXWMoQyhGKShGKUYpW2NIXVtjSF1jMj1P

> <s_epik_cmdline>
J2VwaWtfcHl0aG9uJywgJy1waCcsICc3LjAnLCAnLXRuJywgJzgnLCAnLW1hJywgJzIwMCcsICctbWV0YWxfYmluZGluZycsICctaW1hZScsICc8aW5maWxlLm1hZT4nLCAnLW9tYWUnLCAnPG91dGZpbGUubWFlPic=

> <r_lp_tautomer_probability>
1

> <r_epik_Ionization_Penalty>
4.79953e-07

> <r_epik_Ionization_Penalty_Charging>
1.46911e-08

> <r_epik_Ionization_Penalty_Neutral>
4.65262e-07

> <r_epik_State_Penalty>
-0

> <r_epik_Charging_Adjusted_Penalty>
1.46911e-08

> <i_epik_Tot_Q>
0

> <i_epik_Tot_abs_Q>
0

> <r_epik_Metal_State_Penalty>
-0

> <b_epik_Metal_Only>
0

> <s_lp_Force_Field>
OPLS_2005

> <r_lp_Energy>
23.9412

> <b_lp_Chiralities_Consistent>
1

> <s_lp_Variant>
AV-unprocessed.smi:499-2

> <Gold.Version>
5.8.1

> <Gold.Id.Protein>
6NUR|6NUR_protein|mol2

> <Gold.PLP.Fitness>
50.5524

> <Gold.PLP.PLP>
-44.4434

> <Gold.PLP.part.hbond>
-2.6895

> <Gold.PLP.part.metal>
0.0000

> <Gold.PLP.part.buried>
-5.3708

> <Gold.PLP.part.nonpolar>
-35.4606

> <Gold.PLP.part.repulsive>
0.0584

> <Gold.PLP.ligand.clash>
0.0000

> <Gold.PLP.ligand.torsion>
1.4755

> <Gold.PLP.Chemscore.Hbond>
1.5920

> <Gold.PLP.Chemscore.CHOScore>
0.8871

> <Gold.PLP.Chemscore.Metal>
0.0000

> <Gold.Chemscore.Hbonds>
donor molecule, donor type, donor heavy atom, donor atom, acceptor molecule, acceptor atom, score
      L1  H     5    26       P1  8028  0.61
      P1  H  7997  8009       L1    19  0.99
      L1  C    10    29       P1  8028  1.00

> <Gold.PLP.Chemscore.Internal.Correction>
1.6227

> <Gold.Rescore>
     Score         DG    S(hbond)    S(metal)    S(lipo)     H(rot)  DE(clash)    DE(int)     intcor
     11.13     -14.86       1.50        0.00      79.04       1.90       0.89       2.85       ----

> <Gold.Chemscore.Fitness>
11.1278

> <Gold.Chemscore.DG>
-14.8609

> <Gold.Chemscore.ZeroCoef>
-5.4800

> <Gold.Chemscore.Hbond>
1.4985

> <Gold.Chemscore.Metal>
0.0000

> <Gold.Chemscore.Lipo>
79.0388

> <Gold.Chemscore.Internal_Hbond>
0.0000

> <Gold.Chemscore.DEClash>
0.8878

> <Gold.Chemscore.DEInternal>
2.8453

> <Gold.Chemscore.Rot>
1.9030

> <Gold.Chemscore.Internal.Correction>
   9.000000E+99

> <Gold.Chemscore.Hbonds>
donor molecule, donor type, donor heavy atom, donor atom, acceptor molecule, acceptor atom, score
      L1  H     5    26       P1  8028  0.54
      P1  H  7997  8009       L1    19  0.28

> <Gold.Chemscore.Hbond.Weighted>
-5.0051

> <Gold.Chemscore.Metal.Weighted>
-0.0000

> <Gold.Chemscore.Lipo.Weighted>
-9.2475

> <Gold.Chemscore.Internal_Hbond.Weighted>
0.0000

> <Gold.Chemscore.DEClash.Weighted>
0.8878

> <Gold.Chemscore.DEInternal.Weighted>
2.8453

> <Gold.Chemscore.Rot.Weighted>
4.8718

> <Gold.Chemscore.Internal.Correction.Weighted>
   9.000000E+99

> <Gold.Protein.RotatedTorsions>
[ 6907 6896 6895 6894 ] final -168.77 input  -60.11 | X-H torsion
[ 7974 7965 7964 7962 ] final -119.40 input  175.53 | X-H torsion
[ 8008 7997 7996 7995 ] final  179.83 input   59.86 | X-H torsion
[ 10167 10162 10161 10158 ] final    7.89 input  -65.29 | X-H torsion
[ 10718 10713 10712 10709 ] final  -87.20 input   66.30 | X-H torsion
[ 10763 10752 10751 10750 ] final   60.19 input  -60.55 | X-H torsion
[ 11005 11000 10999 10996 ] final   16.48 input  -57.11 | X-H torsion

> <Gold.Protein.ActiveResidues>
 VAL166  LYS551  ARG553  GLY616  TRP617  ASP618  TYR619  PRO620  LYS621  CYS622 
 ASP623  PHE694  ASN695  SER759  ASP760  ASP761  ALA762  ILE779  LEU786  VAL792 
 PHE793  MET794  SER795  GLU796  ALA797  LYS798  CYS799  TRP800  GLU811  SER814 

> <Gold.Protein.RotatedAtoms>
  151.4809  133.3547  159.2837 H   0  0  0  0  0  0  0  0  0  0  0  0  # atno 6907 bound_to 6896
  150.8898  134.8302  159.7296 H   0  0  0  0  0  0  0  0  0  0  0  0  # atno 6908 bound_to 6896
  152.4816  134.4717  159.9689 H   0  0  0  0  0  0  0  0  0  0  0  0  # atno 6909 bound_to 6896
  145.0629  140.8303  143.4141 H   0  0  0  0  0  0  0  0  0  0  0  0  # atno 7974 bound_to 7965
  156.0389  140.1299  157.0177 H   0  0  0  0  0  0  0  0  0  0  0  0  # atno 8008 bound_to 7997
  154.4382  140.1034  156.6279 H   0  0  0  0  0  0  0  0  0  0  0  0  # atno 8009 bound_to 7997
  155.5696  140.3466  155.4514 H   0  0  0  0  0  0  0  0  0  0  0  0  # atno 8010 bound_to 7997
  140.6346  143.7916  150.7341 H   0  0  0  0  0  0  0  0  0  0  0  0  # atno 10167 bound_to 10162
  155.9986  130.4791  150.4831 H   0  0  0  0  0  0  0  0  0  0  0  0  # atno 10718 bound_to 10713
  152.9914  135.5545  154.5834 H   0  0  0  0  0  0  0  0  0  0  0  0  # atno 10763 bound_to 10752
  154.5211  135.2808  155.1264 H   0  0  0  0  0  0  0  0  0  0  0  0  # atno 10764 bound_to 10752
  154.2617  135.6380  153.5330 H   0  0  0  0  0  0  0  0  0  0  0  0  # atno 10765 bound_to 10752
  140.4467  134.1266  155.7697 H   0  0  0  0  0  0  0  0  0  0  0  0  # atno 11005 bound_to 11000
  145.1386  139.2586  143.5502 LP  0  0  0  0  0  0  0  0  0  0  0  0  # atno 17320 bound_to 7965
  146.3525  140.1057  142.8606 LP  0  0  0  0  0  0  0  0  0  0  0  0  # atno 17321 bound_to 7965
  140.1535  143.4337  152.2115 LP  0  0  0  0  0  0  0  0  0  0  0  0  # atno 17342 bound_to 10162
  139.5557  144.7371  151.4302 LP  0  0  0  0  0  0  0  0  0  0  0  0  # atno 17343 bound_to 10162
  157.2834  131.0611  151.2182 LP  0  0  0  0  0  0  0  0  0  0  0  0  # atno 17370 bound_to 10713
  157.3221  130.6942  149.6275 LP  0  0  0  0  0  0  0  0  0  0  0  0  # atno 17371 bound_to 10713
  141.1682  133.8661  157.1651 LP  0  0  0  0  0  0  0  0  0  0  0  0  # atno 17394 bound_to 11000
  140.0034  135.0018  157.0239 LP  0  0  0  0  0  0  0  0  0  0  0  0  # atno 17395 bound_to 11000

$$$$
