AV-unprocessed.smi:249|AV-procd|sdf|1922|dock7
  -GOLD-   2262021 33D 1   1.00000     0.00000
 Structure written by MMmdl.
 64 67  0  0  0  0  0  0  0  0  2 V2000
  145.3656  135.2580  151.3126 C   0  0  0  0  0  0  0  0  0  0  0  0
  146.2318  134.0256  151.6093 C   0  0  0  0  0  0  0  0  0  0  0  0
  147.2278  134.2806  152.6820 N   0  3  2  0  0  0  0  0  0  0  0  0
  148.1623  133.1454  152.9114 C   0  0  0  0  0  0  0  0  0  0  0  0
  149.2913  133.5417  153.8762 C   0  0  0  0  0  0  0  0  0  0  0  0
  148.7282  134.0611  155.2153 C   0  0  1  0  0  0  0  0  0  0  0  0
  149.7724  134.3995  156.1933 N   0  0  0  0  0  0  0  0  0  0  0  0
  150.5981  133.3048  156.6914 C   0  0  0  0  0  0  0  0  0  0  0  0
  150.4570  135.5519  155.9947 C   0  0  0  0  0  0  0  0  0  0  0  0
  150.8512  135.8980  154.7407 N   0  0  0  0  0  0  0  0  0  0  0  0
  151.4998  137.0487  154.5369 C   0  0  0  0  0  0  0  0  0  0  0  0
  151.8411  137.9831  155.4268 N   0  0  0  0  0  0  0  0  0  0  0  0
  151.4559  137.6318  156.6871 C   0  0  0  0  0  0  0  0  0  0  0  0
  150.7782  136.4376  157.0578 C   0  0  0  0  0  0  0  0  0  0  0  0
  150.5662  136.4154  158.4305 N   0  0  0  0  0  0  0  0  0  0  0  0
  151.0726  137.5438  158.8469 C   0  0  0  0  0  0  0  0  0  0  0  0
  151.5977  138.3497  157.8613 N   0  0  0  0  0  0  0  0  0  0  0  0
  152.1975  139.6591  158.0407 C   0  0  0  0  0  0  0  0  0  0  0  0
  151.2042  140.8517  157.9397 C   0  0  2  0  0  0  0  0  0  0  0  0
  150.4401  140.7578  156.5964 C   0  0  0  0  0  0  0  0  0  0  0  0
  151.3194  140.5089  155.5190 O   0  0  0  0  0  0  0  0  0  0  0  0
  151.8868  142.2436  158.1148 C   0  0  1  0  0  0  0  0  0  0  0  0
  150.9315  143.4258  158.1971 C   0  0  0  0  0  0  0  0  0  0  0  0
  151.8038  144.5090  158.8131 C   0  0  0  0  0  0  0  0  0  0  0  0
  152.5914  143.8226  159.7722 O   0  0  0  0  0  0  0  0  0  0  0  0
  152.6792  142.4451  159.4203 C   0  0  0  0  0  0  0  0  0  0  0  0
  147.7386  135.2142  154.9334 C   0  0  0  0  0  0  0  0  0  0  0  0
  146.6284  134.8036  153.9454 C   0  0  2  0  0  0  0  0  0  0  0  0
  145.5965  133.8463  154.5814 C   0  0  0  0  0  0  0  0  0  0  0  0
  144.5953  135.0163  150.5799 H   0  0  0  0  0  0  0  0  0  0  0  0
  145.9501  136.0827  150.9060 H   0  0  0  0  0  0  0  0  0  0  0  0
  144.8635  135.6123  152.2134 H   0  0  0  0  0  0  0  0  0  0  0  0
  145.5652  133.2200  151.9202 H   0  0  0  0  0  0  0  0  0  0  0  0
  146.7326  133.6825  150.7030 H   0  0  0  0  0  0  0  0  0  0  0  0
  147.6192  132.2815  153.2956 H   0  0  0  0  0  0  0  0  0  0  0  0
  148.6086  132.8314  151.9684 H   0  0  0  0  0  0  0  0  0  0  0  0
  149.9388  132.6803  154.0414 H   0  0  0  0  0  0  0  0  0  0  0  0
  149.9076  134.3064  153.4025 H   0  0  0  0  0  0  0  0  0  0  0  0
  148.1601  133.2488  155.6694 H   0  0  0  0  0  0  0  0  0  0  0  0
  151.1924  133.6298  157.5463 H   0  0  0  0  0  0  0  0  0  0  0  0
  151.2776  132.9352  155.9231 H   0  0  0  0  0  0  0  0  0  0  0  0
  149.9715  132.4749  157.0185 H   0  0  0  0  0  0  0  0  0  0  0  0
  151.7784  137.2543  153.5139 H   0  0  0  0  0  0  0  0  0  0  0  0
  151.0564  137.8305  159.8884 H   0  0  0  0  0  0  0  0  0  0  0  0
  152.6978  139.6778  159.0098 H   0  0  0  0  0  0  0  0  0  0  0  0
  152.9842  139.7508  157.2912 H   0  0  0  0  0  0  0  0  0  0  0  0
  150.4619  140.7505  158.7325 H   0  0  0  0  0  0  0  0  0  0  0  0
  149.7216  139.9393  156.6002 H   0  0  0  0  0  0  0  0  0  0  0  0
  149.8817  141.6741  156.4032 H   0  0  0  0  0  0  0  0  0  0  0  0
  151.6490  139.6265  155.5968 H   0  0  0  0  0  0  0  0  0  0  0  0
  152.5570  142.4190  157.2716 H   0  0  0  0  0  0  0  0  0  0  0  0
  150.5313  143.7260  157.2284 H   0  0  0  0  0  0  0  0  0  0  0  0
  150.0956  143.1984  158.8608 H   0  0  0  0  0  0  0  0  0  0  0  0
  152.4606  144.9455  158.0594 H   0  0  0  0  0  0  0  0  0  0  0  0
  151.2230  145.3110  159.2689 H   0  0  0  0  0  0  0  0  0  0  0  0
  152.2514  141.8654  160.2386 H   0  0  0  0  0  0  0  0  0  0  0  0
  153.7255  142.1614  159.3152 H   0  0  0  0  0  0  0  0  0  0  0  0
  147.2914  135.5621  155.8652 H   0  0  0  0  0  0  0  0  0  0  0  0
  148.2694  136.0676  154.5093 H   0  0  0  0  0  0  0  0  0  0  0  0
  146.0921  135.7178  153.6864 H   0  0  0  0  0  0  0  0  0  0  0  0
  145.1793  134.2812  155.4901 H   0  0  0  0  0  0  0  0  0  0  0  0
  146.0306  132.8852  154.8543 H   0  0  0  0  0  0  0  0  0  0  0  0
  144.7592  133.6521  153.9114 H   0  0  0  0  0  0  0  0  0  0  0  0
  147.7997  135.0382  152.3365 H   0  0  0  0  0  0  0  0  0  0  0  0
  1  2  1  0  0  0  0
  1 30  1  0  0  0  0
  1 31  1  0  0  0  0
  1 32  1  0  0  0  0
  2  3  1  0  0  0  0
  2 33  1  0  0  0  0
  2 34  1  0  0  0  0
  3 28  1  0  0  0  0
  3  4  1  0  0  0  0
  3 64  1  0  0  0  0
  4  5  1  0  0  0  0
  4 35  1  0  0  0  0
  4 36  1  0  0  0  0
  5  6  1  0  0  0  0
  5 37  1  0  0  0  0
  5 38  1  0  0  0  0
  6  7  1  0  0  0  0
  6 27  1  0  0  0  0
  6 39  1  0  0  0  0
  7  8  1  0  0  0  0
  7  9  1  0  0  0  0
  8 40  1  0  0  0  0
  8 41  1  0  0  0  0
  8 42  1  0  0  0  0
  9 14  1  0  0  0  0
  9 10  2  0  0  0  0
 10 11  1  0  0  0  0
 11 12  2  0  0  0  0
 11 43  1  0  0  0  0
 12 13  1  0  0  0  0
 13 17  1  0  0  0  0
 13 14  2  0  0  0  0
 14 15  1  0  0  0  0
 15 16  2  0  0  0  0
 16 17  1  0  0  0  0
 16 44  1  0  0  0  0
 17 18  1  0  0  0  0
 18 19  1  0  0  0  0
 18 45  1  0  0  0  0
 18 46  1  0  0  0  0
 19 20  1  0  0  0  0
 19 22  1  0  0  0  0
 19 47  1  0  0  0  0
 20 21  1  0  0  0  0
 20 48  1  0  0  0  0
 20 49  1  0  0  0  0
 21 50  1  0  0  0  0
 22 26  1  0  0  0  0
 22 23  1  0  0  0  0
 22 51  1  0  0  0  0
 23 24  1  0  0  0  0
 23 52  1  0  0  0  0
 23 53  1  0  0  0  0
 24 25  1  0  0  0  0
 24 54  1  0  0  0  0
 24 55  1  0  0  0  0
 25 26  1  0  0  0  0
 26 56  1  0  0  0  0
 26 57  1  0  0  0  0
 27 28  1  0  0  0  0
 27 58  1  0  0  0  0
 27 59  1  0  0  0  0
 28 29  1  0  0  0  0
 28 60  1  0  0  0  0
 29 61  1  0  0  0  0
 29 62  1  0  0  0  0
 29 63  1  0  0  0  0
M  CHG  1   3   1
M  END
> <s_m_source_file>
AV-unprocessed.smi

> <i_m_source_file_index>
249

> <i_lp_mmshare_version>
43012

> <i_f3d_flags>
0

> <s_epik_input>
W0NIM11bQ0gyXU4xW0NIMl1bQ0gyXVtDQEhdKFtDSDJdW0NASF0xW0NIM10pTihbQ0gzXSljKG5bY0hdbjIpYyhjMjMpbltjSF1uM1tDSDJdW0NASF0oW0NIMl1bT0hdKVtDQEBIXTRbQ0gyXVtDSDJdT1tDSDJdNA==

> <s_epik_cmdline>
J2VwaWtfcHl0aG9uJywgJy1waCcsICc3LjAnLCAnLXRuJywgJzgnLCAnLW1hJywgJzIwMCcsICctbWV0YWxfYmluZGluZycsICctaW1hZScsICc8aW5maWxlLm1hZT4nLCAnLW9tYWUnLCAnPG91dGZpbGUubWFlPic=

> <r_lp_tautomer_probability>
1

> <r_epik_Ionization_Penalty>
0.00294688

> <r_epik_Ionization_Penalty_Charging>
0.00169971

> <r_epik_Ionization_Penalty_Neutral>
0.00124717

> <r_epik_State_Penalty>
-0

> <r_epik_Charging_Adjusted_Penalty>
0.00169971

> <i_epik_Tot_Q>
1

> <i_epik_Tot_abs_Q>
1

> <r_epik_Metal_State_Penalty>
-0

> <b_epik_Metal_Only>
0

> <s_lp_Force_Field>
OPLS_2005

> <r_lp_Energy>
54.0807

> <b_lp_Chiralities_Consistent>
1

> <s_lp_Variant>
AV-unprocessed.smi:249-25

> <Gold.Version>
5.8.1

> <Gold.Id.Protein>
6NUR|6NUR_protein|mol2

> <Gold.PLP.Fitness>
56.0891

> <Gold.PLP.PLP>
-43.3169

> <Gold.PLP.part.hbond>
-4.0000

> <Gold.PLP.part.metal>
0.0000

> <Gold.PLP.part.buried>
-5.2554

> <Gold.PLP.part.nonpolar>
-35.5487

> <Gold.PLP.part.repulsive>
0.2203

> <Gold.PLP.ligand.clash>
0.0000

> <Gold.PLP.ligand.torsion>
1.1931

> <Gold.PLP.Chemscore.Hbond>
3.8240

> <Gold.PLP.Chemscore.CHOScore>
0.9594

> <Gold.PLP.Chemscore.Metal>
0.0000

> <Gold.Chemscore.Hbonds>
donor molecule, donor type, donor heavy atom, donor atom, acceptor molecule, acceptor atom, score
      L1  H     3    64       P1  7948  2.00
      P1  H  6896  6909       L1    15  0.90
      P1  H  7989  7998       L1    21  0.79
      L1  C    11    43       P1  7949  0.97

> <Gold.PLP.Chemscore.Internal.Correction>
0.8082

> <Gold.Rescore>
     Score         DG    S(hbond)    S(metal)    S(lipo)     H(rot)  DE(clash)    DE(int)     intcor
     13.70     -17.66       2.42        0.00      98.58       2.90       1.50       2.46       ----

> <Gold.Chemscore.Fitness>
13.7034

> <Gold.Chemscore.DG>
-17.6561

> <Gold.Chemscore.ZeroCoef>
-5.4800

> <Gold.Chemscore.Hbond>
2.4156

> <Gold.Chemscore.Metal>
0.0000

> <Gold.Chemscore.Lipo>
98.5770

> <Gold.Chemscore.Internal_Hbond>
0.0000

> <Gold.Chemscore.DEClash>
1.4976

> <Gold.Chemscore.DEInternal>
2.4550

> <Gold.Chemscore.Rot>
2.9006

> <Gold.Chemscore.Internal.Correction>
   9.000000E+99

> <Gold.Chemscore.Hbonds>
donor molecule, donor type, donor heavy atom, donor atom, acceptor molecule, acceptor atom, score
      L1  H     3    64       P1  7948  0.93
      P1  H  6896  6909       L1    15  0.67
      P1  H  7989  7998       L1    21  0.22

> <Gold.Chemscore.Hbond.Weighted>
-8.0682

> <Gold.Chemscore.Metal.Weighted>
-0.0000

> <Gold.Chemscore.Lipo.Weighted>
-11.5335

> <Gold.Chemscore.Internal_Hbond.Weighted>
0.0000

> <Gold.Chemscore.DEClash.Weighted>
1.4976

> <Gold.Chemscore.DEInternal.Weighted>
2.4550

> <Gold.Chemscore.Rot.Weighted>
7.4256

> <Gold.Chemscore.Internal.Correction.Weighted>
   9.000000E+99

> <Gold.Protein.RotatedTorsions>
[ 6907 6896 6895 6894 ] final   78.11 input  -60.11 | X-H torsion
[ 7974 7965 7964 7962 ] final  159.47 input  175.53 | X-H torsion
[ 8008 7997 7996 7995 ] final   78.48 input   59.86 | X-H torsion
[ 10167 10162 10161 10158 ] final   38.03 input  -65.29 | X-H torsion
[ 10718 10713 10712 10709 ] final   12.90 input   66.30 | X-H torsion
[ 10763 10752 10751 10750 ] final   55.88 input  -60.55 | X-H torsion
[ 11005 11000 10999 10996 ] final   89.68 input  -57.11 | X-H torsion

> <Gold.Protein.ActiveResidues>
 VAL166  LYS551  ARG553  GLY616  TRP617  ASP618  TYR619  PRO620  LYS621  CYS622 
 ASP623  PHE694  ASN695  SER759  ASP760  ASP761  ALA762  ILE779  LEU786  VAL792 
 PHE793  MET794  SER795  GLU796  ALA797  LYS798  CYS799  TRP800  GLU811  SER814 

> <Gold.Protein.RotatedAtoms>
  152.5146  134.3714  159.9319 H   0  0  0  0  0  0  0  0  0  0  0  0  # atno 6907 bound_to 6896
  151.3668  133.3863  159.2703 H   0  0  0  0  0  0  0  0  0  0  0  0  # atno 6908 bound_to 6896
  150.9608  134.9016  159.7788 H   0  0  0  0  0  0  0  0  0  0  0  0  # atno 6909 bound_to 6896
  144.7789  139.7622  143.6268 H   0  0  0  0  0  0  0  0  0  0  0  0  # atno 7974 bound_to 7965
  155.8562  140.3456  155.5726 H   0  0  0  0  0  0  0  0  0  0  0  0  # atno 8008 bound_to 7997
  155.7983  140.0881  157.1991 H   0  0  0  0  0  0  0  0  0  0  0  0  # atno 8009 bound_to 7997
  154.4009  140.1470  156.3231 H   0  0  0  0  0  0  0  0  0  0  0  0  # atno 8010 bound_to 7997
  140.3976  144.1768  150.6132 H   0  0  0  0  0  0  0  0  0  0  0  0  # atno 10167 bound_to 10162
  157.0169  130.6139  149.5715 H   0  0  0  0  0  0  0  0  0  0  0  0  # atno 10718 bound_to 10713
  152.9823  135.5695  154.5138 H   0  0  0  0  0  0  0  0  0  0  0  0  # atno 10763 bound_to 10752
  154.4637  135.2782  155.1696 H   0  0  0  0  0  0  0  0  0  0  0  0  # atno 10764 bound_to 10752
  154.3273  135.6256  153.5588 H   0  0  0  0  0  0  0  0  0  0  0  0  # atno 10765 bound_to 10752
  139.8870  134.8566  156.3176 H   0  0  0  0  0  0  0  0  0  0  0  0  # atno 11005 bound_to 11000
  146.1985  139.5265  142.9759 LP  0  0  0  0  0  0  0  0  0  0  0  0  # atno 17320 bound_to 7965
  145.6108  141.0340  143.1968 LP  0  0  0  0  0  0  0  0  0  0  0  0  # atno 17321 bound_to 7965
  140.4774  143.2391  151.9003 LP  0  0  0  0  0  0  0  0  0  0  0  0  # atno 17342 bound_to 10162
  139.4786  144.5305  151.8673 LP  0  0  0  0  0  0  0  0  0  0  0  0  # atno 17343 bound_to 10162
  156.0116  130.5208  150.8006 LP  0  0  0  0  0  0  0  0  0  0  0  0  # atno 17370 bound_to 10713
  157.5279  131.0935  150.9994 LP  0  0  0  0  0  0  0  0  0  0  0  0  # atno 17371 bound_to 10713
  140.9808  133.7268  156.0669 LP  0  0  0  0  0  0  0  0  0  0  0  0  # atno 17394 bound_to 11000
  140.7751  134.3788  157.5499 LP  0  0  0  0  0  0  0  0  0  0  0  0  # atno 17395 bound_to 11000

$$$$
