AV-unprocessed.smi:21|AV-procd|sdf|163|dock5
  -GOLD-   2262015403D 1   1.00000     0.00000
 Structure written by MMmdl.
 61 64  0  0  0  0  0  0  0  0  1 V2000
  151.1543  145.1049  159.3336 C   0  0  0  0  0  0  0  0  0  0  0  0
  152.4047  144.4906  159.6015 O   0  0  0  0  0  0  0  0  0  0  0  0
  152.2886  143.2181  160.2227 C   0  0  1  0  0  0  0  0  0  0  0  0
  151.5689  142.2303  159.2907 C   0  0  0  0  0  0  0  0  0  0  0  0
  152.6058  141.1297  159.0141 C   0  0  2  0  0  0  0  0  0  0  0  0
  151.9796  139.7530  158.7036 C   0  0  0  0  0  0  0  0  0  0  0  0
  151.1597  139.7718  157.4885 N   0  0  0  0  0  0  0  0  0  0  0  0
  151.3070  140.9120  156.5922 C   0  0  0  0  0  0  0  0  0  0  0  0
  150.1225  138.8987  157.3251 C   0  0  0  0  0  0  0  0  0  0  0  0
  149.6895  138.2014  158.4101 N   0  0  0  0  0  0  0  0  0  0  0  0
  148.6801  137.3333  158.3161 C   0  0  0  0  0  0  0  0  0  0  0  0
  147.9641  137.0038  157.2422 N   0  0  0  0  0  0  0  0  0  0  0  0
  148.3852  137.6896  156.1428 C   0  0  0  0  0  0  0  0  0  0  0  0
  149.4435  138.6454  156.0911 C   0  0  0  0  0  0  0  0  0  0  0  0
  149.5575  139.1280  154.7898 N   0  0  0  0  0  0  0  0  0  0  0  0
  148.6331  138.4978  154.1197 C   0  0  0  0  0  0  0  0  0  0  0  0
  147.8783  137.6176  154.8570 N   0  0  0  0  0  0  0  0  0  0  0  0
  146.7904  136.7885  154.3665 C   0  0  0  0  0  0  0  0  0  0  0  0
  146.5989  136.8677  152.8306 C   0  0  2  0  0  0  0  0  0  0  0  0
  146.1562  138.2882  152.3935 C   0  0  0  0  0  0  0  0  0  0  0  0
  146.4068  138.5168  151.0226 O   0  0  0  0  0  0  0  0  0  0  0  0
  145.6075  135.7683  152.3580 C   0  0  1  0  0  0  0  0  0  0  0  0
  145.3425  135.7132  150.8628 C   0  0  0  0  0  0  0  0  0  0  0  0
  144.7547  134.3186  150.6863 C   0  0  0  0  0  0  0  0  0  0  0  0
  145.4054  133.5077  151.6561 O   0  0  0  0  0  0  0  0  0  0  0  0
  146.0838  134.3300  152.6004 C   0  0  0  0  0  0  0  0  0  0  0  0
  153.4784  141.1504  160.1773 N   0  0  0  0  0  0  0  0  0  0  0  0
  154.7486  140.4660  159.9741 C   0  0  0  0  0  0  0  0  0  0  0  0
  153.6578  142.5627  160.4497 C   0  0  0  0  0  0  0  0  0  0  0  0
  151.7335  143.2935  161.1597 H   0  0  0  0  0  0  0  0  0  0  0  0
  153.1913  141.4449  158.1481 H   0  0  0  0  0  0  0  0  0  0  0  0
  151.3178  146.0673  158.8488 H   0  0  0  0  0  0  0  0  0  0  0  0
  150.5903  145.2849  160.2493 H   0  0  0  0  0  0  0  0  0  0  0  0
  150.5490  144.4919  158.6647 H   0  0  0  0  0  0  0  0  0  0  0  0
  150.6981  141.8219  159.8045 H   0  0  0  0  0  0  0  0  0  0  0  0
  151.2185  142.6957  158.3686 H   0  0  0  0  0  0  0  0  0  0  0  0
  152.7703  139.0215  158.5391 H   0  0  0  0  0  0  0  0  0  0  0  0
  151.4351  139.3822  159.5716 H   0  0  0  0  0  0  0  0  0  0  0  0
  151.3195  140.5887  155.5510 H   0  0  0  0  0  0  0  0  0  0  0  0
  152.2421  141.4392  156.7827 H   0  0  0  0  0  0  0  0  0  0  0  0
  150.4919  141.6220  156.7353 H   0  0  0  0  0  0  0  0  0  0  0  0
  148.4083  136.8318  159.2331 H   0  0  0  0  0  0  0  0  0  0  0  0
  148.4727  138.6611  153.0639 H   0  0  0  0  0  0  0  0  0  0  0  0
  147.0049  135.7666  154.6788 H   0  0  0  0  0  0  0  0  0  0  0  0
  145.8702  137.0772  154.8754 H   0  0  0  0  0  0  0  0  0  0  0  0
  147.5709  136.6670  152.3770 H   0  0  0  0  0  0  0  0  0  0  0  0
  145.0984  138.4473  152.6056 H   0  0  0  0  0  0  0  0  0  0  0  0
  146.7019  139.0630  152.9297 H   0  0  0  0  0  0  0  0  0  0  0  0
  145.6234  138.8695  150.6284 H   0  0  0  0  0  0  0  0  0  0  0  0
  144.6522  135.9037  152.8682 H   0  0  0  0  0  0  0  0  0  0  0  0
  144.6626  136.4910  150.5151 H   0  0  0  0  0  0  0  0  0  0  0  0
  146.2765  135.7983  150.3056 H   0  0  0  0  0  0  0  0  0  0  0  0
  143.6853  134.3268  150.9005 H   0  0  0  0  0  0  0  0  0  0  0  0
  144.8962  133.9291  149.6780 H   0  0  0  0  0  0  0  0  0  0  0  0
  147.1558  134.2416  152.4185 H   0  0  0  0  0  0  0  0  0  0  0  0
  145.8859  133.9918  153.6178 H   0  0  0  0  0  0  0  0  0  0  0  0
  155.3836  140.5685  160.8546 H   0  0  0  0  0  0  0  0  0  0  0  0
  155.2876  140.8756  159.1188 H   0  0  0  0  0  0  0  0  0  0  0  0
  154.5970  139.4006  159.8025 H   0  0  0  0  0  0  0  0  0  0  0  0
  154.3802  142.9836  159.7480 H   0  0  0  0  0  0  0  0  0  0  0  0
  154.0384  142.7327  161.4575 H   0  0  0  0  0  0  0  0  0  0  0  0
  1  2  1  0  0  0  0
  1 32  1  0  0  0  0
  1 33  1  0  0  0  0
  1 34  1  0  0  0  0
  2  3  1  0  0  0  0
  3 30  1  0  0  0  0
  3 29  1  0  0  0  0
  3  4  1  0  0  0  0
  4  5  1  0  0  0  0
  4 35  1  0  0  0  0
  4 36  1  0  0  0  0
  5 31  1  0  0  0  0
  5  6  1  0  0  0  0
  5 27  1  0  0  0  0
  6  7  1  0  0  0  0
  6 37  1  0  0  0  0
  6 38  1  0  0  0  0
  7  8  1  0  0  0  0
  7  9  1  0  0  0  0
  8 39  1  0  0  0  0
  8 40  1  0  0  0  0
  8 41  1  0  0  0  0
  9 14  1  0  0  0  0
  9 10  2  0  0  0  0
 10 11  1  0  0  0  0
 11 12  2  0  0  0  0
 11 42  1  0  0  0  0
 12 13  1  0  0  0  0
 13 17  1  0  0  0  0
 13 14  2  0  0  0  0
 14 15  1  0  0  0  0
 15 16  2  0  0  0  0
 16 17  1  0  0  0  0
 16 43  1  0  0  0  0
 17 18  1  0  0  0  0
 18 19  1  0  0  0  0
 18 44  1  0  0  0  0
 18 45  1  0  0  0  0
 19 20  1  0  0  0  0
 19 22  1  0  0  0  0
 19 46  1  0  0  0  0
 20 21  1  0  0  0  0
 20 47  1  0  0  0  0
 20 48  1  0  0  0  0
 21 49  1  0  0  0  0
 22 26  1  0  0  0  0
 22 23  1  0  0  0  0
 22 50  1  0  0  0  0
 23 24  1  0  0  0  0
 23 51  1  0  0  0  0
 23 52  1  0  0  0  0
 24 25  1  0  0  0  0
 24 53  1  0  0  0  0
 24 54  1  0  0  0  0
 25 26  1  0  0  0  0
 26 55  1  0  0  0  0
 26 56  1  0  0  0  0
 27 28  1  0  0  0  0
 27 29  1  0  0  0  0
 28 57  1  0  0  0  0
 28 58  1  0  0  0  0
 28 59  1  0  0  0  0
 29 60  1  0  0  0  0
 29 61  1  0  0  0  0
M  END
> <s_m_source_file>
AV-unprocessed.smi

> <i_m_source_file_index>
21

> <i_lp_mmshare_version>
43012

> <i_f3d_flags>
0

> <s_epik_input>
W0NIM11PW0NASF0xW0NIMl1bQ0BIXShOKFtDSDNdKVtDSDJdMSlbQ0gyXU4oW0NIM10pYyhuW2NIXW4yKWMoYzIzKW5bY0hdbjNbQ0gyXVtDQEhdKFtDSDJdW09IXSlbQ0BASF00W0NIMl1bQ0gyXU9bQ0gyXTQ=

> <s_epik_cmdline>
J2VwaWtfcHl0aG9uJywgJy1waCcsICc3LjAnLCAnLXRuJywgJzgnLCAnLW1hJywgJzIwMCcsICctbWV0YWxfYmluZGluZycsICctaW1hZScsICc8aW5maWxlLm1hZT4nLCAnLW9tYWUnLCAnPG91dGZpbGUubWFlPic=

> <r_lp_tautomer_probability>
1

> <r_epik_Ionization_Penalty>
2.17574

> <r_epik_Ionization_Penalty_Charging>
0

> <r_epik_Ionization_Penalty_Neutral>
2.17574

> <r_epik_State_Penalty>
2.31336

> <r_epik_Charging_Adjusted_Penalty>
2.31336

> <i_epik_Tot_Q>
0

> <i_epik_Tot_abs_Q>
0

> <r_epik_Metal_State_Penalty>
2.31025

> <b_epik_Metal_Only>
0

> <s_lp_Force_Field>
OPLS_2005

> <r_lp_Energy>
69.6605

> <b_lp_Chiralities_Consistent>
1

> <s_lp_Variant>
AV-unprocessed.smi:21-43

> <Gold.Version>
5.8.1

> <Gold.Id.Protein>
6NUR|6NUR_protein|mol2

> <Gold.PLP.Fitness>
50.0224

> <Gold.PLP.PLP>
-40.2474

> <Gold.PLP.part.hbond>
-2.0253

> <Gold.PLP.part.metal>
0.0000

> <Gold.PLP.part.buried>
-3.9325

> <Gold.PLP.part.nonpolar>
-34.9345

> <Gold.PLP.part.repulsive>
0.2337

> <Gold.PLP.ligand.clash>
0.0000

> <Gold.PLP.ligand.torsion>
0.7114

> <Gold.PLP.Chemscore.Hbond>
1.9840

> <Gold.PLP.Chemscore.CHOScore>
1.5274

> <Gold.PLP.Chemscore.Metal>
0.0000

> <Gold.Chemscore.Hbonds>
donor molecule, donor type, donor heavy atom, donor atom, acceptor molecule, acceptor atom, score
      L1  H    21    49       P1 10171  1.00
      P1  H  7954  7966       L1    21  0.62
      L1  C    16    43       P1  7948  0.26
      L1  C    16    43       P1  7957  0.83

> <Gold.PLP.Chemscore.Internal.Correction>
0.6636

> <Gold.Rescore>
     Score         DG    S(hbond)    S(metal)    S(lipo)     H(rot)  DE(clash)    DE(int)     intcor
     14.06     -16.90       1.92        0.00     108.52       3.00       1.97       0.87       ----

> <Gold.Chemscore.Fitness>
14.0634

> <Gold.Chemscore.DG>
-16.9033

> <Gold.Chemscore.ZeroCoef>
-5.4800

> <Gold.Chemscore.Hbond>
1.9206

> <Gold.Chemscore.Metal>
0.0000

> <Gold.Chemscore.Lipo>
108.5170

> <Gold.Chemscore.Internal_Hbond>
0.0000

> <Gold.Chemscore.DEClash>
1.9676

> <Gold.Chemscore.DEInternal>
0.8723

> <Gold.Chemscore.Rot>
3.0031

> <Gold.Chemscore.Internal.Correction>
   9.000000E+99

> <Gold.Chemscore.Hbonds>
donor molecule, donor type, donor heavy atom, donor atom, acceptor molecule, acceptor atom, score
      L1  H    21    49       P1 10171  0.95
      P1  H  7954  7966       L1    21  0.59

> <Gold.Chemscore.Hbond.Weighted>
-6.4148

> <Gold.Chemscore.Metal.Weighted>
-0.0000

> <Gold.Chemscore.Lipo.Weighted>
-12.6965

> <Gold.Chemscore.Internal_Hbond.Weighted>
0.0000

> <Gold.Chemscore.DEClash.Weighted>
1.9676

> <Gold.Chemscore.DEInternal.Weighted>
0.8723

> <Gold.Chemscore.Rot.Weighted>
7.6880

> <Gold.Chemscore.Internal.Correction.Weighted>
   9.000000E+99

> <Gold.Protein.RotatedTorsions>
[ 6907 6896 6895 6894 ] final  136.53 input  -60.11 | X-H torsion
[ 7974 7965 7964 7962 ] final -158.09 input  175.53 | X-H torsion
[ 8008 7997 7996 7995 ] final  165.81 input   59.86 | X-H torsion
[ 10167 10162 10161 10158 ] final  -18.77 input  -65.29 | X-H torsion
[ 10718 10713 10712 10709 ] final  -22.92 input   66.30 | X-H torsion
[ 10763 10752 10751 10750 ] final   -1.35 input  -60.55 | X-H torsion
[ 11005 11000 10999 10996 ] final -111.69 input  -57.11 | X-H torsion

> <Gold.Protein.ActiveResidues>
 VAL166  LYS551  ARG553  GLY616  TRP617  ASP618  TYR619  PRO620  LYS621  CYS622 
 ASP623  PHE694  ASN695  SER759  ASP760  ASP761  ALA762  ILE779  LEU786  VAL792 
 PHE793  MET794  SER795  GLU796  ALA797  LYS798  CYS799  TRP800  GLU811  SER814 

> <Gold.Protein.RotatedAtoms>
  152.2883  133.5536  159.5540 H   0  0  0  0  0  0  0  0  0  0  0  0  # atno 6907 bound_to 6896
  150.7224  134.0466  159.3792 H   0  0  0  0  0  0  0  0  0  0  0  0  # atno 6908 bound_to 6896
  151.8373  135.0602  160.0495 H   0  0  0  0  0  0  0  0  0  0  0  0  # atno 6909 bound_to 6896
  144.7520  140.3877  143.6040 H   0  0  0  0  0  0  0  0  0  0  0  0  # atno 7974 bound_to 7965
  156.1770  140.1660  156.8344 H   0  0  0  0  0  0  0  0  0  0  0  0  # atno 8008 bound_to 7997
  154.5318  140.0755  156.8391 H   0  0  0  0  0  0  0  0  0  0  0  0  # atno 8009 bound_to 7997
  155.3392  140.3383  155.4241 H   0  0  0  0  0  0  0  0  0  0  0  0  # atno 8010 bound_to 7997
  140.7262  143.4884  151.0024 H   0  0  0  0  0  0  0  0  0  0  0  0  # atno 10167 bound_to 10162
  156.4980  130.4581  149.6717 H   0  0  0  0  0  0  0  0  0  0  0  0  # atno 10718 bound_to 10713
  153.3438  135.6982  153.6845 H   0  0  0  0  0  0  0  0  0  0  0  0  # atno 10763 bound_to 10752
  153.5599  135.3537  155.2795 H   0  0  0  0  0  0  0  0  0  0  0  0  # atno 10764 bound_to 10752
  154.8641  135.4247  154.2657 H   0  0  0  0  0  0  0  0  0  0  0  0  # atno 10765 bound_to 10752
  141.0719  133.9365  157.2467 H   0  0  0  0  0  0  0  0  0  0  0  0  # atno 11005 bound_to 11000
  145.6910  139.1639  143.2647 LP  0  0  0  0  0  0  0  0  0  0  0  0  # atno 17320 bound_to 7965
  146.1483  140.6961  142.9334 LP  0  0  0  0  0  0  0  0  0  0  0  0  # atno 17321 bound_to 7965
  139.8587  143.7343  152.3174 LP  0  0  0  0  0  0  0  0  0  0  0  0  # atno 17342 bound_to 10162
  139.7551  144.7523  151.0448 LP  0  0  0  0  0  0  0  0  0  0  0  0  # atno 17343 bound_to 10162
  156.3361  130.7357  151.2295 LP  0  0  0  0  0  0  0  0  0  0  0  0  # atno 17370 bound_to 10713
  157.7466  131.0416  150.4656 LP  0  0  0  0  0  0  0  0  0  0  0  0  # atno 17371 bound_to 10713
  139.9532  135.0171  156.9054 LP  0  0  0  0  0  0  0  0  0  0  0  0  # atno 17394 bound_to 11000
  140.5655  134.0494  155.7413 LP  0  0  0  0  0  0  0  0  0  0  0  0  # atno 17395 bound_to 11000

$$$$
