AV-unprocessed.smi:170|AV-procd|sdf|1411|dock9
  -GOLD-   2262019173D 1   1.00000     0.00000
 Structure written by MMmdl.
 57 61  0  0  0  0  0  0  0  0  1 V2000
  145.5976  141.9632  155.9976 O   0  0  0  0  0  0  0  0  0  0  0  0
  146.2674  142.8697  155.1415 C   0  0  1  0  0  0  0  0  0  0  0  0
  147.2628  142.0906  154.2597 C   0  0  0  0  0  0  0  0  0  0  0  0
  148.3451  141.5036  155.0292 N   0  0  0  0  0  0  0  0  0  0  0  0
  149.3853  140.7417  154.5459 C   0  0  0  0  0  0  0  0  0  0  0  0
  150.2410  140.3342  155.4438 N   0  0  0  0  0  0  0  0  0  0  0  0
  149.7498  140.8550  156.6339 C   0  0  0  0  0  0  0  0  0  0  0  0
  150.1856  140.8103  157.9831 C   0  0  0  0  0  0  0  0  0  0  0  0
  151.3202  140.1689  158.3431 N   0  0  0  0  0  0  0  0  0  0  0  0
  151.0537  138.7957  158.7584 C   0  0  0  0  0  0  0  0  0  0  0  0
  152.3724  138.0492  158.9966 C   0  0  0  0  0  0  0  0  0  0  0  0
  153.1276  138.7554  159.9714 O   0  0  0  0  0  0  0  0  0  0  0  0
  153.4669  140.0668  159.5341 C   0  0  0  0  0  0  0  0  0  0  0  0
  152.1921  140.9037  159.2686 C   0  0  1  0  0  0  0  0  0  0  0  0
  152.5415  142.3242  158.7486 C   0  0  0  0  0  0  0  0  0  0  0  0
  151.7729  143.4537  159.4313 C   0  0  0  0  0  0  0  0  0  0  0  0
  152.1140  144.9168  159.1102 C   0  0  0  0  0  0  0  0  0  0  0  0
  151.8073  145.2606  160.5702 C   0  0  0  0  0  0  0  0  0  0  0  0
  152.0643  143.7881  160.9018 C   0  0  0  0  0  0  0  0  0  0  0  0
  149.4414  141.4606  158.9167 N   0  0  0  0  0  0  0  0  0  0  0  0
  148.3346  142.1136  158.5481 C   0  0  0  0  0  0  0  0  0  0  0  0
  147.8085  142.2443  157.3276 N   0  0  0  0  0  0  0  0  0  0  0  0
  148.5583  141.5927  156.3927 C   0  0  0  0  0  0  0  0  0  0  0  0
  145.2226  143.6328  154.3064 C   0  0  1  0  0  0  0  0  0  0  0  0
  144.5006  144.7483  155.0618 C   0  0  0  0  0  0  0  0  0  0  0  0
  144.0012  145.6114  153.9256 C   0  0  0  0  0  0  0  0  0  0  0  0
  145.1444  145.5154  152.9172 C   0  0  0  0  0  0  0  0  0  0  0  0
  145.8483  144.3132  153.2223 O   0  0  0  0  0  0  0  0  0  0  0  0
  145.3599  141.1976  155.4974 H   0  0  0  0  0  0  0  0  0  0  0  0
  146.8158  143.5778  155.7643 H   0  0  0  0  0  0  0  0  0  0  0  0
  146.7514  141.2971  153.7135 H   0  0  0  0  0  0  0  0  0  0  0  0
  147.7025  142.7497  153.5105 H   0  0  0  0  0  0  0  0  0  0  0  0
  149.4901  140.4957  153.4992 H   0  0  0  0  0  0  0  0  0  0  0  0
  150.4593  138.7921  159.6738 H   0  0  0  0  0  0  0  0  0  0  0  0
  150.4710  138.2826  157.9919 H   0  0  0  0  0  0  0  0  0  0  0  0
  152.1753  137.0408  159.3604 H   0  0  0  0  0  0  0  0  0  0  0  0
  152.9422  137.9524  158.0710 H   0  0  0  0  0  0  0  0  0  0  0  0
  154.0751  140.5237  160.3142 H   0  0  0  0  0  0  0  0  0  0  0  0
  154.0886  140.0087  158.6390 H   0  0  0  0  0  0  0  0  0  0  0  0
  151.6563  141.0056  160.2137 H   0  0  0  0  0  0  0  0  0  0  0  0
  153.6130  142.4942  158.8605 H   0  0  0  0  0  0  0  0  0  0  0  0
  152.3479  142.3832  157.6772 H   0  0  0  0  0  0  0  0  0  0  0  0
  150.6954  143.3140  159.3249 H   0  0  0  0  0  0  0  0  0  0  0  0
  153.1657  145.0609  158.8561 H   0  0  0  0  0  0  0  0  0  0  0  0
  151.4558  145.3882  158.3797 H   0  0  0  0  0  0  0  0  0  0  0  0
  152.5041  145.9612  161.0310 H   0  0  0  0  0  0  0  0  0  0  0  0
  150.7686  145.5556  160.7276 H   0  0  0  0  0  0  0  0  0  0  0  0
  151.3657  143.3520  161.6164 H   0  0  0  0  0  0  0  0  0  0  0  0
  153.1008  143.5970  161.1856 H   0  0  0  0  0  0  0  0  0  0  0  0
  147.7946  142.6041  159.3446 H   0  0  0  0  0  0  0  0  0  0  0  0
  144.4868  142.9417  153.8910 H   0  0  0  0  0  0  0  0  0  0  0  0
  143.6985  144.3808  155.7023 H   0  0  0  0  0  0  0  0  0  0  0  0
  145.2014  145.3124  155.6791 H   0  0  0  0  0  0  0  0  0  0  0  0
  143.0922  145.1801  153.5037 H   0  0  0  0  0  0  0  0  0  0  0  0
  143.7835  146.6359  154.2283 H   0  0  0  0  0  0  0  0  0  0  0  0
  144.7805  145.5075  151.8895 H   0  0  0  0  0  0  0  0  0  0  0  0
  145.8301  146.3563  153.0269 H   0  0  0  0  0  0  0  0  0  0  0  0
  1  2  1  0  0  0  0
  1 29  1  0  0  0  0
  2  3  1  0  0  0  0
  2 24  1  0  0  0  0
  2 30  1  0  0  0  0
  3  4  1  0  0  0  0
  3 31  1  0  0  0  0
  3 32  1  0  0  0  0
  4 23  1  0  0  0  0
  4  5  1  0  0  0  0
  5  6  2  0  0  0  0
  5 33  1  0  0  0  0
  6  7  1  0  0  0  0
  7 23  2  0  0  0  0
  7  8  1  0  0  0  0
  8  9  1  0  0  0  0
  8 20  2  0  0  0  0
  9 14  1  0  0  0  0
  9 10  1  0  0  0  0
 10 11  1  0  0  0  0
 10 34  1  0  0  0  0
 10 35  1  0  0  0  0
 11 12  1  0  0  0  0
 11 36  1  0  0  0  0
 11 37  1  0  0  0  0
 12 13  1  0  0  0  0
 13 14  1  0  0  0  0
 13 38  1  0  0  0  0
 13 39  1  0  0  0  0
 14 15  1  0  0  0  0
 14 40  1  0  0  0  0
 15 16  1  0  0  0  0
 15 41  1  0  0  0  0
 15 42  1  0  0  0  0
 16 19  1  0  0  0  0
 16 17  1  0  0  0  0
 16 43  1  0  0  0  0
 17 18  1  0  0  0  0
 17 44  1  0  0  0  0
 17 45  1  0  0  0  0
 18 19  1  0  0  0  0
 18 46  1  0  0  0  0
 18 47  1  0  0  0  0
 19 48  1  0  0  0  0
 19 49  1  0  0  0  0
 20 21  1  0  0  0  0
 21 22  2  0  0  0  0
 21 50  1  0  0  0  0
 22 23  1  0  0  0  0
 24 28  1  0  0  0  0
 24 25  1  0  0  0  0
 24 51  1  0  0  0  0
 25 26  1  0  0  0  0
 25 52  1  0  0  0  0
 25 53  1  0  0  0  0
 26 27  1  0  0  0  0
 26 54  1  0  0  0  0
 26 55  1  0  0  0  0
 27 28  1  0  0  0  0
 27 56  1  0  0  0  0
 27 57  1  0  0  0  0
M  END
> <s_m_source_file>
AV-unprocessed.smi

> <i_m_source_file_index>
170

> <i_lp_mmshare_version>
43012

> <i_f3d_flags>
0

> <s_epik_input>
TzFbQ0gyXVtDSDJdW0NIMl1bQ0BIXTFbQ0BIXShbT0hdKVtDSDJdbihbY0hdbjIpYyhjMjMpbltjSF1uYzNONFtDSDJdW0NIMl1PW0NIMl1bQ0BIXTRbQ0gyXVtDSF01W0NIMl1bQ0gyXVtDSDJdNQ==

> <s_epik_cmdline>
J2VwaWtfcHl0aG9uJywgJy1waCcsICc3LjAnLCAnLXRuJywgJzgnLCAnLW1hJywgJzIwMCcsICctbWV0YWxfYmluZGluZycsICctaW1hZScsICc8aW5maWxlLm1hZT4nLCAnLW9tYWUnLCAnPG91dGZpbGUubWFlPic=

> <r_lp_tautomer_probability>
1

> <r_epik_Ionization_Penalty>
4.98275e-05

> <r_epik_Ionization_Penalty_Charging>
0

> <r_epik_Ionization_Penalty_Neutral>
4.98275e-05

> <r_epik_State_Penalty>
-0

> <r_epik_Charging_Adjusted_Penalty>
0

> <i_epik_Tot_Q>
0

> <i_epik_Tot_abs_Q>
0

> <r_epik_Metal_State_Penalty>
-0

> <b_epik_Metal_Only>
0

> <s_lp_Force_Field>
OPLS_2005

> <r_lp_Energy>
51.0174

> <b_lp_Chiralities_Consistent>
1

> <s_lp_Variant>
AV-unprocessed.smi:170-6

> <Gold.Version>
5.8.1

> <Gold.Id.Protein>
6NUR|6NUR_protein|mol2

> <Gold.PLP.Fitness>
52.0458

> <Gold.PLP.PLP>
-51.8650

> <Gold.PLP.part.hbond>
-2.0000

> <Gold.PLP.part.metal>
0.0000

> <Gold.PLP.part.buried>
-5.3280

> <Gold.PLP.part.nonpolar>
-46.1190

> <Gold.PLP.part.repulsive>
1.1876

> <Gold.PLP.ligand.clash>
0.1145

> <Gold.PLP.ligand.torsion>
1.4994

> <Gold.PLP.Chemscore.Hbond>
0.0000

> <Gold.PLP.Chemscore.CHOScore>
1.0000

> <Gold.PLP.Chemscore.Metal>
0.0000

> <Gold.Chemscore.Hbonds>
donor molecule, donor type, donor heavy atom, donor atom, acceptor molecule, acceptor atom, score
      L1  C     5    33       P1  7957  1.00

> <Gold.PLP.Chemscore.Internal.Correction>
0.2941

> <Gold.Rescore>
     Score         DG    S(hbond)    S(metal)    S(lipo)     H(rot)  DE(clash)    DE(int)     intcor
      9.18     -13.94       0.00        0.00     129.43       2.61       0.17       4.60       ----

> <Gold.Chemscore.Fitness>
9.1763

> <Gold.Chemscore.DG>
-13.9397

> <Gold.Chemscore.ZeroCoef>
-5.4800

> <Gold.Chemscore.Hbond>
0.0027

> <Gold.Chemscore.Metal>
0.0000

> <Gold.Chemscore.Lipo>
129.4336

> <Gold.Chemscore.Internal_Hbond>
0.0000

> <Gold.Chemscore.DEClash>
0.1681

> <Gold.Chemscore.DEInternal>
4.5953

> <Gold.Chemscore.Rot>
2.6144

> <Gold.Chemscore.Internal.Correction>
   9.000000E+99

> <Gold.Chemscore.Hbond.Weighted>
-0.0089

> <Gold.Chemscore.Metal.Weighted>
-0.0000

> <Gold.Chemscore.Lipo.Weighted>
-15.1437

> <Gold.Chemscore.Internal_Hbond.Weighted>
0.0000

> <Gold.Chemscore.DEClash.Weighted>
0.1681

> <Gold.Chemscore.DEInternal.Weighted>
4.5953

> <Gold.Chemscore.Rot.Weighted>
6.6929

> <Gold.Chemscore.Internal.Correction.Weighted>
   9.000000E+99

> <Gold.Protein.RotatedTorsions>
[ 6907 6896 6895 6894 ] final -130.83 input  -60.11 | X-H torsion
[ 7974 7965 7964 7962 ] final   55.49 input  175.53 | X-H torsion
[ 8008 7997 7996 7995 ] final -115.27 input   59.86 | X-H torsion
[ 10167 10162 10161 10158 ] final   72.10 input  -65.29 | X-H torsion
[ 10718 10713 10712 10709 ] final   78.21 input   66.30 | X-H torsion
[ 10763 10752 10751 10750 ] final -111.15 input  -60.55 | X-H torsion
[ 11005 11000 10999 10996 ] final  -34.43 input  -57.11 | X-H torsion

> <Gold.Protein.ActiveResidues>
 VAL166  LYS551  ARG553  GLY616  TRP617  ASP618  TYR619  PRO620  LYS621  CYS622 
 ASP623  PHE694  ASN695  SER759  ASP760  ASP761  ALA762  ILE779  LEU786  VAL792 
 PHE793  MET794  SER795  GLU796  ALA797  LYS798  CYS799  TRP800  GLU811  SER814 

> <Gold.Protein.RotatedAtoms>
  150.9441  133.6623  159.2784 H   0  0  0  0  0  0  0  0  0  0  0  0  # atno 6907 bound_to 6896
  151.4002  135.0968  159.9563 H   0  0  0  0  0  0  0  0  0  0  0  0  # atno 6908 bound_to 6896
  152.5082  133.8937  159.7461 H   0  0  0  0  0  0  0  0  0  0  0  0  # atno 6909 bound_to 6896
  145.9499  139.3963  143.0312 H   0  0  0  0  0  0  0  0  0  0  0  0  # atno 7974 bound_to 7965
  155.0493  140.0393  157.2538 H   0  0  0  0  0  0  0  0  0  0  0  0  # atno 8008 bound_to 7997
  154.7151  140.2700  155.6569 H   0  0  0  0  0  0  0  0  0  0  0  0  # atno 8009 bound_to 7997
  156.2801  140.2714  156.1804 H   0  0  0  0  0  0  0  0  0  0  0  0  # atno 8010 bound_to 7997
  140.0390  144.5405  150.7449 H   0  0  0  0  0  0  0  0  0  0  0  0  # atno 10167 bound_to 10162
  157.6737  130.9858  150.1754 H   0  0  0  0  0  0  0  0  0  0  0  0  # atno 10718 bound_to 10713
  154.8285  135.4538  154.0995 H   0  0  0  0  0  0  0  0  0  0  0  0  # atno 10763 bound_to 10752
  153.2288  135.6903  153.7920 H   0  0  0  0  0  0  0  0  0  0  0  0  # atno 10764 bound_to 10752
  153.7310  135.3327  155.3262 H   0  0  0  0  0  0  0  0  0  0  0  0  # atno 10765 bound_to 10752
  140.9715  133.7107  156.1532 H   0  0  0  0  0  0  0  0  0  0  0  0  # atno 11005 bound_to 11000
  145.8185  140.9691  143.0911 LP  0  0  0  0  0  0  0  0  0  0  0  0  # atno 17320 bound_to 7965
  144.6794  140.0012  143.7484 LP  0  0  0  0  0  0  0  0  0  0  0  0  # atno 17321 bound_to 7965
  140.7269  143.2645  151.4090 LP  0  0  0  0  0  0  0  0  0  0  0  0  # atno 17342 bound_to 10162
  139.6026  144.1263  152.2215 LP  0  0  0  0  0  0  0  0  0  0  0  0  # atno 17343 bound_to 10162
  156.2498  130.3699  149.8244 LP  0  0  0  0  0  0  0  0  0  0  0  0  # atno 17370 bound_to 10713
  156.6020  130.8551  151.3434 LP  0  0  0  0  0  0  0  0  0  0  0  0  # atno 17371 bound_to 10713
  140.7321  134.4242  157.5564 LP  0  0  0  0  0  0  0  0  0  0  0  0  # atno 17394 bound_to 11000
  139.8914  134.8780  156.2321 LP  0  0  0  0  0  0  0  0  0  0  0  0  # atno 17395 bound_to 11000

$$$$
