AV-unprocessed.smi:66|AV-procd|sdf|619|dock5
  -GOLD-   2262016513D 1   1.00000     0.00000
 Structure written by MMmdl.
 28 30  0  0  0  0  0  0  0  0  2 V2000
  152.3317  138.2659  158.9644 O   0  0  0  0  0  0  0  0  0  0  0  0
  152.2911  139.1238  158.0557 C   0  0  0  0  0  0  0  0  0  0  0  0
  152.9585  139.0926  156.9976 O   0  5  0  0  0  0  0  0  0  0  0  0
  151.3439  140.3112  158.2689 C   0  0  2  0  0  0  0  0  0  0  0  0
  150.2482  140.4005  157.1897 C   0  0  0  0  0  0  0  0  0  0  0  0
  149.9839  141.8972  157.0866 C   0  0  2  0  0  0  0  0  0  0  0  0
  149.3913  142.2646  155.8588 O   0  0  0  0  0  0  0  0  0  0  0  0
  151.3860  142.4733  157.2552 C   0  0  0  0  0  0  0  0  0  0  0  0
  152.0524  141.5961  158.2156 N   0  0  0  0  0  0  0  0  0  0  0  0
  152.3474  142.1005  159.4382 C   0  0  0  0  0  0  0  0  0  0  0  0
  153.0502  141.3567  160.3353 N   0  0  0  0  0  0  0  0  0  0  0  0
  153.3658  141.8676  161.5299 C   0  0  0  0  0  0  0  0  0  0  0  0
  153.0892  143.0779  162.0222 N   0  0  0  0  0  0  0  0  0  0  0  0
  152.3909  143.8239  161.1208 C   0  0  0  0  0  0  0  0  0  0  0  0
  151.9303  145.1162  161.2571 N   0  0  0  0  0  0  0  0  0  0  0  0
  151.2897  145.4162  160.0792 C   0  0  0  0  0  0  0  0  0  0  0  0
  151.2850  144.4519  159.1989 N   0  0  0  0  0  0  0  0  0  0  0  0
  151.9815  143.4198  159.8193 C   0  0  0  0  0  0  0  0  0  0  0  0
  152.0696  145.6805  162.0826 H   0  0  0  0  0  0  0  0  0  0  0  0
  150.8617  140.2048  159.2432 H   0  0  0  0  0  0  0  0  0  0  0  0
  150.6078  140.0208  156.2312 H   0  0  0  0  0  0  0  0  0  0  0  0
  149.3539  139.8363  157.4556 H   0  0  0  0  0  0  0  0  0  0  0  0
  149.3469  142.2193  157.9117 H   0  0  0  0  0  0  0  0  0  0  0  0
  149.4016  143.2069  155.7928 H   0  0  0  0  0  0  0  0  0  0  0  0
  151.9416  142.4095  156.3183 H   0  0  0  0  0  0  0  0  0  0  0  0
  151.3673  143.5261  157.5404 H   0  0  0  0  0  0  0  0  0  0  0  0
  153.9228  141.2134  162.1841 H   0  0  0  0  0  0  0  0  0  0  0  0
  150.8244  146.3731  159.8939 H   0  0  0  0  0  0  0  0  0  0  0  0
  1  2  2  0  0  0  0
  2  3  1  0  0  0  0
  2  4  1  0  0  0  0
  4  5  1  0  0  0  0
  4 20  1  0  0  0  0
  4  9  1  0  0  0  0
  5  6  1  0  0  0  0
  5 21  1  0  0  0  0
  5 22  1  0  0  0  0
  6  7  1  0  0  0  0
  6  8  1  0  0  0  0
  6 23  1  0  0  0  0
  7 24  1  0  0  0  0
  8 25  1  0  0  0  0
  8 26  1  0  0  0  0
  8  9  1  0  0  0  0
  9 10  1  0  0  0  0
 10 11  1  0  0  0  0
 10 18  2  0  0  0  0
 11 12  2  0  0  0  0
 12 27  1  0  0  0  0
 12 13  1  0  0  0  0
 13 14  2  0  0  0  0
 14 15  1  0  0  0  0
 14 18  1  0  0  0  0
 15 16  1  0  0  0  0
 15 19  1  0  0  0  0
 16 17  2  0  0  0  0
 16 28  1  0  0  0  0
 17 18  1  0  0  0  0
M  CHG  1   3  -1
M  END
> <s_m_source_file>
AV-unprocessed.smi

> <i_m_source_file_index>
66

> <i_lp_mmshare_version>
43012

> <i_f3d_flags>
0

> <s_epik_input>
Tz1DKFtPSF0pW0NAQEhdMVtDSDJdW0NAQEhdKFtPSF0pW0NIMl1OMWMobltjSF1uMiljKGMyMylbbkhdW2NIXW4z

> <s_epik_cmdline>
J2VwaWtfcHl0aG9uJywgJy1waCcsICc3LjAnLCAnLXRuJywgJzgnLCAnLW1hJywgJzIwMCcsICctbWV0YWxfYmluZGluZycsICctaW1hZScsICc8aW5maWxlLm1hZT4nLCAnLW9tYWUnLCAnPG91dGZpbGUubWFlPic=

> <r_lp_tautomer_probability>
0.955585

> <r_epik_Ionization_Penalty>
0.00455415

> <r_epik_Ionization_Penalty_Charging>
0.000248217

> <r_epik_Ionization_Penalty_Neutral>
0.00430593

> <r_epik_State_Penalty>
0.0207074

> <r_epik_Charging_Adjusted_Penalty>
0.0209557

> <i_epik_Tot_Q>
-1

> <i_epik_Tot_abs_Q>
1

> <r_epik_Metal_State_Penalty>
0.337372

> <b_epik_Metal_Only>
0

> <s_lp_Force_Field>
OPLS_2005

> <r_lp_Energy>
28.2566

> <b_lp_Chiralities_Consistent>
1

> <s_lp_Variant>
AV-unprocessed.smi:66-3

> <Gold.Version>
5.8.1

> <Gold.Id.Protein>
6NUR|6NUR_protein|mol2

> <Gold.PLP.Fitness>
41.4947

> <Gold.PLP.PLP>
-32.5136

> <Gold.PLP.part.hbond>
-2.8107

> <Gold.PLP.part.metal>
0.0000

> <Gold.PLP.part.buried>
-6.7572

> <Gold.PLP.part.nonpolar>
-22.7848

> <Gold.PLP.part.repulsive>
0.2722

> <Gold.PLP.ligand.clash>
0.0000

> <Gold.PLP.ligand.torsion>
0.0578

> <Gold.PLP.Chemscore.Hbond>
3.0000

> <Gold.PLP.Chemscore.CHOScore>
0.0000

> <Gold.PLP.Chemscore.Metal>
0.0000

> <Gold.Chemscore.Hbonds>
donor molecule, donor type, donor heavy atom, donor atom, acceptor molecule, acceptor atom, score
      L1  H     7    24       P1  8028  1.00
      P1  H  7997  8009       L1     3  2.00

> <Gold.PLP.Chemscore.Internal.Correction>
0.0966

> <Gold.Rescore>
     Score         DG    S(hbond)    S(metal)    S(lipo)     H(rot)  DE(clash)    DE(int)     intcor
      7.99      -9.56       1.96        0.00      33.19       2.48       0.09       1.48       ----

> <Gold.Chemscore.Fitness>
7.9887

> <Gold.Chemscore.DG>
-9.5599

> <Gold.Chemscore.ZeroCoef>
-5.4800

> <Gold.Chemscore.Hbond>
1.9569

> <Gold.Chemscore.Metal>
0.0000

> <Gold.Chemscore.Lipo>
33.1878

> <Gold.Chemscore.Internal_Hbond>
0.0000

> <Gold.Chemscore.DEClash>
0.0888

> <Gold.Chemscore.DEInternal>
1.4825

> <Gold.Chemscore.Rot>
2.4762

> <Gold.Chemscore.Internal.Correction>
   9.000000E+99

> <Gold.Chemscore.Hbonds>
donor molecule, donor type, donor heavy atom, donor atom, acceptor molecule, acceptor atom, score
      L1  H     7    24       P1  8028  0.98
      P1  H  7997  8009       L1     3  1.00

> <Gold.Chemscore.Hbond.Weighted>
-6.5360

> <Gold.Chemscore.Metal.Weighted>
-0.0000

> <Gold.Chemscore.Lipo.Weighted>
-3.8830

> <Gold.Chemscore.Internal_Hbond.Weighted>
0.0000

> <Gold.Chemscore.DEClash.Weighted>
0.0888

> <Gold.Chemscore.DEInternal.Weighted>
1.4825

> <Gold.Chemscore.Rot.Weighted>
6.3391

> <Gold.Chemscore.Internal.Correction.Weighted>
   9.000000E+99

> <Gold.Protein.RotatedTorsions>
[ 6907 6896 6895 6894 ] final  -50.71 input  -60.11 | X-H torsion
[ 7974 7965 7964 7962 ] final -158.78 input  175.53 | X-H torsion
[ 8008 7997 7996 7995 ] final -178.24 input   59.86 | X-H torsion
[ 10167 10162 10161 10158 ] final -152.11 input  -65.29 | X-H torsion
[ 10718 10713 10712 10709 ] final -104.51 input   66.30 | X-H torsion
[ 10763 10752 10751 10750 ] final -151.51 input  -60.55 | X-H torsion
[ 11005 11000 10999 10996 ] final  102.29 input  -57.11 | X-H torsion

> <Gold.Protein.ActiveResidues>
 VAL166  LYS551  ARG553  GLY616  TRP617  ASP618  TYR619  PRO620  LYS621  CYS622 
 ASP623  PHE694  ASN695  SER759  ASP760  ASP761  ALA762  ILE779  LEU786  VAL792 
 PHE793  MET794  SER795  GLU796  ALA797  LYS798  CYS799  TRP800  GLU811  SER814 

> <Gold.Protein.RotatedAtoms>
  150.8681  134.8048  159.7133 H   0  0  0  0  0  0  0  0  0  0  0  0  # atno 6907 bound_to 6896
  152.4695  134.4991  159.9729 H   0  0  0  0  0  0  0  0  0  0  0  0  # atno 6908 bound_to 6896
  151.5084  133.3451  159.2916 H   0  0  0  0  0  0  0  0  0  0  0  0  # atno 6909 bound_to 6896
  144.7492  140.3779  143.6061 H   0  0  0  0  0  0  0  0  0  0  0  0  # atno 7974 bound_to 7965
  156.0165  140.1252  157.0401 H   0  0  0  0  0  0  0  0  0  0  0  0  # atno 8008 bound_to 7997
  154.4295  140.1077  156.5972 H   0  0  0  0  0  0  0  0  0  0  0  0  # atno 8009 bound_to 7997
  155.6006  140.3470  155.4595 H   0  0  0  0  0  0  0  0  0  0  0  0  # atno 8010 bound_to 7997
  139.7210  143.8957  152.2503 H   0  0  0  0  0  0  0  0  0  0  0  0  # atno 10167 bound_to 10162
  156.0307  130.5519  150.7407 H   0  0  0  0  0  0  0  0  0  0  0  0  # atno 10718 bound_to 10713
  154.8053  135.3258  154.7447 H   0  0  0  0  0  0  0  0  0  0  0  0  # atno 10763 bound_to 10752
  153.8106  135.6896  153.4846 H   0  0  0  0  0  0  0  0  0  0  0  0  # atno 10764 bound_to 10752
  153.1795  135.4592  154.9953 H   0  0  0  0  0  0  0  0  0  0  0  0  # atno 10765 bound_to 10752
  139.8777  134.9218  156.5036 H   0  0  0  0  0  0  0  0  0  0  0  0  # atno 11005 bound_to 11000
  145.7008  139.1661  143.2593 LP  0  0  0  0  0  0  0  0  0  0  0  0  # atno 17320 bound_to 7965
  146.1416  140.7049  142.9364 LP  0  0  0  0  0  0  0  0  0  0  0  0  # atno 17321 bound_to 7965
  139.8853  144.6995  150.8831 LP  0  0  0  0  0  0  0  0  0  0  0  0  # atno 17342 bound_to 10162
  140.7753  143.3628  151.1795 LP  0  0  0  0  0  0  0  0  0  0  0  0  # atno 17343 bound_to 10162
  157.4976  131.0916  151.0352 LP  0  0  0  0  0  0  0  0  0  0  0  0  # atno 17370 bound_to 10713
  157.0742  130.5876  149.5408 LP  0  0  0  0  0  0  0  0  0  0  0  0  # atno 17371 bound_to 10713
  140.8572  133.8087  155.9228 LP  0  0  0  0  0  0  0  0  0  0  0  0  # atno 17394 bound_to 11000
  140.9086  134.2289  157.4999 LP  0  0  0  0  0  0  0  0  0  0  0  0  # atno 17395 bound_to 11000

$$$$
