#       Name:                AV-unprocessed.smi:1488
#       Creating user name   scv26
#       Creation time:       Fri Mar 27 06:12:39 2020


#       File generated by GOLD software.
#

@<TRIPOS>MOLECULE
AV-unprocessed.smi:1488
    41    42     1
SMALL
NO_CHARGES


@<TRIPOS>ATOM
      1 ****        -6.8377  -2.4744  -0.9626 C.3            1 S1                 0.0000
      2 ****        -5.5503  -1.7607  -0.7308 C.2            1 S1                 0.0000
      3 ****        -4.2915  -2.1904  -0.4169 C.2            1 S1                 0.0000
      4 ****        -3.5493  -0.9815  -0.3465 C.2            1 S1                 0.0000
      5 ****        -2.1651  -0.9941  -0.0381 N.am           1 S1                 0.0000
      6 ****        -1.3310   0.0580   0.0240 C.2            1 S1                 0.0000
      7 ****        -1.6494   1.2284  -0.1878 O.2            1 S1                 0.0000
      8 ****        -0.0857  -0.3248   0.3428 N.am           1 S1                 0.0000
      9 ****         1.0609   0.5692   0.4747 C.3            1 S1                 0.0000
     10 ****         1.6908   0.8503  -0.9037 C.3            1 S1                 0.0000
     11 ****         2.9443   1.7312  -0.7799 C.3            1 S1                 0.0000
     12 ****         3.9894   1.1120   0.1723 C.3            1 S1                 0.0000
     13 ****         5.2551   1.9864   0.2895 C.3            1 S1                 0.0000
     14 ****         4.9608   3.1809   0.8038 F              1 S1                 0.0000
     15 ****         6.1519   1.3885   1.0737 F              1 S1                 0.0000
     16 ****         5.8040   2.1585  -0.9131 F              1 S1                 0.0000
     17 ****         3.3491   0.8326   1.5487 C.3            1 S1                 0.0000
     18 ****         2.0985  -0.0530   1.4258 C.3            1 S1                 0.0000
     19 ****        -4.2887   0.0893  -0.5926 N.2            1 S1                 0.0000
     20 ****        -5.5750  -0.4046  -0.8394 O.3            1 S1                 0.0000
     21 ****        -6.6744  -3.5465  -1.0732 H              1 S1                 0.0000
     22 ****        -7.3242  -2.1121  -1.8684 H              1 S1                 0.0000
     23 ****        -7.5197  -2.3202  -0.1265 H              1 S1                 0.0000
     24 ****        -3.9585  -3.2065  -0.2650 H              1 S1                 0.0000
     25 ****        -1.7665  -1.9021   0.1488 H              1 S1                 0.0000
     26 ****         0.0845  -1.3072   0.5007 H              1 S1                 0.0000
     27 ****         0.7279   1.5136   0.9099 H              1 S1                 0.0000
     28 ****         1.9562  -0.0904  -1.3886 H              1 S1                 0.0000
     29 ****         0.9664   1.3394  -1.5559 H              1 S1                 0.0000
     30 ****         3.3791   1.8793  -1.7687 H              1 S1                 0.0000
     31 ****         2.6562   2.7196  -0.4200 H              1 S1                 0.0000
     32 ****         4.2946   0.1536  -0.2507 H              1 S1                 0.0000
     33 ****         4.0705   0.3478   2.2069 H              1 S1                 0.0000
     34 ****         3.0795   1.7740   2.0289 H              1 S1                 0.0000
     35 ****         1.6579  -0.2029   2.4124 H              1 S1                 0.0000
     36 ****         2.3895  -1.0403   1.0640 H              1 S1                 0.0000
     37 ****        -2.5936   1.4541  -0.4276 LP             1 S1                 0.0000
     38 ****        -0.9638   1.9532  -0.1200 LP             1 S1                 0.0000
     39 ****        -3.9922   1.0443  -0.6004 LP             1 S1                 0.0000
     40 ****        -6.2150  -0.0252  -0.1712 LP             1 S1                 0.0000
     41 ****        -5.8635  -0.1461  -1.7613 LP             1 S1                 0.0000
@<TRIPOS>BOND
    1    1    2 1     
    2    1   21 1     
    3    1   22 1     
    4    1   23 1     
    5    2   20 1     
    6    2    3 2     
    7    3    4 1     
    8    3   24 1     
    9    4    5 1     
   10    4   19 2     
   11    5    6 am    
   12    5   25 1     
   13    6    7 2     
   14    6    8 am    
   15    8    9 1     
   16    8   26 1     
   17    9   18 1     
   18    9   10 1     
   19    9   27 1     
   20   10   11 1     
   21   10   28 1     
   22   10   29 1     
   23   11   12 1     
   24   11   30 1     
   25   11   31 1     
   26   12   13 1     
   27   12   17 1     
   28   12   32 1     
   29   13   14 1     
   30   13   15 1     
   31   13   16 1     
   32   17   18 1     
   33   17   33 1     
   34   17   34 1     
   35   18   35 1     
   36   18   36 1     
   37   19   20 1     
   38    7   37 1     
   39    7   38 1     
   40   19   39 1     
   41   20   40 1     
   42   20   41 1     
@<TRIPOS>SUBSTRUCTURE
      1 S1             1
@<TRIPOS>SET
LONE_PAIRS      STATIC     ATOMS    <user>   **** ""
5 37 38 39 40 41
DONOR_HYDROGENS      STATIC     ATOMS    <user>   **** ""
2 25 26
ATOM$BLUE        STATIC     ATOMS    COLORGROUP SYSTEM
5 37 38 39 40 41
ATOM$RED        STATIC     ATOMS    COLORGROUP SYSTEM
2 25 26
