AV-unprocessed.smi:3249|AV-procd|sdf|12423|dock1
  -GOLD-   2272018303D 1   1.00000     0.00000
 Structure written by MMmdl.
 44 45  0  0  0  0  0  0  0  0  2 V2000
  146.2131  142.7716  154.2475 C   0  0  0  0  0  0  0  0  0  0  0  0
  147.1942  141.6354  154.2224 C   0  0  0  0  0  0  0  0  0  0  0  0
  146.9889  140.3125  153.7386 C   0  0  0  0  0  0  0  0  0  0  0  0
  148.0656  139.5522  153.8506 N   0  0  0  0  0  0  0  0  0  0  0  0
  148.9904  140.3517  154.4247 N   0  0  0  0  0  0  0  0  0  0  0  0
  150.3343  139.8393  154.6701 C   0  0  2  0  0  0  0  0  0  0  0  0
  150.5040  138.4720  153.9815 C   0  0  0  0  0  0  0  0  0  0  0  0
  150.6390  139.8103  156.1907 C   0  0  1  0  0  0  0  0  0  0  0  0
  151.8886  138.9762  156.5302 C   0  0  0  0  0  0  0  0  0  0  0  0
  150.8067  141.1943  156.6938 N   0  3  0  0  0  0  0  0  0  0  0  0
  150.8683  141.3336  158.1635 C   0  0  0  0  0  0  0  0  0  0  0  0
  151.6895  142.5680  158.5596 C   0  0  1  0  0  0  0  0  0  0  0  0
  151.3063  143.8059  157.7257 C   0  0  0  0  0  0  0  0  0  0  0  0
  152.0801  145.0393  158.2054 C   0  0  0  0  0  0  0  0  0  0  0  0
  151.8868  145.2156  159.7150 C   0  0  0  0  0  0  0  0  0  0  0  0
  152.2264  143.9113  160.4535 C   0  0  0  0  0  0  0  0  0  0  0  0
  151.4398  142.8416  159.9369 O   0  0  0  0  0  0  0  0  0  0  0  0
  148.4912  141.6192  154.6506 C   0  0  0  0  0  0  0  0  0  0  0  0
  145.2057  142.4433  153.9907 H   0  0  0  0  0  0  0  0  0  0  0  0
  146.4862  143.5538  153.5389 H   0  0  0  0  0  0  0  0  0  0  0  0
  146.1577  143.2340  155.2330 H   0  0  0  0  0  0  0  0  0  0  0  0
  146.0959  139.8866  153.3050 H   0  0  0  0  0  0  0  0  0  0  0  0
  151.0389  140.5254  154.1956 H   0  0  0  0  0  0  0  0  0  0  0  0
  151.5425  138.1422  153.9910 H   0  0  0  0  0  0  0  0  0  0  0  0
  150.1986  138.5221  152.9357 H   0  0  0  0  0  0  0  0  0  0  0  0
  149.9043  137.7009  154.4658 H   0  0  0  0  0  0  0  0  0  0  0  0
  149.7788  139.3662  156.6948 H   0  0  0  0  0  0  0  0  0  0  0  0
  151.7613  137.9298  156.2547 H   0  0  0  0  0  0  0  0  0  0  0  0
  152.1037  138.9903  157.5984 H   0  0  0  0  0  0  0  0  0  0  0  0
  152.7699  139.3531  156.0103 H   0  0  0  0  0  0  0  0  0  0  0  0
  151.6366  141.5979  156.2827 H   0  0  0  0  0  0  0  0  0  0  0  0
  149.8519  141.4356  158.5464 H   0  0  0  0  0  0  0  0  0  0  0  0
  151.2937  140.4365  158.6138 H   0  0  0  0  0  0  0  0  0  0  0  0
  152.7500  142.3506  158.4178 H   0  0  0  0  0  0  0  0  0  0  0  0
  151.5077  143.6292  156.6685 H   0  0  0  0  0  0  0  0  0  0  0  0
  150.2347  143.9913  157.8126 H   0  0  0  0  0  0  0  0  0  0  0  0
  153.1408  144.9180  157.9821 H   0  0  0  0  0  0  0  0  0  0  0  0
  151.7469  145.9300  157.6721 H   0  0  0  0  0  0  0  0  0  0  0  0
  152.5087  146.0320  160.0832 H   0  0  0  0  0  0  0  0  0  0  0  0
  150.8522  145.4918  159.9225 H   0  0  0  0  0  0  0  0  0  0  0  0
  153.2875  143.6752  160.3597 H   0  0  0  0  0  0  0  0  0  0  0  0
  152.0177  144.0191  161.5179 H   0  0  0  0  0  0  0  0  0  0  0  0
  149.0948  142.3999  155.0898 H   0  0  0  0  0  0  0  0  0  0  0  0
  150.0076  141.7265  156.3783 H   0  0  0  0  0  0  0  0  0  0  0  0
  1  2  1  0  0  0  0
  1 19  1  0  0  0  0
  1 20  1  0  0  0  0
  1 21  1  0  0  0  0
  2 18  2  0  0  0  0
  2  3  1  0  0  0  0
  3  4  2  0  0  0  0
  3 22  1  0  0  0  0
  4  5  1  0  0  0  0
  5  6  1  0  0  0  0
  5 18  1  0  0  0  0
  6  7  1  0  0  0  0
  6  8  1  0  0  0  0
  6 23  1  0  0  0  0
  7 24  1  0  0  0  0
  7 25  1  0  0  0  0
  7 26  1  0  0  0  0
  8  9  1  0  0  0  0
  8 10  1  0  0  0  0
  8 27  1  0  0  0  0
  9 28  1  0  0  0  0
  9 29  1  0  0  0  0
  9 30  1  0  0  0  0
 10 11  1  0  0  0  0
 10 31  1  0  0  0  0
 10 44  1  0  0  0  0
 11 12  1  0  0  0  0
 11 32  1  0  0  0  0
 11 33  1  0  0  0  0
 12 17  1  0  0  0  0
 12 13  1  0  0  0  0
 12 34  1  0  0  0  0
 13 14  1  0  0  0  0
 13 35  1  0  0  0  0
 13 36  1  0  0  0  0
 14 15  1  0  0  0  0
 14 37  1  0  0  0  0
 14 38  1  0  0  0  0
 15 16  1  0  0  0  0
 15 39  1  0  0  0  0
 15 40  1  0  0  0  0
 16 17  1  0  0  0  0
 16 41  1  0  0  0  0
 16 42  1  0  0  0  0
 18 43  1  0  0  0  0
M  CHG  1  10   1
M  END
> <s_m_source_file>
AV-unprocessed.smi

> <i_m_source_file_index>
3249

> <i_lp_mmshare_version>
43012

> <i_f3d_flags>
0

> <s_epik_input>
W0NIM11jMVtjSF1ubihbY0hdMSlbQ0BIXShbQ0gzXSlbQ0BIXShbQ0gzXSlbTkhdW0NIMl1bQ0BASF0yW0NIMl1bQ0gyXVtDSDJdW0NIMl1PMg==

> <s_epik_cmdline>
J2VwaWtfcHl0aG9uJywgJy1waCcsICc3LjAnLCAnLXRuJywgJzgnLCAnLW1hJywgJzIwMCcsICctbWV0YWxfYmluZGluZycsICctaW1hZScsICc8aW5maWxlLm1hZT4nLCAnLW9tYWUnLCAnPG91dGZpbGUubWFlPic=

> <r_lp_tautomer_probability>
1

> <r_epik_Ionization_Penalty>
0.00659207

> <r_epik_Ionization_Penalty_Charging>
0.00656881

> <r_epik_Ionization_Penalty_Neutral>
2.32662e-05

> <r_epik_State_Penalty>
0.0048654

> <r_epik_Charging_Adjusted_Penalty>
0.0114342

> <i_epik_Tot_Q>
1

> <i_epik_Tot_abs_Q>
1

> <r_epik_Metal_State_Penalty>
-0

> <b_epik_Metal_Only>
0

> <s_lp_Force_Field>
OPLS_2005

> <r_lp_Energy>
17.4327

> <b_lp_Chiralities_Consistent>
1

> <s_lp_Variant>
AV-unprocessed.smi:3249-7

> <Gold.Version>
5.8.1

> <Gold.Id.Protein>
6NUR|6NUR_protein|mol2

> <Gold.PLP.Fitness>
47.4975

> <Gold.PLP.PLP>
-42.9968

> <Gold.PLP.part.hbond>
-0.8540

> <Gold.PLP.part.metal>
0.0000

> <Gold.PLP.part.buried>
-4.9948

> <Gold.PLP.part.nonpolar>
-39.1653

> <Gold.PLP.part.repulsive>
0.5971

> <Gold.PLP.ligand.clash>
0.0000

> <Gold.PLP.ligand.torsion>
0.6442

> <Gold.PLP.Chemscore.Hbond>
0.0000

> <Gold.PLP.Chemscore.CHOScore>
1.8933

> <Gold.PLP.Chemscore.Metal>
0.0000

> <Gold.Chemscore.Hbonds>
donor molecule, donor type, donor heavy atom, donor atom, acceptor molecule, acceptor atom, score
      L1  C     3    22       P1 10175  0.78
      L1  C    18    43       P1  8028  1.00

> <Gold.PLP.Chemscore.Internal.Correction>
0.1091

> <Gold.Rescore>
     Score         DG    S(hbond)    S(metal)    S(lipo)     H(rot)  DE(clash)    DE(int)     intcor
     14.95     -15.57       0.00        0.00     119.80       1.53       0.06       0.56       ----

> <Gold.Chemscore.Fitness>
14.9457

> <Gold.Chemscore.DG>
-15.5713

> <Gold.Chemscore.ZeroCoef>
-5.4800

> <Gold.Chemscore.Hbond>
0.0000

> <Gold.Chemscore.Metal>
0.0000

> <Gold.Chemscore.Lipo>
119.7987

> <Gold.Chemscore.Internal_Hbond>
0.0000

> <Gold.Chemscore.DEClash>
0.0627

> <Gold.Chemscore.DEInternal>
0.5629

> <Gold.Chemscore.Rot>
1.5333

> <Gold.Chemscore.Internal.Correction>
   9.000000E+99

> <Gold.Chemscore.Hbond.Weighted>
-0.0000

> <Gold.Chemscore.Metal.Weighted>
-0.0000

> <Gold.Chemscore.Lipo.Weighted>
-14.0165

> <Gold.Chemscore.Internal_Hbond.Weighted>
0.0000

> <Gold.Chemscore.DEClash.Weighted>
0.0627

> <Gold.Chemscore.DEInternal.Weighted>
0.5629

> <Gold.Chemscore.Rot.Weighted>
3.9252

> <Gold.Chemscore.Internal.Correction.Weighted>
   9.000000E+99

> <Gold.Protein.RotatedTorsions>
[ 6907 6896 6895 6894 ] final   36.31 input  -60.11 | X-H torsion
[ 7974 7965 7964 7962 ] final   81.07 input  175.53 | X-H torsion
[ 8008 7997 7996 7995 ] final -134.87 input   59.86 | X-H torsion
[ 10167 10162 10161 10158 ] final -170.35 input  -65.29 | X-H torsion
[ 10718 10713 10712 10709 ] final  171.21 input   66.30 | X-H torsion
[ 10763 10752 10751 10750 ] final  -87.14 input  -60.55 | X-H torsion
[ 11005 11000 10999 10996 ] final  -38.62 input  -57.11 | X-H torsion

> <Gold.Protein.ActiveResidues>
 VAL166  LYS551  ARG553  GLY616  TRP617  ASP618  TYR619  PRO620  LYS621  CYS622 
 ASP623  PHE694  ASN695  SER759  ASP760  ASP761  ALA762  ILE779  LEU786  VAL792 
 PHE793  MET794  SER795  GLU796  ALA797  LYS798  CYS799  TRP800  GLU811  SER814 

> <Gold.Protein.RotatedAtoms>
  152.1279  134.9157  160.0559 H   0  0  0  0  0  0  0  0  0  0  0  0  # atno 6907 bound_to 6896
  152.0272  133.3917  159.4290 H   0  0  0  0  0  0  0  0  0  0  0  0  # atno 6908 bound_to 6896
  150.6854  134.3482  159.4941 H   0  0  0  0  0  0  0  0  0  0  0  0  # atno 6909 bound_to 6896
  145.6430  139.2430  143.2020 H   0  0  0  0  0  0  0  0  0  0  0  0  # atno 7974 bound_to 7965
  155.3693  140.0487  157.3045 H   0  0  0  0  0  0  0  0  0  0  0  0  # atno 8008 bound_to 7997
  154.5138  140.2201  155.9068 H   0  0  0  0  0  0  0  0  0  0  0  0  # atno 8009 bound_to 7997
  156.1613  140.3116  155.8818 H   0  0  0  0  0  0  0  0  0  0  0  0  # atno 8010 bound_to 7997
  139.5867  144.1303  152.1584 H   0  0  0  0  0  0  0  0  0  0  0  0  # atno 10167 bound_to 10162
  156.9969  131.0164  151.2841 H   0  0  0  0  0  0  0  0  0  0  0  0  # atno 10718 bound_to 10713
  154.6303  135.5424  153.7673 H   0  0  0  0  0  0  0  0  0  0  0  0  # atno 10763 bound_to 10752
  153.0281  135.6434  154.1311 H   0  0  0  0  0  0  0  0  0  0  0  0  # atno 10764 bound_to 10752
  154.1241  135.2918  155.3181 H   0  0  0  0  0  0  0  0  0  0  0  0  # atno 10765 bound_to 10752
  141.0041  133.6940  156.2077 H   0  0  0  0  0  0  0  0  0  0  0  0  # atno 11005 bound_to 11000
  146.1266  140.7241  142.9432 LP  0  0  0  0  0  0  0  0  0  0  0  0  # atno 17320 bound_to 7965
  144.7150  140.4178  143.7051 LP  0  0  0  0  0  0  0  0  0  0  0  0  # atno 17321 bound_to 7965
  140.0868  144.5654  150.7083 LP  0  0  0  0  0  0  0  0  0  0  0  0  # atno 17342 bound_to 10162
  140.7137  143.2526  151.4500 LP  0  0  0  0  0  0  0  0  0  0  0  0  # atno 17343 bound_to 10162
  157.5418  130.8125  149.8038 LP  0  0  0  0  0  0  0  0  0  0  0  0  # atno 17370 bound_to 10713
  156.0186  130.3804  150.2033 LP  0  0  0  0  0  0  0  0  0  0  0  0  # atno 17371 bound_to 10713
  140.6841  134.4736  157.5589 LP  0  0  0  0  0  0  0  0  0  0  0  0  # atno 17394 bound_to 11000
  139.9054  134.8461  156.1727 LP  0  0  0  0  0  0  0  0  0  0  0  0  # atno 17395 bound_to 11000

$$$$
