AV-unprocessed.smi:42|AV-procd|sdf|389|dock2
  -GOLD-   2262016243D 1   1.00000     0.00000
 Structure written by MMmdl.
 27 28  0  0  0  0  0  0  0  0  2 V2000
  152.8114  142.9539  162.1073 C   0  0  0  0  0  0  0  0  0  0  0  0
  153.2054  142.5835  160.6736 C   0  0  0  0  0  0  0  0  0  0  0  0
  152.0404  142.5862  159.7416 C   0  0  0  0  0  0  0  0  0  0  0  0
  150.7914  142.9753  160.0069 N   0  0  0  0  0  0  0  0  0  0  0  0
  150.0993  142.8460  158.8247 N   0  0  0  0  0  0  0  0  0  0  0  0
  150.9914  142.4227  157.9221 C   0  0  0  0  0  0  0  0  0  0  0  0
  150.7608  142.0744  156.4830 C   0  0  1  0  0  0  0  0  0  0  0  0
  151.0669  140.6196  156.1105 C   0  0  0  0  0  0  0  0  0  0  0  0
  149.9258  140.2022  155.1679 C   0  0  2  0  0  0  0  0  0  0  0  0
  150.4124  139.8654  153.8853 O   0  0  0  0  0  0  0  0  0  0  0  0
  148.9803  141.4123  155.0941 C   0  0  0  0  0  0  0  0  0  0  0  0
  149.3178  142.2509  156.2538 N   0  3  0  0  0  0  0  0  0  0  0  0
  152.2305  142.2307  158.4443 O   0  0  0  0  0  0  0  0  0  0  0  0
  151.3083  142.7603  155.8346 H   0  0  0  0  0  0  0  0  0  0  0  0
  149.4009  139.3410  155.5839 H   0  0  0  0  0  0  0  0  0  0  0  0
  153.6816  142.9445  162.7638 H   0  0  0  0  0  0  0  0  0  0  0  0
  152.0827  142.2493  162.5092 H   0  0  0  0  0  0  0  0  0  0  0  0
  152.3730  143.9514  162.1498 H   0  0  0  0  0  0  0  0  0  0  0  0
  153.9545  143.2825  160.3004 H   0  0  0  0  0  0  0  0  0  0  0  0
  153.6648  141.5946  160.6580 H   0  0  0  0  0  0  0  0  0  0  0  0
  152.0618  140.5123  155.6761 H   0  0  0  0  0  0  0  0  0  0  0  0
  151.0335  139.9860  156.9984 H   0  0  0  0  0  0  0  0  0  0  0  0
  150.0810  139.0119  153.6488 H   0  0  0  0  0  0  0  0  0  0  0  0
  149.1675  141.9986  154.1929 H   0  0  0  0  0  0  0  0  0  0  0  0
  147.9280  141.1275  155.0961 H   0  0  0  0  0  0  0  0  0  0  0  0
  148.8263  141.8962  157.0621 H   0  0  0  0  0  0  0  0  0  0  0  0
  149.0773  143.2202  156.1034 H   0  0  0  0  0  0  0  0  0  0  0  0
  1  2  1  0  0  0  0
  1 16  1  0  0  0  0
  1 17  1  0  0  0  0
  1 18  1  0  0  0  0
  2  3  1  0  0  0  0
  2 19  1  0  0  0  0
  2 20  1  0  0  0  0
  3 13  1  0  0  0  0
  3  4  2  0  0  0  0
  4  5  1  0  0  0  0
  5  6  2  0  0  0  0
  6  7  1  0  0  0  0
  6 13  1  0  0  0  0
  7 14  1  0  0  0  0
  7 12  1  0  0  0  0
  7  8  1  0  0  0  0
  8  9  1  0  0  0  0
  8 21  1  0  0  0  0
  8 22  1  0  0  0  0
  9 15  1  0  0  0  0
  9 10  1  0  0  0  0
  9 11  1  0  0  0  0
 10 23  1  0  0  0  0
 11 12  1  0  0  0  0
 11 24  1  0  0  0  0
 11 25  1  0  0  0  0
 12 26  1  0  0  0  0
 12 27  1  0  0  0  0
M  CHG  1  12   1
M  END
> <s_m_source_file>
AV-unprocessed.smi

> <i_m_source_file_index>
42

> <i_lp_mmshare_version>
43012

> <i_f3d_flags>
0

> <s_epik_input>
W0NIM11bQ0gyXWMxbm5jKG8xKVtDQEhdMltDSDJdW0NAQEhdKFtPSF0pW0NIMl1bTkhdMg==

> <s_epik_cmdline>
J2VwaWtfcHl0aG9uJywgJy1waCcsICc3LjAnLCAnLXRuJywgJzgnLCAnLW1hJywgJzIwMCcsICctbWV0YWxfYmluZGluZycsICctaW1hZScsICc8aW5maWxlLm1hZT4nLCAnLW9tYWUnLCAnPG91dGZpbGUubWFlPic=

> <r_lp_tautomer_probability>
1

> <r_epik_Ionization_Penalty>
0.00247063

> <r_epik_Ionization_Penalty_Charging>
0.0024706

> <r_epik_Ionization_Penalty_Neutral>
3.27814e-08

> <r_epik_State_Penalty>
0.00171198

> <r_epik_Charging_Adjusted_Penalty>
0.00418258

> <i_epik_Tot_Q>
1

> <i_epik_Tot_abs_Q>
1

> <r_epik_Metal_State_Penalty>
-0

> <b_epik_Metal_Only>
0

> <s_lp_Force_Field>
OPLS_2005

> <r_lp_Energy>
19.5467

> <b_lp_Chiralities_Consistent>
1

> <s_lp_Variant>
AV-unprocessed.smi:42-3

> <Gold.Version>
5.8.1

> <Gold.Id.Protein>
6NUR|6NUR_protein|mol2

> <Gold.PLP.Fitness>
38.4863

> <Gold.PLP.PLP>
-29.5367

> <Gold.PLP.part.hbond>
-4.0721

> <Gold.PLP.part.metal>
0.0000

> <Gold.PLP.part.buried>
-3.0691

> <Gold.PLP.part.nonpolar>
-22.8389

> <Gold.PLP.part.repulsive>
0.2106

> <Gold.PLP.ligand.clash>
0.0000

> <Gold.PLP.ligand.torsion>
0.0445

> <Gold.PLP.Chemscore.Hbond>
3.0000

> <Gold.PLP.Chemscore.CHOScore>
0.0000

> <Gold.PLP.Chemscore.Metal>
0.0000

> <Gold.Chemscore.Hbonds>
donor molecule, donor type, donor heavy atom, donor atom, acceptor molecule, acceptor atom, score
      L1  H    12    27       P1  8028  2.00
      P1  H  7989  7998       L1    10  1.00

> <Gold.PLP.Chemscore.Internal.Correction>
0.0385

> <Gold.Rescore>
     Score         DG    S(hbond)    S(metal)    S(lipo)     H(rot)  DE(clash)    DE(int)     intcor
     13.14     -13.18       1.97        0.00      50.26       1.86       0.01       0.03       ----

> <Gold.Chemscore.Fitness>
13.1387

> <Gold.Chemscore.DG>
-13.1768

> <Gold.Chemscore.ZeroCoef>
-5.4800

> <Gold.Chemscore.Hbond>
1.9669

> <Gold.Chemscore.Metal>
0.0000

> <Gold.Chemscore.Lipo>
50.2608

> <Gold.Chemscore.Internal_Hbond>
0.0000

> <Gold.Chemscore.DEClash>
0.0082

> <Gold.Chemscore.DEInternal>
0.0298

> <Gold.Chemscore.Rot>
1.8567

> <Gold.Chemscore.Internal.Correction>
   9.000000E+99

> <Gold.Chemscore.Hbonds>
donor molecule, donor type, donor heavy atom, donor atom, acceptor molecule, acceptor atom, score
      L1  H    12    27       P1  8028  0.97
      P1  H  7989  7998       L1    10  0.70

> <Gold.Chemscore.Hbond.Weighted>
-6.5694

> <Gold.Chemscore.Metal.Weighted>
-0.0000

> <Gold.Chemscore.Lipo.Weighted>
-5.8805

> <Gold.Chemscore.Internal_Hbond.Weighted>
0.0000

> <Gold.Chemscore.DEClash.Weighted>
0.0082

> <Gold.Chemscore.DEInternal.Weighted>
0.0298

> <Gold.Chemscore.Rot.Weighted>
4.7531

> <Gold.Chemscore.Internal.Correction.Weighted>
   9.000000E+99

> <Gold.Protein.RotatedTorsions>
[ 6907 6896 6895 6894 ] final  140.74 input  -60.11 | X-H torsion
[ 7974 7965 7964 7962 ] final -143.61 input  175.53 | X-H torsion
[ 8008 7997 7996 7995 ] final   14.56 input   59.86 | X-H torsion
[ 10167 10162 10161 10158 ] final    2.50 input  -65.29 | X-H torsion
[ 10718 10713 10712 10709 ] final -102.75 input   66.30 | X-H torsion
[ 10763 10752 10751 10750 ] final   63.99 input  -60.55 | X-H torsion
[ 11005 11000 10999 10996 ] final   63.28 input  -57.11 | X-H torsion

> <Gold.Protein.ActiveResidues>
 VAL166  LYS551  ARG553  GLY616  TRP617  ASP618  TYR619  PRO620  LYS621  CYS622 
 ASP623  PHE694  ASN695  SER759  ASP760  ASP761  ALA762  ILE779  LEU786  VAL792 
 PHE793  MET794  SER795  GLU796  ALA797  LYS798  CYS799  TRP800  GLU811  SER814 

> <Gold.Protein.RotatedAtoms>
  152.2393  133.5122  159.5260 H   0  0  0  0  0  0  0  0  0  0  0  0  # atno 6907 bound_to 6896
  150.7060  134.1110  159.4009 H   0  0  0  0  0  0  0  0  0  0  0  0  # atno 6908 bound_to 6896
  151.9031  135.0370  160.0559 H   0  0  0  0  0  0  0  0  0  0  0  0  # atno 6909 bound_to 6896
  144.8357  140.5814  143.5485 H   0  0  0  0  0  0  0  0  0  0  0  0  # atno 7974 bound_to 7965
  154.8502  140.2928  155.5603 H   0  0  0  0  0  0  0  0  0  0  0  0  # atno 8008 bound_to 7997
  156.3016  140.2497  156.3392 H   0  0  0  0  0  0  0  0  0  0  0  0  # atno 8009 bound_to 7997
  154.9029  140.0391  157.1892 H   0  0  0  0  0  0  0  0  0  0  0  0  # atno 8010 bound_to 7997
  140.6632  143.7250  150.7777 H   0  0  0  0  0  0  0  0  0  0  0  0  # atno 10167 bound_to 10162
  156.0240  130.5435  150.7153 H   0  0  0  0  0  0  0  0  0  0  0  0  # atno 10718 bound_to 10713
  153.0039  135.5409  154.6440 H   0  0  0  0  0  0  0  0  0  0  0  0  # atno 10763 bound_to 10752
  154.5688  135.2840  155.0850 H   0  0  0  0  0  0  0  0  0  0  0  0  # atno 10764 bound_to 10752
  154.2023  135.6481  153.5143 H   0  0  0  0  0  0  0  0  0  0  0  0  # atno 10765 bound_to 10752
  140.0035  134.6405  155.9892 H   0  0  0  0  0  0  0  0  0  0  0  0  # atno 11005 bound_to 11000
  145.4799  139.1496  143.3767 LP  0  0  0  0  0  0  0  0  0  0  0  0  # atno 17320 bound_to 7965
  146.2656  140.4935  142.8835 LP  0  0  0  0  0  0  0  0  0  0  0  0  # atno 17321 bound_to 7965
  140.0922  143.4867  152.2472 LP  0  0  0  0  0  0  0  0  0  0  0  0  # atno 17342 bound_to 10162
  139.5872  144.7535  151.3491 LP  0  0  0  0  0  0  0  0  0  0  0  0  # atno 17343 bound_to 10162
  157.4782  131.0900  151.0566 LP  0  0  0  0  0  0  0  0  0  0  0  0  # atno 17370 bound_to 10713
  157.1007  130.5980  149.5459 LP  0  0  0  0  0  0  0  0  0  0  0  0  # atno 17371 bound_to 10713
  141.1660  133.6537  156.4481 LP  0  0  0  0  0  0  0  0  0  0  0  0  # atno 17394 bound_to 11000
  140.4683  134.6777  157.5117 LP  0  0  0  0  0  0  0  0  0  0  0  0  # atno 17395 bound_to 11000

$$$$
