AV-unprocessed.smi:2718|AV-procd|sdf|10493|dock8
  -GOLD-   2272014543D 1   1.00000     0.00000
 Structure written by MMmdl.
 47 48  0  0  0  0  0  0  0  0  1 V2000
  153.3208  143.1180  163.5087 C   0  0  0  0  0  0  0  0  0  0  0  0
  153.3238  142.5982  162.0848 C   0  0  0  0  0  0  0  0  0  0  0  0
  154.0842  141.2990  161.8844 C   0  0  0  0  0  0  0  0  0  0  0  0
  152.6963  143.2557  161.0911 C   0  0  0  0  0  0  0  0  0  0  0  0
  152.6321  142.8517  159.6618 C   0  0  1  0  0  0  0  0  0  0  0  0
  151.6085  141.8343  159.1907 C   0  0  2  0  0  0  0  0  0  0  0  0
  152.0131  140.8201  158.1672 C   0  0  0  0  0  0  0  0  0  0  0  0
  152.9592  140.0452  158.3121 O   0  0  0  0  0  0  0  0  0  0  0  0
  151.2410  140.8331  157.0708 N   0  0  0  0  0  0  0  0  0  0  0  0
  151.3874  139.9581  155.9101 C   0  0  0  0  0  0  0  0  0  0  0  0
  150.1020  139.1754  155.5517 C   0  0  1  0  0  0  0  0  0  0  0  0
  149.4787  138.5108  156.7873 C   0  0  0  0  0  0  0  0  0  0  0  0
  149.0935  140.0055  154.8027 C   0  0  0  0  0  0  0  0  0  0  0  0
  149.2501  141.3120  154.5506 N   0  0  0  0  0  0  0  0  0  0  0  0
  148.1211  141.6974  153.8568 N   0  0  0  0  0  0  0  0  0  0  0  0
  147.3859  140.5900  153.7727 C   0  0  0  0  0  0  0  0  0  0  0  0
  147.9256  139.5047  154.3468 N   0  0  0  0  0  0  0  0  0  0  0  0
  147.3723  138.1682  154.4418 C   0  0  0  0  0  0  0  0  0  0  0  0
  151.4835  143.2942  158.7708 C   0  0  0  0  0  0  0  0  0  0  0  0
  150.3081  144.0843  159.3262 C   0  0  0  0  0  0  0  0  0  0  0  0
  151.8001  143.7871  157.3648 C   0  0  0  0  0  0  0  0  0  0  0  0
  152.8676  142.3860  164.1778 H   0  0  0  0  0  0  0  0  0  0  0  0
  152.7595  144.0491  163.5956 H   0  0  0  0  0  0  0  0  0  0  0  0
  154.3410  143.3053  163.8438 H   0  0  0  0  0  0  0  0  0  0  0  0
  155.1327  141.4345  162.1504 H   0  0  0  0  0  0  0  0  0  0  0  0
  154.0429  140.9446  160.8550 H   0  0  0  0  0  0  0  0  0  0  0  0
  153.6686  140.5190  162.5227 H   0  0  0  0  0  0  0  0  0  0  0  0
  152.1758  144.1718  161.3298 H   0  0  0  0  0  0  0  0  0  0  0  0
  153.6239  142.8089  159.2145 H   0  0  0  0  0  0  0  0  0  0  0  0
  150.8797  141.4887  159.9228 H   0  0  0  0  0  0  0  0  0  0  0  0
  150.4895  141.5068  157.0343 H   0  0  0  0  0  0  0  0  0  0  0  0
  151.7380  140.5334  155.0519 H   0  0  0  0  0  0  0  0  0  0  0  0
  152.1835  139.2530  156.1514 H   0  0  0  0  0  0  0  0  0  0  0  0
  150.4136  138.3610  154.8989 H   0  0  0  0  0  0  0  0  0  0  0  0
  148.6283  137.8879  156.5087 H   0  0  0  0  0  0  0  0  0  0  0  0
  149.1265  139.2542  157.5030 H   0  0  0  0  0  0  0  0  0  0  0  0
  150.2016  137.8737  157.2971 H   0  0  0  0  0  0  0  0  0  0  0  0
  146.4229  140.5726  153.2838 H   0  0  0  0  0  0  0  0  0  0  0  0
  146.4345  138.1097  153.8891 H   0  0  0  0  0  0  0  0  0  0  0  0
  147.1848  137.9231  155.4874 H   0  0  0  0  0  0  0  0  0  0  0  0
  148.0721  137.4450  154.0242 H   0  0  0  0  0  0  0  0  0  0  0  0
  149.4404  143.9794  158.6744 H   0  0  0  0  0  0  0  0  0  0  0  0
  150.5617  145.1421  159.4011 H   0  0  0  0  0  0  0  0  0  0  0  0
  150.0296  143.7300  160.3190 H   0  0  0  0  0  0  0  0  0  0  0  0
  150.9963  143.5154  156.6805 H   0  0  0  0  0  0  0  0  0  0  0  0
  152.7339  143.3671  156.9928 H   0  0  0  0  0  0  0  0  0  0  0  0
  151.9059  144.8722  157.3590 H   0  0  0  0  0  0  0  0  0  0  0  0
  1  2  1  0  0  0  0
  1 22  1  0  0  0  0
  1 23  1  0  0  0  0
  1 24  1  0  0  0  0
  2  3  1  0  0  0  0
  2  4  2  0  0  0  0
  3 25  1  0  0  0  0
  3 26  1  0  0  0  0
  3 27  1  0  0  0  0
  4  5  1  0  0  0  0
  4 28  1  0  0  0  0
  5 19  1  0  0  0  0
  5  6  1  0  0  0  0
  5 29  1  0  0  0  0
  6  7  1  0  0  0  0
  6 19  1  0  0  0  0
  6 30  1  0  0  0  0
  7  8  2  0  0  0  0
  7  9  1  0  0  0  0
  9 10  1  0  0  0  0
  9 31  1  0  0  0  0
 10 11  1  0  0  0  0
 10 32  1  0  0  0  0
 10 33  1  0  0  0  0
 11 12  1  0  0  0  0
 11 13  1  0  0  0  0
 11 34  1  0  0  0  0
 12 35  1  0  0  0  0
 12 36  1  0  0  0  0
 12 37  1  0  0  0  0
 13 17  1  0  0  0  0
 13 14  2  0  0  0  0
 14 15  1  0  0  0  0
 15 16  2  0  0  0  0
 16 17  1  0  0  0  0
 16 38  1  0  0  0  0
 17 18  1  0  0  0  0
 18 39  1  0  0  0  0
 18 40  1  0  0  0  0
 18 41  1  0  0  0  0
 19 20  1  0  0  0  0
 19 21  1  0  0  0  0
 20 42  1  0  0  0  0
 20 43  1  0  0  0  0
 20 44  1  0  0  0  0
 21 45  1  0  0  0  0
 21 46  1  0  0  0  0
 21 47  1  0  0  0  0
M  END
> <s_m_source_file>
AV-unprocessed.smi

> <i_m_source_file_index>
2718

> <i_lp_mmshare_version>
43012

> <i_f3d_flags>
0

> <s_epik_input>
W0NIM11DKFtDSDNdKT1bQ0hdW0NAQEhdKEMxKFtDSDNdKVtDSDNdKVtDQEhdMUMoPU8pW05IXVtDSDJdW0NASF0oW0NIM10pYzJubltjSF1uMltDSDNd

> <s_epik_cmdline>
J2VwaWtfcHl0aG9uJywgJy1waCcsICc3LjAnLCAnLXRuJywgJzgnLCAnLW1hJywgJzIwMCcsICctbWV0YWxfYmluZGluZycsICctaW1hZScsICc8aW5maWxlLm1hZT4nLCAnLW9tYWUnLCAnPG91dGZpbGUubWFlPic=

> <r_lp_tautomer_probability>
1

> <r_epik_Ionization_Penalty>
0.000449586

> <r_epik_Ionization_Penalty_Charging>
0

> <r_epik_Ionization_Penalty_Neutral>
0.000449586

> <r_epik_State_Penalty>
0.000243372

> <r_epik_Charging_Adjusted_Penalty>
0.000243372

> <i_epik_Tot_Q>
0

> <i_epik_Tot_abs_Q>
0

> <r_epik_Metal_State_Penalty>
-0

> <b_epik_Metal_Only>
0

> <s_lp_Force_Field>
OPLS_2005

> <r_lp_Energy>
15.3902

> <b_lp_Chiralities_Consistent>
1

> <s_lp_Variant>
AV-unprocessed.smi:2718-8

> <Gold.Version>
5.8.1

> <Gold.Id.Protein>
6NUR|6NUR_protein|mol2

> <Gold.PLP.Fitness>
48.2812

> <Gold.PLP.PLP>
-43.7820

> <Gold.PLP.part.hbond>
-3.0000

> <Gold.PLP.part.metal>
0.0000

> <Gold.PLP.part.buried>
-4.2825

> <Gold.PLP.part.nonpolar>
-37.9347

> <Gold.PLP.part.repulsive>
0.4376

> <Gold.PLP.ligand.clash>
0.0000

> <Gold.PLP.ligand.torsion>
0.5492

> <Gold.PLP.Chemscore.Hbond>
0.9920

> <Gold.PLP.Chemscore.CHOScore>
0.7886

> <Gold.PLP.Chemscore.Metal>
0.0000

> <Gold.Chemscore.Hbonds>
donor molecule, donor type, donor heavy atom, donor atom, acceptor molecule, acceptor atom, score
      P1  H  7997  8010       L1     8  0.72
      L1  C    16    38       P1 10175  0.19

> <Gold.PLP.Chemscore.Internal.Correction>
0.2557

> <Gold.Rescore>
     Score         DG    S(hbond)    S(metal)    S(lipo)     H(rot)  DE(clash)    DE(int)     intcor
     16.09     -16.71       0.93        0.00     112.14       1.95       0.09       0.53       ----

> <Gold.Chemscore.Fitness>
16.0869

> <Gold.Chemscore.DG>
-16.7072

> <Gold.Chemscore.ZeroCoef>
-5.4800

> <Gold.Chemscore.Hbond>
0.9302

> <Gold.Chemscore.Metal>
0.0000

> <Gold.Chemscore.Lipo>
112.1437

> <Gold.Chemscore.Internal_Hbond>
0.0000

> <Gold.Chemscore.DEClash>
0.0854

> <Gold.Chemscore.DEInternal>
0.5349

> <Gold.Chemscore.Rot>
1.9533

> <Gold.Chemscore.Internal.Correction>
   9.000000E+99

> <Gold.Chemscore.Hbonds>
donor molecule, donor type, donor heavy atom, donor atom, acceptor molecule, acceptor atom, score
      P1  H  7997  8010       L1     8  0.65

> <Gold.Chemscore.Hbond.Weighted>
-3.1070

> <Gold.Chemscore.Metal.Weighted>
-0.0000

> <Gold.Chemscore.Lipo.Weighted>
-13.1208

> <Gold.Chemscore.Internal_Hbond.Weighted>
0.0000

> <Gold.Chemscore.DEClash.Weighted>
0.0854

> <Gold.Chemscore.DEInternal.Weighted>
0.5349

> <Gold.Chemscore.Rot.Weighted>
5.0005

> <Gold.Chemscore.Internal.Correction.Weighted>
   9.000000E+99

> <Gold.Protein.RotatedTorsions>
[ 6907 6896 6895 6894 ] final  158.78 input  -60.11 | X-H torsion
[ 7974 7965 7964 7962 ] final -129.68 input  175.53 | X-H torsion
[ 8008 7997 7996 7995 ] final   51.64 input   59.86 | X-H torsion
[ 10167 10162 10161 10158 ] final  153.80 input  -65.29 | X-H torsion
[ 10718 10713 10712 10709 ] final  -69.46 input   66.30 | X-H torsion
[ 10763 10752 10751 10750 ] final  -65.22 input  -60.55 | X-H torsion
[ 11005 11000 10999 10996 ] final -155.77 input  -57.11 | X-H torsion

> <Gold.Protein.ActiveResidues>
 VAL166  LYS551  ARG553  GLY616  TRP617  ASP618  TYR619  PRO620  LYS621  CYS622 
 ASP623  PHE694  ASN695  SER759  ASP760  ASP761  ALA762  ILE779  LEU786  VAL792 
 PHE793  MET794  SER795  GLU796  ALA797  LYS798  CYS799  TRP800  GLU811  SER814 

> <Gold.Protein.RotatedAtoms>
  151.9954  133.3806  159.4160 H   0  0  0  0  0  0  0  0  0  0  0  0  # atno 6907 bound_to 6896
  150.6916  134.3892  159.5078 H   0  0  0  0  0  0  0  0  0  0  0  0  # atno 6908 bound_to 6896
  152.1631  134.8895  160.0591 H   0  0  0  0  0  0  0  0  0  0  0  0  # atno 6909 bound_to 6896
  144.9548  140.7383  143.4765 H   0  0  0  0  0  0  0  0  0  0  0  0  # atno 7974 bound_to 7965
  155.4386  140.3453  155.4287 H   0  0  0  0  0  0  0  0  0  0  0  0  # atno 8008 bound_to 7997
  156.1292  140.1509  156.9121 H   0  0  0  0  0  0  0  0  0  0  0  0  # atno 8009 bound_to 7997
  154.4882  140.0849  156.7514 H   0  0  0  0  0  0  0  0  0  0  0  0  # atno 8010 bound_to 7997
  139.4825  144.5242  151.7828 H   0  0  0  0  0  0  0  0  0  0  0  0  # atno 10167 bound_to 10162
  156.0454  130.4313  150.2151 H   0  0  0  0  0  0  0  0  0  0  0  0  # atno 10718 bound_to 10713
  154.3417  135.6155  153.5599 H   0  0  0  0  0  0  0  0  0  0  0  0  # atno 10763 bound_to 10752
  152.9804  135.5771  154.4845 H   0  0  0  0  0  0  0  0  0  0  0  0  # atno 10764 bound_to 10752
  154.4550  135.2854  155.1731 H   0  0  0  0  0  0  0  0  0  0  0  0  # atno 10765 bound_to 10752
  140.6829  134.4125  157.5225 H   0  0  0  0  0  0  0  0  0  0  0  0  # atno 11005 bound_to 11000
  145.2789  139.1926  143.4801 LP  0  0  0  0  0  0  0  0  0  0  0  0  # atno 17320 bound_to 7965
  146.3333  140.2748  142.8607 LP  0  0  0  0  0  0  0  0  0  0  0  0  # atno 17321 bound_to 7965
  140.4759  144.1519  150.5925 LP  0  0  0  0  0  0  0  0  0  0  0  0  # atno 17342 bound_to 10162
  140.4331  143.2559  151.9570 LP  0  0  0  0  0  0  0  0  0  0  0  0  # atno 17343 bound_to 10162
  157.0241  130.9988  151.3331 LP  0  0  0  0  0  0  0  0  0  0  0  0  # atno 17370 bound_to 10713
  157.5323  130.8066  149.7932 LP  0  0  0  0  0  0  0  0  0  0  0  0  # atno 17371 bound_to 10713
  139.8946  134.8702  156.2168 LP  0  0  0  0  0  0  0  0  0  0  0  0  # atno 17394 bound_to 11000
  141.0303  133.6992  156.1419 LP  0  0  0  0  0  0  0  0  0  0  0  0  # atno 17395 bound_to 11000

$$$$
