AV-unprocessed.smi:1107|AV-procd|sdf|4781|dock7
  -GOLD-   22720 3323D 1   1.00000     0.00000
 Structure written by MMmdl.
 49 50  0  0  0  0  0  0  0  0  2 V2000
  151.3524  143.1879  157.4253 C   0  0  0  0  0  0  0  0  0  0  0  0
  150.9190  141.9711  156.6357 C   0  0  0  0  0  0  0  0  0  0  0  0
  151.4038  140.7862  156.8129 N   0  0  0  0  0  0  0  0  0  0  0  0
  150.9202  139.7337  156.0230 C   0  0  0  0  0  0  0  0  0  0  0  0
  151.5367  138.3730  156.2986 C   0  0  0  0  0  0  0  0  0  0  0  0
  149.9538  139.9345  155.0794 C   0  0  0  0  0  0  0  0  0  0  0  0
  149.3964  138.8194  154.1976 C   0  0  0  0  0  0  0  0  0  0  0  0
  148.2865  137.9753  154.8273 C   0  0  0  0  0  0  0  0  0  0  0  0
  147.5820  138.4434  155.7211 O   0  0  0  0  0  0  0  0  0  0  0  0
  148.1387  136.7301  154.3477 N   0  0  0  0  0  0  0  0  0  0  0  0
  147.1723  135.7363  154.8162 C   0  0  2  0  0  0  0  0  0  0  0  0
  147.3081  135.5853  156.3373 C   0  0  0  0  0  0  0  0  0  0  0  0
  147.3660  134.3813  154.0977 C   0  0  0  0  0  0  0  0  0  0  0  0
  146.7732  134.3528  152.7356 N   0  3  0  0  0  0  0  0  0  0  0  0
  146.8265  133.0058  152.1119 C   0  0  0  0  0  0  0  0  0  0  0  0
  146.3566  133.0577  150.6482 C   0  0  0  0  0  0  0  0  0  0  0  0
  144.9478  133.6565  150.5420 C   0  0  0  0  0  0  0  0  0  0  0  0
  144.9073  135.0280  151.2291 C   0  0  0  0  0  0  0  0  0  0  0  0
  145.4034  134.9288  152.6809 C   0  0  0  0  0  0  0  0  0  0  0  0
  149.4141  141.2929  154.8791 C   0  0  0  0  0  0  0  0  0  0  0  0
  148.5565  141.5836  154.0465 O   0  0  0  0  0  0  0  0  0  0  0  0
  149.9356  142.2436  155.6861 N   0  0  0  0  0  0  0  0  0  0  0  0
  149.5976  143.1900  155.5889 H   0  0  0  0  0  0  0  0  0  0  0  0
  151.1907  143.0206  158.4904 H   0  0  0  0  0  0  0  0  0  0  0  0
  150.7949  144.0787  157.1321 H   0  0  0  0  0  0  0  0  0  0  0  0
  152.4133  143.3808  157.2655 H   0  0  0  0  0  0  0  0  0  0  0  0
  151.9469  137.9398  155.3869 H   0  0  0  0  0  0  0  0  0  0  0  0
  150.7883  137.6907  156.7021 H   0  0  0  0  0  0  0  0  0  0  0  0
  152.3473  138.4458  157.0243 H   0  0  0  0  0  0  0  0  0  0  0  0
  148.9985  139.2449  153.2769 H   0  0  0  0  0  0  0  0  0  0  0  0
  150.2130  138.1736  153.8698 H   0  0  0  0  0  0  0  0  0  0  0  0
  148.7714  136.4341  153.6178 H   0  0  0  0  0  0  0  0  0  0  0  0
  146.1621  136.1019  154.6275 H   0  0  0  0  0  0  0  0  0  0  0  0
  146.5759  134.8781  156.7279 H   0  0  0  0  0  0  0  0  0  0  0  0
  147.1459  136.5379  156.8429 H   0  0  0  0  0  0  0  0  0  0  0  0
  148.2993  135.2255  156.6158 H   0  0  0  0  0  0  0  0  0  0  0  0
  148.4382  134.1915  154.0258 H   0  0  0  0  0  0  0  0  0  0  0  0
  146.9551  133.5648  154.6932 H   0  0  0  0  0  0  0  0  0  0  0  0
  147.8477  132.6241  152.1433 H   0  0  0  0  0  0  0  0  0  0  0  0
  146.2088  132.3124  152.6852 H   0  0  0  0  0  0  0  0  0  0  0  0
  147.0539  133.6581  150.0620 H   0  0  0  0  0  0  0  0  0  0  0  0
  146.3703  132.0568  150.2155 H   0  0  0  0  0  0  0  0  0  0  0  0
  144.6543  133.7495  149.4961 H   0  0  0  0  0  0  0  0  0  0  0  0
  144.2259  132.9870  151.0116 H   0  0  0  0  0  0  0  0  0  0  0  0
  145.5292  135.7345  150.6772 H   0  0  0  0  0  0  0  0  0  0  0  0
  143.8925  135.4263  151.2073 H   0  0  0  0  0  0  0  0  0  0  0  0
  144.7228  134.3113  153.2690 H   0  0  0  0  0  0  0  0  0  0  0  0
  145.3924  135.9222  153.1285 H   0  0  0  0  0  0  0  0  0  0  0  0
  147.3597  134.9463  152.1656 H   0  0  0  0  0  0  0  0  0  0  0  0
  1  2  1  0  0  0  0
  1 24  1  0  0  0  0
  1 25  1  0  0  0  0
  1 26  1  0  0  0  0
  2 22  1  0  0  0  0
  2  3  2  0  0  0  0
  3  4  1  0  0  0  0
  4  5  1  0  0  0  0
  4  6  2  0  0  0  0
  5 27  1  0  0  0  0
  5 28  1  0  0  0  0
  5 29  1  0  0  0  0
  6  7  1  0  0  0  0
  6 20  1  0  0  0  0
  7  8  1  0  0  0  0
  7 30  1  0  0  0  0
  7 31  1  0  0  0  0
  8  9  2  0  0  0  0
  8 10  1  0  0  0  0
 10 11  1  0  0  0  0
 10 32  1  0  0  0  0
 11 12  1  0  0  0  0
 11 13  1  0  0  0  0
 11 33  1  0  0  0  0
 12 34  1  0  0  0  0
 12 35  1  0  0  0  0
 12 36  1  0  0  0  0
 13 14  1  0  0  0  0
 13 37  1  0  0  0  0
 13 38  1  0  0  0  0
 14 19  1  0  0  0  0
 14 15  1  0  0  0  0
 14 49  1  0  0  0  0
 15 16  1  0  0  0  0
 15 39  1  0  0  0  0
 15 40  1  0  0  0  0
 16 17  1  0  0  0  0
 16 41  1  0  0  0  0
 16 42  1  0  0  0  0
 17 18  1  0  0  0  0
 17 43  1  0  0  0  0
 17 44  1  0  0  0  0
 18 19  1  0  0  0  0
 18 45  1  0  0  0  0
 18 46  1  0  0  0  0
 19 47  1  0  0  0  0
 19 48  1  0  0  0  0
 20 21  2  0  0  0  0
 20 22  1  0  0  0  0
 22 23  1  0  0  0  0
M  CHG  1  14   1
M  END
> <s_m_source_file>
AV-unprocessed.smi

> <i_m_source_file_index>
1107

> <i_lp_mmshare_version>
43012

> <i_f3d_flags>
0

> <s_epik_input>
W0NIM11jMW5jKFtDSDNdKWMoYyg9TylbbkhdMSlbQ0gyXUMoPU8pW05IXVtDQEhdKFtDSDNdKVtDSDJdTjJbQ0gyXVtDSDJdW0NIMl1bQ0gyXVtDSDJdMg==

> <s_epik_cmdline>
J2VwaWtfcHl0aG9uJywgJy1waCcsICc3LjAnLCAnLXRuJywgJzgnLCAnLW1hJywgJzIwMCcsICctbWV0YWxfYmluZGluZycsICctaW1hZScsICc8aW5maWxlLm1hZT4nLCAnLW9tYWUnLCAnPG91dGZpbGUubWFlPic=

> <r_lp_tautomer_probability>
0.839158

> <r_epik_Ionization_Penalty>
0.00280224

> <r_epik_Ionization_Penalty_Charging>
0.00277925

> <r_epik_Ionization_Penalty_Neutral>
2.29856e-05

> <r_epik_State_Penalty>
0.09125

> <r_epik_Charging_Adjusted_Penalty>
0.0940293

> <i_epik_Tot_Q>
1

> <i_epik_Tot_abs_Q>
1

> <r_epik_Metal_State_Penalty>
0.283823

> <b_epik_Metal_Only>
0

> <s_lp_Force_Field>
OPLS_2005

> <r_lp_Energy>
24.1286

> <b_lp_Chiralities_Consistent>
1

> <s_lp_Variant>
AV-unprocessed.smi:1107-1

> <Gold.Version>
5.8.1

> <Gold.Id.Protein>
6NUR|6NUR_protein|mol2

> <Gold.PLP.Fitness>
44.9088

> <Gold.PLP.PLP>
-33.4257

> <Gold.PLP.part.hbond>
-4.0000

> <Gold.PLP.part.metal>
0.0000

> <Gold.PLP.part.buried>
-1.7287

> <Gold.PLP.part.nonpolar>
-26.9998

> <Gold.PLP.part.repulsive>
0.4006

> <Gold.PLP.ligand.clash>
0.0000

> <Gold.PLP.ligand.torsion>
0.9672

> <Gold.PLP.Chemscore.Hbond>
4.4560

> <Gold.PLP.Chemscore.CHOScore>
0.0000

> <Gold.PLP.Chemscore.Metal>
0.0000

> <Gold.Chemscore.Hbonds>
donor molecule, donor type, donor heavy atom, donor atom, acceptor molecule, acceptor atom, score
      L1  H    10    32       P1  7948  0.91
      L1  H    14    49       P1  7948  1.98
      L1  H    22    23       P1  8028  1.00
      P1  H  8011  8017       L1    21  0.25

> <Gold.PLP.Chemscore.Internal.Correction>
0.0496

> <Gold.Rescore>
     Score         DG    S(hbond)    S(metal)    S(lipo)     H(rot)  DE(clash)    DE(int)     intcor
     17.01     -19.26       3.24        0.00      68.76       1.98       0.06       2.19       ----

> <Gold.Chemscore.Fitness>
17.0114

> <Gold.Chemscore.DG>
-19.2602

> <Gold.Chemscore.ZeroCoef>
-5.4800

> <Gold.Chemscore.Hbond>
3.2375

> <Gold.Chemscore.Metal>
0.0000

> <Gold.Chemscore.Lipo>
68.7633

> <Gold.Chemscore.Internal_Hbond>
0.0000

> <Gold.Chemscore.DEClash>
0.0624

> <Gold.Chemscore.DEInternal>
2.1865

> <Gold.Chemscore.Rot>
1.9837

> <Gold.Chemscore.Internal.Correction>
   9.000000E+99

> <Gold.Chemscore.Hbonds>
donor molecule, donor type, donor heavy atom, donor atom, acceptor molecule, acceptor atom, score
      L1  H    10    32       P1  7948  0.88
      L1  H    14    49       P1  7948  0.86
      L1  H    22    23       P1  8028  1.00
      P1  H  8011  8017       L1    21  0.10

> <Gold.Chemscore.Hbond.Weighted>
-10.8132

> <Gold.Chemscore.Metal.Weighted>
-0.0000

> <Gold.Chemscore.Lipo.Weighted>
-8.0453

> <Gold.Chemscore.Internal_Hbond.Weighted>
0.0000

> <Gold.Chemscore.DEClash.Weighted>
0.0624

> <Gold.Chemscore.DEInternal.Weighted>
2.1865

> <Gold.Chemscore.Rot.Weighted>
5.0783

> <Gold.Chemscore.Internal.Correction.Weighted>
   9.000000E+99

> <Gold.Protein.RotatedTorsions>
[ 6907 6896 6895 6894 ] final   17.77 input  -60.11 | X-H torsion
[ 7974 7965 7964 7962 ] final  115.98 input  175.53 | X-H torsion
[ 8008 7997 7996 7995 ] final  -56.52 input   59.86 | X-H torsion
[ 10167 10162 10161 10158 ] final  142.26 input  -65.29 | X-H torsion
[ 10718 10713 10712 10709 ] final  155.10 input   66.30 | X-H torsion
[ 10763 10752 10751 10750 ] final -179.28 input  -60.55 | X-H torsion
[ 11005 11000 10999 10996 ] final  159.23 input  -57.11 | X-H torsion

> <Gold.Protein.ActiveResidues>
 VAL166  LYS551  ARG553  GLY616  TRP617  ASP618  TYR619  PRO620  LYS621  CYS622 
 ASP623  PHE694  ASN695  SER759  ASP760  ASP761  ALA762  ILE779  LEU786  VAL792 
 PHE793  MET794  SER795  GLU796  ALA797  LYS798  CYS799  TRP800  GLU811  SER814 

> <Gold.Protein.RotatedAtoms>
  151.8549  135.0545  160.0462 H   0  0  0  0  0  0  0  0  0  0  0  0  # atno 6907 bound_to 6896
  152.2708  133.5376  159.5446 H   0  0  0  0  0  0  0  0  0  0  0  0  # atno 6908 bound_to 6896
  150.7151  134.0617  159.3876 H   0  0  0  0  0  0  0  0  0  0  0  0  # atno 6909 bound_to 6896
  145.1852  139.3029  143.4397 H   0  0  0  0  0  0  0  0  0  0  0  0  # atno 7974 bound_to 7965
  154.4233  140.1128  156.5651 H   0  0  0  0  0  0  0  0  0  0  0  0  # atno 8008 bound_to 7997
  155.6270  140.3495  155.4651 H   0  0  0  0  0  0  0  0  0  0  0  0  # atno 8009 bound_to 7997
  155.9978  140.1193  157.0566 H   0  0  0  0  0  0  0  0  0  0  0  0  # atno 8010 bound_to 7997
  139.4999  144.6118  151.6254 H   0  0  0  0  0  0  0  0  0  0  0  0  # atno 10167 bound_to 10162
  157.2229  131.0722  151.1901 H   0  0  0  0  0  0  0  0  0  0  0  0  # atno 10718 bound_to 10713
  154.5371  135.2803  155.1128 H   0  0  0  0  0  0  0  0  0  0  0  0  # atno 10763 bound_to 10752
  154.2626  135.6319  153.5284 H   0  0  0  0  0  0  0  0  0  0  0  0  # atno 10764 bound_to 10752
  152.9970  135.5609  154.5900 H   0  0  0  0  0  0  0  0  0  0  0  0  # atno 10765 bound_to 10752
  140.1942  134.8385  157.2946 H   0  0  0  0  0  0  0  0  0  0  0  0  # atno 11005 bound_to 11000
  146.3446  140.2046  142.8589 LP  0  0  0  0  0  0  0  0  0  0  0  0  # atno 17320 bound_to 7965
  145.0096  140.8702  143.5232 LP  0  0  0  0  0  0  0  0  0  0  0  0  # atno 17321 bound_to 7965
  140.5795  143.9970  150.6260 LP  0  0  0  0  0  0  0  0  0  0  0  0  # atno 17342 bound_to 10162
  140.3115  143.3195  152.0874 LP  0  0  0  0  0  0  0  0  0  0  0  0  # atno 17343 bound_to 10162
  157.3558  130.7105  149.6469 LP  0  0  0  0  0  0  0  0  0  0  0  0  # atno 17370 bound_to 10713
  155.9681  130.4239  150.4586 LP  0  0  0  0  0  0  0  0  0  0  0  0  # atno 17371 bound_to 10713
  140.2126  134.4120  155.7605 LP  0  0  0  0  0  0  0  0  0  0  0  0  # atno 17394 bound_to 11000
  141.2227  133.7126  156.8362 LP  0  0  0  0  0  0  0  0  0  0  0  0  # atno 17395 bound_to 11000

$$$$
