AV-unprocessed.smi:1847|AV-procd|sdf|7515|dock5
  -GOLD-   22720 9223D 1   1.00000     0.00000
 Structure written by MMmdl.
 25 26  0  0  0  0  0  0  0  0  1 V2000
  153.0178  140.0145  157.9476 O   0  0  0  0  0  0  0  0  0  0  0  0
  152.1406  140.2852  157.1262 C   0  0  0  0  0  0  0  0  0  0  0  0
  151.4312  141.4305  157.1331 N   0  0  0  0  0  0  0  0  0  0  0  0
  151.5282  142.5356  158.0214 C   0  0  0  0  0  0  0  0  0  0  0  0
  150.6298  143.6071  157.8382 C   0  0  0  0  0  0  0  0  0  0  0  0
  150.7165  144.7208  158.6973 C   0  0  0  0  0  0  0  0  0  0  0  0
  151.6279  144.8245  159.6872 N   0  0  0  0  0  0  0  0  0  0  0  0
  152.4981  143.8055  159.8502 C   0  0  0  0  0  0  0  0  0  0  0  0
  152.4965  142.6467  159.0481 C   0  0  0  0  0  0  0  0  0  0  0  0
  151.7205  139.4058  156.0413 C   0  0  0  0  0  0  0  0  0  0  0  0
  152.0858  138.1029  156.0607 C   0  0  0  0  0  0  0  0  0  0  0  0
  151.7716  137.2079  155.0688 O   0  0  0  0  0  0  0  0  0  0  0  0
  151.2507  137.7956  153.8826 C   0  0  0  0  0  0  0  0  0  0  0  0
  150.2723  138.9266  154.2314 C   0  0  0  0  0  0  0  0  0  0  0  0
  150.9183  139.9057  155.0384 O   0  0  0  0  0  0  0  0  0  0  0  0
  150.6867  141.4853  156.4529 H   0  0  0  0  0  0  0  0  0  0  0  0
  149.8817  143.5780  157.0595 H   0  0  0  0  0  0  0  0  0  0  0  0
  150.0363  145.5520  158.5839 H   0  0  0  0  0  0  0  0  0  0  0  0
  153.2246  143.9202  160.6409 H   0  0  0  0  0  0  0  0  0  0  0  0
  153.2374  141.8830  159.2267 H   0  0  0  0  0  0  0  0  0  0  0  0
  152.6903  137.6438  156.8300 H   0  0  0  0  0  0  0  0  0  0  0  0
  152.0753  138.1783  153.2798 H   0  0  0  0  0  0  0  0  0  0  0  0
  150.7512  137.0270  153.2926 H   0  0  0  0  0  0  0  0  0  0  0  0
  149.8998  139.4020  153.3239 H   0  0  0  0  0  0  0  0  0  0  0  0
  149.4073  138.5325  154.7669 H   0  0  0  0  0  0  0  0  0  0  0  0
  1  2  2  0  0  0  0
  2  3  1  0  0  0  0
  2 10  1  0  0  0  0
  3  4  1  0  0  0  0
  3 16  1  0  0  0  0
  4  9  1  0  0  0  0
  4  5  2  0  0  0  0
  5  6  1  0  0  0  0
  5 17  1  0  0  0  0
  6  7  2  0  0  0  0
  6 18  1  0  0  0  0
  7  8  1  0  0  0  0
  8  9  2  0  0  0  0
  8 19  1  0  0  0  0
  9 20  1  0  0  0  0
 10 15  1  0  0  0  0
 10 11  2  0  0  0  0
 11 12  1  0  0  0  0
 11 21  1  0  0  0  0
 12 13  1  0  0  0  0
 13 14  1  0  0  0  0
 13 22  1  0  0  0  0
 13 23  1  0  0  0  0
 14 15  1  0  0  0  0
 14 24  1  0  0  0  0
 14 25  1  0  0  0  0
M  END
> <s_m_source_file>
AV-unprocessed.smi

> <i_m_source_file_index>
1847

> <i_lp_mmshare_version>
43012

> <i_f3d_flags>
0

> <s_epik_input>
TzFbQ0gyXVtDSDJdT1tDSF09QzFDKD1PKVtOSF1jMltjSF1bY0hdbltjSF1bY0hdMg==

> <s_epik_cmdline>
J2VwaWtfcHl0aG9uJywgJy1waCcsICc3LjAnLCAnLXRuJywgJzgnLCAnLW1hJywgJzIwMCcsICctbWV0YWxfYmluZGluZycsICctaW1hZScsICc8aW5maWxlLm1hZT4nLCAnLW9tYWUnLCAnPG91dGZpbGUubWFlPic=

> <r_epik_Ionization_Penalty>
0.039624

> <r_epik_Ionization_Penalty_Charging>
0

> <r_epik_Ionization_Penalty_Neutral>
0.039624

> <r_epik_State_Penalty>
0.0332371

> <r_epik_Charging_Adjusted_Penalty>
0.0332371

> <i_epik_Tot_Q>
0

> <i_epik_Tot_abs_Q>
0

> <r_epik_Metal_State_Penalty>
0.0856011

> <b_epik_Metal_Only>
0

> <s_lp_Force_Field>
OPLS_2005

> <r_lp_Energy>
7.75987

> <b_lp_Chiralities_Consistent>
1

> <s_lp_Variant>
AV-unprocessed.smi:1847-1

> <Gold.Version>
5.8.1

> <Gold.Id.Protein>
6NUR|6NUR_protein|mol2

> <Gold.PLP.Fitness>
37.2653

> <Gold.PLP.PLP>
-26.3658

> <Gold.PLP.part.hbond>
-3.0000

> <Gold.PLP.part.metal>
0.0000

> <Gold.PLP.part.buried>
0.0461

> <Gold.PLP.part.nonpolar>
-23.1874

> <Gold.PLP.part.repulsive>
0.2890

> <Gold.PLP.ligand.clash>
0.0000

> <Gold.PLP.ligand.torsion>
0.0893

> <Gold.PLP.Chemscore.Hbond>
2.6920

> <Gold.PLP.Chemscore.CHOScore>
1.0000

> <Gold.PLP.Chemscore.Metal>
0.0000

> <Gold.Chemscore.Hbonds>
donor molecule, donor type, donor heavy atom, donor atom, acceptor molecule, acceptor atom, score
      P1  H  7989  7998       L1    15  0.65
      P1  H  7997  8008       L1     1  0.99
      P1  H 10752 10765       L1    12  0.98
      L1  C     6    18       P1  8029  1.00

> <Gold.PLP.Chemscore.Internal.Correction>
0.0020

> <Gold.Rescore>
     Score         DG    S(hbond)    S(metal)    S(lipo)     H(rot)  DE(clash)    DE(int)     intcor
     18.88     -20.42       1.62        0.00      81.56       0.00       0.23       1.31       ----

> <Gold.Chemscore.Fitness>
18.8770

> <Gold.Chemscore.DG>
-20.4182

> <Gold.Chemscore.ZeroCoef>
-5.4800

> <Gold.Chemscore.Hbond>
1.6156

> <Gold.Chemscore.Metal>
0.0000

> <Gold.Chemscore.Lipo>
81.5561

> <Gold.Chemscore.Internal_Hbond>
0.0000

> <Gold.Chemscore.DEClash>
0.2274

> <Gold.Chemscore.DEInternal>
1.3138

> <Gold.Chemscore.Rot>
0.0000

> <Gold.Chemscore.Internal.Correction>
   9.000000E+99

> <Gold.Chemscore.Hbonds>
donor molecule, donor type, donor heavy atom, donor atom, acceptor molecule, acceptor atom, score
      P1  H  7989  7998       L1    15  0.06
      P1  H  7997  8008       L1     1  0.57
      P1  H 10752 10765       L1    12  0.57

> <Gold.Chemscore.Hbond.Weighted>
-5.3962

> <Gold.Chemscore.Metal.Weighted>
-0.0000

> <Gold.Chemscore.Lipo.Weighted>
-9.5421

> <Gold.Chemscore.Internal_Hbond.Weighted>
0.0000

> <Gold.Chemscore.DEClash.Weighted>
0.2274

> <Gold.Chemscore.DEInternal.Weighted>
1.3138

> <Gold.Chemscore.Rot.Weighted>
0.0000

> <Gold.Chemscore.Internal.Correction.Weighted>
   9.000000E+99

> <Gold.Protein.RotatedTorsions>
[ 6907 6896 6895 6894 ] final  170.10 input  -60.11 | X-H torsion
[ 7974 7965 7964 7962 ] final   -9.69 input  175.53 | X-H torsion
[ 8008 7997 7996 7995 ] final  -89.42 input   59.86 | X-H torsion
[ 10167 10162 10161 10158 ] final  -82.83 input  -65.29 | X-H torsion
[ 10718 10713 10712 10709 ] final  -36.25 input   66.30 | X-H torsion
[ 10763 10752 10751 10750 ] final  175.38 input  -60.55 | X-H torsion
[ 11005 11000 10999 10996 ] final    7.39 input  -57.11 | X-H torsion

> <Gold.Protein.ActiveResidues>
 VAL166  LYS551  ARG553  GLY616  TRP617  ASP618  TYR619  PRO620  LYS621  CYS622 
 ASP623  PHE694  ASN695  SER759  ASP760  ASP761  ALA762  ILE779  LEU786  VAL792 
 PHE793  MET794  SER795  GLU796  ALA797  LYS798  CYS799  TRP800  GLU811  SER814 

> <Gold.Protein.RotatedAtoms>
  151.8214  133.3395  159.3584 H   0  0  0  0  0  0  0  0  0  0  0  0  # atno 6907 bound_to 6896
  150.7293  134.5570  159.5832 H   0  0  0  0  0  0  0  0  0  0  0  0  # atno 6908 bound_to 6896
  152.3003  134.7619  160.0410 H   0  0  0  0  0  0  0  0  0  0  0  0  # atno 6909 bound_to 6896
  146.2244  140.2654  142.8354 H   0  0  0  0  0  0  0  0  0  0  0  0  # atno 7974 bound_to 7965
  154.6864  140.0542  157.0319 H   0  0  0  0  0  0  0  0  0  0  0  0  # atno 8008 bound_to 7997
  155.0879  140.3216  155.4563 H   0  0  0  0  0  0  0  0  0  0  0  0  # atno 8009 bound_to 7997
  156.2713  140.2053  156.6006 H   0  0  0  0  0  0  0  0  0  0  0  0  # atno 8010 bound_to 7997
  140.4284  143.2558  151.8794 H   0  0  0  0  0  0  0  0  0  0  0  0  # atno 10167 bound_to 10162
  156.3291  130.4276  149.7889 H   0  0  0  0  0  0  0  0  0  0  0  0  # atno 10718 bound_to 10713
  154.4668  135.2769  155.1672 H   0  0  0  0  0  0  0  0  0  0  0  0  # atno 10763 bound_to 10752
  154.3438  135.6164  153.5613 H   0  0  0  0  0  0  0  0  0  0  0  0  # atno 10764 bound_to 10752
  152.9860  135.5795  154.5041 H   0  0  0  0  0  0  0  0  0  0  0  0  # atno 10765 bound_to 10752
  140.5488  134.0303  155.7929 H   0  0  0  0  0  0  0  0  0  0  0  0  # atno 11005 bound_to 11000
  144.9308  140.7973  143.5690 LP  0  0  0  0  0  0  0  0  0  0  0  0  # atno 17320 bound_to 7965
  145.2597  139.1997  143.4898 LP  0  0  0  0  0  0  0  0  0  0  0  0  # atno 17321 bound_to 7965
  139.4784  144.5362  151.8595 LP  0  0  0  0  0  0  0  0  0  0  0  0  # atno 17342 bound_to 10162
  140.4455  144.1927  150.5894 LP  0  0  0  0  0  0  0  0  0  0  0  0  # atno 17343 bound_to 10162
  156.5168  130.8197  151.3189 LP  0  0  0  0  0  0  0  0  0  0  0  0  # atno 17370 bound_to 10713
  157.7427  130.9896  150.2535 LP  0  0  0  0  0  0  0  0  0  0  0  0  # atno 17371 bound_to 10713
  141.1184  133.9502  157.2778 LP  0  0  0  0  0  0  0  0  0  0  0  0  # atno 17394 bound_to 11000
  139.9466  135.0183  156.8870 LP  0  0  0  0  0  0  0  0  0  0  0  0  # atno 17395 bound_to 11000

$$$$
