AV-unprocessed.smi:475|AV-procd|sdf|2668|dock8
  -GOLD-   2262023 83D 1   1.00000     0.00000
 Structure written by MMmdl.
 40 42  0  0  0  0  0  0  0  0  2 V2000
  153.0934  137.9663  160.0469 C   0  0  0  0  0  0  0  0  0  0  0  0
  152.0584  137.8927  159.0827 O   0  0  0  0  0  0  0  0  0  0  0  0
  151.3942  139.1325  158.9013 C   0  0  0  0  0  0  0  0  0  0  0  0
  152.3036  140.1067  158.1388 C   0  0  0  0  0  0  0  0  0  0  0  0
  151.7263  141.4563  158.0525 N   0  0  0  0  0  0  0  0  0  0  0  0
  150.9325  142.0123  157.0956 C   0  0  0  0  0  0  0  0  0  0  0  0
  150.3607  141.2196  155.6280 S   0  0  0  0  0  0  0  0  0  0  0  0
  148.5460  141.2446  155.7375 C   0  0  0  0  0  0  0  0  0  0  0  0
  147.8757  141.7162  154.4428 C   0  0  0  0  0  0  0  0  0  0  0  0
  148.3366  141.4110  153.3422 O   0  0  0  0  0  0  0  0  0  0  0  0
  146.6797  142.5417  154.5770 C   0  0  0  0  0  0  0  0  0  0  0  0
  145.9113  143.2125  153.6636 C   0  0  0  0  0  0  0  0  0  0  0  0
  144.8552  143.8585  154.3738 C   0  0  0  0  0  0  0  0  0  0  0  0
  145.0016  143.5687  155.7027 C   0  0  0  0  0  0  0  0  0  0  0  0
  146.1165  142.7661  155.8167 N   0  0  0  0  0  0  0  0  0  0  0  0
  150.6591  143.2910  157.4758 N   0  3  0  0  0  0  0  0  0  0  0  0
  151.2831  143.5574  158.6957 C   0  0  0  0  0  0  0  0  0  0  0  0
  151.2979  144.7082  159.4779 C   0  0  0  0  0  0  0  0  0  0  0  0
  152.0338  144.6472  160.6795 C   0  0  0  0  0  0  0  0  0  0  0  0
  152.7161  143.4747  161.0641 C   0  0  0  0  0  0  0  0  0  0  0  0
  152.6953  142.3145  160.2624 C   0  0  0  0  0  0  0  0  0  0  0  0
  151.9682  142.3830  159.0740 C   0  0  0  0  0  0  0  0  0  0  0  0
  146.4737  142.3924  156.6849 H   0  0  0  0  0  0  0  0  0  0  0  0
  153.5685  136.9906  160.1489 H   0  0  0  0  0  0  0  0  0  0  0  0
  152.7029  138.2545  161.0237 H   0  0  0  0  0  0  0  0  0  0  0  0
  153.8590  138.6840  159.7496 H   0  0  0  0  0  0  0  0  0  0  0  0
  150.4681  138.9818  158.3448 H   0  0  0  0  0  0  0  0  0  0  0  0
  151.1269  139.5569  159.8705 H   0  0  0  0  0  0  0  0  0  0  0  0
  153.2899  140.1646  158.5991 H   0  0  0  0  0  0  0  0  0  0  0  0
  152.4627  139.7487  157.1211 H   0  0  0  0  0  0  0  0  0  0  0  0
  148.1902  140.2435  155.9820 H   0  0  0  0  0  0  0  0  0  0  0  0
  148.2486  141.9070  156.5506 H   0  0  0  0  0  0  0  0  0  0  0  0
  146.0849  143.2398  152.5979 H   0  0  0  0  0  0  0  0  0  0  0  0
  144.0707  144.4712  153.9546 H   0  0  0  0  0  0  0  0  0  0  0  0
  144.4241  143.8544  156.5695 H   0  0  0  0  0  0  0  0  0  0  0  0
  150.7738  145.6068  159.1871 H   0  0  0  0  0  0  0  0  0  0  0  0
  152.0737  145.5162  161.3204 H   0  0  0  0  0  0  0  0  0  0  0  0
  153.2667  143.4638  161.9938 H   0  0  0  0  0  0  0  0  0  0  0  0
  153.2173  141.4206  160.5699 H   0  0  0  0  0  0  0  0  0  0  0  0
  150.0870  143.9312  156.9407 H   0  0  0  0  0  0  0  0  0  0  0  0
  1  2  1  0  0  0  0
  1 24  1  0  0  0  0
  1 25  1  0  0  0  0
  1 26  1  0  0  0  0
  2  3  1  0  0  0  0
  3  4  1  0  0  0  0
  3 27  1  0  0  0  0
  3 28  1  0  0  0  0
  4  5  1  0  0  0  0
  4 29  1  0  0  0  0
  4 30  1  0  0  0  0
  5 22  1  0  0  0  0
  5  6  1  0  0  0  0
  6  7  1  0  0  0  0
  6 16  2  0  0  0  0
  7  8  1  0  0  0  0
  8  9  1  0  0  0  0
  8 31  1  0  0  0  0
  8 32  1  0  0  0  0
  9 10  2  0  0  0  0
  9 11  1  0  0  0  0
 11 15  1  0  0  0  0
 11 12  2  0  0  0  0
 12 13  1  0  0  0  0
 12 33  1  0  0  0  0
 13 14  2  0  0  0  0
 13 34  1  0  0  0  0
 14 15  1  0  0  0  0
 14 35  1  0  0  0  0
 15 23  1  0  0  0  0
 16 17  1  0  0  0  0
 16 40  1  0  0  0  0
 17 22  2  0  0  0  0
 17 18  1  0  0  0  0
 18 19  2  0  0  0  0
 18 36  1  0  0  0  0
 19 20  1  0  0  0  0
 19 37  1  0  0  0  0
 20 21  2  0  0  0  0
 20 38  1  0  0  0  0
 21 22  1  0  0  0  0
 21 39  1  0  0  0  0
M  CHG  1  16   1
M  END
> <s_m_source_file>
AV-unprocessed.smi

> <i_m_source_file_index>
475

> <i_lp_mmshare_version>
43012

> <i_f3d_flags>
0

> <s_epik_input>
W2NIXTFbY0hdW2NIXVtjSF1jKGMxMiluKFtDSDJdW0NIMl1PW0NIM10pYyhuMilTW0NIMl1DKD1PKWMzW2NIXVtjSF1bY0hdW25IXTM=

> <s_epik_cmdline>
J2VwaWtfcHl0aG9uJywgJy1waCcsICc3LjAnLCAnLXRuJywgJzgnLCAnLW1hJywgJzIwMCcsICctbWV0YWxfYmluZGluZycsICctaW1hZScsICc8aW5maWxlLm1hZT4nLCAnLW9tYWUnLCAnPG91dGZpbGUubWFlPic=

> <r_lp_tautomer_probability>
0.9999

> <r_epik_Ionization_Penalty>
2.12955

> <r_epik_Ionization_Penalty_Charging>
2.12955

> <r_epik_Ionization_Penalty_Neutral>
1.90655e-06

> <r_epik_State_Penalty>
2.26782

> <r_epik_Charging_Adjusted_Penalty>
4.39737

> <i_epik_Tot_Q>
1

> <i_epik_Tot_abs_Q>
1

> <r_epik_Metal_State_Penalty>
2.28582

> <b_epik_Metal_Only>
0

> <s_lp_Force_Field>
OPLS_2005

> <r_lp_Energy>
16.0961

> <b_lp_Chiralities_Consistent>
1

> <s_lp_Variant>
AV-unprocessed.smi:475-2

> <Gold.Version>
5.8.1

> <Gold.Id.Protein>
6NUR|6NUR_protein|mol2

> <Gold.PLP.Fitness>
54.5882

> <Gold.PLP.PLP>
-48.3632

> <Gold.PLP.part.hbond>
-2.0000

> <Gold.PLP.part.metal>
0.0000

> <Gold.PLP.part.buried>
-6.6216

> <Gold.PLP.part.nonpolar>
-41.1367

> <Gold.PLP.part.repulsive>
1.8499

> <Gold.PLP.ligand.clash>
0.0000

> <Gold.PLP.ligand.torsion>
1.1020

> <Gold.PLP.Chemscore.Hbond>
2.7680

> <Gold.PLP.Chemscore.CHOScore>
0.0000

> <Gold.PLP.Chemscore.Metal>
0.0000

> <Gold.Chemscore.Hbonds>
donor molecule, donor type, donor heavy atom, donor atom, acceptor molecule, acceptor atom, score
      L1  H    16    40       P1  8028  2.00
      P1  H  8011  8017       L1    10  0.77

> <Gold.PLP.Chemscore.Internal.Correction>
0.1249

> <Gold.Rescore>
     Score         DG    S(hbond)    S(metal)    S(lipo)     H(rot)  DE(clash)    DE(int)     intcor
     17.60     -19.02       1.65        0.00     114.68       2.10       0.33       1.09       ----

> <Gold.Chemscore.Fitness>
17.5989

> <Gold.Chemscore.DG>
-19.0247

> <Gold.Chemscore.ZeroCoef>
-5.4800

> <Gold.Chemscore.Hbond>
1.6512

> <Gold.Chemscore.Metal>
0.0000

> <Gold.Chemscore.Lipo>
114.6789

> <Gold.Chemscore.Internal_Hbond>
0.0000

> <Gold.Chemscore.DEClash>
0.3333

> <Gold.Chemscore.DEInternal>
1.0924

> <Gold.Chemscore.Rot>
2.1046

> <Gold.Chemscore.Internal.Correction>
   9.000000E+99

> <Gold.Chemscore.Hbonds>
donor molecule, donor type, donor heavy atom, donor atom, acceptor molecule, acceptor atom, score
      L1  H    16    40       P1  8028  0.97
      P1  H  8011  8017       L1    10  0.71

> <Gold.Chemscore.Hbond.Weighted>
-5.5150

> <Gold.Chemscore.Metal.Weighted>
-0.0000

> <Gold.Chemscore.Lipo.Weighted>
-13.4174

> <Gold.Chemscore.Internal_Hbond.Weighted>
0.0000

> <Gold.Chemscore.DEClash.Weighted>
0.3333

> <Gold.Chemscore.DEInternal.Weighted>
1.0924

> <Gold.Chemscore.Rot.Weighted>
5.3878

> <Gold.Chemscore.Internal.Correction.Weighted>
   9.000000E+99

> <Gold.Protein.RotatedTorsions>
[ 6907 6896 6895 6894 ] final   76.60 input  -60.11 | X-H torsion
[ 7974 7965 7964 7962 ] final  164.74 input  175.53 | X-H torsion
[ 8008 7997 7996 7995 ] final -138.10 input   59.86 | X-H torsion
[ 10167 10162 10161 10158 ] final   73.84 input  -65.29 | X-H torsion
[ 10718 10713 10712 10709 ] final   23.79 input   66.30 | X-H torsion
[ 10763 10752 10751 10750 ] final  -27.21 input  -60.55 | X-H torsion
[ 11005 11000 10999 10996 ] final -144.12 input  -57.11 | X-H torsion

> <Gold.Protein.ActiveResidues>
 VAL166  LYS551  ARG553  GLY616  TRP617  ASP618  TYR619  PRO620  LYS621  CYS622 
 ASP623  PHE694  ASN695  SER759  ASP760  ASP761  ALA762  ILE779  LEU786  VAL792 
 PHE793  MET794  SER795  GLU796  ALA797  LYS798  CYS799  TRP800  GLU811  SER814 

> <Gold.Protein.RotatedAtoms>
  152.5080  134.3943  159.9394 H   0  0  0  0  0  0  0  0  0  0  0  0  # atno 6907 bound_to 6896
  151.3905  133.3784  159.2728 H   0  0  0  0  0  0  0  0  0  0  0  0  # atno 6908 bound_to 6896
  150.9436  134.8864  159.7687 H   0  0  0  0  0  0  0  0  0  0  0  0  # atno 6909 bound_to 6896
  144.7532  139.8370  143.6359 H   0  0  0  0  0  0  0  0  0  0  0  0  # atno 7974 bound_to 7965
  155.4228  140.0519  157.3024 H   0  0  0  0  0  0  0  0  0  0  0  0  # atno 8008 bound_to 7997
  154.4895  140.2114  155.9539 H   0  0  0  0  0  0  0  0  0  0  0  0  # atno 8009 bound_to 7997
  156.1322  140.3169  155.8371 H   0  0  0  0  0  0  0  0  0  0  0  0  # atno 8010 bound_to 7997
  140.0202  144.5546  150.7588 H   0  0  0  0  0  0  0  0  0  0  0  0  # atno 10167 bound_to 10162
  157.1710  130.6759  149.6078 H   0  0  0  0  0  0  0  0  0  0  0  0  # atno 10718 bound_to 10713
  153.7284  135.6940  153.4995 H   0  0  0  0  0  0  0  0  0  0  0  0  # atno 10763 bound_to 10752
  153.2154  135.4388  155.0426 H   0  0  0  0  0  0  0  0  0  0  0  0  # atno 10764 bound_to 10752
  154.8261  135.3447  154.6815 H   0  0  0  0  0  0  0  0  0  0  0  0  # atno 10765 bound_to 10752
  140.8057  134.2804  157.4961 H   0  0  0  0  0  0  0  0  0  0  0  0  # atno 11005 bound_to 11000
  146.1509  139.4592  143.0049 LP  0  0  0  0  0  0  0  0  0  0  0  0  # atno 17320 bound_to 7965
  145.6871  141.0175  143.1575 LP  0  0  0  0  0  0  0  0  0  0  0  0  # atno 17321 bound_to 7965
  140.7346  143.2730  151.3828 LP  0  0  0  0  0  0  0  0  0  0  0  0  # atno 17342 bound_to 10162
  139.6145  144.1031  152.2332 LP  0  0  0  0  0  0  0  0  0  0  0  0  # atno 17343 bound_to 10162
  155.9738  130.4679  150.6341 LP  0  0  0  0  0  0  0  0  0  0  0  0  # atno 17370 bound_to 10713
  157.4043  131.0814  151.1279 LP  0  0  0  0  0  0  0  0  0  0  0  0  # atno 17371 bound_to 10713
  139.8718  134.9454  156.3910 LP  0  0  0  0  0  0  0  0  0  0  0  0  # atno 17394 bound_to 11000
  140.9249  133.7619  155.9953 LP  0  0  0  0  0  0  0  0  0  0  0  0  # atno 17395 bound_to 11000

$$$$
