AV-unprocessed.smi:1965|AV-procd|sdf|7944|dock6
  -GOLD-   2272010113D 1   1.00000     0.00000
 Structure written by MMmdl.
 36 38  0  0  0  0  0  0  0  0  3 V2000
  150.3380  133.7592  156.1097 O   0  0  0  0  0  0  0  0  0  0  0  0
  150.3519  134.7322  155.3574 C   0  0  0  0  0  0  0  0  0  0  0  0
  151.2579  135.7404  155.4485 N   0  5  0  0  0  0  0  0  0  0  0  0
  150.9678  137.0066  155.0950 C   0  0  0  0  0  0  0  0  0  0  0  0
  149.7160  137.4628  154.9701 N   0  0  0  0  0  0  0  0  0  0  0  0
  149.6491  138.8085  154.6045 C   0  0  0  0  0  0  0  0  0  0  0  0
  150.8789  139.3907  154.4474 C   0  0  0  0  0  0  0  0  0  0  0  0
  152.1652  138.2577  154.7498 S   0  0  0  0  0  0  0  0  0  0  0  0
  149.4263  134.8154  154.3843 N   0  0  0  0  0  0  0  0  0  0  0  0
  148.3589  133.8585  154.1144 C   0  0  2  0  0  0  0  0  0  0  0  0
  148.6184  132.9772  152.8732 C   0  0  0  0  0  0  0  0  0  0  0  0
  147.3050  133.0050  152.0849 C   0  0  0  0  0  0  0  0  0  0  0  0
  146.7514  134.3264  152.4043 N   0  3  1  0  0  0  0  0  0  0  0  0
  145.3513  134.6083  152.0260 C   0  0  0  0  0  0  0  0  0  0  0  0
  145.0473  136.0924  152.3240 C   0  0  0  0  0  0  0  0  0  0  0  0
  145.4005  136.4809  153.7775 C   0  0  0  0  0  0  0  0  0  0  0  0
  146.8377  136.0562  154.1449 C   0  0  0  0  0  0  0  0  0  0  0  0
  147.0121  134.5575  153.8349 C   0  0  2  0  0  0  0  0  0  0  0  0
  148.6820  139.2718  154.4771 H   0  0  0  0  0  0  0  0  0  0  0  0
  151.1062  140.4088  154.1694 H   0  0  0  0  0  0  0  0  0  0  0  0
  149.4694  135.6259  153.7839 H   0  0  0  0  0  0  0  0  0  0  0  0
  148.2391  133.2251  154.9954 H   0  0  0  0  0  0  0  0  0  0  0  0
  149.4138  133.4072  152.2620 H   0  0  0  0  0  0  0  0  0  0  0  0
  148.9216  131.9636  153.1373 H   0  0  0  0  0  0  0  0  0  0  0  0
  147.4543  132.8724  151.0129 H   0  0  0  0  0  0  0  0  0  0  0  0
  146.6285  132.2261  152.4406 H   0  0  0  0  0  0  0  0  0  0  0  0
  145.2081  134.4006  150.9650 H   0  0  0  0  0  0  0  0  0  0  0  0
  144.6747  133.9548  152.5788 H   0  0  0  0  0  0  0  0  0  0  0  0
  145.6218  136.7185  151.6400 H   0  0  0  0  0  0  0  0  0  0  0  0
  143.9968  136.3062  152.1248 H   0  0  0  0  0  0  0  0  0  0  0  0
  145.2797  137.5552  153.9189 H   0  0  0  0  0  0  0  0  0  0  0  0
  144.6971  136.0002  154.4588 H   0  0  0  0  0  0  0  0  0  0  0  0
  147.5549  136.6511  153.5769 H   0  0  0  0  0  0  0  0  0  0  0  0
  147.0286  136.2525  155.2006 H   0  0  0  0  0  0  0  0  0  0  0  0
  146.2553  134.0062  154.3978 H   0  0  0  0  0  0  0  0  0  0  0  0
  147.3280  134.9892  151.9061 H   0  0  0  0  0  0  0  0  0  0  0  0
  1  2  2  0  0  0  0
  2  3  1  0  0  0  0
  2  9  1  0  0  0  0
  3  4  1  0  0  0  0
  4  8  1  0  0  0  0
  4  5  2  0  0  0  0
  5  6  1  0  0  0  0
  6  7  2  0  0  0  0
  6 19  1  0  0  0  0
  7  8  1  0  0  0  0
  7 20  1  0  0  0  0
  9 10  1  0  0  0  0
  9 21  1  0  0  0  0
 10 18  1  0  0  0  0
 10 11  1  0  0  0  0
 10 22  1  0  0  0  0
 11 12  1  0  0  0  0
 11 23  1  0  0  0  0
 11 24  1  0  0  0  0
 12 13  1  0  0  0  0
 12 25  1  0  0  0  0
 12 26  1  0  0  0  0
 13 18  1  0  0  0  0
 13 14  1  0  0  0  0
 13 36  1  0  0  0  0
 14 15  1  0  0  0  0
 14 27  1  0  0  0  0
 14 28  1  0  0  0  0
 15 16  1  0  0  0  0
 15 29  1  0  0  0  0
 15 30  1  0  0  0  0
 16 17  1  0  0  0  0
 16 31  1  0  0  0  0
 16 32  1  0  0  0  0
 17 18  1  0  0  0  0
 17 33  1  0  0  0  0
 17 34  1  0  0  0  0
 18 35  1  0  0  0  0
M  CHG  1   3  -1
M  CHG  1  13   1
M  END
> <s_m_source_file>
AV-unprocessed.smi

> <i_m_source_file_index>
1965

> <i_lp_mmshare_version>
43012

> <i_f3d_flags>
0

> <s_epik_input>
czFbY0hdW2NIXW5jMVtOSF1DKD1PKVtOSF1bQ0BIXShbQ0gyXVtDSDJdMilbQ0BASF0oTjIzKVtDSDJdW0NIMl1bQ0gyXVtDSDJdMw==

> <s_epik_cmdline>
J2VwaWtfcHl0aG9uJywgJy1waCcsICc3LjAnLCAnLXRuJywgJzgnLCAnLW1hJywgJzIwMCcsICctbWV0YWxfYmluZGluZycsICctaW1hZScsICc8aW5maWxlLm1hZT4nLCAnLW9tYWUnLCAnPG91dGZpbGUubWFlPic=

> <r_lp_tautomer_probability>
1

> <r_epik_Ionization_Penalty>
7.4116

> <r_epik_Ionization_Penalty_Charging>
6.13869

> <r_epik_Ionization_Penalty_Neutral>
1.27291

> <r_epik_State_Penalty>
6.13761

> <r_epik_Charging_Adjusted_Penalty>
12.2763

> <i_epik_Tot_Q>
0

> <i_epik_Tot_abs_Q>
2

> <r_epik_Metal_State_Penalty>
2.08142

> <b_epik_Metal_Only>
1

> <s_lp_Force_Field>
OPLS_2005

> <r_lp_Energy>
32.5811

> <b_lp_Chiralities_Consistent>
1

> <s_lp_Variant>
AV-unprocessed.smi:1965-13

> <Gold.Version>
5.8.1

> <Gold.Id.Protein>
6NUR|6NUR_protein|mol2

> <Gold.PLP.Fitness>
39.9525

> <Gold.PLP.PLP>
-26.4425

> <Gold.PLP.part.hbond>
-3.0000

> <Gold.PLP.part.metal>
0.0000

> <Gold.PLP.part.buried>
-0.3498

> <Gold.PLP.part.nonpolar>
-22.6604

> <Gold.PLP.part.repulsive>
0.2875

> <Gold.PLP.ligand.clash>
0.0000

> <Gold.PLP.ligand.torsion>
0.4647

> <Gold.PLP.Chemscore.Hbond>
4.8089

> <Gold.PLP.Chemscore.CHOScore>
0.0000

> <Gold.PLP.Chemscore.Metal>
0.0000

> <Gold.Chemscore.Hbonds>
donor molecule, donor type, donor heavy atom, donor atom, acceptor molecule, acceptor atom, score
      L1  H     9    21       P1  7948  0.77
      L1  H    13    36       P1  7948  2.00
      P1  H 10752 10764       L1     3  2.00

> <Gold.PLP.Chemscore.Internal.Correction>
0.0128

> <Gold.Rescore>
     Score         DG    S(hbond)    S(metal)    S(lipo)     H(rot)  DE(clash)    DE(int)     intcor
     14.98     -15.58       1.95        0.00      52.62       1.00       0.04       0.56       ----

> <Gold.Chemscore.Fitness>
14.9751

> <Gold.Chemscore.DG>
-15.5766

> <Gold.Chemscore.ZeroCoef>
-5.4800

> <Gold.Chemscore.Hbond>
1.9460

> <Gold.Chemscore.Metal>
0.0000

> <Gold.Chemscore.Lipo>
52.6221

> <Gold.Chemscore.Internal_Hbond>
0.0000

> <Gold.Chemscore.DEClash>
0.0434

> <Gold.Chemscore.DEInternal>
0.5581

> <Gold.Chemscore.Rot>
1.0000

> <Gold.Chemscore.Internal.Correction>
   9.000000E+99

> <Gold.Chemscore.Hbonds>
donor molecule, donor type, donor heavy atom, donor atom, acceptor molecule, acceptor atom, score
      L1  H     9    21       P1  7948  0.25
      L1  H    13    36       P1  7948  0.85
      P1  H 10752 10764       L1     3  0.34

> <Gold.Chemscore.Hbond.Weighted>
-6.4998

> <Gold.Chemscore.Metal.Weighted>
-0.0000

> <Gold.Chemscore.Lipo.Weighted>
-6.1568

> <Gold.Chemscore.Internal_Hbond.Weighted>
0.0000

> <Gold.Chemscore.DEClash.Weighted>
0.0434

> <Gold.Chemscore.DEInternal.Weighted>
0.5581

> <Gold.Chemscore.Rot.Weighted>
2.5600

> <Gold.Chemscore.Internal.Correction.Weighted>
   9.000000E+99

> <Gold.Protein.RotatedTorsions>
[ 6907 6896 6895 6894 ] final -121.18 input  -60.11 | X-H torsion
[ 7974 7965 7964 7962 ] final -126.34 input  175.53 | X-H torsion
[ 8008 7997 7996 7995 ] final  -89.79 input   59.86 | X-H torsion
[ 10167 10162 10161 10158 ] final   72.46 input  -65.29 | X-H torsion
[ 10718 10713 10712 10709 ] final   71.22 input   66.30 | X-H torsion
[ 10763 10752 10751 10750 ] final  -48.87 input  -60.55 | X-H torsion
[ 11005 11000 10999 10996 ] final -107.43 input  -57.11 | X-H torsion

> <Gold.Protein.ActiveResidues>
 VAL166  LYS551  ARG553  GLY616  TRP617  ASP618  TYR619  PRO620  LYS621  CYS622 
 ASP623  PHE694  ASN695  SER759  ASP760  ASP761  ALA762  ILE779  LEU786  VAL792 
 PHE793  MET794  SER795  GLU796  ALA797  LYS798  CYS799  TRP800  GLU811  SER814 

> <Gold.Protein.RotatedAtoms>
  150.8460  133.7861  159.3042 H   0  0  0  0  0  0  0  0  0  0  0  0  # atno 6907 bound_to 6896
  151.5548  135.1065  159.9968 H   0  0  0  0  0  0  0  0  0  0  0  0  # atno 6908 bound_to 6896
  152.4513  133.7593  159.6793 H   0  0  0  0  0  0  0  0  0  0  0  0  # atno 6909 bound_to 6896
  144.9883  140.7707  143.4570 H   0  0  0  0  0  0  0  0  0  0  0  0  # atno 7974 bound_to 7965
  154.6907  140.0538  157.0361 H   0  0  0  0  0  0  0  0  0  0  0  0  # atno 8008 bound_to 7997
  155.0820  140.3210  155.4580 H   0  0  0  0  0  0  0  0  0  0  0  0  # atno 8009 bound_to 7997
  156.2727  140.2063  156.5948 H   0  0  0  0  0  0  0  0  0  0  0  0  # atno 8010 bound_to 7997
  140.0351  144.5435  150.7477 H   0  0  0  0  0  0  0  0  0  0  0  0  # atno 10167 bound_to 10162
  157.6440  130.9517  150.0758 H   0  0  0  0  0  0  0  0  0  0  0  0  # atno 10718 bound_to 10713
  154.0848  135.6586  153.4843 H   0  0  0  0  0  0  0  0  0  0  0  0  # atno 10763 bound_to 10752
  153.0343  135.5188  154.7438 H   0  0  0  0  0  0  0  0  0  0  0  0  # atno 10764 bound_to 10752
  154.6544  135.3006  154.9914 H   0  0  0  0  0  0  0  0  0  0  0  0  # atno 10765 bound_to 10752
  141.0954  133.8980  157.1974 H   0  0  0  0  0  0  0  0  0  0  0  0  # atno 11005 bound_to 11000
  145.2322  139.2110  143.5037 LP  0  0  0  0  0  0  0  0  0  0  0  0  # atno 17320 bound_to 7965
  146.3425  140.2201  142.8591 LP  0  0  0  0  0  0  0  0  0  0  0  0  # atno 17321 bound_to 7965
  140.7285  143.2662  151.4036 LP  0  0  0  0  0  0  0  0  0  0  0  0  # atno 17342 bound_to 10162
  139.6050  144.1215  152.2240 LP  0  0  0  0  0  0  0  0  0  0  0  0  # atno 17343 bound_to 10162
  156.1749  130.3648  149.9114 LP  0  0  0  0  0  0  0  0  0  0  0  0  # atno 17370 bound_to 10713
  156.7081  130.8959  151.3606 LP  0  0  0  0  0  0  0  0  0  0  0  0  # atno 17371 bound_to 10713
  139.9790  135.0104  156.9703 LP  0  0  0  0  0  0  0  0  0  0  0  0  # atno 17394 bound_to 11000
  140.5151  134.0963  155.7279 LP  0  0  0  0  0  0  0  0  0  0  0  0  # atno 17395 bound_to 11000

$$$$
