AV-unprocessed.smi:928|AV-procd|sdf|4193|dock10
  -GOLD-   22720 2103D 1   1.00000     0.00000
 Structure written by MMmdl.
 43 44  0  0  0  0  0  0  0  0  1 V2000
  151.8732  142.3231  158.4237 C   0  0  0  0  0  0  0  0  0  0  0  0
  150.3819  142.3305  158.0706 C   0  0  0  0  0  0  0  0  0  0  0  0
  150.0822  141.6508  156.7755 C   0  0  0  0  0  0  0  0  0  0  0  0
  150.9760  141.0856  155.8998 C   0  0  0  0  0  0  0  0  0  0  0  0
  150.3792  140.5130  154.7744 N   0  0  0  0  0  0  0  0  0  0  0  0
  149.0515  140.6500  154.7762 C   0  0  0  0  0  0  0  0  0  0  0  0
  148.1651  140.0951  153.7129 C   0  0  0  0  0  0  0  0  0  0  0  0
  147.1739  139.0584  154.2651 C   0  0  0  0  0  0  0  0  0  0  0  0
  147.2060  137.8190  153.4981 N   0  0  0  0  0  0  0  0  0  0  0  0
  146.2145  136.9189  153.4527 C   0  0  0  0  0  0  0  0  0  0  0  0
  145.1514  137.0312  154.0636 O   0  0  0  0  0  0  0  0  0  0  0  0
  146.5229  135.8813  152.6630 N   0  0  0  0  0  0  0  0  0  0  0  0
  145.6595  134.7310  152.4030 C   0  0  2  0  0  0  0  0  0  0  0  0
  146.3846  133.6499  151.5742 C   0  0  0  0  0  0  0  0  0  0  0  0
  145.4647  132.4469  151.3103 C   0  0  0  0  0  0  0  0  0  0  0  0
  144.1544  132.8786  150.6319 C   0  0  0  0  0  0  0  0  0  0  0  0
  143.4303  133.9688  151.4436 C   0  0  0  0  0  0  0  0  0  0  0  0
  144.3405  135.1785  151.7326 C   0  0  2  0  0  0  0  0  0  0  0  0
  144.5930  135.8626  150.5185 O   0  0  0  0  0  0  0  0  0  0  0  0
  148.4427  141.4819  156.2019 S   0  0  0  0  0  0  0  0  0  0  0  0
  152.0509  142.8332  159.3705 H   0  0  0  0  0  0  0  0  0  0  0  0
  152.4604  142.8297  157.6571 H   0  0  0  0  0  0  0  0  0  0  0  0
  152.2520  141.3050  158.5178 H   0  0  0  0  0  0  0  0  0  0  0  0
  149.8193  141.8471  158.8700 H   0  0  0  0  0  0  0  0  0  0  0  0
  150.0261  143.3604  158.0322 H   0  0  0  0  0  0  0  0  0  0  0  0
  152.0503  141.0402  156.0013 H   0  0  0  0  0  0  0  0  0  0  0  0
  147.6267  140.9201  153.2448 H   0  0  0  0  0  0  0  0  0  0  0  0
  148.7892  139.6496  152.9370 H   0  0  0  0  0  0  0  0  0  0  0  0
  147.3814  138.8535  155.3168 H   0  0  0  0  0  0  0  0  0  0  0  0
  146.1593  139.4552  154.2207 H   0  0  0  0  0  0  0  0  0  0  0  0
  148.0413  137.6364  152.9615 H   0  0  0  0  0  0  0  0  0  0  0  0
  147.4235  135.8839  152.2079 H   0  0  0  0  0  0  0  0  0  0  0  0
  145.3929  134.2897  153.3657 H   0  0  0  0  0  0  0  0  0  0  0  0
  146.7230  134.0681  150.6254 H   0  0  0  0  0  0  0  0  0  0  0  0
  147.2797  133.3113  152.0974 H   0  0  0  0  0  0  0  0  0  0  0  0
  145.9807  131.7143  150.6891 H   0  0  0  0  0  0  0  0  0  0  0  0
  145.2387  131.9480  152.2534 H   0  0  0  0  0  0  0  0  0  0  0  0
  144.3679  133.2475  149.6280 H   0  0  0  0  0  0  0  0  0  0  0  0
  143.5002  132.0154  150.5073 H   0  0  0  0  0  0  0  0  0  0  0  0
  142.5289  134.2892  150.9198 H   0  0  0  0  0  0  0  0  0  0  0  0
  143.0952  133.5416  152.3896 H   0  0  0  0  0  0  0  0  0  0  0  0
  143.8142  135.8694  152.3923 H   0  0  0  0  0  0  0  0  0  0  0  0
  144.2180  136.7274  150.5775 H   0  0  0  0  0  0  0  0  0  0  0  0
  1  2  1  0  0  0  0
  1 21  1  0  0  0  0
  1 22  1  0  0  0  0
  1 23  1  0  0  0  0
  2  3  1  0  0  0  0
  2 24  1  0  0  0  0
  2 25  1  0  0  0  0
  3 20  1  0  0  0  0
  3  4  2  0  0  0  0
  4  5  1  0  0  0  0
  4 26  1  0  0  0  0
  5  6  2  0  0  0  0
  6  7  1  0  0  0  0
  6 20  1  0  0  0  0
  7  8  1  0  0  0  0
  7 27  1  0  0  0  0
  7 28  1  0  0  0  0
  8  9  1  0  0  0  0
  8 29  1  0  0  0  0
  8 30  1  0  0  0  0
  9 10  1  0  0  0  0
  9 31  1  0  0  0  0
 10 11  2  0  0  0  0
 10 12  1  0  0  0  0
 12 13  1  0  0  0  0
 12 32  1  0  0  0  0
 13 18  1  0  0  0  0
 13 14  1  0  0  0  0
 13 33  1  0  0  0  0
 14 15  1  0  0  0  0
 14 34  1  0  0  0  0
 14 35  1  0  0  0  0
 15 16  1  0  0  0  0
 15 36  1  0  0  0  0
 15 37  1  0  0  0  0
 16 17  1  0  0  0  0
 16 38  1  0  0  0  0
 16 39  1  0  0  0  0
 17 18  1  0  0  0  0
 17 40  1  0  0  0  0
 17 41  1  0  0  0  0
 18 19  1  0  0  0  0
 18 42  1  0  0  0  0
 19 43  1  0  0  0  0
M  END
> <s_m_source_file>
AV-unprocessed.smi

> <i_m_source_file_index>
928

> <i_lp_mmshare_version>
43012

> <i_f3d_flags>
0

> <s_epik_input>
W0NIM11bQ0gyXWMxW2NIXW5jKHMxKVtDSDJdW0NIMl1bTkhdQyg9TylbTkhdW0NAQEhdMltDSDJdW0NIMl1bQ0gyXVtDSDJdW0NASF0yW09IXQ==

> <s_epik_cmdline>
J2VwaWtfcHl0aG9uJywgJy1waCcsICc3LjAnLCAnLXRuJywgJzgnLCAnLW1hJywgJzIwMCcsICctbWV0YWxfYmluZGluZycsICctaW1hZScsICc8aW5maWxlLm1hZT4nLCAnLW9tYWUnLCAnPG91dGZpbGUubWFlPic=

> <r_epik_Ionization_Penalty>
0.000957396

> <r_epik_Ionization_Penalty_Charging>
0

> <r_epik_Ionization_Penalty_Neutral>
0.000957396

> <r_epik_State_Penalty>
0.000586538

> <r_epik_Charging_Adjusted_Penalty>
0.000586538

> <i_epik_Tot_Q>
0

> <i_epik_Tot_abs_Q>
0

> <r_epik_Metal_State_Penalty>
-0

> <b_epik_Metal_Only>
0

> <s_lp_Force_Field>
OPLS_2005

> <r_lp_Energy>
-0.721606

> <b_lp_Chiralities_Consistent>
1

> <s_lp_Variant>
AV-unprocessed.smi:928-3

> <Gold.Version>
5.8.1

> <Gold.Id.Protein>
6NUR|6NUR_protein|mol2

> <Gold.PLP.Fitness>
42.0646

> <Gold.PLP.PLP>
-31.4781

> <Gold.PLP.part.hbond>
-4.0000

> <Gold.PLP.part.metal>
0.0000

> <Gold.PLP.part.buried>
-2.9216

> <Gold.PLP.part.nonpolar>
-24.8803

> <Gold.PLP.part.repulsive>
0.2008

> <Gold.PLP.ligand.clash>
0.0000

> <Gold.PLP.ligand.torsion>
0.5396

> <Gold.PLP.Chemscore.Hbond>
3.8800

> <Gold.PLP.Chemscore.CHOScore>
0.0000

> <Gold.PLP.Chemscore.Metal>
0.0000

> <Gold.Chemscore.Hbonds>
donor molecule, donor type, donor heavy atom, donor atom, acceptor molecule, acceptor atom, score
      L1  H     9    31       P1  7948  0.86
      L1  H    12    32       P1  7948  1.00
      L1  H    19    43       P1 10171  1.00
      P1  H  7989  7998       L1     5  0.98

> <Gold.PLP.Chemscore.Internal.Correction>
0.0258

> <Gold.Rescore>
     Score         DG    S(hbond)    S(metal)    S(lipo)     H(rot)  DE(clash)    DE(int)     intcor
     19.46     -21.14       3.46        0.00      83.44       2.21       1.16       0.52       ----

> <Gold.Chemscore.Fitness>
19.4629

> <Gold.Chemscore.DG>
-21.1425

> <Gold.Chemscore.ZeroCoef>
-5.4800

> <Gold.Chemscore.Hbond>
3.4591

> <Gold.Chemscore.Metal>
0.0000

> <Gold.Chemscore.Lipo>
83.4417

> <Gold.Chemscore.Internal_Hbond>
0.0000

> <Gold.Chemscore.DEClash>
1.1642

> <Gold.Chemscore.DEInternal>
0.5154

> <Gold.Chemscore.Rot>
2.2084

> <Gold.Chemscore.Internal.Correction>
   9.000000E+99

> <Gold.Chemscore.Hbonds>
donor molecule, donor type, donor heavy atom, donor atom, acceptor molecule, acceptor atom, score
      L1  H     9    31       P1  7948  0.84
      L1  H    12    32       P1  7948  0.98
      L1  H    19    43       P1 10171  0.89
      P1  H  7989  7998       L1     5  0.28

> <Gold.Chemscore.Hbond.Weighted>
-11.5534

> <Gold.Chemscore.Metal.Weighted>
-0.0000

> <Gold.Chemscore.Lipo.Weighted>
-9.7627

> <Gold.Chemscore.Internal_Hbond.Weighted>
0.0000

> <Gold.Chemscore.DEClash.Weighted>
1.1642

> <Gold.Chemscore.DEInternal.Weighted>
0.5154

> <Gold.Chemscore.Rot.Weighted>
5.6535

> <Gold.Chemscore.Internal.Correction.Weighted>
   9.000000E+99

> <Gold.Protein.RotatedTorsions>
[ 6907 6896 6895 6894 ] final -176.65 input  -60.11 | X-H torsion
[ 7974 7965 7964 7962 ] final -164.75 input  175.53 | X-H torsion
[ 8008 7997 7996 7995 ] final  -24.47 input   59.86 | X-H torsion
[ 10167 10162 10161 10158 ] final  128.92 input  -65.29 | X-H torsion
[ 10718 10713 10712 10709 ] final   71.85 input   66.30 | X-H torsion
[ 10763 10752 10751 10750 ] final  155.20 input  -60.55 | X-H torsion
[ 11005 11000 10999 10996 ] final   48.81 input  -57.11 | X-H torsion

> <Gold.Protein.ActiveResidues>
 VAL166  LYS551  ARG553  GLY616  TRP617  ASP618  TYR619  PRO620  LYS621  CYS622 
 ASP623  PHE694  ASN695  SER759  ASP760  ASP761  ALA762  ILE779  LEU786  VAL792 
 PHE793  MET794  SER795  GLU796  ALA797  LYS798  CYS799  TRP800  GLU811  SER814 

> <Gold.Protein.RotatedAtoms>
  151.6082  133.3350  159.3061 H   0  0  0  0  0  0  0  0  0  0  0  0  # atno 6907 bound_to 6896
  150.8171  134.7362  159.6751 H   0  0  0  0  0  0  0  0  0  0  0  0  # atno 6908 bound_to 6896
  152.4266  134.5862  160.0013 H   0  0  0  0  0  0  0  0  0  0  0  0  # atno 6909 bound_to 6896
  144.7288  140.2915  143.6219 H   0  0  0  0  0  0  0  0  0  0  0  0  # atno 7974 bound_to 7965
  154.4527  140.1953  156.0469 H   0  0  0  0  0  0  0  0  0  0  0  0  # atno 8008 bound_to 7997
  156.0683  140.3288  155.7517 H   0  0  0  0  0  0  0  0  0  0  0  0  # atno 8009 bound_to 7997
  155.5304  140.0577  157.2881 H   0  0  0  0  0  0  0  0  0  0  0  0  # atno 8010 bound_to 7997
  139.5503  144.6807  151.4344 H   0  0  0  0  0  0  0  0  0  0  0  0  # atno 10167 bound_to 10162
  157.6472  130.9549  150.0847 H   0  0  0  0  0  0  0  0  0  0  0  0  # atno 10718 bound_to 10713
  154.1645  135.2808  155.3099 H   0  0  0  0  0  0  0  0  0  0  0  0  # atno 10763 bound_to 10752
  154.6122  135.5495  153.7488 H   0  0  0  0  0  0  0  0  0  0  0  0  # atno 10764 bound_to 10752
  153.0182  135.6418  154.1786 H   0  0  0  0  0  0  0  0  0  0  0  0  # atno 10765 bound_to 10752
  140.1158  134.4894  155.8638 H   0  0  0  0  0  0  0  0  0  0  0  0  # atno 11005 bound_to 11000
  145.7850  139.1905  143.2136 LP  0  0  0  0  0  0  0  0  0  0  0  0  # atno 17320 bound_to 7965
  146.0803  140.7772  142.9645 LP  0  0  0  0  0  0  0  0  0  0  0  0  # atno 17321 bound_to 7965
  140.6764  143.8181  150.7063 LP  0  0  0  0  0  0  0  0  0  0  0  0  # atno 17342 bound_to 10162
  140.1621  143.4267  152.2060 LP  0  0  0  0  0  0  0  0  0  0  0  0  # atno 17343 bound_to 10162
  156.1813  130.3650  149.9031 LP  0  0  0  0  0  0  0  0  0  0  0  0  # atno 17370 bound_to 10713
  156.6983  130.8923  151.3596 LP  0  0  0  0  0  0  0  0  0  0  0  0  # atno 17371 bound_to 10713
  141.2141  133.6743  156.6794 LP  0  0  0  0  0  0  0  0  0  0  0  0  # atno 17394 bound_to 11000
  140.3030  134.8148  157.4113 LP  0  0  0  0  0  0  0  0  0  0  0  0  # atno 17395 bound_to 11000

$$$$
