AV-unprocessed.smi:1036|AV-procd|sdf|4519|dock9
  -GOLD-   22720 2533D 1   1.00000     0.00000
 Structure written by MMmdl.
 41 43  0  0  0  0  0  0  0  0  1 V2000
  151.3842  136.3533  154.0342 O   0  0  0  0  0  0  0  0  0  0  0  0
  150.8809  137.6179  154.4091 C   0  0  0  0  0  0  0  0  0  0  0  0
  151.9870  138.4467  155.0771 C   0  0  0  0  0  0  0  0  0  0  0  0
  151.4580  139.6254  155.7381 N   0  0  0  0  0  0  0  0  0  0  0  0
  151.8274  140.2898  156.9014 C   0  0  0  0  0  0  0  0  0  0  0  0
  152.8414  139.9159  157.6802 N   0  0  0  0  0  0  0  0  0  0  0  0
  152.8133  140.8727  158.6775 C   0  0  0  0  0  0  0  0  0  0  0  0
  153.6367  141.0385  159.8143 C   0  0  0  0  0  0  0  0  0  0  0  0
  153.4162  142.1089  160.7059 C   0  0  0  0  0  0  0  0  0  0  0  0
  152.3721  143.0278  160.4745 C   0  0  0  0  0  0  0  0  0  0  0  0
  151.5391  142.8816  159.3485 C   0  0  0  0  0  0  0  0  0  0  0  0
  151.7620  141.8108  158.4624 C   0  0  0  0  0  0  0  0  0  0  0  0
  151.1407  141.3908  157.2906 N   0  0  0  0  0  0  0  0  0  0  0  0
  150.0001  142.0288  156.6456 C   0  0  0  0  0  0  0  0  0  0  0  0
  148.6760  141.2891  156.9188 C   0  0  1  0  0  0  0  0  0  0  0  0
  148.3635  141.3513  158.2978 O   0  0  0  0  0  0  0  0  0  0  0  0
  147.5548  141.8303  156.0419 C   0  0  0  0  0  0  0  0  0  0  0  0
  146.4388  142.4754  156.6217 C   0  0  0  0  0  0  0  0  0  0  0  0
  145.4074  142.9832  155.8082 C   0  0  0  0  0  0  0  0  0  0  0  0
  144.3411  143.5982  156.3722 F   0  0  0  0  0  0  0  0  0  0  0  0
  145.4857  142.8537  154.4089 C   0  0  0  0  0  0  0  0  0  0  0  0
  146.5981  142.2198  153.8237 C   0  0  0  0  0  0  0  0  0  0  0  0
  147.6313  141.7113  154.6354 C   0  0  0  0  0  0  0  0  0  0  0  0
  148.6989  141.1129  154.0545 F   0  0  0  0  0  0  0  0  0  0  0  0
  151.1203  136.1775  153.1442 H   0  0  0  0  0  0  0  0  0  0  0  0
  150.5459  138.1197  153.5013 H   0  0  0  0  0  0  0  0  0  0  0  0
  150.0088  137.5074  155.0547 H   0  0  0  0  0  0  0  0  0  0  0  0
  152.5573  137.8452  155.7854 H   0  0  0  0  0  0  0  0  0  0  0  0
  152.6913  138.7868  154.3174 H   0  0  0  0  0  0  0  0  0  0  0  0
  150.7254  140.0819  155.2139 H   0  0  0  0  0  0  0  0  0  0  0  0
  154.4398  140.3407  160.0005 H   0  0  0  0  0  0  0  0  0  0  0  0
  154.0520  142.2258  161.5713 H   0  0  0  0  0  0  0  0  0  0  0  0
  152.2105  143.8452  161.1620 H   0  0  0  0  0  0  0  0  0  0  0  0
  150.7390  143.5842  159.1682 H   0  0  0  0  0  0  0  0  0  0  0  0
  149.9341  143.0700  156.9633 H   0  0  0  0  0  0  0  0  0  0  0  0
  150.1945  142.0542  155.5726 H   0  0  0  0  0  0  0  0  0  0  0  0
  148.8123  140.2316  156.6893 H   0  0  0  0  0  0  0  0  0  0  0  0
  148.8268  142.0820  158.6779 H   0  0  0  0  0  0  0  0  0  0  0  0
  146.3695  142.5874  157.6938 H   0  0  0  0  0  0  0  0  0  0  0  0
  144.6952  143.2432  153.7847 H   0  0  0  0  0  0  0  0  0  0  0  0
  146.6605  142.1251  152.7497 H   0  0  0  0  0  0  0  0  0  0  0  0
  1  2  1  0  0  0  0
  1 25  1  0  0  0  0
  2  3  1  0  0  0  0
  2 26  1  0  0  0  0
  2 27  1  0  0  0  0
  3  4  1  0  0  0  0
  3 28  1  0  0  0  0
  3 29  1  0  0  0  0
  4  5  1  0  0  0  0
  4 30  1  0  0  0  0
  5 13  1  0  0  0  0
  5  6  2  0  0  0  0
  6  7  1  0  0  0  0
  7 12  2  0  0  0  0
  7  8  1  0  0  0  0
  8  9  2  0  0  0  0
  8 31  1  0  0  0  0
  9 10  1  0  0  0  0
  9 32  1  0  0  0  0
 10 11  2  0  0  0  0
 10 33  1  0  0  0  0
 11 12  1  0  0  0  0
 11 34  1  0  0  0  0
 12 13  1  0  0  0  0
 13 14  1  0  0  0  0
 14 15  1  0  0  0  0
 14 35  1  0  0  0  0
 14 36  1  0  0  0  0
 15 16  1  0  0  0  0
 15 17  1  0  0  0  0
 15 37  1  0  0  0  0
 16 38  1  0  0  0  0
 17 23  1  0  0  0  0
 17 18  2  0  0  0  0
 18 19  1  0  0  0  0
 18 39  1  0  0  0  0
 19 20  1  0  0  0  0
 19 21  2  0  0  0  0
 21 22  1  0  0  0  0
 21 40  1  0  0  0  0
 22 23  2  0  0  0  0
 22 41  1  0  0  0  0
 23 24  1  0  0  0  0
M  END
> <s_m_source_file>
AV-unprocessed.smi

> <i_m_source_file_index>
1036

> <i_lp_mmshare_version>
43012

> <i_f3d_flags>
0

> <s_epik_input>
W09IXVtDSDJdW0NIMl1bTkhdYyhuMSluKGMoYzEyKVtjSF1bY0hdW2NIXVtjSF0yKVtDSDJdW0NASF0oW09IXSljM1tjSF1jKEYpW2NIXVtjSF1jM0Y=

> <s_epik_cmdline>
J2VwaWtfcHl0aG9uJywgJy1waCcsICc3LjAnLCAnLXRuJywgJzgnLCAnLW1hJywgJzIwMCcsICctbWV0YWxfYmluZGluZycsICctaW1hZScsICc8aW5maWxlLm1hZT4nLCAnLW9tYWUnLCAnPG91dGZpbGUubWFlPic=

> <r_epik_Ionization_Penalty>
1.30972

> <r_epik_Ionization_Penalty_Charging>
0

> <r_epik_Ionization_Penalty_Neutral>
1.30972

> <r_epik_State_Penalty>
1.38438

> <r_epik_Charging_Adjusted_Penalty>
1.38438

> <i_epik_Tot_Q>
0

> <i_epik_Tot_abs_Q>
0

> <r_epik_Metal_State_Penalty>
0.00551145

> <b_epik_Metal_Only>
0

> <s_lp_Force_Field>
OPLS_2005

> <r_lp_Energy>
10.9481

> <b_lp_Chiralities_Consistent>
1

> <s_lp_Variant>
AV-unprocessed.smi:1036-4

> <Gold.Version>
5.8.1

> <Gold.Id.Protein>
6NUR|6NUR_protein|mol2

> <Gold.PLP.Fitness>
57.8755

> <Gold.PLP.PLP>
-49.9650

> <Gold.PLP.part.hbond>
-4.0875

> <Gold.PLP.part.metal>
0.0000

> <Gold.PLP.part.buried>
-3.9657

> <Gold.PLP.part.nonpolar>
-41.6247

> <Gold.PLP.part.repulsive>
0.1299

> <Gold.PLP.ligand.clash>
0.0000

> <Gold.PLP.ligand.torsion>
0.5650

> <Gold.PLP.Chemscore.Hbond>
3.0000

> <Gold.PLP.Chemscore.CHOScore>
0.0000

> <Gold.PLP.Chemscore.Metal>
0.0000

> <Gold.Chemscore.Hbonds>
donor molecule, donor type, donor heavy atom, donor atom, acceptor molecule, acceptor atom, score
      L1  H     1    25       P1  7949  1.00
      P1  H  7997  8010       L1     6  0.99
      P1  H 10752 10763       L1     1  1.00

> <Gold.PLP.Chemscore.Internal.Correction>
0.0407

> <Gold.Rescore>
     Score         DG    S(hbond)    S(metal)    S(lipo)     H(rot)  DE(clash)    DE(int)     intcor
     17.54     -18.50       2.47        0.00     111.25       3.22       0.26       0.71       ----

> <Gold.Chemscore.Fitness>
17.5366

> <Gold.Chemscore.DG>
-18.5040

> <Gold.Chemscore.ZeroCoef>
-5.4800

> <Gold.Chemscore.Hbond>
2.4700

> <Gold.Chemscore.Metal>
0.0000

> <Gold.Chemscore.Lipo>
111.2473

> <Gold.Chemscore.Internal_Hbond>
0.0000

> <Gold.Chemscore.DEClash>
0.2608

> <Gold.Chemscore.DEInternal>
0.7067

> <Gold.Chemscore.Rot>
3.2194

> <Gold.Chemscore.Internal.Correction>
   9.000000E+99

> <Gold.Chemscore.Hbonds>
donor molecule, donor type, donor heavy atom, donor atom, acceptor molecule, acceptor atom, score
      L1  H     1    25       P1  7949  0.35
      P1  H  7997  8010       L1     6  0.36
      P1  H 10752 10763       L1     1  0.35

> <Gold.Chemscore.Hbond.Weighted>
-8.2497

> <Gold.Chemscore.Metal.Weighted>
-0.0000

> <Gold.Chemscore.Lipo.Weighted>
-13.0159

> <Gold.Chemscore.Internal_Hbond.Weighted>
0.0000

> <Gold.Chemscore.DEClash.Weighted>
0.2608

> <Gold.Chemscore.DEInternal.Weighted>
0.7067

> <Gold.Chemscore.Rot.Weighted>
8.2416

> <Gold.Chemscore.Internal.Correction.Weighted>
   9.000000E+99

> <Gold.Protein.RotatedTorsions>
[ 6907 6896 6895 6894 ] final  -53.95 input  -60.11 | X-H torsion
[ 7974 7965 7964 7962 ] final -145.17 input  175.53 | X-H torsion
[ 8008 7997 7996 7995 ] final   33.27 input   59.86 | X-H torsion
[ 10167 10162 10161 10158 ] final   20.48 input  -65.29 | X-H torsion
[ 10718 10713 10712 10709 ] final  -66.79 input   66.30 | X-H torsion
[ 10763 10752 10751 10750 ] final   29.48 input  -60.55 | X-H torsion
[ 11005 11000 10999 10996 ] final  -77.27 input  -57.11 | X-H torsion

> <Gold.Protein.ActiveResidues>
 VAL166  LYS551  ARG553  GLY616  TRP617  ASP618  TYR619  PRO620  LYS621  CYS622 
 ASP623  PHE694  ASN695  SER759  ASP760  ASP761  ALA762  ILE779  LEU786  VAL792 
 PHE793  MET794  SER795  GLU796  ALA797  LYS798  CYS799  TRP800  GLU811  SER814 

> <Gold.Protein.RotatedAtoms>
  150.8381  134.7662  159.6909 H   0  0  0  0  0  0  0  0  0  0  0  0  # atno 6907 bound_to 6896
  152.4473  134.5464  159.9864 H   0  0  0  0  0  0  0  0  0  0  0  0  # atno 6908 bound_to 6896
  151.5609  133.3365  159.3007 H   0  0  0  0  0  0  0  0  0  0  0  0  # atno 6909 bound_to 6896
  144.8246  140.5617  143.5556 H   0  0  0  0  0  0  0  0  0  0  0  0  # atno 7974 bound_to 7965
  155.1360  140.3261  155.4463 H   0  0  0  0  0  0  0  0  0  0  0  0  # atno 8008 bound_to 7997
  156.2620  140.2002  156.6426 H   0  0  0  0  0  0  0  0  0  0  0  0  # atno 8009 bound_to 7997
  154.6578  140.0551  157.0014 H   0  0  0  0  0  0  0  0  0  0  0  0  # atno 8010 bound_to 7997
  140.5500  143.9526  150.6572 H   0  0  0  0  0  0  0  0  0  0  0  0  # atno 10167 bound_to 10162
  156.0593  130.4267  150.1760 H   0  0  0  0  0  0  0  0  0  0  0  0  # atno 10718 bound_to 10713
  153.0428  135.6488  154.0897 H   0  0  0  0  0  0  0  0  0  0  0  0  # atno 10763 bound_to 10752
  154.0601  135.2888  155.3328 H   0  0  0  0  0  0  0  0  0  0  0  0  # atno 10764 bound_to 10752
  154.6663  135.5373  153.8147 H   0  0  0  0  0  0  0  0  0  0  0  0  # atno 10765 bound_to 10752
  141.1659  133.7016  156.7794 H   0  0  0  0  0  0  0  0  0  0  0  0  # atno 11005 bound_to 11000
  145.5029  139.1482  143.3647 LP  0  0  0  0  0  0  0  0  0  0  0  0  # atno 17320 bound_to 7965
  146.2551  140.5169  142.8877 LP  0  0  0  0  0  0  0  0  0  0  0  0  # atno 17321 bound_to 7965
  140.2949  143.3299  152.1027 LP  0  0  0  0  0  0  0  0  0  0  0  0  # atno 17342 bound_to 10162
  139.5023  144.6732  151.6191 LP  0  0  0  0  0  0  0  0  0  0  0  0  # atno 17343 bound_to 10162
  156.9831  130.9870  151.3432 LP  0  0  0  0  0  0  0  0  0  0  0  0  # atno 17370 bound_to 10713
  157.5588  130.8232  149.8239 LP  0  0  0  0  0  0  0  0  0  0  0  0  # atno 17371 bound_to 10713
  140.2405  134.8617  157.3569 LP  0  0  0  0  0  0  0  0  0  0  0  0  # atno 17394 bound_to 11000
  140.1800  134.4501  155.7778 LP  0  0  0  0  0  0  0  0  0  0  0  0  # atno 17395 bound_to 11000

$$$$
