AV-unprocessed.smi:3285|AV-procd|sdf|12584|dock8
  -GOLD-   2272018503D 1   1.00000     0.00000
 Structure written by MMmdl.
 45 46  0  0  0  0  0  0  0  0  2 V2000
  150.5178  138.7953  154.6897 C   0  0  0  0  0  0  0  0  0  0  0  0
  149.1736  139.4336  154.4859 C   0  0  0  0  0  0  0  0  0  0  0  0
  148.1553  138.6834  154.1022 N   0  0  0  0  0  0  0  0  0  0  0  0
  147.0607  139.5463  153.9968 O   0  0  0  0  0  0  0  0  0  0  0  0
  147.4671  140.7982  154.3252 C   0  0  0  0  0  0  0  0  0  0  0  0
  146.4252  141.8648  154.2760 C   0  0  0  0  0  0  0  0  0  0  0  0
  148.7969  140.7983  154.6501 C   0  0  0  0  0  0  0  0  0  0  0  0
  149.6646  141.9536  155.0826 C   0  0  0  0  0  0  0  0  0  0  0  0
  150.3078  141.7110  156.4565 C   0  0  0  0  0  0  0  0  0  0  0  0
  150.7376  142.9814  157.0796 N   0  3  0  0  0  0  0  0  0  0  0  0
  151.0036  142.9217  158.5330 C   0  0  2  0  0  0  0  0  0  0  0  0
  151.2790  144.3367  159.0639 C   0  0  0  0  0  0  0  0  0  0  0  0
  151.5749  144.3174  160.5694 C   0  0  0  0  0  0  0  0  0  0  0  0
  152.7601  143.3931  160.9131 C   0  0  1  0  0  0  0  0  0  0  0  0
  153.0192  143.4196  162.4299 C   0  0  0  0  0  0  0  0  0  0  0  0
  152.5130  141.9619  160.3664 C   0  0  2  0  0  0  0  0  0  0  0  0
  153.6933  141.0092  160.6275 C   0  0  0  0  0  0  0  0  0  0  0  0
  152.1946  141.9984  158.8565 C   0  0  0  0  0  0  0  0  0  0  0  0
  151.1875  139.4439  155.2539 H   0  0  0  0  0  0  0  0  0  0  0  0
  150.9948  138.5774  153.7341 H   0  0  0  0  0  0  0  0  0  0  0  0
  150.4306  137.8574  155.2390 H   0  0  0  0  0  0  0  0  0  0  0  0
  146.8401  142.8367  154.5425 H   0  0  0  0  0  0  0  0  0  0  0  0
  145.6146  141.6440  154.9704 H   0  0  0  0  0  0  0  0  0  0  0  0
  146.0004  141.9436  153.2752 H   0  0  0  0  0  0  0  0  0  0  0  0
  150.4543  142.1288  154.3515 H   0  0  0  0  0  0  0  0  0  0  0  0
  149.0916  142.8808  155.1116 H   0  0  0  0  0  0  0  0  0  0  0  0
  149.5980  141.2044  157.1119 H   0  0  0  0  0  0  0  0  0  0  0  0
  151.1670  141.0501  156.3431 H   0  0  0  0  0  0  0  0  0  0  0  0
  151.5606  143.3255  156.6062 H   0  0  0  0  0  0  0  0  0  0  0  0
  150.1089  142.5419  159.0291 H   0  0  0  0  0  0  0  0  0  0  0  0
  152.1247  144.7771  158.5332 H   0  0  0  0  0  0  0  0  0  0  0  0
  150.4218  144.9827  158.8696 H   0  0  0  0  0  0  0  0  0  0  0  0
  151.7852  145.3329  160.9070 H   0  0  0  0  0  0  0  0  0  0  0  0
  150.6845  143.9931  161.1103 H   0  0  0  0  0  0  0  0  0  0  0  0
  153.6473  143.7963  160.4221 H   0  0  0  0  0  0  0  0  0  0  0  0
  152.2001  142.9561  162.9805 H   0  0  0  0  0  0  0  0  0  0  0  0
  153.1226  144.4433  162.7909 H   0  0  0  0  0  0  0  0  0  0  0  0
  153.9391  142.8983  162.6929 H   0  0  0  0  0  0  0  0  0  0  0  0
  151.6412  141.5502  160.8774 H   0  0  0  0  0  0  0  0  0  0  0  0
  154.6203  141.4002  160.2067 H   0  0  0  0  0  0  0  0  0  0  0  0
  153.5136  140.0313  160.1800 H   0  0  0  0  0  0  0  0  0  0  0  0
  153.8517  140.8432  161.6927 H   0  0  0  0  0  0  0  0  0  0  0  0
  151.9843  140.9851  158.5142 H   0  0  0  0  0  0  0  0  0  0  0  0
  153.0763  142.3309  158.3060 H   0  0  0  0  0  0  0  0  0  0  0  0
  149.9886  143.6443  156.9377 H   0  0  0  0  0  0  0  0  0  0  0  0
  1  2  1  0  0  0  0
  1 19  1  0  0  0  0
  1 20  1  0  0  0  0
  1 21  1  0  0  0  0
  2  7  1  0  0  0  0
  2  3  2  0  0  0  0
  3  4  1  0  0  0  0
  4  5  1  0  0  0  0
  5  6  1  0  0  0  0
  5  7  2  0  0  0  0
  6 22  1  0  0  0  0
  6 23  1  0  0  0  0
  6 24  1  0  0  0  0
  7  8  1  0  0  0  0
  8  9  1  0  0  0  0
  8 25  1  0  0  0  0
  8 26  1  0  0  0  0
  9 10  1  0  0  0  0
  9 27  1  0  0  0  0
  9 28  1  0  0  0  0
 10 11  1  0  0  0  0
 10 29  1  0  0  0  0
 10 45  1  0  0  0  0
 11 18  1  0  0  0  0
 11 12  1  0  0  0  0
 11 30  1  0  0  0  0
 12 13  1  0  0  0  0
 12 31  1  0  0  0  0
 12 32  1  0  0  0  0
 13 14  1  0  0  0  0
 13 33  1  0  0  0  0
 13 34  1  0  0  0  0
 14 15  1  0  0  0  0
 14 16  1  0  0  0  0
 14 35  1  0  0  0  0
 15 36  1  0  0  0  0
 15 37  1  0  0  0  0
 15 38  1  0  0  0  0
 16 17  1  0  0  0  0
 16 18  1  0  0  0  0
 16 39  1  0  0  0  0
 17 40  1  0  0  0  0
 17 41  1  0  0  0  0
 17 42  1  0  0  0  0
 18 43  1  0  0  0  0
 18 44  1  0  0  0  0
M  CHG  1  10   1
M  END
> <s_m_source_file>
AV-unprocessed.smi

> <i_m_source_file_index>
3285

> <i_lp_mmshare_version>
43012

> <i_f3d_flags>
0

> <s_epik_input>
W0NIM11jMW5vYyhbQ0gzXSljMVtDSDJdW0NIMl1bTkhdW0NAQEhdMltDSDJdW0NIMl1bQ0BASF0oW0NIM10pW0NAQEhdKFtDSDNdKVtDSDJdMg==

> <s_epik_cmdline>
J2VwaWtfcHl0aG9uJywgJy1waCcsICc3LjAnLCAnLXRuJywgJzgnLCAnLW1hJywgJzIwMCcsICctbWV0YWxfYmluZGluZycsICctaW1hZScsICc8aW5maWxlLm1hZT4nLCAnLW9tYWUnLCAnPG91dGZpbGUubWFlPic=

> <r_lp_tautomer_probability>
1

> <r_epik_Ionization_Penalty>
0.000204615

> <r_epik_Ionization_Penalty_Charging>
0.000204615

> <r_epik_Ionization_Penalty_Neutral>
9.28663e-11

> <r_epik_State_Penalty>
-0

> <r_epik_Charging_Adjusted_Penalty>
0.000204615

> <i_epik_Tot_Q>
1

> <i_epik_Tot_abs_Q>
1

> <r_epik_Metal_State_Penalty>
-0

> <b_epik_Metal_Only>
0

> <s_lp_Force_Field>
OPLS_2005

> <r_lp_Energy>
12.3139

> <b_lp_Chiralities_Consistent>
1

> <s_lp_Variant>
AV-unprocessed.smi:3285-5

> <Gold.Version>
5.8.1

> <Gold.Id.Protein>
6NUR|6NUR_protein|mol2

> <Gold.PLP.Fitness>
48.0371

> <Gold.PLP.PLP>
-42.4074

> <Gold.PLP.part.hbond>
-1.0000

> <Gold.PLP.part.metal>
0.0000

> <Gold.PLP.part.buried>
-2.7796

> <Gold.PLP.part.nonpolar>
-38.9338

> <Gold.PLP.part.repulsive>
0.4018

> <Gold.PLP.ligand.clash>
0.0000

> <Gold.PLP.ligand.torsion>
0.1863

> <Gold.PLP.Chemscore.Hbond>
2.0000

> <Gold.PLP.Chemscore.CHOScore>
0.0000

> <Gold.PLP.Chemscore.Metal>
0.0000

> <Gold.Chemscore.Hbonds>
donor molecule, donor type, donor heavy atom, donor atom, acceptor molecule, acceptor atom, score
      L1  H    10    45       P1  8028  1.95

> <Gold.PLP.Chemscore.Internal.Correction>
0.0023

> <Gold.Rescore>
     Score         DG    S(hbond)    S(metal)    S(lipo)     H(rot)  DE(clash)    DE(int)     intcor
     20.16     -20.74       0.94        0.00     133.08       1.35       0.30       0.28       ----

> <Gold.Chemscore.Fitness>
20.1606

> <Gold.Chemscore.DG>
-20.7417

> <Gold.Chemscore.ZeroCoef>
-5.4800

> <Gold.Chemscore.Hbond>
0.9396

> <Gold.Chemscore.Metal>
0.0000

> <Gold.Chemscore.Lipo>
133.0806

> <Gold.Chemscore.Internal_Hbond>
0.0000

> <Gold.Chemscore.DEClash>
0.3022

> <Gold.Chemscore.DEInternal>
0.2788

> <Gold.Chemscore.Rot>
1.3465

> <Gold.Chemscore.Internal.Correction>
   9.000000E+99

> <Gold.Chemscore.Hbonds>
donor molecule, donor type, donor heavy atom, donor atom, acceptor molecule, acceptor atom, score
      L1  H    10    45       P1  8028  0.90

> <Gold.Chemscore.Hbond.Weighted>
-3.1383

> <Gold.Chemscore.Metal.Weighted>
-0.0000

> <Gold.Chemscore.Lipo.Weighted>
-15.5704

> <Gold.Chemscore.Internal_Hbond.Weighted>
0.0000

> <Gold.Chemscore.DEClash.Weighted>
0.3022

> <Gold.Chemscore.DEInternal.Weighted>
0.2788

> <Gold.Chemscore.Rot.Weighted>
3.4470

> <Gold.Chemscore.Internal.Correction.Weighted>
   9.000000E+99

> <Gold.Protein.RotatedTorsions>
[ 6907 6896 6895 6894 ] final  -25.69 input  -60.11 | X-H torsion
[ 7974 7965 7964 7962 ] final -137.95 input  175.53 | X-H torsion
[ 8008 7997 7996 7995 ] final  -12.00 input   59.86 | X-H torsion
[ 10167 10162 10161 10158 ] final  -90.34 input  -65.29 | X-H torsion
[ 10718 10713 10712 10709 ] final -144.78 input   66.30 | X-H torsion
[ 10763 10752 10751 10750 ] final   95.61 input  -60.55 | X-H torsion
[ 11005 11000 10999 10996 ] final    1.58 input  -57.11 | X-H torsion

> <Gold.Protein.ActiveResidues>
 VAL166  LYS551  ARG553  GLY616  TRP617  ASP618  TYR619  PRO620  LYS621  CYS622 
 ASP623  PHE694  ASN695  SER759  ASP760  ASP761  ALA762  ILE779  LEU786  VAL792 
 PHE793  MET794  SER795  GLU796  ALA797  LYS798  CYS799  TRP800  GLU811  SER814 

> <Gold.Protein.RotatedAtoms>
  151.1716  135.0320  159.8753 H   0  0  0  0  0  0  0  0  0  0  0  0  # atno 6907 bound_to 6896
  152.5448  134.1164  159.8390 H   0  0  0  0  0  0  0  0  0  0  0  0  # atno 6908 bound_to 6896
  151.1270  133.5017  159.2632 H   0  0  0  0  0  0  0  0  0  0  0  0  # atno 6909 bound_to 6896
  144.8799  140.6492  143.5212 H   0  0  0  0  0  0  0  0  0  0  0  0  # atno 7974 bound_to 7965
  154.5415  140.2287  155.8633 H   0  0  0  0  0  0  0  0  0  0  0  0  # atno 8008 bound_to 7997
  156.1863  140.3088  155.9206 H   0  0  0  0  0  0  0  0  0  0  0  0  # atno 8009 bound_to 7997
  155.3249  140.0442  157.3031 H   0  0  0  0  0  0  0  0  0  0  0  0  # atno 8010 bound_to 7997
  140.3559  143.2867  151.9671 H   0  0  0  0  0  0  0  0  0  0  0  0  # atno 10167 bound_to 10162
  156.3744  130.7804  151.1989 H   0  0  0  0  0  0  0  0  0  0  0  0  # atno 10718 bound_to 10713
  153.2553  135.4248  155.0839 H   0  0  0  0  0  0  0  0  0  0  0  0  # atno 10763 bound_to 10752
  154.8398  135.3435  154.6455 H   0  0  0  0  0  0  0  0  0  0  0  0  # atno 10764 bound_to 10752
  153.6876  135.7035  153.5156 H   0  0  0  0  0  0  0  0  0  0  0  0  # atno 10765 bound_to 10752
  140.6138  133.9724  155.8190 H   0  0  0  0  0  0  0  0  0  0  0  0  # atno 11005 bound_to 11000
  145.3973  139.1604  143.4196 LP  0  0  0  0  0  0  0  0  0  0  0  0  # atno 17320 bound_to 7965
  146.2988  140.4067  142.8712 LP  0  0  0  0  0  0  0  0  0  0  0  0  # atno 17321 bound_to 7965
  139.4820  144.6035  151.7563 LP  0  0  0  0  0  0  0  0  0  0  0  0  # atno 17342 bound_to 10162
  140.5174  144.0932  150.6012 LP  0  0  0  0  0  0  0  0  0  0  0  0  # atno 17343 bound_to 10162
  157.7487  131.0363  150.4402 LP  0  0  0  0  0  0  0  0  0  0  0  0  # atno 17370 bound_to 10713
  156.4634  130.4037  149.6562 LP  0  0  0  0  0  0  0  0  0  0  0  0  # atno 17371 bound_to 10713
  141.0790  134.0092  157.3415 LP  0  0  0  0  0  0  0  0  0  0  0  0  # atno 17394 bound_to 11000
  139.9181  135.0198  156.7960 LP  0  0  0  0  0  0  0  0  0  0  0  0  # atno 17395 bound_to 11000

$$$$
