#       Name:                AV-unprocessed.smi:290
#       Creating user name   scv26
#       Creation time:       Thu Mar 26 22:07:31 2020


#       File generated by GOLD software.
#

@<TRIPOS>MOLECULE
AV-unprocessed.smi:290
    69    72     1
SMALL
NO_CHARGES


@<TRIPOS>ATOM
      1 ****        -5.7616  -0.0393   1.9755 C.3            1 S1                 0.0000
      2 ****        -4.6277  -1.0499   2.2073 C.3            1 S1                 0.0000
      3 ****        -4.6214  -1.5207   3.5541 O.3            1 S1                 0.0000
      4 ****        -4.4627  -2.9342   3.5866 C.3            1 S1                 0.0000
      5 ****        -3.9336  -3.3124   2.2072 C.3            1 S1                 0.0000
      6 ****        -4.6230  -2.3023   1.3006 C.3            1 S1                 0.0000
      7 ****        -5.9492  -2.7451   1.0632 O.3            1 S1                 0.0000
      8 ****        -3.9735  -2.1229  -0.0965 C.3            1 S1                 0.0000
      9 ****        -2.6079  -1.6214  -0.0811 N.pl3          1 S1                 0.0000
     10 ****        -1.4521  -2.3665   0.0051 C.2            1 S1                 0.0000
     11 ****        -0.3420  -1.6792  -0.0053 N.2            1 S1                 0.0000
     12 ****        -0.7659  -0.3625  -0.1247 C.ar           1 S1                 0.0000
     13 ****        -0.0948   0.8848  -0.2018 C.ar           1 S1                 0.0000
     14 ****         1.2534   0.9663  -0.1529 N.3            1 S1                 0.0000
     15 ****         1.7721   1.5549   1.0721 C.3            1 S1                 0.0000
     16 ****         3.2394   1.8984   0.7859 C.3            1 S1                 0.0000
     17 ****         3.3600   1.8934  -0.7536 C.3            1 S1                 0.0000
     18 ****         4.3572   0.9231  -1.3052 N.4            1 S1                 1.0000
     19 ****         4.2567  -0.4667  -0.7894 C.3            1 S1                 0.0000
     20 ****         5.7538   1.4277  -1.2799 C.3            1 S1                 0.0000
     21 ****         6.0494   2.3757  -2.4543 C.3            1 S1                 0.0000
     22 ****         5.9854   1.6661  -3.6732 O.3            1 S1                 0.0000
     23 ****         1.9168   1.6646  -1.2457 C.3            1 S1                 0.0000
     24 ****         1.7460   0.9952  -2.6243 C.3            1 S1                 0.0000
     25 ****        -0.8493   2.0085  -0.3261 N.ar           1 S1                 0.0000
     26 ****        -2.1820   1.9139  -0.3724 C.ar           1 S1                 0.0000
     27 ****        -2.9439   0.8193  -0.3119 N.ar           1 S1                 0.0000
     28 ****        -2.1856  -0.3074  -0.1845 C.ar           1 S1                 0.0000
     29 ****         3.6475   2.8905  -1.0866 H              1 S1                 0.0000
     30 ****         1.4593   2.6532  -1.3177 H              1 S1                 0.0000
     31 ****        -5.7658   0.3138   0.9441 H              1 S1                 0.0000
     32 ****        -5.6407   0.8297   2.6222 H              1 S1                 0.0000
     33 ****        -6.7389  -0.4724   2.1891 H              1 S1                 0.0000
     34 ****        -3.6799  -0.5241   2.1019 H              1 S1                 0.0000
     35 ****        -3.7950  -3.2428   4.3913 H              1 S1                 0.0000
     36 ****        -5.4371  -3.3920   3.7609 H              1 S1                 0.0000
     37 ****        -2.8537  -3.1697   2.2006 H              1 S1                 0.0000
     38 ****        -4.1347  -4.3508   1.9415 H              1 S1                 0.0000
     39 ****        -5.9143  -3.5657   0.5961 H              1 S1                 0.0000
     40 ****        -3.9752  -3.0731  -0.6324 H              1 S1                 0.0000
     41 ****        -4.5739  -1.4382  -0.6976 H              1 S1                 0.0000
     42 ****        -1.4589  -3.4443   0.0814 H              1 S1                 0.0000
     43 ****         1.2176   2.4596   1.3270 H              1 S1                 0.0000
     44 ****         1.6807   0.8591   1.9069 H              1 S1                 0.0000
     45 ****         3.4855   2.8780   1.1967 H              1 S1                 0.0000
     46 ****         3.9042   1.1868   1.2718 H              1 S1                 0.0000
     47 ****         4.6848  -0.5643   0.2080 H              1 S1                 0.0000
     48 ****         4.8063  -1.1420  -1.4456 H              1 S1                 0.0000
     49 ****         3.2274  -0.8206  -0.7541 H              1 S1                 0.0000
     50 ****         5.9450   1.9267  -0.3289 H              1 S1                 0.0000
     51 ****         6.4559   0.5934  -1.3286 H              1 S1                 0.0000
     52 ****         5.3616   3.2200  -2.4866 H              1 S1                 0.0000
     53 ****         7.0531   2.7889  -2.3522 H              1 S1                 0.0000
     54 ****         6.2149   2.2539  -4.3775 H              1 S1                 0.0000
     55 ****         2.3042   1.5349  -3.3896 H              1 S1                 0.0000
     56 ****         0.6991   0.9909  -2.9292 H              1 S1                 0.0000
     57 ****         2.0867  -0.0395  -2.6282 H              1 S1                 0.0000
     58 ****        -2.7149   2.8484  -0.4693 H              1 S1                 0.0000
     59 ****         4.1334   0.8484  -2.2878 H              1 S1                 0.0000
     60 ****        -5.4864  -1.2764   3.9922 LP             1 S1                 0.0000
     61 ****        -3.8648  -1.0930   4.0487 LP             1 S1                 0.0000
     62 ****        -6.4379  -2.0662   0.5153 LP             1 S1                 0.0000
     63 ****        -6.4225  -2.8734   1.9347 LP             1 S1                 0.0000
     64 ****         0.5955  -2.0215   0.0580 LP             1 S1                 0.0000
     65 ****         1.4727  -0.0071  -0.2188 LP             1 S1                 0.0000
     66 ****         5.0579   1.3194  -3.8127 LP             1 S1                 0.0000
     67 ****         6.6278   0.9001  -3.6511 LP             1 S1                 0.0000
     68 ****        -0.4083   2.9043  -0.3828 LP             1 S1                 0.0000
     69 ****        -3.9429   0.8247  -0.3546 LP             1 S1                 0.0000
@<TRIPOS>BOND
    1    1    2 1     
    2    1   31 1     
    3    1   32 1     
    4    1   33 1     
    5    2    6 1     
    6    2    3 1     
    7    2   34 1     
    8    3    4 1     
    9    4    5 1     
   10    4   35 1     
   11    4   36 1     
   12    5    6 1     
   13    5   37 1     
   14    5   38 1     
   15    6    7 1     
   16    6    8 1     
   17    7   39 1     
   18    8    9 1     
   19    8   40 1     
   20    8   41 1     
   21    9   28 1     
   22    9   10 1     
   23   10   11 2     
   24   10   42 1     
   25   11   12 1     
   26   12   28 ar    
   27   12   13 ar    
   28   13   14 1     
   29   13   25 ar    
   30   14   23 1     
   31   14   15 1     
   32   15   16 1     
   33   15   43 1     
   34   15   44 1     
   35   16   17 1     
   36   16   45 1     
   37   16   46 1     
   38   17   29 1     
   39   17   18 1     
   40   17   23 1     
   41   18   19 1     
   42   18   20 1     
   43   18   59 1     
   44   19   47 1     
   45   19   48 1     
   46   19   49 1     
   47   20   21 1     
   48   20   50 1     
   49   20   51 1     
   50   21   22 1     
   51   21   52 1     
   52   21   53 1     
   53   22   54 1     
   54   23   30 1     
   55   23   24 1     
   56   24   55 1     
   57   24   56 1     
   58   24   57 1     
   59   25   26 ar    
   60   26   27 ar    
   61   26   58 1     
   62   27   28 ar    
   63    3   60 1     
   64    3   61 1     
   65    7   62 1     
   66    7   63 1     
   67   11   64 1     
   68   14   65 1     
   69   22   66 1     
   70   22   67 1     
   71   25   68 1     
   72   27   69 1     
@<TRIPOS>SUBSTRUCTURE
      1 S1             1
@<TRIPOS>SET
LONE_PAIRS      STATIC     ATOMS    <user>   **** ""
10 60 61 62 63 64 65 66 67 68 69
DONOR_HYDROGENS      STATIC     ATOMS    <user>   **** ""
3 39 59 54
ATOM$BLUE        STATIC     ATOMS    COLORGROUP SYSTEM
10 60 61 62 63 64 65 66 67 68 69
ATOM$RED        STATIC     ATOMS    COLORGROUP SYSTEM
3 39 59 54
