#       Name:                AV-unprocessed.smi:99
#       Creating user name   scv26
#       Creation time:       Thu Mar 26 17:35:29 2020


#       File generated by GOLD software.
#

@<TRIPOS>MOLECULE
AV-unprocessed.smi:99
    65    68     1
SMALL
NO_CHARGES


@<TRIPOS>ATOM
      1 ****        -4.1430  -0.7791  -0.4399 O.2            1 S1                 0.0000
      2 ****        -3.2831  -0.0681   0.0832 C.2            1 S1                 0.0000
      3 ****        -2.0536  -0.5052   0.4165 O.3            1 S1                 0.0000
      4 ****        -1.6388  -1.8193   0.0805 C.3            1 S1                 0.0000
      5 ****        -0.1064  -1.8782   0.1094 C.3            1 S1                 0.0000
      6 ****         0.3303  -3.2264  -0.0360 O.3            1 S1                 0.0000
      7 ****         1.6155  -3.2599  -0.5929 C.3            1 S1                 0.0000
      8 ****         2.5902  -3.8234   0.4225 N.am           1 S1                 0.0000
      9 ****         2.3434  -3.7828   1.7895 C.2            1 S1                 0.0000
     10 ****         3.2047  -4.2788   2.7092 C.2            1 S1                 0.0000
     11 ****         4.4628  -4.8903   2.2931 C.2            1 S1                 0.0000
     12 ****         5.3028  -5.3695   3.0514 O.2            1 S1                 0.0000
     13 ****         4.6741  -4.9000   0.9114 N.am           1 S1                 0.0000
     14 ****         3.7962  -4.3885  -0.0454 C.2            1 S1                 0.0000
     15 ****         4.0888  -4.4334  -1.2397 O.2            1 S1                 0.0000
     16 ****         1.9678  -1.8205  -1.0364 C.3            1 S1                 0.0000
     17 ****         2.8255  -1.1579  -0.1184 O.3            1 S1                 0.0000
     18 ****         0.5850  -1.1887  -1.0660 C.3            1 S1                 0.0000
     19 ****         0.6427   0.2329  -0.9790 O.3            1 S1                 0.0000
     20 ****        -0.1615   1.0162  -1.7309 C.2            1 S1                 0.0000
     21 ****        -0.9529   0.5827  -2.5704 O.2            1 S1                 0.0000
     22 ****        -0.0224   2.4645  -1.4074 C.ar           1 S1                 0.0000
     23 ****        -0.8900   3.3977  -2.0214 C.ar           1 S1                 0.0000
     24 ****        -0.8006   4.7692  -1.7146 C.ar           1 S1                 0.0000
     25 ****         0.1606   5.2245  -0.7936 C.ar           1 S1                 0.0000
     26 ****         1.0326   4.3068  -0.1796 C.ar           1 S1                 0.0000
     27 ****         0.9427   2.9343  -0.4829 C.ar           1 S1                 0.0000
     28 ****        -3.4814   1.3782   0.3887 C.ar           1 S1                 0.0000
     29 ****        -4.6854   2.0107   0.0005 C.ar           1 S1                 0.0000
     30 ****        -4.8885   3.3817   0.2515 C.ar           1 S1                 0.0000
     31 ****        -3.8907   4.1367   0.8953 C.ar           1 S1                 0.0000
     32 ****        -2.6910   3.5179   1.2921 C.ar           1 S1                 0.0000
     33 ****        -2.4872   2.1469   1.0435 C.ar           1 S1                 0.0000
     34 ****         5.5358  -5.3082   0.5787 H              1 S1                 0.0000
     35 ****        -2.0584  -2.5169   0.8060 H              1 S1                 0.0000
     36 ****        -2.0032  -2.1103  -0.9058 H              1 S1                 0.0000
     37 ****         0.2719  -1.4902   1.0567 H              1 S1                 0.0000
     38 ****         1.5872  -3.9723  -1.4197 H              1 S1                 0.0000
     39 ****         1.4330  -3.3359   2.1592 H              1 S1                 0.0000
     40 ****         2.9622  -4.2215   3.7606 H              1 S1                 0.0000
     41 ****         2.4378  -1.8343  -2.0202 H              1 S1                 0.0000
     42 ****         3.6227  -1.6597  -0.0408 H              1 S1                 0.0000
     43 ****         0.1006  -1.5083  -1.9900 H              1 S1                 0.0000
     44 ****        -1.6411   3.0705  -2.7259 H              1 S1                 0.0000
     45 ****        -1.4731   5.4717  -2.1842 H              1 S1                 0.0000
     46 ****         0.2284   6.2763  -0.5575 H              1 S1                 0.0000
     47 ****         1.7712   4.6551   0.5273 H              1 S1                 0.0000
     48 ****         1.6245   2.2558   0.0087 H              1 S1                 0.0000
     49 ****        -5.4629   1.4530  -0.5020 H              1 S1                 0.0000
     50 ****        -5.8104   3.8547  -0.0536 H              1 S1                 0.0000
     51 ****        -4.0448   5.1889   1.0837 H              1 S1                 0.0000
     52 ****        -1.9220   4.0962   1.7828 H              1 S1                 0.0000
     53 ****        -1.5512   1.7061   1.3548 H              1 S1                 0.0000
     54 ****        -3.9446  -1.7387  -0.6397 LP             1 S1                 0.0000
     55 ****        -5.0391  -0.3966  -0.6646 LP             1 S1                 0.0000
     56 ****        -0.3026  -3.7161  -0.6357 LP             1 S1                 0.0000
     57 ****         0.3474  -3.6670   0.8615 LP             1 S1                 0.0000
     58 ****         5.1486  -5.3587   4.0393 LP             1 S1                 0.0000
     59 ****         6.1406  -5.7703   2.6804 LP             1 S1                 0.0000
     60 ****         3.4610  -4.0602  -1.9227 LP             1 S1                 0.0000
     61 ****         4.9545  -4.8432  -1.5274 LP             1 S1                 0.0000
     62 ****         2.3793  -1.0923   0.7740 LP             1 S1                 0.0000
     63 ****         3.0355  -0.2398  -0.4544 LP             1 S1                 0.0000
     64 ****        -1.0264  -0.4023  -2.7266 LP             1 S1                 0.0000
     65 ****        -1.5214   1.2159  -3.0955 LP             1 S1                 0.0000
@<TRIPOS>BOND
    1    1    2 2     
    2    2    3 1     
    3    2   28 1     
    4    3    4 1     
    5    4    5 1     
    6    4   35 1     
    7    4   36 1     
    8    5   18 1     
    9    5    6 1     
   10    5   37 1     
   11    6    7 1     
   12    7    8 1     
   13    7   16 1     
   14    7   38 1     
   15    8   14 1     
   16    8    9 1     
   17    9   10 2     
   18    9   39 1     
   19   10   11 1     
   20   10   40 1     
   21   11   12 2     
   22   11   13 1     
   23   13   34 1     
   24   13   14 1     
   25   14   15 2     
   26   16   17 1     
   27   16   18 1     
   28   16   41 1     
   29   17   42 1     
   30   18   19 1     
   31   18   43 1     
   32   19   20 1     
   33   20   21 2     
   34   20   22 1     
   35   22   27 ar    
   36   22   23 ar    
   37   23   24 ar    
   38   23   44 1     
   39   24   25 ar    
   40   24   45 1     
   41   25   26 ar    
   42   25   46 1     
   43   26   27 ar    
   44   26   47 1     
   45   27   48 1     
   46   28   33 ar    
   47   28   29 ar    
   48   29   30 ar    
   49   29   49 1     
   50   30   31 ar    
   51   30   50 1     
   52   31   32 ar    
   53   31   51 1     
   54   32   33 ar    
   55   32   52 1     
   56   33   53 1     
   57    1   54 1     
   58    1   55 1     
   59    6   56 1     
   60    6   57 1     
   61   12   58 1     
   62   12   59 1     
   63   15   60 1     
   64   15   61 1     
   65   17   62 1     
   66   17   63 1     
   67   21   64 1     
   68   21   65 1     
@<TRIPOS>SUBSTRUCTURE
      1 S1             1
@<TRIPOS>SET
LONE_PAIRS      STATIC     ATOMS    <user>   **** ""
12 54 55 56 57 58 59 60 61 62 63 64 65
DONOR_HYDROGENS      STATIC     ATOMS    <user>   **** ""
2 34 42
ATOM$BLUE        STATIC     ATOMS    COLORGROUP SYSTEM
12 54 55 56 57 58 59 60 61 62 63 64 65
ATOM$RED        STATIC     ATOMS    COLORGROUP SYSTEM
2 34 42
