AV-unprocessed.smi:1007|AV-procd|sdf|4409|dock6
  -GOLD-   22720 2353D 1   1.00000     0.00000
 Structure written by MMmdl.
 57 59  0  0  0  0  0  0  0  0  3 V2000
  147.7314  133.0506  152.5935 C   0  0  0  0  0  0  0  0  0  0  0  0
  147.1923  133.9123  153.5810 O   0  0  0  0  0  0  0  0  0  0  0  0
  146.1787  134.7604  153.0677 C   0  0  0  0  0  0  0  0  0  0  0  0
  145.8299  135.8133  154.1307 C   0  0  0  0  0  0  0  0  0  0  0  0
  144.9361  136.8772  153.5999 N   0  3  2  0  0  0  0  0  0  0  0  0
  145.3415  137.4308  152.2810 C   0  0  0  0  0  0  0  0  0  0  0  0
  146.5267  138.4120  152.3975 C   0  0  0  0  0  0  0  0  0  0  0  0
  146.2494  139.4869  153.3865 N   0  3  2  0  0  0  0  0  0  0  0  0
  147.3429  140.4877  153.4955 C   0  0  0  0  0  0  0  0  0  0  0  0
  148.5359  139.9716  154.3236 C   0  0  1  0  0  0  0  0  0  0  0  0
  149.2761  139.0606  153.5329 O   0  0  0  0  0  0  0  0  0  0  0  0
  149.4547  141.1202  154.7833 C   0  0  0  0  0  0  0  0  0  0  0  0
  150.3698  140.7134  155.8347 N   0  0  0  0  0  0  0  0  0  0  0  0
  150.8566  139.4763  156.0503 C   0  0  0  0  0  0  0  0  0  0  0  0
  151.6896  139.3192  157.0746 N   0  0  0  0  0  0  0  0  0  0  0  0
  151.7479  140.6041  157.5864 C   0  0  0  0  0  0  0  0  0  0  0  0
  152.4638  141.1201  158.6887 C   0  0  0  0  0  0  0  0  0  0  0  0
  152.3739  142.4869  159.0357 C   0  0  0  0  0  0  0  0  0  0  0  0
  153.1614  142.9994  160.2287 C   0  0  0  0  0  0  0  0  0  0  0  0
  151.5573  143.3612  158.2742 C   0  0  0  0  0  0  0  0  0  0  0  0
  151.4443  144.8332  158.6301 C   0  0  0  0  0  0  0  0  0  0  0  0
  150.8358  142.8624  157.1694 C   0  0  0  0  0  0  0  0  0  0  0  0
  150.9330  141.5002  156.8341 C   0  0  0  0  0  0  0  0  0  0  0  0
  145.8681  138.9217  154.7048 C   0  0  0  0  0  0  0  0  0  0  0  0
  144.6680  137.9653  154.5727 C   0  0  0  0  0  0  0  0  0  0  0  0
  148.5031  132.4220  153.0376 H   0  0  0  0  0  0  0  0  0  0  0  0
  148.1869  133.6183  151.7813 H   0  0  0  0  0  0  0  0  0  0  0  0
  146.9636  132.3973  152.1772 H   0  0  0  0  0  0  0  0  0  0  0  0
  146.5449  135.2622  152.1706 H   0  0  0  0  0  0  0  0  0  0  0  0
  145.3032  134.1807  152.7744 H   0  0  0  0  0  0  0  0  0  0  0  0
  145.3397  135.3008  154.9596 H   0  0  0  0  0  0  0  0  0  0  0  0
  146.7399  136.2488  154.5426 H   0  0  0  0  0  0  0  0  0  0  0  0
  145.5773  136.6326  151.5780 H   0  0  0  0  0  0  0  0  0  0  0  0
  144.4839  137.9566  151.8590 H   0  0  0  0  0  0  0  0  0  0  0  0
  147.4345  137.8788  152.6829 H   0  0  0  0  0  0  0  0  0  0  0  0
  146.7204  138.8437  151.4165 H   0  0  0  0  0  0  0  0  0  0  0  0
  147.7037  140.7527  152.5001 H   0  0  0  0  0  0  0  0  0  0  0  0
  146.9458  141.4080  153.9266 H   0  0  0  0  0  0  0  0  0  0  0  0
  148.1823  139.4409  155.2070 H   0  0  0  0  0  0  0  0  0  0  0  0
  149.2717  139.3614  152.6363 H   0  0  0  0  0  0  0  0  0  0  0  0
  150.0341  141.5092  153.9450 H   0  0  0  0  0  0  0  0  0  0  0  0
  148.8569  141.9519  155.1584 H   0  0  0  0  0  0  0  0  0  0  0  0
  150.5859  138.6435  155.4177 H   0  0  0  0  0  0  0  0  0  0  0  0
  153.0859  140.4537  159.2681 H   0  0  0  0  0  0  0  0  0  0  0  0
  152.4915  143.4350  160.9702 H   0  0  0  0  0  0  0  0  0  0  0  0
  153.8761  143.7611  159.9164 H   0  0  0  0  0  0  0  0  0  0  0  0
  153.7185  142.1967  160.7126 H   0  0  0  0  0  0  0  0  0  0  0  0
  150.7866  145.3605  157.9383 H   0  0  0  0  0  0  0  0  0  0  0  0
  152.4228  145.3126  158.5927 H   0  0  0  0  0  0  0  0  0  0  0  0
  151.0375  144.9531  159.6344 H   0  0  0  0  0  0  0  0  0  0  0  0
  150.2113  143.5185  156.5820 H   0  0  0  0  0  0  0  0  0  0  0  0
  146.7225  138.4037  155.1431 H   0  0  0  0  0  0  0  0  0  0  0  0
  145.6052  139.7305  155.3877 H   0  0  0  0  0  0  0  0  0  0  0  0
  143.7960  138.5241  154.2300 H   0  0  0  0  0  0  0  0  0  0  0  0
  144.3970  137.5502  155.5441 H   0  0  0  0  0  0  0  0  0  0  0  0
  145.4407  139.9938  153.0540 H   0  0  0  0  0  0  0  0  0  0  0  0
  144.0478  136.4162  153.4575 H   0  0  0  0  0  0  0  0  0  0  0  0
  1  2  1  0  0  0  0
  1 26  1  0  0  0  0
  1 27  1  0  0  0  0
  1 28  1  0  0  0  0
  2  3  1  0  0  0  0
  3  4  1  0  0  0  0
  3 29  1  0  0  0  0
  3 30  1  0  0  0  0
  4  5  1  0  0  0  0
  4 31  1  0  0  0  0
  4 32  1  0  0  0  0
  5 25  1  0  0  0  0
  5  6  1  0  0  0  0
  5 57  1  0  0  0  0
  6  7  1  0  0  0  0
  6 33  1  0  0  0  0
  6 34  1  0  0  0  0
  7  8  1  0  0  0  0
  7 35  1  0  0  0  0
  7 36  1  0  0  0  0
  8  9  1  0  0  0  0
  8 24  1  0  0  0  0
  8 56  1  0  0  0  0
  9 10  1  0  0  0  0
  9 37  1  0  0  0  0
  9 38  1  0  0  0  0
 10 11  1  0  0  0  0
 10 12  1  0  0  0  0
 10 39  1  0  0  0  0
 11 40  1  0  0  0  0
 12 13  1  0  0  0  0
 12 41  1  0  0  0  0
 12 42  1  0  0  0  0
 13 23  1  0  0  0  0
 13 14  1  0  0  0  0
 14 15  2  0  0  0  0
 14 43  1  0  0  0  0
 15 16  1  0  0  0  0
 16 23  2  0  0  0  0
 16 17  1  0  0  0  0
 17 18  2  0  0  0  0
 17 44  1  0  0  0  0
 18 19  1  0  0  0  0
 18 20  1  0  0  0  0
 19 45  1  0  0  0  0
 19 46  1  0  0  0  0
 19 47  1  0  0  0  0
 20 21  1  0  0  0  0
 20 22  2  0  0  0  0
 21 48  1  0  0  0  0
 21 49  1  0  0  0  0
 21 50  1  0  0  0  0
 22 23  1  0  0  0  0
 22 51  1  0  0  0  0
 24 25  1  0  0  0  0
 24 52  1  0  0  0  0
 24 53  1  0  0  0  0
 25 54  1  0  0  0  0
 25 55  1  0  0  0  0
M  CHG  1   5   1
M  CHG  1   8   1
M  END
> <s_m_source_file>
AV-unprocessed.smi

> <i_m_source_file_index>
1007

> <i_lp_mmshare_version>
43012

> <i_f3d_flags>
0

> <s_epik_input>
W0NIM11PW0NIMl1bQ0gyXU4xW0NIMl1bQ0gyXU4oW0NIMl1bQ0gyXTEpW0NIMl1bQ0BIXShbT0hdKVtDSDJdbihbY0hdbjIpYyhjMjMpW2NIXWMoW0NIM10pYyhbY0hdMylbQ0gzXQ==

> <s_epik_cmdline>
J2VwaWtfcHl0aG9uJywgJy1waCcsICc3LjAnLCAnLXRuJywgJzgnLCAnLW1hJywgJzIwMCcsICctbWV0YWxfYmluZGluZycsICctaW1hZScsICc8aW5maWxlLm1hZT4nLCAnLW9tYWUnLCAnPG91dGZpbGUubWFlPic=

> <r_epik_Ionization_Penalty>
3.88944

> <r_epik_Ionization_Penalty_Charging>
3.80608

> <r_epik_Ionization_Penalty_Neutral>
0.0833653

> <r_epik_State_Penalty>
2.70739

> <r_epik_Charging_Adjusted_Penalty>
6.51347

> <i_epik_Tot_Q>
2

> <i_epik_Tot_abs_Q>
2

> <r_epik_Metal_State_Penalty>
2.62239

> <b_epik_Metal_Only>
0

> <s_lp_Force_Field>
OPLS_2005

> <r_lp_Energy>
30.9183

> <b_lp_Chiralities_Consistent>
1

> <s_lp_Variant>
AV-unprocessed.smi:1007-12

> <Gold.Version>
5.8.1

> <Gold.Id.Protein>
6NUR|6NUR_protein|mol2

> <Gold.PLP.Fitness>
53.2998

> <Gold.PLP.PLP>
-45.7081

> <Gold.PLP.part.hbond>
-2.2136

> <Gold.PLP.part.metal>
0.0000

> <Gold.PLP.part.buried>
-2.7259

> <Gold.PLP.part.nonpolar>
-41.6256

> <Gold.PLP.part.repulsive>
0.0988

> <Gold.PLP.ligand.clash>
0.0000

> <Gold.PLP.ligand.torsion>
0.8060

> <Gold.PLP.Chemscore.Hbond>
3.0000

> <Gold.PLP.Chemscore.CHOScore>
0.0000

> <Gold.PLP.Chemscore.Metal>
0.0000

> <Gold.Chemscore.Hbonds>
donor molecule, donor type, donor heavy atom, donor atom, acceptor molecule, acceptor atom, score
      L1  H     8    56       P1 10175  2.00
      L1  H    11    40       P1  7957  1.00

> <Gold.PLP.Chemscore.Internal.Correction>
0.2037

> <Gold.Rescore>
     Score         DG    S(hbond)    S(metal)    S(lipo)     H(rot)  DE(clash)    DE(int)     intcor
     19.06     -19.95       1.98        0.00     124.84       2.63       0.05       0.85       ----

> <Gold.Chemscore.Fitness>
19.0572

> <Gold.Chemscore.DG>
-19.9540

> <Gold.Chemscore.ZeroCoef>
-5.4800

> <Gold.Chemscore.Hbond>
1.9798

> <Gold.Chemscore.Metal>
0.0000

> <Gold.Chemscore.Lipo>
124.8392

> <Gold.Chemscore.Internal_Hbond>
0.0000

> <Gold.Chemscore.DEClash>
0.0481

> <Gold.Chemscore.DEInternal>
0.8486

> <Gold.Chemscore.Rot>
2.6347

> <Gold.Chemscore.Internal.Correction>
   9.000000E+99

> <Gold.Chemscore.Hbonds>
donor molecule, donor type, donor heavy atom, donor atom, acceptor molecule, acceptor atom, score
      L1  H     8    56       P1 10175  0.99
      L1  H    11    40       P1  7957  1.00

> <Gold.Chemscore.Hbond.Weighted>
-6.6126

> <Gold.Chemscore.Metal.Weighted>
-0.0000

> <Gold.Chemscore.Lipo.Weighted>
-14.6062

> <Gold.Chemscore.Internal_Hbond.Weighted>
0.0000

> <Gold.Chemscore.DEClash.Weighted>
0.0481

> <Gold.Chemscore.DEInternal.Weighted>
0.8486

> <Gold.Chemscore.Rot.Weighted>
6.7448

> <Gold.Chemscore.Internal.Correction.Weighted>
   9.000000E+99

> <Gold.Protein.RotatedTorsions>
[ 6907 6896 6895 6894 ] final   67.64 input  -60.11 | X-H torsion
[ 7974 7965 7964 7962 ] final   22.39 input  175.53 | X-H torsion
[ 8008 7997 7996 7995 ] final  -75.84 input   59.86 | X-H torsion
[ 10167 10162 10161 10158 ] final   50.89 input  -65.29 | X-H torsion
[ 10718 10713 10712 10709 ] final  101.12 input   66.30 | X-H torsion
[ 10763 10752 10751 10750 ] final   82.13 input  -60.55 | X-H torsion
[ 11005 11000 10999 10996 ] final   47.91 input  -57.11 | X-H torsion

> <Gold.Protein.ActiveResidues>
 VAL166  LYS551  ARG553  GLY616  TRP617  ASP618  TYR619  PRO620  LYS621  CYS622 
 ASP623  PHE694  ASN695  SER759  ASP760  ASP761  ALA762  ILE779  LEU786  VAL792 
 PHE793  MET794  SER795  GLU796  ALA797  LYS798  CYS799  TRP800  GLU811  SER814 

> <Gold.Protein.RotatedAtoms>
  152.4566  134.5279  159.9801 H   0  0  0  0  0  0  0  0  0  0  0  0  # atno 6907 bound_to 6896
  151.5338  133.3438  159.2931 H   0  0  0  0  0  0  0  0  0  0  0  0  # atno 6908 bound_to 6896
  150.8512  134.7868  159.7073 H   0  0  0  0  0  0  0  0  0  0  0  0  # atno 6909 bound_to 6896
  146.2031  139.7892  142.8746 H   0  0  0  0  0  0  0  0  0  0  0  0  # atno 7974 bound_to 7965
  154.5452  140.0737  156.8577 H   0  0  0  0  0  0  0  0  0  0  0  0  # atno 8008 bound_to 7997
  155.3101  140.3389  155.4226 H   0  0  0  0  0  0  0  0  0  0  0  0  # atno 8009 bound_to 7997
  156.1912  140.1687  156.8075 H   0  0  0  0  0  0  0  0  0  0  0  0  # atno 8010 bound_to 7997
  140.2677  144.3301  150.6299 H   0  0  0  0  0  0  0  0  0  0  0  0  # atno 10167 bound_to 10162
  157.6837  131.0717  150.5203 H   0  0  0  0  0  0  0  0  0  0  0  0  # atno 10718 bound_to 10713
  153.1176  135.4739  154.9142 H   0  0  0  0  0  0  0  0  0  0  0  0  # atno 10763 bound_to 10752
  154.7544  135.3114  154.8500 H   0  0  0  0  0  0  0  0  0  0  0  0  # atno 10764 bound_to 10752
  153.9073  135.6869  153.4806 H   0  0  0  0  0  0  0  0  0  0  0  0  # atno 10765 bound_to 10752
  140.1237  134.4796  155.8577 H   0  0  0  0  0  0  0  0  0  0  0  0  # atno 11005 bound_to 11000
  145.3415  141.0289  143.3389 LP  0  0  0  0  0  0  0  0  0  0  0  0  # atno 17320 bound_to 7965
  144.8728  139.5013  143.6759 LP  0  0  0  0  0  0  0  0  0  0  0  0  # atno 17321 bound_to 7965
  140.5915  143.2168  151.7244 LP  0  0  0  0  0  0  0  0  0  0  0  0  # atno 17342 bound_to 10162
  139.4998  144.3932  152.0258 LP  0  0  0  0  0  0  0  0  0  0  0  0  # atno 17343 bound_to 10162
  156.5517  130.4233  149.6104 LP  0  0  0  0  0  0  0  0  0  0  0  0  # atno 17370 bound_to 10713
  156.2897  130.7117  151.1963 LP  0  0  0  0  0  0  0  0  0  0  0  0  # atno 17371 bound_to 10713
  141.2157  133.6770  156.6937 LP  0  0  0  0  0  0  0  0  0  0  0  0  # atno 17394 bound_to 11000
  140.2932  134.8224  157.4034 LP  0  0  0  0  0  0  0  0  0  0  0  0  # atno 17395 bound_to 11000

$$$$
