AV-unprocessed.smi:654|AV-procd|sdf|3213|dock9
  -GOLD-   22720 0153D 1   1.00000     0.00000
 Structure written by MMmdl.
 48 50  0  0  0  0  0  0  0  0  2 V2000
  147.3799  139.0843  155.6211 O   0  0  0  0  0  0  0  0  0  0  0  0
  148.1400  138.6441  154.7579 C   0  0  0  0  0  0  0  0  0  0  0  0
  147.8371  137.5541  154.0327 N   0  0  0  0  0  0  0  0  0  0  0  0
  146.6086  136.7736  154.1484 C   0  0  0  0  0  0  0  0  0  0  0  0
  145.3716  137.5097  153.5954 C   0  0  0  0  0  0  0  0  0  0  0  0
  144.0897  136.6999  153.6883 C   0  0  0  0  0  0  0  0  0  0  0  0
  142.8782  137.2095  153.1718 C   0  0  0  0  0  0  0  0  0  0  0  0
  141.7017  136.4390  153.2804 C   0  0  0  0  0  0  0  0  0  0  0  0
  141.7638  135.1752  153.9025 C   0  0  0  0  0  0  0  0  0  0  0  0
  142.9412  134.7199  154.3839 N   0  3  0  0  0  0  0  0  0  0  0  0
  144.0893  135.4267  154.2993 C   0  0  0  0  0  0  0  0  0  0  0  0
  149.3410  139.2066  154.4663 N   0  0  0  0  0  0  0  0  0  0  0  0
  150.4745  138.5397  153.8066 C   0  0  0  0  0  0  0  0  0  0  0  0
  151.5373  138.2061  154.8610 C   0  0  0  0  0  0  0  0  0  0  0  0
  152.1908  139.7238  155.6214 S   0  0  0  0  0  0  0  0  0  0  0  0
  150.6479  140.5995  156.0861 C   0  0  0  0  0  0  0  0  0  0  0  0
  150.0008  139.9414  157.3351 C   0  0  0  0  0  0  0  0  0  0  0  0
  150.8309  140.1181  158.6195 C   0  0  0  0  0  0  0  0  0  0  0  0
  151.1216  141.5982  158.8982 C   0  0  0  0  0  0  0  0  0  0  0  0
  151.8112  142.2543  157.6953 C   0  0  0  0  0  0  0  0  0  0  0  0
  150.9802  142.0775  156.4115 C   0  0  0  0  0  0  0  0  0  0  0  0
  149.6806  140.5790  154.8706 C   0  0  0  0  0  0  0  0  0  0  0  0
  148.5124  137.2415  153.3504 H   0  0  0  0  0  0  0  0  0  0  0  0
  146.7605  135.8505  153.5887 H   0  0  0  0  0  0  0  0  0  0  0  0
  146.4450  136.4797  155.1864 H   0  0  0  0  0  0  0  0  0  0  0  0
  145.2353  138.4504  154.1303 H   0  0  0  0  0  0  0  0  0  0  0  0
  145.5417  137.7820  152.5531 H   0  0  0  0  0  0  0  0  0  0  0  0
  142.8491  138.1812  152.7004 H   0  0  0  0  0  0  0  0  0  0  0  0
  140.7651  136.8125  152.8922 H   0  0  0  0  0  0  0  0  0  0  0  0
  140.9142  134.5199  154.0285 H   0  0  0  0  0  0  0  0  0  0  0  0
  144.9651  134.9582  154.7250 H   0  0  0  0  0  0  0  0  0  0  0  0
  150.1920  137.6364  153.2656 H   0  0  0  0  0  0  0  0  0  0  0  0
  150.8994  139.1968  153.0465 H   0  0  0  0  0  0  0  0  0  0  0  0
  151.1219  137.5607  155.6355 H   0  0  0  0  0  0  0  0  0  0  0  0
  152.3653  137.6627  154.4059 H   0  0  0  0  0  0  0  0  0  0  0  0
  149.0145  140.3782  157.4980 H   0  0  0  0  0  0  0  0  0  0  0  0
  149.8308  138.8778  157.1708 H   0  0  0  0  0  0  0  0  0  0  0  0
  150.2975  139.6828  159.4649 H   0  0  0  0  0  0  0  0  0  0  0  0
  151.7691  139.5686  158.5365 H   0  0  0  0  0  0  0  0  0  0  0  0
  150.1890  142.1204  159.1161 H   0  0  0  0  0  0  0  0  0  0  0  0
  151.7468  141.6955  159.7862 H   0  0  0  0  0  0  0  0  0  0  0  0
  151.9625  143.3160  157.8920 H   0  0  0  0  0  0  0  0  0  0  0  0
  152.8050  141.8258  157.5624 H   0  0  0  0  0  0  0  0  0  0  0  0
  151.5064  142.5358  155.5734 H   0  0  0  0  0  0  0  0  0  0  0  0
  150.0523  142.6399  156.5250 H   0  0  0  0  0  0  0  0  0  0  0  0
  150.1362  141.0973  154.0253 H   0  0  0  0  0  0  0  0  0  0  0  0
  148.7861  141.1607  155.0997 H   0  0  0  0  0  0  0  0  0  0  0  0
  142.9648  133.8027  154.8304 H   0  0  0  0  0  0  0  0  0  0  0  0
  1  2  2  0  0  0  0
  2  3  1  0  0  0  0
  2 12  1  0  0  0  0
  3  4  1  0  0  0  0
  3 23  1  0  0  0  0
  4  5  1  0  0  0  0
  4 24  1  0  0  0  0
  4 25  1  0  0  0  0
  5  6  1  0  0  0  0
  5 26  1  0  0  0  0
  5 27  1  0  0  0  0
  6 11  1  0  0  0  0
  6  7  2  0  0  0  0
  7  8  1  0  0  0  0
  7 28  1  0  0  0  0
  8  9  2  0  0  0  0
  8 29  1  0  0  0  0
  9 10  1  0  0  0  0
  9 30  1  0  0  0  0
 10 11  2  0  0  0  0
 10 48  1  0  0  0  0
 11 31  1  0  0  0  0
 12 22  1  0  0  0  0
 12 13  1  0  0  0  0
 13 14  1  0  0  0  0
 13 32  1  0  0  0  0
 13 33  1  0  0  0  0
 14 15  1  0  0  0  0
 14 34  1  0  0  0  0
 14 35  1  0  0  0  0
 15 16  1  0  0  0  0
 16 21  1  0  0  0  0
 16 17  1  0  0  0  0
 16 22  1  0  0  0  0
 17 18  1  0  0  0  0
 17 36  1  0  0  0  0
 17 37  1  0  0  0  0
 18 19  1  0  0  0  0
 18 38  1  0  0  0  0
 18 39  1  0  0  0  0
 19 20  1  0  0  0  0
 19 40  1  0  0  0  0
 19 41  1  0  0  0  0
 20 21  1  0  0  0  0
 20 42  1  0  0  0  0
 20 43  1  0  0  0  0
 21 44  1  0  0  0  0
 21 45  1  0  0  0  0
 22 46  1  0  0  0  0
 22 47  1  0  0  0  0
M  CHG  1  10   1
M  END
> <s_m_source_file>
AV-unprocessed.smi

> <i_m_source_file_index>
654

> <i_lp_mmshare_version>
43012

> <i_f3d_flags>
0

> <s_epik_input>
W2NIXTFuW2NIXVtjSF1bY0hdYzFbQ0gyXVtDSDJdW05IXUMoPU8pTihbQ0gyXTIpW0NIMl1bQ0gyXVNDMjNbQ0gyXVtDSDJdW0NIMl1bQ0gyXVtDSDJdMw==

> <s_epik_cmdline>
J2VwaWtfcHl0aG9uJywgJy1waCcsICc3LjAnLCAnLXRuJywgJzgnLCAnLW1hJywgJzIwMCcsICctbWV0YWxfYmluZGluZycsICctaW1hZScsICc8aW5maWxlLm1hZT4nLCAnLW9tYWUnLCAnPG91dGZpbGUubWFlPic=

> <r_epik_Ionization_Penalty>
2.2093

> <r_epik_Ionization_Penalty_Charging>
2.20925

> <r_epik_Ionization_Penalty_Neutral>
4.66963e-05

> <r_epik_State_Penalty>
2.35335

> <r_epik_Charging_Adjusted_Penalty>
4.5626

> <i_epik_Tot_Q>
1

> <i_epik_Tot_abs_Q>
1

> <r_epik_Metal_State_Penalty>
2.36748

> <b_epik_Metal_Only>
0

> <s_lp_Force_Field>
OPLS_2005

> <r_lp_Energy>
39.5462

> <b_lp_Chiralities_Consistent>
1

> <s_lp_Variant>
AV-unprocessed.smi:654-2

> <Gold.Version>
5.8.1

> <Gold.Id.Protein>
6NUR|6NUR_protein|mol2

> <Gold.PLP.Fitness>
41.6587

> <Gold.PLP.PLP>
-33.1164

> <Gold.PLP.part.hbond>
-2.0000

> <Gold.PLP.part.metal>
0.0000

> <Gold.PLP.part.buried>
-4.4081

> <Gold.PLP.part.nonpolar>
-26.3978

> <Gold.PLP.part.repulsive>
0.0097

> <Gold.PLP.ligand.clash>
0.0000

> <Gold.PLP.ligand.torsion>
0.2318

> <Gold.PLP.Chemscore.Hbond>
3.0000

> <Gold.PLP.Chemscore.CHOScore>
0.0000

> <Gold.PLP.Chemscore.Metal>
0.0000

> <Gold.Chemscore.Hbonds>
donor molecule, donor type, donor heavy atom, donor atom, acceptor molecule, acceptor atom, score
      L1  H     3    23       P1  7948  1.00
      L1  H    10    48       P1 10957  1.89

> <Gold.PLP.Chemscore.Internal.Correction>
0.0058

> <Gold.Rescore>
     Score         DG    S(hbond)    S(metal)    S(lipo)     H(rot)  DE(clash)    DE(int)     intcor
     18.87     -19.13       1.97        0.00      88.81       1.30       0.02       0.23       ----

> <Gold.Chemscore.Fitness>
18.8739

> <Gold.Chemscore.DG>
-19.1258

> <Gold.Chemscore.ZeroCoef>
-5.4800

> <Gold.Chemscore.Hbond>
1.9675

> <Gold.Chemscore.Metal>
0.0000

> <Gold.Chemscore.Lipo>
88.8050

> <Gold.Chemscore.Internal_Hbond>
0.0000

> <Gold.Chemscore.DEClash>
0.0211

> <Gold.Chemscore.DEInternal>
0.2308

> <Gold.Chemscore.Rot>
1.2953

> <Gold.Chemscore.Internal.Correction>
   9.000000E+99

> <Gold.Chemscore.Hbonds>
donor molecule, donor type, donor heavy atom, donor atom, acceptor molecule, acceptor atom, score
      L1  H     3    23       P1  7948  0.96
      L1  H    10    48       P1 10957  0.86

> <Gold.Chemscore.Hbond.Weighted>
-6.5715

> <Gold.Chemscore.Metal.Weighted>
-0.0000

> <Gold.Chemscore.Lipo.Weighted>
-10.3902

> <Gold.Chemscore.Internal_Hbond.Weighted>
0.0000

> <Gold.Chemscore.DEClash.Weighted>
0.0211

> <Gold.Chemscore.DEInternal.Weighted>
0.2308

> <Gold.Chemscore.Rot.Weighted>
3.3159

> <Gold.Chemscore.Internal.Correction.Weighted>
   9.000000E+99

> <Gold.Protein.RotatedTorsions>
[ 6907 6896 6895 6894 ] final  120.41 input  -60.11 | X-H torsion
[ 7974 7965 7964 7962 ] final   62.49 input  175.53 | X-H torsion
[ 8008 7997 7996 7995 ] final    5.12 input   59.86 | X-H torsion
[ 10167 10162 10161 10158 ] final   41.56 input  -65.29 | X-H torsion
[ 10718 10713 10712 10709 ] final  -49.01 input   66.30 | X-H torsion
[ 10763 10752 10751 10750 ] final    6.81 input  -60.55 | X-H torsion
[ 11005 11000 10999 10996 ] final   55.73 input  -57.11 | X-H torsion

> <Gold.Protein.ActiveResidues>
 VAL166  LYS551  ARG553  GLY616  TRP617  ASP618  TYR619  PRO620  LYS621  CYS622 
 ASP623  PHE694  ASN695  SER759  ASP760  ASP761  ALA762  ILE779  LEU786  VAL792 
 PHE793  MET794  SER795  GLU796  ALA797  LYS798  CYS799  TRP800  GLU811  SER814 

> <Gold.Protein.RotatedAtoms>
  152.4400  133.7431  159.6651 H   0  0  0  0  0  0  0  0  0  0  0  0  # atno 6907 bound_to 6896
  150.8289  133.8113  159.3113 H   0  0  0  0  0  0  0  0  0  0  0  0  # atno 6908 bound_to 6896
  151.5773  135.1062  160.0061 H   0  0  0  0  0  0  0  0  0  0  0  0  # atno 6909 bound_to 6896
  145.8728  139.3389  143.0752 H   0  0  0  0  0  0  0  0  0  0  0  0  # atno 7974 bound_to 7965
  154.7244  140.2718  155.6512 H   0  0  0  0  0  0  0  0  0  0  0  0  # atno 8008 bound_to 7997
  156.2832  140.2728  156.1850 H   0  0  0  0  0  0  0  0  0  0  0  0  # atno 8009 bound_to 7997
  155.0464  140.0371  157.2518 H   0  0  0  0  0  0  0  0  0  0  0  0  # atno 8010 bound_to 7997
  140.3631  144.2203  150.6137 H   0  0  0  0  0  0  0  0  0  0  0  0  # atno 10167 bound_to 10162
  156.1934  130.4153  149.9340 H   0  0  0  0  0  0  0  0  0  0  0  0  # atno 10718 bound_to 10713
  153.2434  135.6906  153.7758 H   0  0  0  0  0  0  0  0  0  0  0  0  # atno 10763 bound_to 10752
  153.6879  135.3317  155.3195 H   0  0  0  0  0  0  0  0  0  0  0  0  # atno 10764 bound_to 10752
  154.8365  135.4538  154.1365 H   0  0  0  0  0  0  0  0  0  0  0  0  # atno 10765 bound_to 10752
  140.0584  134.5637  155.9180 H   0  0  0  0  0  0  0  0  0  0  0  0  # atno 11005 bound_to 11000
  145.9117  140.9176  143.0451 LP  0  0  0  0  0  0  0  0  0  0  0  0  # atno 17320 bound_to 7965
  144.6726  140.1169  143.7452 LP  0  0  0  0  0  0  0  0  0  0  0  0  # atno 17321 bound_to 7965
  140.5108  143.2291  151.8539 LP  0  0  0  0  0  0  0  0  0  0  0  0  # atno 17342 bound_to 10162
  139.4812  144.4952  151.9133 LP  0  0  0  0  0  0  0  0  0  0  0  0  # atno 17343 bound_to 10162
  156.7073  130.8956  151.3606 LP  0  0  0  0  0  0  0  0  0  0  0  0  # atno 17370 bound_to 10713
  157.6943  130.9265  150.0599 LP  0  0  0  0  0  0  0  0  0  0  0  0  # atno 17371 bound_to 10713
  141.1962  133.6590  156.5682 LP  0  0  0  0  0  0  0  0  0  0  0  0  # atno 17394 bound_to 11000
  140.3808  134.7525  157.4660 LP  0  0  0  0  0  0  0  0  0  0  0  0  # atno 17395 bound_to 11000

$$$$
