AV-unprocessed.smi:2712|AV-procd|sdf|10477|dock7
  -GOLD-   2272014523D 1   1.00000     0.00000
 Structure written by MMmdl.
 52 53  0  0  0  0  0  0  0  0  1 V2000
  152.0144  144.7348  159.3215 C   0  0  0  0  0  0  0  0  0  0  0  0
  152.0919  143.2390  159.2428 C   0  0  0  0  0  0  0  0  0  0  0  0
  152.9249  142.4461  160.1267 C   0  0  0  0  0  0  0  0  0  0  0  0
  152.9418  141.1027  159.9912 C   0  0  0  0  0  0  0  0  0  0  0  0
  152.1402  140.4227  158.9761 C   0  0  0  0  0  0  0  0  0  0  0  0
  152.1368  139.2011  158.8246 O   0  0  0  0  0  0  0  0  0  0  0  0
  151.3917  141.2699  158.2088 N   0  0  0  0  0  0  0  0  0  0  0  0
  150.5127  140.7579  157.1474 C   0  0  0  0  0  0  0  0  0  0  0  0
  149.4284  139.8019  157.6657 C   0  0  0  0  0  0  0  0  0  0  0  0
  148.2729  140.1932  157.8370 O   0  0  0  0  0  0  0  0  0  0  0  0
  149.8196  138.5390  157.8977 N   0  0  0  0  0  0  0  0  0  0  0  0
  148.9637  137.4628  158.3930 C   0  0  1  0  0  0  0  0  0  0  0  0
  148.8900  136.3678  157.3123 C   0  0  0  0  0  0  0  0  0  0  0  0
  148.3804  134.9928  157.7735 C   0  0  0  0  0  0  0  0  0  0  0  0
  147.2405  135.0182  158.8057 C   0  0  0  0  0  0  0  0  0  0  0  0
  147.7316  135.0373  160.2812 C   0  0  2  0  0  0  0  0  0  0  0  0
  146.6428  134.5343  161.3013 C   0  0  0  0  0  0  0  0  0  0  0  0
  145.3352  135.3491  161.1955 C   0  0  0  0  0  0  0  0  0  0  0  0
  147.1549  134.6276  162.7576 C   0  0  0  0  0  0  0  0  0  0  0  0
  146.3143  133.0418  161.0584 C   0  0  0  0  0  0  0  0  0  0  0  0
  148.3374  136.4161  160.6627 C   0  0  0  0  0  0  0  0  0  0  0  0
  149.4650  136.9530  159.7603 C   0  0  0  0  0  0  0  0  0  0  0  0
  151.3768  142.6487  158.3420 N   0  0  0  0  0  0  0  0  0  0  0  0
  152.7440  145.1310  160.0283 H   0  0  0  0  0  0  0  0  0  0  0  0
  151.0245  145.0542  159.6486 H   0  0  0  0  0  0  0  0  0  0  0  0
  152.2126  145.1879  158.3496 H   0  0  0  0  0  0  0  0  0  0  0  0
  153.5229  142.9334  160.8827 H   0  0  0  0  0  0  0  0  0  0  0  0
  153.5625  140.5135  160.6501 H   0  0  0  0  0  0  0  0  0  0  0  0
  150.0165  141.5845  156.6356 H   0  0  0  0  0  0  0  0  0  0  0  0
  151.1098  140.2567  156.3830 H   0  0  0  0  0  0  0  0  0  0  0  0
  150.7872  138.3062  157.7267 H   0  0  0  0  0  0  0  0  0  0  0  0
  147.9590  137.8695  158.5221 H   0  0  0  0  0  0  0  0  0  0  0  0
  148.2502  136.7300  156.5065 H   0  0  0  0  0  0  0  0  0  0  0  0
  149.8729  136.2221  156.8615 H   0  0  0  0  0  0  0  0  0  0  0  0
  148.0431  134.4525  156.8882 H   0  0  0  0  0  0  0  0  0  0  0  0
  149.2124  134.4041  158.1611 H   0  0  0  0  0  0  0  0  0  0  0  0
  146.5600  135.8465  158.6057 H   0  0  0  0  0  0  0  0  0  0  0  0
  146.6567  134.1202  158.6213 H   0  0  0  0  0  0  0  0  0  0  0  0
  148.5516  134.3211  160.3517 H   0  0  0  0  0  0  0  0  0  0  0  0
  144.5951  134.9972  161.9153 H   0  0  0  0  0  0  0  0  0  0  0  0
  144.8808  135.2661  160.2086 H   0  0  0  0  0  0  0  0  0  0  0  0
  145.4965  136.4077  161.3971 H   0  0  0  0  0  0  0  0  0  0  0  0
  147.2506  135.6589  163.0967 H   0  0  0  0  0  0  0  0  0  0  0  0
  148.1259  134.1443  162.8709 H   0  0  0  0  0  0  0  0  0  0  0  0
  146.4687  134.1441  163.4539 H   0  0  0  0  0  0  0  0  0  0  0  0
  145.6659  132.6470  161.8414 H   0  0  0  0  0  0  0  0  0  0  0  0
  147.2174  132.4305  161.0504 H   0  0  0  0  0  0  0  0  0  0  0  0
  145.7881  132.8699  160.1211 H   0  0  0  0  0  0  0  0  0  0  0  0
  147.5518  137.1684  160.7303 H   0  0  0  0  0  0  0  0  0  0  0  0
  148.7704  136.3526  161.6593 H   0  0  0  0  0  0  0  0  0  0  0  0
  150.2552  136.2112  159.6371 H   0  0  0  0  0  0  0  0  0  0  0  0
  149.9274  137.7806  160.3004 H   0  0  0  0  0  0  0  0  0  0  0  0
  1  2  1  0  0  0  0
  1 24  1  0  0  0  0
  1 25  1  0  0  0  0
  1 26  1  0  0  0  0
  2 23  2  0  0  0  0
  2  3  1  0  0  0  0
  3  4  2  0  0  0  0
  3 27  1  0  0  0  0
  4  5  1  0  0  0  0
  4 28  1  0  0  0  0
  5  6  2  0  0  0  0
  5  7  1  0  0  0  0
  7  8  1  0  0  0  0
  7 23  1  0  0  0  0
  8  9  1  0  0  0  0
  8 29  1  0  0  0  0
  8 30  1  0  0  0  0
  9 10  2  0  0  0  0
  9 11  1  0  0  0  0
 11 12  1  0  0  0  0
 11 31  1  0  0  0  0
 12 22  1  0  0  0  0
 12 13  1  0  0  0  0
 12 32  1  0  0  0  0
 13 14  1  0  0  0  0
 13 33  1  0  0  0  0
 13 34  1  0  0  0  0
 14 15  1  0  0  0  0
 14 35  1  0  0  0  0
 14 36  1  0  0  0  0
 15 16  1  0  0  0  0
 15 37  1  0  0  0  0
 15 38  1  0  0  0  0
 16 17  1  0  0  0  0
 16 21  1  0  0  0  0
 16 39  1  0  0  0  0
 17 18  1  0  0  0  0
 17 19  1  0  0  0  0
 17 20  1  0  0  0  0
 18 40  1  0  0  0  0
 18 41  1  0  0  0  0
 18 42  1  0  0  0  0
 19 43  1  0  0  0  0
 19 44  1  0  0  0  0
 19 45  1  0  0  0  0
 20 46  1  0  0  0  0
 20 47  1  0  0  0  0
 20 48  1  0  0  0  0
 21 22  1  0  0  0  0
 21 49  1  0  0  0  0
 21 50  1  0  0  0  0
 22 51  1  0  0  0  0
 22 52  1  0  0  0  0
M  END
> <s_m_source_file>
AV-unprocessed.smi

> <i_m_source_file_index>
2712

> <i_lp_mmshare_version>
43012

> <i_f3d_flags>
0

> <s_epik_input>
W0NIM11jMVtjSF1bY0hdYyg9TyluKG4xKVtDSDJdQyg9TylbTkhdW0NAQEhdMltDSDJdW0NIMl1bQ0gyXVtDQEBIXShDKFtDSDNdKShbQ0gzXSlbQ0gzXSlbQ0gyXVtDSDJdMg==

> <s_epik_cmdline>
J2VwaWtfcHl0aG9uJywgJy1waCcsICc3LjAnLCAnLXRuJywgJzgnLCAnLW1hJywgJzIwMCcsICctbWV0YWxfYmluZGluZycsICctaW1hZScsICc8aW5maWxlLm1hZT4nLCAnLW9tYWUnLCAnPG91dGZpbGUubWFlPic=

> <r_lp_tautomer_probability>
1

> <r_epik_Ionization_Penalty>
8.71758e-07

> <r_epik_Ionization_Penalty_Charging>
8.50442e-07

> <r_epik_Ionization_Penalty_Neutral>
2.13165e-08

> <r_epik_State_Penalty>
-0

> <r_epik_Charging_Adjusted_Penalty>
8.50442e-07

> <i_epik_Tot_Q>
0

> <i_epik_Tot_abs_Q>
0

> <r_epik_Metal_State_Penalty>
-0

> <b_epik_Metal_Only>
0

> <s_lp_Force_Field>
OPLS_2005

> <r_lp_Energy>
38.5576

> <b_lp_Chiralities_Consistent>
1

> <s_lp_Variant>
AV-unprocessed.smi:2712-4

> <Gold.Version>
5.8.1

> <Gold.Id.Protein>
6NUR|6NUR_protein|mol2

> <Gold.PLP.Fitness>
38.3536

> <Gold.PLP.PLP>
-39.0654

> <Gold.PLP.part.hbond>
-0.7067

> <Gold.PLP.part.metal>
0.0000

> <Gold.PLP.part.buried>
-4.2904

> <Gold.PLP.part.nonpolar>
-34.2849

> <Gold.PLP.part.repulsive>
0.1290

> <Gold.PLP.ligand.clash>
0.0000

> <Gold.PLP.ligand.torsion>
0.3914

> <Gold.PLP.Chemscore.Hbond>
0.0000

> <Gold.PLP.Chemscore.CHOScore>
0.0000

> <Gold.PLP.Chemscore.Metal>
0.0000

> <Gold.PLP.Chemscore.Internal.Correction>
0.0710

> <Gold.Rescore>
     Score         DG    S(hbond)    S(metal)    S(lipo)     H(rot)  DE(clash)    DE(int)     intcor
     13.00     -14.27       0.00        0.00     108.30       1.52       0.01       1.26       ----

> <Gold.Chemscore.Fitness>
13.0049

> <Gold.Chemscore.DG>
-14.2702

> <Gold.Chemscore.ZeroCoef>
-5.4800

> <Gold.Chemscore.Hbond>
0.0000

> <Gold.Chemscore.Metal>
0.0000

> <Gold.Chemscore.Lipo>
108.3049

> <Gold.Chemscore.Internal_Hbond>
0.0000

> <Gold.Chemscore.DEClash>
0.0089

> <Gold.Chemscore.DEInternal>
1.2565

> <Gold.Chemscore.Rot>
1.5162

> <Gold.Chemscore.Internal.Correction>
   9.000000E+99

> <Gold.Chemscore.Hbond.Weighted>
-0.0000

> <Gold.Chemscore.Metal.Weighted>
-0.0000

> <Gold.Chemscore.Lipo.Weighted>
-12.6717

> <Gold.Chemscore.Internal_Hbond.Weighted>
0.0000

> <Gold.Chemscore.DEClash.Weighted>
0.0089

> <Gold.Chemscore.DEInternal.Weighted>
1.2565

> <Gold.Chemscore.Rot.Weighted>
3.8814

> <Gold.Chemscore.Internal.Correction.Weighted>
   9.000000E+99

> <Gold.Protein.RotatedTorsions>
[ 6907 6896 6895 6894 ] final  136.95 input  -60.11 | X-H torsion
[ 7974 7965 7964 7962 ] final  122.39 input  175.53 | X-H torsion
[ 8008 7997 7996 7995 ] final  -22.40 input   59.86 | X-H torsion
[ 10167 10162 10161 10158 ] final  142.28 input  -65.29 | X-H torsion
[ 10718 10713 10712 10709 ] final   11.20 input   66.30 | X-H torsion
[ 10763 10752 10751 10750 ] final   18.84 input  -60.55 | X-H torsion
[ 11005 11000 10999 10996 ] final  151.83 input  -57.11 | X-H torsion

> <Gold.Protein.ActiveResidues>
 VAL166  LYS551  ARG553  GLY616  TRP617  ASP618  TYR619  PRO620  LYS621  CYS622 
 ASP623  PHE694  ASN695  SER759  ASP760  ASP761  ALA762  ILE779  LEU786  VAL792 
 PHE793  MET794  SER795  GLU796  ALA797  LYS798  CYS799  TRP800  GLU811  SER814 

> <Gold.Protein.RotatedAtoms>
  152.2836  133.5494  159.5512 H   0  0  0  0  0  0  0  0  0  0  0  0  # atno 6907 bound_to 6896
  150.7206  134.0529  159.3813 H   0  0  0  0  0  0  0  0  0  0  0  0  # atno 6908 bound_to 6896
  151.8438  135.0581  160.0502 H   0  0  0  0  0  0  0  0  0  0  0  0  # atno 6909 bound_to 6896
  145.1082  139.3471  143.4777 H   0  0  0  0  0  0  0  0  0  0  0  0  # atno 7974 bound_to 7965
  154.4646  140.2009  156.0152 H   0  0  0  0  0  0  0  0  0  0  0  0  # atno 8008 bound_to 7997
  156.0904  140.3259  155.7779 H   0  0  0  0  0  0  0  0  0  0  0  0  # atno 8009 bound_to 7997
  155.4966  140.0550  157.2936 H   0  0  0  0  0  0  0  0  0  0  0  0  # atno 8010 bound_to 7997
  139.4998  144.6117  151.6256 H   0  0  0  0  0  0  0  0  0  0  0  0  # atno 10167 bound_to 10162
  156.9922  130.6047  149.5687 H   0  0  0  0  0  0  0  0  0  0  0  0  # atno 10718 bound_to 10713
  153.1213  135.6720  153.9330 H   0  0  0  0  0  0  0  0  0  0  0  0  # atno 10763 bound_to 10752
  153.8845  135.3054  155.3447 H   0  0  0  0  0  0  0  0  0  0  0  0  # atno 10764 bound_to 10752
  154.7624  135.4981  153.9570 H   0  0  0  0  0  0  0  0  0  0  0  0  # atno 10765 bound_to 10752
  140.1254  134.8837  157.2130 H   0  0  0  0  0  0  0  0  0  0  0  0  # atno 11005 bound_to 11000
  146.3527  140.0989  142.8609 LP  0  0  0  0  0  0  0  0  0  0  0  0  # atno 17320 bound_to 7965
  145.0877  140.9264  143.4787 LP  0  0  0  0  0  0  0  0  0  0  0  0  # atno 17321 bound_to 7965
  140.5794  143.9972  150.6260 LP  0  0  0  0  0  0  0  0  0  0  0  0  # atno 17342 bound_to 10162
  140.3116  143.3194  152.0873 LP  0  0  0  0  0  0  0  0  0  0  0  0  # atno 17343 bound_to 10162
  156.0203  130.5298  150.8255 LP  0  0  0  0  0  0  0  0  0  0  0  0  # atno 17370 bound_to 10713
  157.5451  131.0942  150.9774 LP  0  0  0  0  0  0  0  0  0  0  0  0  # atno 17371 bound_to 10713
  140.2911  134.3239  155.7315 LP  0  0  0  0  0  0  0  0  0  0  0  0  # atno 17394 bound_to 11000
  141.2160  133.7535  156.9504 LP  0  0  0  0  0  0  0  0  0  0  0  0  # atno 17395 bound_to 11000

$$$$
