AV-unprocessed.smi:686|AV-procd|sdf|3342|dock1
  -GOLD-   22720 0313D 1   1.00000     0.00000
 Structure written by MMmdl.
 41 42  0  0  0  0  0  0  0  0  2 V2000
  149.6801  132.5277  155.1451 C   0  0  0  0  0  0  0  0  0  0  0  0
  149.0774  133.5198  154.1412 C   0  0  1  0  0  0  0  0  0  0  0  0
  148.1153  132.8716  153.1436 C   0  0  0  0  0  0  0  0  0  0  0  0
  147.2203  133.9622  152.7085 N   0  3  1  0  0  0  0  0  0  0  0  0
  145.9847  133.5305  151.9957 C   0  0  0  0  0  0  0  0  0  0  0  0
  146.3131  132.6548  150.7719 C   0  0  0  0  0  0  0  0  0  0  0  0
  145.1422  134.7416  151.5526 C   0  0  0  0  0  0  0  0  0  0  0  0
  146.9913  134.7783  153.9208 C   0  0  0  0  0  0  0  0  0  0  0  0
  148.2565  134.6492  154.7899 C   0  0  2  0  0  0  0  0  0  0  0  0
  149.0333  135.8947  154.8081 N   0  0  0  0  0  0  0  0  0  0  0  0
  150.2644  136.1525  155.9937 S   0  0  0  0  0  0  0  0  0  0  0  0
  150.2630  135.0041  156.9137 O   0  0  0  0  0  0  0  0  0  0  0  0
  151.4923  136.5277  155.2769 O   0  0  0  0  0  0  0  0  0  0  0  0
  149.6472  137.6390  156.8938 C   0  0  0  0  0  0  0  0  0  0  0  0
  150.2122  138.8784  156.2621 C   0  0  0  0  0  0  0  0  0  0  0  0
  150.9418  139.9326  156.8779 C   0  0  0  0  0  0  0  0  0  0  0  0
  151.1978  140.7878  155.8453 C   0  0  0  0  0  0  0  0  0  0  0  0
  150.6765  140.3060  154.6887 O   0  0  0  0  0  0  0  0  0  0  0  0
  150.0499  139.0854  154.9646 N   0  0  0  0  0  0  0  0  0  0  0  0
  148.9061  132.0491  155.7460 H   0  0  0  0  0  0  0  0  0  0  0  0
  150.3667  133.0311  155.8262 H   0  0  0  0  0  0  0  0  0  0  0  0
  150.2369  131.7425  154.6328 H   0  0  0  0  0  0  0  0  0  0  0  0
  149.8928  133.9565  153.5610 H   0  0  0  0  0  0  0  0  0  0  0  0
  148.6489  132.4184  152.3075 H   0  0  0  0  0  0  0  0  0  0  0  0
  147.5263  132.0938  153.6334 H   0  0  0  0  0  0  0  0  0  0  0  0
  145.3839  132.9344  152.6845 H   0  0  0  0  0  0  0  0  0  0  0  0
  145.4055  132.3847  150.2312 H   0  0  0  0  0  0  0  0  0  0  0  0
  146.7971  131.7203  151.0555 H   0  0  0  0  0  0  0  0  0  0  0  0
  146.9695  133.1763  150.0741 H   0  0  0  0  0  0  0  0  0  0  0  0
  144.2629  134.4225  150.9920 H   0  0  0  0  0  0  0  0  0  0  0  0
  145.7169  135.4109  150.9112 H   0  0  0  0  0  0  0  0  0  0  0  0
  144.7798  135.3206  152.4022 H   0  0  0  0  0  0  0  0  0  0  0  0
  146.7507  135.8082  153.6592 H   0  0  0  0  0  0  0  0  0  0  0  0
  146.1401  134.3770  154.4733 H   0  0  0  0  0  0  0  0  0  0  0  0
  147.9788  134.3902  155.8129 H   0  0  0  0  0  0  0  0  0  0  0  0
  149.2803  136.2541  153.8858 H   0  0  0  0  0  0  0  0  0  0  0  0
  148.5578  137.6371  156.8616 H   0  0  0  0  0  0  0  0  0  0  0  0
  149.9457  137.5637  157.9389 H   0  0  0  0  0  0  0  0  0  0  0  0
  151.2278  140.0456  157.9132 H   0  0  0  0  0  0  0  0  0  0  0  0
  151.7142  141.7339  155.7756 H   0  0  0  0  0  0  0  0  0  0  0  0
  147.7565  134.5350  152.0725 H   0  0  0  0  0  0  0  0  0  0  0  0
  1  2  1  0  0  0  0
  1 20  1  0  0  0  0
  1 21  1  0  0  0  0
  1 22  1  0  0  0  0
  2  9  1  0  0  0  0
  2  3  1  0  0  0  0
  2 23  1  0  0  0  0
  3  4  1  0  0  0  0
  3 24  1  0  0  0  0
  3 25  1  0  0  0  0
  4  5  1  0  0  0  0
  4  8  1  0  0  0  0
  4 41  1  0  0  0  0
  5  6  1  0  0  0  0
  5  7  1  0  0  0  0
  5 26  1  0  0  0  0
  6 27  1  0  0  0  0
  6 28  1  0  0  0  0
  6 29  1  0  0  0  0
  7 30  1  0  0  0  0
  7 31  1  0  0  0  0
  7 32  1  0  0  0  0
  8  9  1  0  0  0  0
  8 33  1  0  0  0  0
  8 34  1  0  0  0  0
  9 10  1  0  0  0  0
  9 35  1  0  0  0  0
 10 11  1  0  0  0  0
 10 36  1  0  0  0  0
 11 12  2  0  0  0  0
 11 13  2  0  0  0  0
 11 14  1  0  0  0  0
 14 15  1  0  0  0  0
 14 37  1  0  0  0  0
 14 38  1  0  0  0  0
 15 19  2  0  0  0  0
 15 16  1  0  0  0  0
 16 17  2  0  0  0  0
 16 39  1  0  0  0  0
 17 18  1  0  0  0  0
 17 40  1  0  0  0  0
 18 19  1  0  0  0  0
M  CHG  1   4   1
M  END
> <s_m_source_file>
AV-unprocessed.smi

> <i_m_source_file_index>
686

> <i_lp_mmshare_version>
43012

> <i_f3d_flags>
0

> <s_epik_input>
W0NIM11bQ0BASF0xW0NIMl1OKFtDSF0oW0NIM10pW0NIM10pW0NIMl1bQ0BIXTFbTkhdUyg9TykoPU8pW0NIMl1jMltjSF1bY0hdb24y

> <s_epik_cmdline>
J2VwaWtfcHl0aG9uJywgJy1waCcsICc3LjAnLCAnLXRuJywgJzgnLCAnLW1hJywgJzIwMCcsICctbWV0YWxfYmluZGluZycsICctaW1hZScsICc8aW5maWxlLm1hZT4nLCAnLW9tYWUnLCAnPG91dGZpbGUubWFlPic=

> <r_epik_Ionization_Penalty>
0.00200818

> <r_epik_Ionization_Penalty_Charging>
0.000701289

> <r_epik_Ionization_Penalty_Neutral>
0.00130689

> <r_epik_State_Penalty>
0.00131314

> <r_epik_Charging_Adjusted_Penalty>
0.00201443

> <i_epik_Tot_Q>
1

> <i_epik_Tot_abs_Q>
1

> <r_epik_Metal_State_Penalty>
0.310831

> <b_epik_Metal_Only>
0

> <s_lp_Force_Field>
OPLS_2005

> <r_lp_Energy>
19.8293

> <b_lp_Chiralities_Consistent>
1

> <s_lp_Variant>
AV-unprocessed.smi:686-6

> <Gold.Version>
5.8.1

> <Gold.Id.Protein>
6NUR|6NUR_protein|mol2

> <Gold.PLP.Fitness>
41.5846

> <Gold.PLP.PLP>
-28.3675

> <Gold.PLP.part.hbond>
-4.0000

> <Gold.PLP.part.metal>
0.0000

> <Gold.PLP.part.buried>
-4.1256

> <Gold.PLP.part.nonpolar>
-20.4502

> <Gold.PLP.part.repulsive>
0.2957

> <Gold.PLP.ligand.clash>
0.0000

> <Gold.PLP.ligand.torsion>
0.7311

> <Gold.PLP.Chemscore.Hbond>
4.8160

> <Gold.PLP.Chemscore.CHOScore>
0.0000

> <Gold.PLP.Chemscore.Metal>
0.0000

> <Gold.Chemscore.Hbonds>
donor molecule, donor type, donor heavy atom, donor atom, acceptor molecule, acceptor atom, score
      L1  H     4    41       P1  7948  1.87
      L1  H    10    36       P1  7948  0.98
      P1  H  7989  7998       L1    18  1.00
      P1  H 10752 10765       L1    13  1.00

> <Gold.PLP.Chemscore.Internal.Correction>
0.2314

> <Gold.Rescore>
     Score         DG    S(hbond)    S(metal)    S(lipo)     H(rot)  DE(clash)    DE(int)     intcor
     18.00     -19.05       3.61        0.00      54.86       1.91       0.10       0.96       ----

> <Gold.Chemscore.Fitness>
17.9988

> <Gold.Chemscore.DG>
-19.0501

> <Gold.Chemscore.ZeroCoef>
-5.4800

> <Gold.Chemscore.Hbond>
3.6062

> <Gold.Chemscore.Metal>
0.0000

> <Gold.Chemscore.Lipo>
54.8619

> <Gold.Chemscore.Internal_Hbond>
0.0000

> <Gold.Chemscore.DEClash>
0.0959

> <Gold.Chemscore.DEInternal>
0.9555

> <Gold.Chemscore.Rot>
1.9115

> <Gold.Chemscore.Internal.Correction>
   9.000000E+99

> <Gold.Chemscore.Hbonds>
donor molecule, donor type, donor heavy atom, donor atom, acceptor molecule, acceptor atom, score
      L1  H     4    41       P1  7948  0.34
      L1  H    10    36       P1  7948  0.79
      P1  H  7989  7998       L1    18  0.55
      P1  H 10752 10765       L1    13  1.00

> <Gold.Chemscore.Hbond.Weighted>
-12.0448

> <Gold.Chemscore.Metal.Weighted>
-0.0000

> <Gold.Chemscore.Lipo.Weighted>
-6.4188

> <Gold.Chemscore.Internal_Hbond.Weighted>
0.0000

> <Gold.Chemscore.DEClash.Weighted>
0.0959

> <Gold.Chemscore.DEInternal.Weighted>
0.9555

> <Gold.Chemscore.Rot.Weighted>
4.8935

> <Gold.Chemscore.Internal.Correction.Weighted>
   9.000000E+99

> <Gold.Protein.RotatedTorsions>
[ 6907 6896 6895 6894 ] final -137.03 input  -60.11 | X-H torsion
[ 7974 7965 7964 7962 ] final   79.78 input  175.53 | X-H torsion
[ 8008 7997 7996 7995 ] final   -7.66 input   59.86 | X-H torsion
[ 10167 10162 10161 10158 ] final -149.21 input  -65.29 | X-H torsion
[ 10718 10713 10712 10709 ] final  157.89 input   66.30 | X-H torsion
[ 10763 10752 10751 10750 ] final  172.30 input  -60.55 | X-H torsion
[ 11005 11000 10999 10996 ] final  -46.59 input  -57.11 | X-H torsion

> <Gold.Protein.ActiveResidues>
 VAL166  LYS551  ARG553  GLY616  TRP617  ASP618  TYR619  PRO620  LYS621  CYS622 
 ASP623  PHE694  ASN695  SER759  ASP760  ASP761  ALA762  ILE779  LEU786  VAL792 
 PHE793  MET794  SER795  GLU796  ALA797  LYS798  CYS799  TRP800  GLU811  SER814 

> <Gold.Protein.RotatedAtoms>
  151.0174  133.5908  159.2675 H   0  0  0  0  0  0  0  0  0  0  0  0  # atno 6907 bound_to 6896
  151.3037  135.0775  159.9257 H   0  0  0  0  0  0  0  0  0  0  0  0  # atno 6908 bound_to 6896
  152.5315  133.9851  159.7879 H   0  0  0  0  0  0  0  0  0  0  0  0  # atno 6909 bound_to 6896
  145.6597  139.2468  143.1929 H   0  0  0  0  0  0  0  0  0  0  0  0  # atno 7974 bound_to 7965
  154.5816  140.2401  155.8046 H   0  0  0  0  0  0  0  0  0  0  0  0  # atno 8008 bound_to 7997
  156.2183  140.3005  155.9848 H   0  0  0  0  0  0  0  0  0  0  0  0  # atno 8009 bound_to 7997
  155.2531  140.0411  157.2979 H   0  0  0  0  0  0  0  0  0  0  0  0  # atno 8010 bound_to 7997
  139.7463  143.8586  152.2575 H   0  0  0  0  0  0  0  0  0  0  0  0  # atno 10167 bound_to 10162
  157.1853  131.0642  151.2109 H   0  0  0  0  0  0  0  0  0  0  0  0  # atno 10718 bound_to 10713
  154.4241  135.2758  155.1956 H   0  0  0  0  0  0  0  0  0  0  0  0  # atno 10763 bound_to 10752
  154.3889  135.6070  153.5836 H   0  0  0  0  0  0  0  0  0  0  0  0  # atno 10764 bound_to 10752
  152.9834  135.5898  154.4542 H   0  0  0  0  0  0  0  0  0  0  0  0  # atno 10765 bound_to 10752
  141.0588  133.6716  156.3176 H   0  0  0  0  0  0  0  0  0  0  0  0  # atno 11005 bound_to 11000
  146.1135  140.7398  142.9491 LP  0  0  0  0  0  0  0  0  0  0  0  0  # atno 17320 bound_to 7965
  144.7093  140.3978  143.7093 LP  0  0  0  0  0  0  0  0  0  0  0  0  # atno 17321 bound_to 7965
  139.8551  144.7145  150.9167 LP  0  0  0  0  0  0  0  0  0  0  0  0  # atno 17342 bound_to 10162
  140.7792  143.3865  151.1384 LP  0  0  0  0  0  0  0  0  0  0  0  0  # atno 17343 bound_to 10162
  157.3913  130.7283  149.6699 LP  0  0  0  0  0  0  0  0  0  0  0  0  # atno 17370 bound_to 10713
  155.9719  130.4145  150.4138 LP  0  0  0  0  0  0  0  0  0  0  0  0  # atno 17371 bound_to 10713
  140.5910  134.5650  157.5499 LP  0  0  0  0  0  0  0  0  0  0  0  0  # atno 17394 bound_to 11000
  139.9414  134.7780  156.0669 LP  0  0  0  0  0  0  0  0  0  0  0  0  # atno 17395 bound_to 11000

$$$$
