AV-unprocessed.smi:2724|AV-procd|sdf|10510|dock7
  -GOLD-   2272014553D 1   1.00000     0.00000
 Structure written by MMmdl.
 25 26  0  0  0  0  0  0  0  0  1 V2000
  150.7425  144.7381  157.9291 O   0  0  0  0  0  0  0  0  0  0  0  0
  151.5743  143.6061  158.0758 C   0  0  1  0  0  0  0  0  0  0  0  0
  152.4285  143.7051  159.3387 C   0  0  0  0  0  0  0  0  0  0  0  0
  152.8301  142.2592  159.6304 C   0  0  0  0  0  0  0  0  0  0  0  0
  151.6736  141.3903  159.1136 C   0  0  0  0  0  0  0  0  0  0  0  0
  150.7655  142.3148  158.2769 C   0  0  2  0  0  0  0  0  0  0  0  0
  150.2816  141.6826  156.9784 C   0  0  0  0  0  0  0  0  0  0  0  0
  148.9155  141.6814  156.6205 C   0  0  0  0  0  0  0  0  0  0  0  0
  148.5283  141.0779  155.4089 C   0  0  0  0  0  0  0  0  0  0  0  0
  149.5254  140.4974  154.6007 C   0  0  0  0  0  0  0  0  0  0  0  0
  150.8347  140.4902  154.9305 N   0  0  0  0  0  0  0  0  0  0  0  0
  151.1972  141.0716  156.0941 C   0  0  0  0  0  0  0  0  0  0  0  0
  150.3343  144.7009  157.0774 H   0  0  0  0  0  0  0  0  0  0  0  0
  152.2349  143.5234  157.2118 H   0  0  0  0  0  0  0  0  0  0  0  0
  153.2882  144.3648  159.2160 H   0  0  0  0  0  0  0  0  0  0  0  0
  151.8308  144.0874  160.1678 H   0  0  0  0  0  0  0  0  0  0  0  0
  153.7404  142.0173  159.0801 H   0  0  0  0  0  0  0  0  0  0  0  0
  153.0337  142.0943  160.6889 H   0  0  0  0  0  0  0  0  0  0  0  0
  152.0778  140.5653  158.5259 H   0  0  0  0  0  0  0  0  0  0  0  0
  151.1101  140.9452  159.9346 H   0  0  0  0  0  0  0  0  0  0  0  0
  149.8969  142.5521  158.8944 H   0  0  0  0  0  0  0  0  0  0  0  0
  148.1745  142.1358  157.2616 H   0  0  0  0  0  0  0  0  0  0  0  0
  147.4920  141.0606  155.1056 H   0  0  0  0  0  0  0  0  0  0  0  0
  149.2645  140.0258  153.6650 H   0  0  0  0  0  0  0  0  0  0  0  0
  152.2520  141.0454  156.3251 H   0  0  0  0  0  0  0  0  0  0  0  0
  1  2  1  0  0  0  0
  1 13  1  0  0  0  0
  2  6  1  0  0  0  0
  2  3  1  0  0  0  0
  2 14  1  0  0  0  0
  3  4  1  0  0  0  0
  3 15  1  0  0  0  0
  3 16  1  0  0  0  0
  4  5  1  0  0  0  0
  4 17  1  0  0  0  0
  4 18  1  0  0  0  0
  5  6  1  0  0  0  0
  5 19  1  0  0  0  0
  5 20  1  0  0  0  0
  6  7  1  0  0  0  0
  6 21  1  0  0  0  0
  7 12  1  0  0  0  0
  7  8  2  0  0  0  0
  8  9  1  0  0  0  0
  8 22  1  0  0  0  0
  9 10  2  0  0  0  0
  9 23  1  0  0  0  0
 10 11  1  0  0  0  0
 10 24  1  0  0  0  0
 11 12  2  0  0  0  0
 12 25  1  0  0  0  0
M  END
> <s_m_source_file>
AV-unprocessed.smi

> <i_m_source_file_index>
2724

> <i_lp_mmshare_version>
43012

> <i_f3d_flags>
0

> <s_epik_input>
W09IXVtDQEBIXTFbQ0gyXVtDSDJdW0NIMl1bQ0BIXTFjMltjSF1bY0hdW2NIXW5bY0hdMg==

> <s_epik_cmdline>
J2VwaWtfcHl0aG9uJywgJy1waCcsICc3LjAnLCAnLXRuJywgJzgnLCAnLW1hJywgJzIwMCcsICctbWV0YWxfYmluZGluZycsICctaW1hZScsICc8aW5maWxlLm1hZT4nLCAnLW9tYWUnLCAnPG91dGZpbGUubWFlPic=

> <r_epik_Ionization_Penalty>
0.0175299

> <r_epik_Ionization_Penalty_Charging>
0

> <r_epik_Ionization_Penalty_Neutral>
0.0175299

> <r_epik_State_Penalty>
0.0138989

> <r_epik_Charging_Adjusted_Penalty>
0.0138989

> <i_epik_Tot_Q>
0

> <i_epik_Tot_abs_Q>
0

> <r_epik_Metal_State_Penalty>
1.40631e-05

> <b_epik_Metal_Only>
0

> <s_lp_Force_Field>
OPLS_2005

> <r_lp_Energy>
19.4991

> <b_lp_Chiralities_Consistent>
1

> <s_lp_Variant>
AV-unprocessed.smi:2724-4

> <Gold.Version>
5.8.1

> <Gold.Id.Protein>
6NUR|6NUR_protein|mol2

> <Gold.PLP.Fitness>
36.8508

> <Gold.PLP.PLP>
-28.2193

> <Gold.PLP.part.hbond>
-2.6906

> <Gold.PLP.part.metal>
0.0000

> <Gold.PLP.part.buried>
-2.2876

> <Gold.PLP.part.nonpolar>
-23.0071

> <Gold.PLP.part.repulsive>
0.0725

> <Gold.PLP.ligand.clash>
0.0000

> <Gold.PLP.ligand.torsion>
0.1845

> <Gold.PLP.Chemscore.Hbond>
2.0000

> <Gold.PLP.Chemscore.CHOScore>
1.0000

> <Gold.PLP.Chemscore.Metal>
0.0000

> <Gold.Chemscore.Hbonds>
donor molecule, donor type, donor heavy atom, donor atom, acceptor molecule, acceptor atom, score
      L1  H     1    13       P1  8028  1.00
      P1  H  7989  7998       L1    11  1.00
      L1  C    10    24       P1  7957  1.00

> <Gold.PLP.Chemscore.Internal.Correction>
0.0004

> <Gold.Rescore>
     Score         DG    S(hbond)    S(metal)    S(lipo)     H(rot)  DE(clash)    DE(int)     intcor
     16.87     -16.92       1.60        0.00      80.83       1.32       0.02       0.03       ----

> <Gold.Chemscore.Fitness>
16.8715

> <Gold.Chemscore.DG>
-16.9155

> <Gold.Chemscore.ZeroCoef>
-5.4800

> <Gold.Chemscore.Hbond>
1.6036

> <Gold.Chemscore.Metal>
0.0000

> <Gold.Chemscore.Lipo>
80.8262

> <Gold.Chemscore.Internal_Hbond>
0.0000

> <Gold.Chemscore.DEClash>
0.0190

> <Gold.Chemscore.DEInternal>
0.0250

> <Gold.Chemscore.Rot>
1.3192

> <Gold.Chemscore.Internal.Correction>
   9.000000E+99

> <Gold.Chemscore.Hbonds>
donor molecule, donor type, donor heavy atom, donor atom, acceptor molecule, acceptor atom, score
      L1  H     1    13       P1  8028  0.53
      P1  H  7989  7998       L1    11  0.47

> <Gold.Chemscore.Hbond.Weighted>
-5.3560

> <Gold.Chemscore.Metal.Weighted>
-0.0000

> <Gold.Chemscore.Lipo.Weighted>
-9.4567

> <Gold.Chemscore.Internal_Hbond.Weighted>
0.0000

> <Gold.Chemscore.DEClash.Weighted>
0.0190

> <Gold.Chemscore.DEInternal.Weighted>
0.0250

> <Gold.Chemscore.Rot.Weighted>
3.3772

> <Gold.Chemscore.Internal.Correction.Weighted>
   9.000000E+99

> <Gold.Protein.RotatedTorsions>
[ 6907 6896 6895 6894 ] final   88.19 input  -60.11 | X-H torsion
[ 7974 7965 7964 7962 ] final   97.00 input  175.53 | X-H torsion
[ 8008 7997 7996 7995 ] final  -98.93 input   59.86 | X-H torsion
[ 10167 10162 10161 10158 ] final -139.80 input  -65.29 | X-H torsion
[ 10718 10713 10712 10709 ] final -134.79 input   66.30 | X-H torsion
[ 10763 10752 10751 10750 ] final  179.30 input  -60.55 | X-H torsion
[ 11005 11000 10999 10996 ] final -138.87 input  -57.11 | X-H torsion

> <Gold.Protein.ActiveResidues>
 VAL166  LYS551  ARG553  GLY616  TRP617  ASP618  TYR619  PRO620  LYS621  CYS622 
 ASP623  PHE694  ASN695  SER759  ASP760  ASP761  ALA762  ILE779  LEU786  VAL792 
 PHE793  MET794  SER795  GLU796  ALA797  LYS798  CYS799  TRP800  GLU811  SER814 

> <Gold.Protein.RotatedAtoms>
  152.5422  134.2160  159.8768 H   0  0  0  0  0  0  0  0  0  0  0  0  # atno 6907 bound_to 6896
  151.2140  133.4533  159.2606 H   0  0  0  0  0  0  0  0  0  0  0  0  # atno 6908 bound_to 6896
  151.0869  134.9905  159.8439 H   0  0  0  0  0  0  0  0  0  0  0  0  # atno 6909 bound_to 6896
  145.4313  139.2310  143.3142 H   0  0  0  0  0  0  0  0  0  0  0  0  # atno 7974 bound_to 7965
  154.8078  140.0451  157.1321 H   0  0  0  0  0  0  0  0  0  0  0  0  # atno 8008 bound_to 7997
  154.9403  140.3051  155.5104 H   0  0  0  0  0  0  0  0  0  0  0  0  # atno 8009 bound_to 7997
  156.2968  140.2307  156.4472 H   0  0  0  0  0  0  0  0  0  0  0  0  # atno 8010 bound_to 7997
  139.8343  143.7405  152.2665 H   0  0  0  0  0  0  0  0  0  0  0  0  # atno 10167 bound_to 10162
  156.2592  130.7200  151.1128 H   0  0  0  0  0  0  0  0  0  0  0  0  # atno 10718 bound_to 10713
  154.5189  135.2793  155.1279 H   0  0  0  0  0  0  0  0  0  0  0  0  # atno 10763 bound_to 10752
  154.2845  135.6279  153.5364 H   0  0  0  0  0  0  0  0  0  0  0  0  # atno 10764 bound_to 10752
  152.9933  135.5659  154.5673 H   0  0  0  0  0  0  0  0  0  0  0  0  # atno 10765 bound_to 10752
  140.8574  134.2211  157.4727 H   0  0  0  0  0  0  0  0  0  0  0  0  # atno 11005 bound_to 11000
  146.2605  140.5051  142.8855 LP  0  0  0  0  0  0  0  0  0  0  0  0  # atno 17320 bound_to 7965
  144.8181  140.6502  143.6371 LP  0  0  0  0  0  0  0  0  0  0  0  0  # atno 17321 bound_to 7965
  139.7622  144.7503  151.0347 LP  0  0  0  0  0  0  0  0  0  0  0  0  # atno 17342 bound_to 10162
  140.7804  143.4738  151.0110 LP  0  0  0  0  0  0  0  0  0  0  0  0  # atno 17343 bound_to 10162
  157.7244  131.0660  150.5996 LP  0  0  0  0  0  0  0  0  0  0  0  0  # atno 17370 bound_to 10713
  156.6082  130.4373  149.5869 LP  0  0  0  0  0  0  0  0  0  0  0  0  # atno 17371 bound_to 10713
  139.8706  134.9713  156.4732 LP  0  0  0  0  0  0  0  0  0  0  0  0  # atno 17394 bound_to 11000
  140.8721  133.7980  155.9376 LP  0  0  0  0  0  0  0  0  0  0  0  0  # atno 17395 bound_to 11000

$$$$
