AV-unprocessed.smi:1765|AV-procd|sdf|7134|dock2
  -GOLD-   22720 8373D 1   1.00000     0.00000
 Structure written by MMmdl.
 39 40  0  0  0  0  0  0  0  0  1 V2000
  146.7781  140.0902  152.8066 C   0  0  0  0  0  0  0  0  0  0  0  0
  148.0405  139.7912  153.4657 N   0  0  0  0  0  0  0  0  0  0  0  0
  148.1780  139.5733  154.7841 C   0  0  0  0  0  0  0  0  0  0  0  0
  147.2139  139.6156  155.5505 O   0  0  0  0  0  0  0  0  0  0  0  0
  149.5543  139.2868  155.1967 C   0  0  0  0  0  0  0  0  0  0  0  0
  150.6246  139.0001  154.2530 C   0  0  0  0  0  0  0  0  0  0  0  0
  151.8742  138.7478  154.6898 C   0  0  0  0  0  0  0  0  0  0  0  0
  152.2083  138.7494  156.1167 C   0  0  0  0  0  0  0  0  0  0  0  0
  153.3488  138.5207  156.5205 O   0  0  0  0  0  0  0  0  0  0  0  0
  151.1736  139.0188  156.9693 N   0  0  0  0  0  0  0  0  0  0  0  0
  151.3886  139.0460  158.4260 C   0  0  0  0  0  0  0  0  0  0  0  0
  152.4319  140.0834  158.8639 C   0  0  0  0  0  0  0  0  0  0  0  0
  153.6292  139.9084  158.6339 O   0  0  0  0  0  0  0  0  0  0  0  0
  151.9524  141.1758  159.4774 N   0  0  0  0  0  0  0  0  0  0  0  0
  152.7600  142.2870  159.9734 C   0  0  0  0  0  0  0  0  0  0  0  0
  152.4487  142.5708  161.4559 C   0  0  0  0  0  0  0  0  0  0  0  0
  152.2031  144.0772  161.5581 C   0  0  0  0  0  0  0  0  0  0  0  0
  151.6617  144.4671  160.1867 C   0  0  0  0  0  0  0  0  0  0  0  0
  152.4497  143.5912  159.2128 C   0  0  0  0  0  0  0  0  0  0  0  0
  149.8697  139.2851  156.5069 C   0  0  0  0  0  0  0  0  0  0  0  0
  146.9359  140.1994  151.7337 H   0  0  0  0  0  0  0  0  0  0  0  0
  146.3531  141.0206  153.1854 H   0  0  0  0  0  0  0  0  0  0  0  0
  146.0572  139.2871  152.9649 H   0  0  0  0  0  0  0  0  0  0  0  0
  148.8644  139.7431  152.8843 H   0  0  0  0  0  0  0  0  0  0  0  0
  150.4461  138.9840  153.1880 H   0  0  0  0  0  0  0  0  0  0  0  0
  152.6524  138.5387  153.9704 H   0  0  0  0  0  0  0  0  0  0  0  0
  150.4564  139.2639  158.9489 H   0  0  0  0  0  0  0  0  0  0  0  0
  151.6860  138.0562  158.7781 H   0  0  0  0  0  0  0  0  0  0  0  0
  150.9545  141.2404  159.6173 H   0  0  0  0  0  0  0  0  0  0  0  0
  153.8198  142.0470  159.8665 H   0  0  0  0  0  0  0  0  0  0  0  0
  151.5477  142.0414  161.7701 H   0  0  0  0  0  0  0  0  0  0  0  0
  153.2557  142.2474  162.1140 H   0  0  0  0  0  0  0  0  0  0  0  0
  151.5227  144.3375  162.3694 H   0  0  0  0  0  0  0  0  0  0  0  0
  153.1481  144.5918  161.7378 H   0  0  0  0  0  0  0  0  0  0  0  0
  150.6006  144.2219  160.1266 H   0  0  0  0  0  0  0  0  0  0  0  0
  151.7713  145.5317  159.9776 H   0  0  0  0  0  0  0  0  0  0  0  0
  153.3869  144.0891  158.9606 H   0  0  0  0  0  0  0  0  0  0  0  0
  151.9113  143.4337  158.2774 H   0  0  0  0  0  0  0  0  0  0  0  0
  149.1535  139.4914  157.2900 H   0  0  0  0  0  0  0  0  0  0  0  0
  1  2  1  0  0  0  0
  1 21  1  0  0  0  0
  1 22  1  0  0  0  0
  1 23  1  0  0  0  0
  2  3  1  0  0  0  0
  2 24  1  0  0  0  0
  3  4  2  0  0  0  0
  3  5  1  0  0  0  0
  5 20  2  0  0  0  0
  5  6  1  0  0  0  0
  6  7  2  0  0  0  0
  6 25  1  0  0  0  0
  7  8  1  0  0  0  0
  7 26  1  0  0  0  0
  8  9  2  0  0  0  0
  8 10  1  0  0  0  0
 10 11  1  0  0  0  0
 10 20  1  0  0  0  0
 11 12  1  0  0  0  0
 11 27  1  0  0  0  0
 11 28  1  0  0  0  0
 12 13  2  0  0  0  0
 12 14  1  0  0  0  0
 14 15  1  0  0  0  0
 14 29  1  0  0  0  0
 15 19  1  0  0  0  0
 15 16  1  0  0  0  0
 15 30  1  0  0  0  0
 16 17  1  0  0  0  0
 16 31  1  0  0  0  0
 16 32  1  0  0  0  0
 17 18  1  0  0  0  0
 17 33  1  0  0  0  0
 17 34  1  0  0  0  0
 18 19  1  0  0  0  0
 18 35  1  0  0  0  0
 18 36  1  0  0  0  0
 19 37  1  0  0  0  0
 19 38  1  0  0  0  0
 20 39  1  0  0  0  0
M  END
> <s_m_source_file>
AV-unprocessed.smi

> <i_m_source_file_index>
1765

> <i_lp_mmshare_version>
43012

> <i_f3d_flags>
0

> <s_epik_input>
W0NIM11bTkhdQyg9TyljMVtjSF1bY0hdYyg9TyluKFtjSF0xKVtDSDJdQyg9TylbTkhdW0NIXTJbQ0gyXVtDSDJdW0NIMl1bQ0gyXTI=

> <s_epik_cmdline>
J2VwaWtfcHl0aG9uJywgJy1waCcsICc3LjAnLCAnLXRuJywgJzgnLCAnLW1hJywgJzIwMCcsICctbWV0YWxfYmluZGluZycsICctaW1hZScsICc8aW5maWxlLm1hZT4nLCAnLW9tYWUnLCAnPG91dGZpbGUubWFlPic=

> <r_lp_tautomer_probability>
1

> <r_epik_Ionization_Penalty>
3.69544e-07

> <r_epik_Ionization_Penalty_Charging>
4.98828e-08

> <r_epik_Ionization_Penalty_Neutral>
3.19661e-07

> <r_epik_State_Penalty>
-0

> <r_epik_Charging_Adjusted_Penalty>
4.98828e-08

> <i_epik_Tot_Q>
0

> <i_epik_Tot_abs_Q>
0

> <r_epik_Metal_State_Penalty>
-0

> <b_epik_Metal_Only>
0

> <s_lp_Force_Field>
OPLS_2005

> <r_lp_Energy>
30.5558

> <b_lp_Chiralities_Consistent>
1

> <s_lp_Variant>
AV-unprocessed.smi:1765-1

> <Gold.Version>
5.8.1

> <Gold.Id.Protein>
6NUR|6NUR_protein|mol2

> <Gold.PLP.Fitness>
44.7040

> <Gold.PLP.PLP>
-39.5593

> <Gold.PLP.part.hbond>
-3.0000

> <Gold.PLP.part.metal>
0.0000

> <Gold.PLP.part.buried>
-3.8554

> <Gold.PLP.part.nonpolar>
-32.9393

> <Gold.PLP.part.repulsive>
0.2297

> <Gold.PLP.ligand.clash>
0.0000

> <Gold.PLP.ligand.torsion>
0.2329

> <Gold.PLP.Chemscore.Hbond>
1.8640

> <Gold.PLP.Chemscore.CHOScore>
0.0000

> <Gold.PLP.Chemscore.Metal>
0.0000

> <Gold.Chemscore.Hbonds>
donor molecule, donor type, donor heavy atom, donor atom, acceptor molecule, acceptor atom, score
      L1  H     2    24       P1  7957  0.93
      P1  H  7997  8008       L1    13  1.00

> <Gold.PLP.Chemscore.Internal.Correction>
0.0185

> <Gold.Rescore>
     Score         DG    S(hbond)    S(metal)    S(lipo)     H(rot)  DE(clash)    DE(int)     intcor
     17.52     -19.27       1.90        0.00      96.93       1.52       0.03       1.72       ----

> <Gold.Chemscore.Fitness>
17.5183

> <Gold.Chemscore.DG>
-19.2665

> <Gold.Chemscore.ZeroCoef>
-5.4800

> <Gold.Chemscore.Hbond>
1.9012

> <Gold.Chemscore.Metal>
0.0000

> <Gold.Chemscore.Lipo>
96.9281

> <Gold.Chemscore.Internal_Hbond>
0.0000

> <Gold.Chemscore.DEClash>
0.0264

> <Gold.Chemscore.DEInternal>
1.7218

> <Gold.Chemscore.Rot>
1.5250

> <Gold.Chemscore.Internal.Correction>
   9.000000E+99

> <Gold.Chemscore.Hbonds>
donor molecule, donor type, donor heavy atom, donor atom, acceptor molecule, acceptor atom, score
      L1  H     2    24       P1  7957  0.89
      P1  H  7997  8008       L1    13  0.97

> <Gold.Chemscore.Hbond.Weighted>
-6.3499

> <Gold.Chemscore.Metal.Weighted>
-0.0000

> <Gold.Chemscore.Lipo.Weighted>
-11.3406

> <Gold.Chemscore.Internal_Hbond.Weighted>
0.0000

> <Gold.Chemscore.DEClash.Weighted>
0.0264

> <Gold.Chemscore.DEInternal.Weighted>
1.7218

> <Gold.Chemscore.Rot.Weighted>
3.9039

> <Gold.Chemscore.Internal.Correction.Weighted>
   9.000000E+99

> <Gold.Protein.RotatedTorsions>
[ 6907 6896 6895 6894 ] final  115.24 input  -60.11 | X-H torsion
[ 7974 7965 7964 7962 ] final -158.70 input  175.53 | X-H torsion
[ 8008 7997 7996 7995 ] final -104.27 input   59.86 | X-H torsion
[ 10167 10162 10161 10158 ] final   61.58 input  -65.29 | X-H torsion
[ 10718 10713 10712 10709 ] final -154.90 input   66.30 | X-H torsion
[ 10763 10752 10751 10750 ] final  -93.75 input  -60.55 | X-H torsion
[ 11005 11000 10999 10996 ] final   59.64 input  -57.11 | X-H torsion

> <Gold.Protein.ActiveResidues>
 VAL166  LYS551  ARG553  GLY616  TRP617  ASP618  TYR619  PRO620  LYS621  CYS622 
 ASP623  PHE694  ASN695  SER759  ASP760  ASP761  ALA762  ILE779  LEU786  VAL792 
 PHE793  MET794  SER795  GLU796  ALA797  LYS798  CYS799  TRP800  GLU811  SER814 

> <Gold.Protein.RotatedAtoms>
  152.4754  133.8126  159.7010 H   0  0  0  0  0  0  0  0  0  0  0  0  # atno 6907 bound_to 6896
  150.8767  133.7419  159.2951 H   0  0  0  0  0  0  0  0  0  0  0  0  # atno 6908 bound_to 6896
  151.4936  135.1062  159.9862 H   0  0  0  0  0  0  0  0  0  0  0  0  # atno 6909 bound_to 6896
  144.7495  140.3790  143.6059 H   0  0  0  0  0  0  0  0  0  0  0  0  # atno 7974 bound_to 7965
  154.8829  140.0418  157.1793 H   0  0  0  0  0  0  0  0  0  0  0  0  # atno 8008 bound_to 7997
  154.8621  140.2945  155.5512 H   0  0  0  0  0  0  0  0  0  0  0  0  # atno 8009 bound_to 7997
  156.2998  140.2445  156.3596 H   0  0  0  0  0  0  0  0  0  0  0  0  # atno 8010 bound_to 7997
  140.1532  144.4442  150.6748 H   0  0  0  0  0  0  0  0  0  0  0  0  # atno 10167 bound_to 10162
  156.5056  130.8411  151.2626 H   0  0  0  0  0  0  0  0  0  0  0  0  # atno 10718 bound_to 10713
  154.6989  135.5183  153.8498 H   0  0  0  0  0  0  0  0  0  0  0  0  # atno 10763 bound_to 10752
  153.0688  135.6594  154.0302 H   0  0  0  0  0  0  0  0  0  0  0  0  # atno 10764 bound_to 10752
  154.0164  135.2997  155.3366 H   0  0  0  0  0  0  0  0  0  0  0  0  # atno 10765 bound_to 10752
  140.0289  134.6041  155.9534 H   0  0  0  0  0  0  0  0  0  0  0  0  # atno 11005 bound_to 11000
  145.6998  139.1658  143.2599 LP  0  0  0  0  0  0  0  0  0  0  0  0  # atno 17320 bound_to 7965
  146.1424  140.7039  142.9361 LP  0  0  0  0  0  0  0  0  0  0  0  0  # atno 17321 bound_to 7965
  140.6689  143.2278  151.5674 LP  0  0  0  0  0  0  0  0  0  0  0  0  # atno 17342 bound_to 10162
  139.5416  144.2633  152.1361 LP  0  0  0  0  0  0  0  0  0  0  0  0  # atno 17343 bound_to 10162
  157.7457  130.9967  150.2789 LP  0  0  0  0  0  0  0  0  0  0  0  0  # atno 17370 bound_to 10713
  156.3290  130.3797  149.7508 LP  0  0  0  0  0  0  0  0  0  0  0  0  # atno 17371 bound_to 10713
  141.1819  133.6548  156.5056 LP  0  0  0  0  0  0  0  0  0  0  0  0  # atno 17394 bound_to 11000
  140.4259  134.7145  157.4915 LP  0  0  0  0  0  0  0  0  0  0  0  0  # atno 17395 bound_to 11000

$$$$
