#       Name:                AV-unprocessed.smi:917
#       Creating user name   scv26
#       Creation time:       Fri Mar 27 02:06:52 2020


#       File generated by GOLD software.
#

@<TRIPOS>MOLECULE
AV-unprocessed.smi:917
    48    49     1
SMALL
NO_CHARGES


@<TRIPOS>ATOM
      1 ****        -3.7240   0.7692   4.0093 C.3            1 S1                 0.0000
      2 ****        -3.7883   0.9719   2.5227 C.2            1 S1                 0.0000
      3 ****        -4.1084   2.1597   2.0374 N.2            1 S1                 0.0000
      4 ****        -4.0788   2.0252   0.6461 O.3            1 S1                 0.0000
      5 ****        -3.7395   0.7463   0.3445 C.2            1 S1                 0.0000
      6 ****        -3.6504   0.4072  -1.1050 C.3            1 S1                 0.0000
      7 ****        -3.5451   0.0223   1.4892 C.2            1 S1                 0.0000
      8 ****        -3.1601  -1.4272   1.6383 C.3            1 S1                 0.0000
      9 ****        -1.6439  -1.5702   1.5042 C.2            1 S1                 0.0000
     10 ****        -0.9066  -1.1858   2.4121 O.2            1 S1                 0.0000
     11 ****        -1.1922  -2.1068   0.3603 N.am           1 S1                 0.0000
     12 ****         0.2130  -2.2676   0.0085 C.3            1 S1                 0.0000
     13 ****         0.7853  -0.9755  -0.5957 C.3            1 S1                 0.0000
     14 ****         2.2654  -1.1139  -0.9837 C.3            1 S1                 0.0000
     15 ****         2.8411   0.1519  -1.6430 C.3            1 S1                 0.0000
     16 ****         4.2865  -0.0112  -2.1173 C.3            1 S1                 0.0000
     17 ****         4.7990   1.4196  -2.3011 C.3            1 S1                 0.0000
     18 ****         3.9747   2.2927  -1.3429 C.3            1 S1                 0.0000
     19 ****         2.9166   1.3729  -0.7197 C.3            1 S1                 0.0000
     20 ****        -2.8105   0.2457   4.2921 H              1 S1                 0.0000
     21 ****        -4.5684   0.1740   4.3568 H              1 S1                 0.0000
     22 ****        -3.7406   1.7176   4.5482 H              1 S1                 0.0000
     23 ****        -3.0884  -0.5137  -1.2587 H              1 S1                 0.0000
     24 ****        -3.1491   1.2014  -1.6586 H              1 S1                 0.0000
     25 ****        -4.6445   0.2720  -1.5311 H              1 S1                 0.0000
     26 ****        -3.4606  -1.8222   2.6092 H              1 S1                 0.0000
     27 ****        -3.6599  -2.0479   0.8935 H              1 S1                 0.0000
     28 ****        -1.8711  -2.3972  -0.3284 H              1 S1                 0.0000
     29 ****         0.7903  -2.5716   0.8833 H              1 S1                 0.0000
     30 ****         0.2906  -3.0819  -0.7124 H              1 S1                 0.0000
     31 ****         0.2027  -0.6978  -1.4752 H              1 S1                 0.0000
     32 ****         0.6717  -0.1599   0.1194 H              1 S1                 0.0000
     33 ****         2.8525  -1.3712  -0.1011 H              1 S1                 0.0000
     34 ****         2.3735  -1.9505  -1.6750 H              1 S1                 0.0000
     35 ****         2.2306   0.4116  -2.5094 H              1 S1                 0.0000
     36 ****         4.8766  -0.5123  -1.3483 H              1 S1                 0.0000
     37 ****         4.3644  -0.6018  -3.0306 H              1 S1                 0.0000
     38 ****         5.8699   1.4933  -2.1091 H              1 S1                 0.0000
     39 ****         4.6282   1.7435  -3.3286 H              1 S1                 0.0000
     40 ****         4.5989   2.7463  -0.5721 H              1 S1                 0.0000
     41 ****         3.4994   3.1045  -1.8952 H              1 S1                 0.0000
     42 ****         1.9530   1.8706  -0.6073 H              1 S1                 0.0000
     43 ****         3.2452   1.0669   0.2747 H              1 S1                 0.0000
     44 ****        -4.3268   2.9847   2.5586 LP             1 S1                 0.0000
     45 ****        -3.4029   2.6534   0.2607 LP             1 S1                 0.0000
     46 ****        -4.9808   2.2331   0.2678 LP             1 S1                 0.0000
     47 ****        -1.2994  -0.7800   3.2373 LP             1 S1                 0.0000
     48 ****         0.0852  -1.2794   2.3243 LP             1 S1                 0.0000
@<TRIPOS>BOND
    1    1    2 1     
    2    1   20 1     
    3    1   21 1     
    4    1   22 1     
    5    2    7 1     
    6    2    3 2     
    7    3    4 1     
    8    4    5 1     
    9    5    6 1     
   10    5    7 2     
   11    6   23 1     
   12    6   24 1     
   13    6   25 1     
   14    7    8 1     
   15    8    9 1     
   16    8   26 1     
   17    8   27 1     
   18    9   10 2     
   19    9   11 am    
   20   11   12 1     
   21   11   28 1     
   22   12   13 1     
   23   12   29 1     
   24   12   30 1     
   25   13   14 1     
   26   13   31 1     
   27   13   32 1     
   28   14   15 1     
   29   14   33 1     
   30   14   34 1     
   31   15   19 1     
   32   15   16 1     
   33   15   35 1     
   34   16   17 1     
   35   16   36 1     
   36   16   37 1     
   37   17   18 1     
   38   17   38 1     
   39   17   39 1     
   40   18   19 1     
   41   18   40 1     
   42   18   41 1     
   43   19   42 1     
   44   19   43 1     
   45    3   44 1     
   46    4   45 1     
   47    4   46 1     
   48   10   47 1     
   49   10   48 1     
@<TRIPOS>SUBSTRUCTURE
      1 S1             1
@<TRIPOS>SET
LONE_PAIRS      STATIC     ATOMS    <user>   **** ""
5 44 45 46 47 48
DONOR_HYDROGENS      STATIC     ATOMS    <user>   **** ""
1 28
ATOM$BLUE        STATIC     ATOMS    COLORGROUP SYSTEM
5 44 45 46 47 48
ATOM$RED        STATIC     ATOMS    COLORGROUP SYSTEM
1 28
