AV-unprocessed.smi:2133|AV-procd|sdf|8693|dock6
  -GOLD-   2272011453D 1   1.00000     0.00000
 Structure written by MMmdl.
 45 47  0  0  0  0  0  0  0  0  1 V2000
  152.9423  138.2758  155.5436 C   0  0  0  0  0  0  0  0  0  0  0  0
  151.5315  137.8818  155.3726 N   0  0  0  0  0  0  0  0  0  0  0  0
  150.6676  138.7888  154.8173 C   0  0  0  0  0  0  0  0  0  0  0  0
  150.9804  139.9144  154.4279 O   0  0  0  0  0  0  0  0  0  0  0  0
  149.2871  138.3073  154.7154 C   0  0  0  0  0  0  0  0  0  0  0  0
  148.9076  137.0629  155.0959 C   0  0  0  0  0  0  0  0  0  0  0  0
  147.5475  136.8639  154.8859 N   0  0  0  0  0  0  0  0  0  0  0  0
  147.1707  138.0355  154.3734 C   0  0  0  0  0  0  0  0  0  0  0  0
  148.1462  138.9592  154.2519 N   0  0  0  0  0  0  0  0  0  0  0  0
  147.9909  140.3146  153.7444 C   0  0  0  0  0  0  0  0  0  0  0  0
  148.6572  141.3828  154.6400 C   0  0  1  0  0  0  0  0  0  0  0  0
  148.3975  142.6732  154.1283 O   0  0  0  0  0  0  0  0  0  0  0  0
  148.2761  141.3320  156.1315 C   0  0  0  0  0  0  0  0  0  0  0  0
  149.4398  141.2188  156.9349 O   0  0  0  0  0  0  0  0  0  0  0  0
  149.6811  142.3763  157.7162 C   0  0  0  0  0  0  0  0  0  0  0  0
  150.9139  142.2096  158.5801 C   0  0  0  0  0  0  0  0  0  0  0  0
  151.4674  143.3204  159.2506 C   0  0  0  0  0  0  0  0  0  0  0  0
  152.6135  143.1619  160.0540 C   0  0  0  0  0  0  0  0  0  0  0  0
  153.2070  141.8921  160.1926 C   0  0  0  0  0  0  0  0  0  0  0  0
  152.6555  140.7808  159.5259 C   0  0  0  0  0  0  0  0  0  0  0  0
  151.5112  140.9394  158.7201 C   0  0  0  0  0  0  0  0  0  0  0  0
  149.8913  136.1898  155.6278 N   0  0  0  0  0  0  0  0  0  0  0  0
  149.4910  134.8420  156.0421 C   0  0  0  0  0  0  0  0  0  0  0  0
  151.1907  136.6045  155.7841 C   0  0  0  0  0  0  0  0  0  0  0  0
  152.0308  135.8491  156.2816 O   0  0  0  0  0  0  0  0  0  0  0  0
  153.1622  139.3131  155.2887 H   0  0  0  0  0  0  0  0  0  0  0  0
  153.5849  137.6543  154.9182 H   0  0  0  0  0  0  0  0  0  0  0  0
  153.2562  138.1458  156.5807 H   0  0  0  0  0  0  0  0  0  0  0  0
  146.1479  138.2340  154.0882 H   0  0  0  0  0  0  0  0  0  0  0  0
  148.3852  140.3604  152.7289 H   0  0  0  0  0  0  0  0  0  0  0  0
  146.9221  140.5189  153.6636 H   0  0  0  0  0  0  0  0  0  0  0  0
  149.7381  141.2571  154.5827 H   0  0  0  0  0  0  0  0  0  0  0  0
  148.6361  143.3104  154.7841 H   0  0  0  0  0  0  0  0  0  0  0  0
  147.7516  142.2528  156.3930 H   0  0  0  0  0  0  0  0  0  0  0  0
  147.5877  140.5090  156.3304 H   0  0  0  0  0  0  0  0  0  0  0  0
  149.8237  143.2423  157.0674 H   0  0  0  0  0  0  0  0  0  0  0  0
  148.8169  142.5874  158.3481 H   0  0  0  0  0  0  0  0  0  0  0  0
  151.0149  144.2961  159.1510 H   0  0  0  0  0  0  0  0  0  0  0  0
  153.0365  144.0143  160.5646 H   0  0  0  0  0  0  0  0  0  0  0  0
  154.0849  141.7708  160.8100 H   0  0  0  0  0  0  0  0  0  0  0  0
  153.1105  139.8070  159.6323 H   0  0  0  0  0  0  0  0  0  0  0  0
  151.0934  140.0839  158.2098 H   0  0  0  0  0  0  0  0  0  0  0  0
  150.2030  134.0909  155.6962 H   0  0  0  0  0  0  0  0  0  0  0  0
  148.5177  134.5571  155.6428 H   0  0  0  0  0  0  0  0  0  0  0  0
  149.4341  134.7836  157.1295 H   0  0  0  0  0  0  0  0  0  0  0  0
  1  2  1  0  0  0  0
  1 26  1  0  0  0  0
  1 27  1  0  0  0  0
  1 28  1  0  0  0  0
  2 24  1  0  0  0  0
  2  3  1  0  0  0  0
  3  4  2  0  0  0  0
  3  5  1  0  0  0  0
  5  9  1  0  0  0  0
  5  6  2  0  0  0  0
  6  7  1  0  0  0  0
  6 22  1  0  0  0  0
  7  8  2  0  0  0  0
  8  9  1  0  0  0  0
  8 29  1  0  0  0  0
  9 10  1  0  0  0  0
 10 11  1  0  0  0  0
 10 30  1  0  0  0  0
 10 31  1  0  0  0  0
 11 12  1  0  0  0  0
 11 13  1  0  0  0  0
 11 32  1  0  0  0  0
 12 33  1  0  0  0  0
 13 14  1  0  0  0  0
 13 34  1  0  0  0  0
 13 35  1  0  0  0  0
 14 15  1  0  0  0  0
 15 16  1  0  0  0  0
 15 36  1  0  0  0  0
 15 37  1  0  0  0  0
 16 21  1  0  0  0  0
 16 17  2  0  0  0  0
 17 18  1  0  0  0  0
 17 38  1  0  0  0  0
 18 19  2  0  0  0  0
 18 39  1  0  0  0  0
 19 20  1  0  0  0  0
 19 40  1  0  0  0  0
 20 21  2  0  0  0  0
 20 41  1  0  0  0  0
 21 42  1  0  0  0  0
 22 23  1  0  0  0  0
 22 24  1  0  0  0  0
 23 43  1  0  0  0  0
 23 44  1  0  0  0  0
 23 45  1  0  0  0  0
 24 25  2  0  0  0  0
M  END
> <s_m_source_file>
AV-unprocessed.smi

> <i_m_source_file_index>
2133

> <i_lp_mmshare_version>
43012

> <i_f3d_flags>
0

> <s_epik_input>
Tz1jMW4oW0NIM10pYyg9TyluKFtDSDNdKWMoYzEyKW5bY0hdbjJbQ0gyXVtDQEhdKFtPSF0pW0NIMl1PW0NIMl1jM1tjSF1bY0hdW2NIXVtjSF1bY0hdMw==

> <s_epik_cmdline>
J2VwaWtfcHl0aG9uJywgJy1waCcsICc3LjAnLCAnLXRuJywgJzgnLCAnLW1hJywgJzIwMCcsICctbWV0YWxfYmluZGluZycsICctaW1hZScsICc8aW5maWxlLm1hZT4nLCAnLW9tYWUnLCAnPG91dGZpbGUubWFlPic=

> <r_lp_tautomer_probability>
1

> <r_epik_Ionization_Penalty>
1.52174e-06

> <r_epik_Ionization_Penalty_Charging>
3.83535e-09

> <r_epik_Ionization_Penalty_Neutral>
1.5179e-06

> <r_epik_State_Penalty>
-0

> <r_epik_Charging_Adjusted_Penalty>
3.83535e-09

> <i_epik_Tot_Q>
0

> <i_epik_Tot_abs_Q>
0

> <r_epik_Metal_State_Penalty>
-0

> <b_epik_Metal_Only>
0

> <s_lp_Force_Field>
OPLS_2005

> <r_lp_Energy>
39.5783

> <b_lp_Chiralities_Consistent>
1

> <s_lp_Variant>
AV-unprocessed.smi:2133-2

> <Gold.Version>
5.8.1

> <Gold.Id.Protein>
6NUR|6NUR_protein|mol2

> <Gold.PLP.Fitness>
48.0792

> <Gold.PLP.PLP>
-42.1614

> <Gold.PLP.part.hbond>
-4.5008

> <Gold.PLP.part.metal>
0.0000

> <Gold.PLP.part.buried>
-5.8930

> <Gold.PLP.part.nonpolar>
-34.1342

> <Gold.PLP.part.repulsive>
0.2579

> <Gold.PLP.ligand.clash>
0.0000

> <Gold.PLP.ligand.torsion>
1.3609

> <Gold.PLP.Chemscore.Hbond>
2.8561

> <Gold.PLP.Chemscore.CHOScore>
0.0000

> <Gold.PLP.Chemscore.Metal>
0.0000

> <Gold.Chemscore.Hbonds>
donor molecule, donor type, donor heavy atom, donor atom, acceptor molecule, acceptor atom, score
      L1  H    12    33       P1  8028  1.00
      P1  H  7989  7998       L1     4  0.88
      P1  H  8011  8017       L1    12  0.02
      P1  H 10752 10763       L1    25  1.00

> <Gold.PLP.Chemscore.Internal.Correction>
0.0712

> <Gold.Rescore>
     Score         DG    S(hbond)    S(metal)    S(lipo)     H(rot)  DE(clash)    DE(int)     intcor
     16.19     -18.77       2.78        0.00      98.01       2.91       0.00       2.58       ----

> <Gold.Chemscore.Fitness>
16.1886

> <Gold.Chemscore.DG>
-18.7682

> <Gold.Chemscore.ZeroCoef>
-5.4800

> <Gold.Chemscore.Hbond>
2.7779

> <Gold.Chemscore.Metal>
0.0000

> <Gold.Chemscore.Lipo>
98.0141

> <Gold.Chemscore.Internal_Hbond>
0.0000

> <Gold.Chemscore.DEClash>
0.0033

> <Gold.Chemscore.DEInternal>
2.5762

> <Gold.Chemscore.Rot>
2.9132

> <Gold.Chemscore.Internal.Correction>
   9.000000E+99

> <Gold.Chemscore.Hbonds>
donor molecule, donor type, donor heavy atom, donor atom, acceptor molecule, acceptor atom, score
      L1  H    12    33       P1  8028  1.00
      P1  H  7989  7998       L1     4  0.86
      P1  H 10752 10763       L1    25  0.34

> <Gold.Chemscore.Hbond.Weighted>
-9.2783

> <Gold.Chemscore.Metal.Weighted>
-0.0000

> <Gold.Chemscore.Lipo.Weighted>
-11.4676

> <Gold.Chemscore.Internal_Hbond.Weighted>
0.0000

> <Gold.Chemscore.DEClash.Weighted>
0.0033

> <Gold.Chemscore.DEInternal.Weighted>
2.5762

> <Gold.Chemscore.Rot.Weighted>
7.4578

> <Gold.Chemscore.Internal.Correction.Weighted>
   9.000000E+99

> <Gold.Protein.RotatedTorsions>
[ 6907 6896 6895 6894 ] final  -37.46 input  -60.11 | X-H torsion
[ 7974 7965 7964 7962 ] final -131.25 input  175.53 | X-H torsion
[ 8008 7997 7996 7995 ] final  179.54 input   59.86 | X-H torsion
[ 10167 10162 10161 10158 ] final -171.24 input  -65.29 | X-H torsion
[ 10718 10713 10712 10709 ] final -104.46 input   66.30 | X-H torsion
[ 10763 10752 10751 10750 ] final   78.33 input  -60.55 | X-H torsion
[ 11005 11000 10999 10996 ] final  119.12 input  -57.11 | X-H torsion

> <Gold.Protein.ActiveResidues>
 VAL166  LYS551  ARG553  GLY616  TRP617  ASP618  TYR619  PRO620  LYS621  CYS622 
 ASP623  PHE694  ASN695  SER759  ASP760  ASP761  ALA762  ILE779  LEU786  VAL792 
 PHE793  MET794  SER795  GLU796  ALA797  LYS798  CYS799  TRP800  GLU811  SER814 

> <Gold.Protein.RotatedAtoms>
  151.0144  134.9422  159.8024 H   0  0  0  0  0  0  0  0  0  0  0  0  # atno 6907 bound_to 6896
  152.5310  134.2985  159.9079 H   0  0  0  0  0  0  0  0  0  0  0  0  # atno 6908 bound_to 6896
  151.2992  133.4088  159.2672 H   0  0  0  0  0  0  0  0  0  0  0  0  # atno 6909 bound_to 6896
  144.9398  140.7225  143.4854 H   0  0  0  0  0  0  0  0  0  0  0  0  # atno 7974 bound_to 7965
  156.0423  140.1306  157.0142 H   0  0  0  0  0  0  0  0  0  0  0  0  # atno 8008 bound_to 7997
  154.4396  140.1028  156.6325 H   0  0  0  0  0  0  0  0  0  0  0  0  # atno 8009 bound_to 7997
  155.5649  140.3465  155.4502 H   0  0  0  0  0  0  0  0  0  0  0  0  # atno 8010 bound_to 7997
  139.5814  144.1416  152.1519 H   0  0  0  0  0  0  0  0  0  0  0  0  # atno 10167 bound_to 10162
  156.0305  130.5516  150.7400 H   0  0  0  0  0  0  0  0  0  0  0  0  # atno 10718 bound_to 10713
  153.0866  135.4881  154.8608 H   0  0  0  0  0  0  0  0  0  0  0  0  # atno 10763 bound_to 10752
  154.7218  135.3041  154.9037 H   0  0  0  0  0  0  0  0  0  0  0  0  # atno 10764 bound_to 10752
  153.9699  135.6802  153.4800 H   0  0  0  0  0  0  0  0  0  0  0  0  # atno 10765 bound_to 10752
  139.9134  134.9626  156.7607 H   0  0  0  0  0  0  0  0  0  0  0  0  # atno 11005 bound_to 11000
  145.3010  139.1850  143.4689 LP  0  0  0  0  0  0  0  0  0  0  0  0  # atno 17320 bound_to 7965
  146.3281  140.3001  142.8620 LP  0  0  0  0  0  0  0  0  0  0  0  0  # atno 17321 bound_to 7965
  140.0970  144.5572  150.7015 LP  0  0  0  0  0  0  0  0  0  0  0  0  # atno 17342 bound_to 10162
  140.7091  143.2491  151.4635 LP  0  0  0  0  0  0  0  0  0  0  0  0  # atno 17343 bound_to 10162
  157.4971  131.0915  151.0359 LP  0  0  0  0  0  0  0  0  0  0  0  0  # atno 17370 bound_to 10713
  157.0750  130.5879  149.5409 LP  0  0  0  0  0  0  0  0  0  0  0  0  # atno 17371 bound_to 10713
  140.6700  133.9568  155.7851 LP  0  0  0  0  0  0  0  0  0  0  0  0  # atno 17394 bound_to 11000
  141.0584  134.0382  157.3691 LP  0  0  0  0  0  0  0  0  0  0  0  0  # atno 17395 bound_to 11000

$$$$
