AV-unprocessed.smi:1244|AV-procd|sdf|5228|dock2
  -GOLD-   22720 4333D 1   1.00000     0.00000
 Structure written by MMmdl.
 55 57  0  0  0  0  0  0  0  0  2 V2000
  153.2436  138.7125  154.6070 C   0  0  0  0  0  0  0  0  0  0  0  0
  151.9630  139.1141  155.3463 C   0  0  2  0  0  0  0  0  0  0  0  0
  150.7069  138.5020  154.7012 C   0  0  0  0  0  0  0  0  0  0  0  0
  149.4848  138.9548  155.3520 N   0  0  0  0  0  0  0  0  0  0  0  0
  148.3068  138.3227  154.7569 C   0  0  0  0  0  0  0  0  0  0  0  0
  148.1265  136.8235  155.0742 C   0  0  0  0  0  0  0  0  0  0  0  0
  147.2231  136.1614  154.1385 N   0  0  0  0  0  0  0  0  0  0  0  0
  145.9562  135.8147  154.4024 C   0  0  0  0  0  0  0  0  0  0  0  0
  145.4148  135.9831  155.4950 O   0  0  0  0  0  0  0  0  0  0  0  0
  145.3622  135.2879  153.3190 N   0  0  0  0  0  0  0  0  0  0  0  0
  143.9928  134.9344  153.1663 C   0  0  0  0  0  0  0  0  0  0  0  0
  142.9941  135.5097  153.9931 C   0  0  0  0  0  0  0  0  0  0  0  0
  141.6550  135.0943  153.8704 C   0  0  0  0  0  0  0  0  0  0  0  0
  141.3363  134.0961  152.9340 C   0  0  0  0  0  0  0  0  0  0  0  0
  142.3109  133.5585  152.1719 N   0  3  0  0  0  0  0  0  0  0  0  0
  143.6154  133.9270  152.2312 C   0  0  0  0  0  0  0  0  0  0  0  0
  144.5225  133.2803  151.3603 N   0  0  0  0  0  0  0  0  0  0  0  0
  144.9360  131.9049  151.6122 C   0  0  0  0  0  0  0  0  0  0  0  0
  145.6206  131.4555  150.3242 C   0  0  0  0  0  0  0  0  0  0  0  0
  144.8125  132.1799  149.2515 C   0  0  0  0  0  0  0  0  0  0  0  0
  144.4202  133.5016  149.9208 C   0  0  0  0  0  0  0  0  0  0  0  0
  149.4281  140.4131  155.2975 C   0  0  0  0  0  0  0  0  0  0  0  0
  150.6783  141.0764  155.9093 C   0  0  1  0  0  0  0  0  0  0  0  0
  150.7179  140.9948  157.4448 C   0  0  0  0  0  0  0  0  0  0  0  0
  151.8633  140.5371  155.3208 O   0  0  0  0  0  0  0  0  0  0  0  0
  153.3754  137.6302  154.6106 H   0  0  0  0  0  0  0  0  0  0  0  0
  154.1210  139.1555  155.0786 H   0  0  0  0  0  0  0  0  0  0  0  0
  153.2206  139.0437  153.5684 H   0  0  0  0  0  0  0  0  0  0  0  0
  152.0433  138.7753  156.3795 H   0  0  0  0  0  0  0  0  0  0  0  0
  150.6776  138.7604  153.6413 H   0  0  0  0  0  0  0  0  0  0  0  0
  150.7714  137.4145  154.7541 H   0  0  0  0  0  0  0  0  0  0  0  0
  147.4075  138.8631  155.0562 H   0  0  0  0  0  0  0  0  0  0  0  0
  148.3639  138.4282  153.6726 H   0  0  0  0  0  0  0  0  0  0  0  0
  149.0867  136.3092  155.0430 H   0  0  0  0  0  0  0  0  0  0  0  0
  147.7538  136.7016  156.0922 H   0  0  0  0  0  0  0  0  0  0  0  0
  147.5833  135.9857  153.2120 H   0  0  0  0  0  0  0  0  0  0  0  0
  145.9110  135.2829  152.4717 H   0  0  0  0  0  0  0  0  0  0  0  0
  143.2399  136.2510  154.7386 H   0  0  0  0  0  0  0  0  0  0  0  0
  140.8873  135.5266  154.4951 H   0  0  0  0  0  0  0  0  0  0  0  0
  140.3399  133.7093  152.7755 H   0  0  0  0  0  0  0  0  0  0  0  0
  145.6056  131.8398  152.4705 H   0  0  0  0  0  0  0  0  0  0  0  0
  144.0660  131.2755  151.8041 H   0  0  0  0  0  0  0  0  0  0  0  0
  146.6548  131.8032  150.3092 H   0  0  0  0  0  0  0  0  0  0  0  0
  145.6243  130.3724  150.1996 H   0  0  0  0  0  0  0  0  0  0  0  0
  145.3680  132.3230  148.3244 H   0  0  0  0  0  0  0  0  0  0  0  0
  143.9146  131.6054  149.0191 H   0  0  0  0  0  0  0  0  0  0  0  0
  143.4197  133.8161  149.6207 H   0  0  0  0  0  0  0  0  0  0  0  0
  145.1230  134.2848  149.6353 H   0  0  0  0  0  0  0  0  0  0  0  0
  149.3314  140.7325  154.2586 H   0  0  0  0  0  0  0  0  0  0  0  0
  148.5427  140.7805  155.8155 H   0  0  0  0  0  0  0  0  0  0  0  0
  150.6593  142.1344  155.6467 H   0  0  0  0  0  0  0  0  0  0  0  0
  149.8628  141.5092  157.8833 H   0  0  0  0  0  0  0  0  0  0  0  0
  151.6217  141.4623  157.8362 H   0  0  0  0  0  0  0  0  0  0  0  0
  150.6942  139.9649  157.7990 H   0  0  0  0  0  0  0  0  0  0  0  0
  142.0476  132.8345  151.5032 H   0  0  0  0  0  0  0  0  0  0  0  0
  1  2  1  0  0  0  0
  1 26  1  0  0  0  0
  1 27  1  0  0  0  0
  1 28  1  0  0  0  0
  2 25  1  0  0  0  0
  2  3  1  0  0  0  0
  2 29  1  0  0  0  0
  3  4  1  0  0  0  0
  3 30  1  0  0  0  0
  3 31  1  0  0  0  0
  4  5  1  0  0  0  0
  4 22  1  0  0  0  0
  5  6  1  0  0  0  0
  5 32  1  0  0  0  0
  5 33  1  0  0  0  0
  6  7  1  0  0  0  0
  6 34  1  0  0  0  0
  6 35  1  0  0  0  0
  7  8  1  0  0  0  0
  7 36  1  0  0  0  0
  8  9  2  0  0  0  0
  8 10  1  0  0  0  0
 10 11  1  0  0  0  0
 10 37  1  0  0  0  0
 11 16  1  0  0  0  0
 11 12  2  0  0  0  0
 12 13  1  0  0  0  0
 12 38  1  0  0  0  0
 13 14  2  0  0  0  0
 13 39  1  0  0  0  0
 14 15  1  0  0  0  0
 14 40  1  0  0  0  0
 15 16  2  0  0  0  0
 15 55  1  0  0  0  0
 16 17  1  0  0  0  0
 17 21  1  0  0  0  0
 17 18  1  0  0  0  0
 18 19  1  0  0  0  0
 18 41  1  0  0  0  0
 18 42  1  0  0  0  0
 19 20  1  0  0  0  0
 19 43  1  0  0  0  0
 19 44  1  0  0  0  0
 20 21  1  0  0  0  0
 20 45  1  0  0  0  0
 20 46  1  0  0  0  0
 21 47  1  0  0  0  0
 21 48  1  0  0  0  0
 22 23  1  0  0  0  0
 22 49  1  0  0  0  0
 22 50  1  0  0  0  0
 23 24  1  0  0  0  0
 23 25  1  0  0  0  0
 23 51  1  0  0  0  0
 24 52  1  0  0  0  0
 24 53  1  0  0  0  0
 24 54  1  0  0  0  0
M  CHG  1  15   1
M  END
> <s_m_source_file>
AV-unprocessed.smi

> <i_m_source_file_index>
1244

> <i_lp_mmshare_version>
43012

> <i_f3d_flags>
0

> <s_epik_input>
W0NIM11bQ0BASF0xW0NIMl1OKFtDSDJdW0NASF0oTzEpW0NIM10pW0NIMl1bQ0gyXVtOSF1DKD1PKVtOSF1jMltjSF1bY0hdW2NIXW5jMk4zW0NIMl1bQ0gyXVtDSDJdW0NIMl0z

> <s_epik_cmdline>
J2VwaWtfcHl0aG9uJywgJy1waCcsICc3LjAnLCAnLXRuJywgJzgnLCAnLW1hJywgJzIwMCcsICctbWV0YWxfYmluZGluZycsICctaW1hZScsICc8aW5maWxlLm1hZT4nLCAnLW9tYWUnLCAnPG91dGZpbGUubWFlPic=

> <r_epik_Ionization_Penalty>
1.38385

> <r_epik_Ionization_Penalty_Charging>
1.11784

> <r_epik_Ionization_Penalty_Neutral>
0.26601

> <r_epik_State_Penalty>
1.46794

> <r_epik_Charging_Adjusted_Penalty>
2.58578

> <i_epik_Tot_Q>
1

> <i_epik_Tot_abs_Q>
1

> <r_epik_Metal_State_Penalty>
1.54908

> <b_epik_Metal_Only>
0

> <s_lp_Force_Field>
OPLS_2005

> <r_lp_Energy>
60.0137

> <b_lp_Chiralities_Consistent>
1

> <s_lp_Variant>
AV-unprocessed.smi:1244-8

> <Gold.Version>
5.8.1

> <Gold.Id.Protein>
6NUR|6NUR_protein|mol2

> <Gold.PLP.Fitness>
44.1403

> <Gold.PLP.PLP>
-39.8157

> <Gold.PLP.part.hbond>
-3.3370

> <Gold.PLP.part.metal>
0.0000

> <Gold.PLP.part.buried>
-2.2806

> <Gold.PLP.part.nonpolar>
-34.6674

> <Gold.PLP.part.repulsive>
0.2500

> <Gold.PLP.ligand.clash>
0.0000

> <Gold.PLP.ligand.torsion>
0.6071

> <Gold.PLP.Chemscore.Hbond>
1.6880

> <Gold.PLP.Chemscore.CHOScore>
0.0000

> <Gold.PLP.Chemscore.Metal>
0.0000

> <Gold.Chemscore.Hbonds>
donor molecule, donor type, donor heavy atom, donor atom, acceptor molecule, acceptor atom, score
      L1  H     7    36       P1  7948  1.00
      P1  H  7989  7998       L1    25  0.69

> <Gold.PLP.Chemscore.Internal.Correction>
0.4748

> <Gold.Rescore>
     Score         DG    S(hbond)    S(metal)    S(lipo)     H(rot)  DE(clash)    DE(int)     intcor
     15.94     -17.94       1.06        0.00     110.67       1.58       0.09       1.91       ----

> <Gold.Chemscore.Fitness>
15.9384

> <Gold.Chemscore.DG>
-17.9389

> <Gold.Chemscore.ZeroCoef>
-5.4800

> <Gold.Chemscore.Hbond>
1.0642

> <Gold.Chemscore.Metal>
0.0000

> <Gold.Chemscore.Lipo>
110.6692

> <Gold.Chemscore.Internal_Hbond>
0.0000

> <Gold.Chemscore.DEClash>
0.0885

> <Gold.Chemscore.DEInternal>
1.9120

> <Gold.Chemscore.Rot>
1.5797

> <Gold.Chemscore.Internal.Correction>
   9.000000E+99

> <Gold.Chemscore.Hbonds>
donor molecule, donor type, donor heavy atom, donor atom, acceptor molecule, acceptor atom, score
      L1  H     7    36       P1  7948  0.95
      P1  H  7989  7998       L1    25  0.11

> <Gold.Chemscore.Hbond.Weighted>
-3.5545

> <Gold.Chemscore.Metal.Weighted>
-0.0000

> <Gold.Chemscore.Lipo.Weighted>
-12.9483

> <Gold.Chemscore.Internal_Hbond.Weighted>
0.0000

> <Gold.Chemscore.DEClash.Weighted>
0.0885

> <Gold.Chemscore.DEInternal.Weighted>
1.9120

> <Gold.Chemscore.Rot.Weighted>
4.0439

> <Gold.Chemscore.Internal.Correction.Weighted>
   9.000000E+99

> <Gold.Protein.RotatedTorsions>
[ 6907 6896 6895 6894 ] final  -40.28 input  -60.11 | X-H torsion
[ 7974 7965 7964 7962 ] final  -73.53 input  175.53 | X-H torsion
[ 8008 7997 7996 7995 ] final  -82.66 input   59.86 | X-H torsion
[ 10167 10162 10161 10158 ] final -120.78 input  -65.29 | X-H torsion
[ 10718 10713 10712 10709 ] final -109.81 input   66.30 | X-H torsion
[ 10763 10752 10751 10750 ] final -174.76 input  -60.55 | X-H torsion
[ 11005 11000 10999 10996 ] final -100.80 input  -57.11 | X-H torsion

> <Gold.Protein.ActiveResidues>
 VAL166  LYS551  ARG553  GLY616  TRP617  ASP618  TYR619  PRO620  LYS621  CYS622 
 ASP623  PHE694  ASN695  SER759  ASP760  ASP761  ALA762  ILE779  LEU786  VAL792 
 PHE793  MET794  SER795  GLU796  ALA797  LYS798  CYS799  TRP800  GLU811  SER814 

> <Gold.Protein.RotatedAtoms>
  150.9803  134.9160  159.7840 H   0  0  0  0  0  0  0  0  0  0  0  0  # atno 6907 bound_to 6896
  152.5220  134.3419  159.9230 H   0  0  0  0  0  0  0  0  0  0  0  0  # atno 6908 bound_to 6896
  151.3426  133.3915  159.2707 H   0  0  0  0  0  0  0  0  0  0  0  0  # atno 6909 bound_to 6896
  145.6509  140.9283  143.0985 H   0  0  0  0  0  0  0  0  0  0  0  0  # atno 7974 bound_to 7965
  154.6109  140.0630  156.9492 H   0  0  0  0  0  0  0  0  0  0  0  0  # atno 8008 bound_to 7997
  155.1975  140.3312  155.4330 H   0  0  0  0  0  0  0  0  0  0  0  0  # atno 8009 bound_to 7997
  156.2376  140.1870  156.7060 H   0  0  0  0  0  0  0  0  0  0  0  0  # atno 8010 bound_to 7997
  140.0321  143.5238  152.2171 H   0  0  0  0  0  0  0  0  0  0  0  0  # atno 10167 bound_to 10162
  156.0557  130.5783  150.8151 H   0  0  0  0  0  0  0  0  0  0  0  0  # atno 10718 bound_to 10713
  154.5925  135.2846  155.0621 H   0  0  0  0  0  0  0  0  0  0  0  0  # atno 10763 bound_to 10752
  154.1916  135.6440  153.5065 H   0  0  0  0  0  0  0  0  0  0  0  0  # atno 10764 bound_to 10752
  153.0126  135.5447  154.6615 H   0  0  0  0  0  0  0  0  0  0  0  0  # atno 10765 bound_to 10752
  141.1256  133.8427  157.1149 H   0  0  0  0  0  0  0  0  0  0  0  0  # atno 11005 bound_to 11000
  144.7123  139.8325  143.7410 LP  0  0  0  0  0  0  0  0  0  0  0  0  # atno 17320 bound_to 7965
  146.1204  139.4222  143.0232 LP  0  0  0  0  0  0  0  0  0  0  0  0  # atno 17321 bound_to 7965
  139.6069  144.7598  151.3041 LP  0  0  0  0  0  0  0  0  0  0  0  0  # atno 17342 bound_to 10162
  140.7297  143.6899  150.7931 LP  0  0  0  0  0  0  0  0  0  0  0  0  # atno 17343 bound_to 10162
  157.5524  131.0944  150.9676 LP  0  0  0  0  0  0  0  0  0  0  0  0  # atno 17370 bound_to 10713
  156.9933  130.5571  149.5305 LP  0  0  0  0  0  0  0  0  0  0  0  0  # atno 17371 bound_to 10713
  140.0252  134.9927  157.0672 LP  0  0  0  0  0  0  0  0  0  0  0  0  # atno 17394 bound_to 11000
  140.4374  134.1717  155.7171 LP  0  0  0  0  0  0  0  0  0  0  0  0  # atno 17395 bound_to 11000

$$$$
