AV-unprocessed.smi:54|AV-procd|sdf|544|dock10
  -GOLD-   2262016433D 1   1.00000     0.00000
 Structure written by MMmdl.
 44 46  0  0  0  0  0  0  0  0  1 V2000
  152.1496  145.0578  158.6205 C   0  0  0  0  0  0  0  0  0  0  0  0
  152.0278  143.7013  159.3326 C   0  0  0  0  0  0  0  0  0  0  0  0
  153.3412  142.9064  159.2481 C   0  0  0  0  0  0  0  0  0  0  0  0
  150.8634  142.8913  158.7513 C   0  0  0  0  0  0  0  0  0  0  0  0
  149.8639  142.6132  159.4155 O   0  0  0  0  0  0  0  0  0  0  0  0
  151.0270  142.4683  157.3722 N   0  0  0  0  0  0  0  0  0  0  0  0
  150.1531  141.7504  156.6297 C   0  0  0  0  0  0  0  0  0  0  0  0
  150.4824  140.6210  156.0185 N   0  0  0  0  0  0  0  0  0  0  0  0
  149.4611  140.0330  155.3252 C   0  0  0  0  0  0  0  0  0  0  0  0
  148.1662  140.4946  155.2168 C   0  0  0  0  0  0  0  0  0  0  0  0
  147.4152  139.6313  154.4267 N   0  0  0  0  0  0  0  0  0  0  0  0
  148.2589  138.6962  154.0880 C   0  0  0  0  0  0  0  0  0  0  0  0
  149.5268  138.8674  154.5932 N   0  0  0  0  0  0  0  0  0  0  0  0
  150.7428  138.0147  154.4245 C   0  0  1  0  0  0  0  0  0  0  0  0
  151.7914  138.6116  155.1339 O   0  0  0  0  0  0  0  0  0  0  0  0
  152.2381  137.7462  156.1735 C   0  0  1  0  0  0  0  0  0  0  0  0
  152.7812  138.5436  157.3737 C   0  0  0  0  0  0  0  0  0  0  0  0
  152.8039  139.9349  157.1305 O   0  0  0  0  0  0  0  0  0  0  0  0
  151.0719  136.7912  156.4361 C   0  0  2  0  0  0  0  0  0  0  0  0
  151.4720  135.5613  157.0094 O   0  0  0  0  0  0  0  0  0  0  0  0
  150.4846  136.6297  155.0403 C   0  0  2  0  0  0  0  0  0  0  0  0
  151.1158  135.6152  154.2796 O   0  0  0  0  0  0  0  0  0  0  0  0
  147.7921  141.7098  155.8813 C   0  0  0  0  0  0  0  0  0  0  0  0
  146.6948  142.2634  155.8978 O   0  0  0  0  0  0  0  0  0  0  0  0
  148.8642  142.2815  156.5791 N   0  0  0  0  0  0  0  0  0  0  0  0
  150.9254  138.0095  153.3489 H   0  0  0  0  0  0  0  0  0  0  0  0
  153.0638  137.1775  155.7420 H   0  0  0  0  0  0  0  0  0  0  0  0
  150.3265  137.2602  157.0792 H   0  0  0  0  0  0  0  0  0  0  0  0
  149.4174  136.4052  155.0739 H   0  0  0  0  0  0  0  0  0  0  0  0
  151.2202  145.6250  158.6868 H   0  0  0  0  0  0  0  0  0  0  0  0
  152.3916  144.9361  157.5638 H   0  0  0  0  0  0  0  0  0  0  0  0
  152.9345  145.6653  159.0716 H   0  0  0  0  0  0  0  0  0  0  0  0
  151.8179  143.8897  160.3864 H   0  0  0  0  0  0  0  0  0  0  0  0
  153.2499  141.9349  159.7356 H   0  0  0  0  0  0  0  0  0  0  0  0
  154.1528  143.4431  159.7401 H   0  0  0  0  0  0  0  0  0  0  0  0
  153.6403  142.7335  158.2134 H   0  0  0  0  0  0  0  0  0  0  0  0
  151.9066  142.7051  156.9374 H   0  0  0  0  0  0  0  0  0  0  0  0
  147.9745  137.8616  153.4647 H   0  0  0  0  0  0  0  0  0  0  0  0
  152.1454  138.3719  158.2424 H   0  0  0  0  0  0  0  0  0  0  0  0
  153.7818  138.2025  157.6397 H   0  0  0  0  0  0  0  0  0  0  0  0
  152.0045  140.3117  157.4655 H   0  0  0  0  0  0  0  0  0  0  0  0
  152.2877  135.6995  157.4668 H   0  0  0  0  0  0  0  0  0  0  0  0
  151.0241  135.8294  153.3633 H   0  0  0  0  0  0  0  0  0  0  0  0
  148.6740  143.1424  157.0701 H   0  0  0  0  0  0  0  0  0  0  0  0
  1  2  1  0  0  0  0
  1 30  1  0  0  0  0
  1 31  1  0  0  0  0
  1 32  1  0  0  0  0
  2  3  1  0  0  0  0
  2  4  1  0  0  0  0
  2 33  1  0  0  0  0
  3 34  1  0  0  0  0
  3 35  1  0  0  0  0
  3 36  1  0  0  0  0
  4  5  2  0  0  0  0
  4  6  1  0  0  0  0
  6 37  1  0  0  0  0
  6  7  1  0  0  0  0
  7 25  1  0  0  0  0
  7  8  2  0  0  0  0
  8  9  1  0  0  0  0
  9 13  1  0  0  0  0
  9 10  2  0  0  0  0
 10 11  1  0  0  0  0
 10 23  1  0  0  0  0
 11 12  2  0  0  0  0
 12 13  1  0  0  0  0
 12 38  1  0  0  0  0
 13 14  1  0  0  0  0
 14 26  1  0  0  0  0
 14 21  1  0  0  0  0
 14 15  1  0  0  0  0
 15 16  1  0  0  0  0
 16 27  1  0  0  0  0
 16 17  1  0  0  0  0
 16 19  1  0  0  0  0
 17 18  1  0  0  0  0
 17 39  1  0  0  0  0
 17 40  1  0  0  0  0
 18 41  1  0  0  0  0
 19 28  1  0  0  0  0
 19 20  1  0  0  0  0
 19 21  1  0  0  0  0
 20 42  1  0  0  0  0
 21 29  1  0  0  0  0
 21 22  1  0  0  0  0
 22 43  1  0  0  0  0
 23 24  2  0  0  0  0
 23 25  1  0  0  0  0
 25 44  1  0  0  0  0
M  END
> <s_m_source_file>
AV-unprocessed.smi

> <i_m_source_file_index>
54

> <i_lp_mmshare_version>
43012

> <i_f3d_flags>
0

> <s_epik_input>
W0NIM11bQ0hdKFtDSDNdKUMoPU8pW05IXWMobjEpW25IXWMoPU8pYyhjMTIpbltjSF1uMltDQEBIXTNPW0NASF0oW0NIMl1bT0hdKVtDQEBIXShbT0hdKVtDQEhdM1tPSF0=

> <s_epik_cmdline>
J2VwaWtfcHl0aG9uJywgJy1waCcsICc3LjAnLCAnLXRuJywgJzgnLCAnLW1hJywgJzIwMCcsICctbWV0YWxfYmluZGluZycsICctaW1hZScsICc8aW5maWxlLm1hZT4nLCAnLW9tYWUnLCAnPG91dGZpbGUubWFlPic=

> <r_lp_tautomer_probability>
0.85571

> <r_epik_Ionization_Penalty>
0.0316551

> <r_epik_Ionization_Penalty_Charging>
0.0316043

> <r_epik_Ionization_Penalty_Neutral>
5.07097e-05

> <r_epik_State_Penalty>
3.15494e-07

> <r_epik_Charging_Adjusted_Penalty>
0.0316047

> <i_epik_Tot_Q>
0

> <i_epik_Tot_abs_Q>
0

> <r_epik_Metal_State_Penalty>
0.421206

> <b_epik_Metal_Only>
0

> <s_epik_Chemistry_Notes>
This compound contains an acetal/aminal-like group ( X-CH(R)-Y where X, Y are N, S, or O) that may be acid/base labile, releasing an aldehyde.

> <s_lp_Force_Field>
OPLS_2005

> <r_lp_Energy>
44.5551

> <b_lp_Chiralities_Consistent>
1

> <s_lp_Variant>
AV-unprocessed.smi:54-16

> <Gold.Version>
5.8.1

> <Gold.Id.Protein>
6NUR|6NUR_protein|mol2

> <Gold.PLP.Fitness>
44.5629

> <Gold.PLP.PLP>
-34.5368

> <Gold.PLP.part.hbond>
-5.2100

> <Gold.PLP.part.metal>
0.0000

> <Gold.PLP.part.buried>
-0.2254

> <Gold.PLP.part.nonpolar>
-30.1655

> <Gold.PLP.part.repulsive>
1.4778

> <Gold.PLP.ligand.clash>
0.0000

> <Gold.PLP.ligand.torsion>
1.2784

> <Gold.PLP.Chemscore.Hbond>
3.1820

> <Gold.PLP.Chemscore.CHOScore>
1.0000

> <Gold.PLP.Chemscore.Metal>
0.0000

> <Gold.Chemscore.Hbonds>
donor molecule, donor type, donor heavy atom, donor atom, acceptor molecule, acceptor atom, score
      L1  H    22    43       P1  7949  0.90
      L1  H    25    44       P1  8028  0.13
      P1  H  7997  8009       L1    18  0.93
      P1  H 10752 10763       L1    22  1.00
      L1  C    12    38       P1  7948  1.00

> <Gold.PLP.Chemscore.Internal.Correction>
0.0369

> <Gold.Rescore>
     Score         DG    S(hbond)    S(metal)    S(lipo)     H(rot)  DE(clash)    DE(int)     intcor
      2.82      -6.86       1.30        0.00      63.41       4.05       1.20       2.85       ----

> <Gold.Chemscore.Fitness>
2.8170

> <Gold.Chemscore.DG>
-6.8603

> <Gold.Chemscore.ZeroCoef>
-5.4800

> <Gold.Chemscore.Hbond>
1.2956

> <Gold.Chemscore.Metal>
0.0000

> <Gold.Chemscore.Lipo>
63.4119

> <Gold.Chemscore.Internal_Hbond>
0.0000

> <Gold.Chemscore.DEClash>
1.1961

> <Gold.Chemscore.DEInternal>
2.8472

> <Gold.Chemscore.Rot>
4.0493

> <Gold.Chemscore.Internal.Correction>
   9.000000E+99

> <Gold.Chemscore.Hbonds>
donor molecule, donor type, donor heavy atom, donor atom, acceptor molecule, acceptor atom, score
      L1  H    22    43       P1  7949  0.18
      L1  H    25    44       P1  8028  0.07
      P1  H  7997  8009       L1    18  0.31
      P1  H 10752 10763       L1    22  0.26

> <Gold.Chemscore.Hbond.Weighted>
-4.3274

> <Gold.Chemscore.Metal.Weighted>
-0.0000

> <Gold.Chemscore.Lipo.Weighted>
-7.4192

> <Gold.Chemscore.Internal_Hbond.Weighted>
0.0000

> <Gold.Chemscore.DEClash.Weighted>
1.1961

> <Gold.Chemscore.DEInternal.Weighted>
2.8472

> <Gold.Chemscore.Rot.Weighted>
10.3662

> <Gold.Chemscore.Internal.Correction.Weighted>
   9.000000E+99

> <Gold.Protein.RotatedTorsions>
[ 6907 6896 6895 6894 ] final   92.29 input  -60.11 | X-H torsion
[ 7974 7965 7964 7962 ] final   40.45 input  175.53 | X-H torsion
[ 8008 7997 7996 7995 ] final -162.36 input   59.86 | X-H torsion
[ 10167 10162 10161 10158 ] final -171.45 input  -65.29 | X-H torsion
[ 10718 10713 10712 10709 ] final  -63.12 input   66.30 | X-H torsion
[ 10763 10752 10751 10750 ] final   52.04 input  -60.55 | X-H torsion
[ 11005 11000 10999 10996 ] final  141.09 input  -57.11 | X-H torsion

> <Gold.Protein.ActiveResidues>
 VAL166  LYS551  ARG553  GLY616  TRP617  ASP618  TYR619  PRO620  LYS621  CYS622 
 ASP623  PHE694  ASN695  SER759  ASP760  ASP761  ALA762  ILE779  LEU786  VAL792 
 PHE793  MET794  SER795  GLU796  ALA797  LYS798  CYS799  TRP800  GLU811  SER814 

> <Gold.Protein.RotatedAtoms>
  152.5452  134.1525  159.8524 H   0  0  0  0  0  0  0  0  0  0  0  0  # atno 6907 bound_to 6896
  151.1551  133.4875  159.2602 H   0  0  0  0  0  0  0  0  0  0  0  0  # atno 6908 bound_to 6896
  151.1432  135.0200  159.8690 H   0  0  0  0  0  0  0  0  0  0  0  0  # atno 6909 bound_to 6896
  146.0904  139.5532  142.9479 H   0  0  0  0  0  0  0  0  0  0  0  0  # atno 7974 bound_to 7965
  155.8057  140.0898  157.1932 H   0  0  0  0  0  0  0  0  0  0  0  0  # atno 8008 bound_to 7997
  154.3981  140.1464  156.3386 H   0  0  0  0  0  0  0  0  0  0  0  0  # atno 8009 bound_to 7997
  155.8417  140.3438  155.5639 H   0  0  0  0  0  0  0  0  0  0  0  0  # atno 8010 bound_to 7997
  139.5802  144.1441  152.1504 H   0  0  0  0  0  0  0  0  0  0  0  0  # atno 10167 bound_to 10162
  156.0811  130.4217  150.1232 H   0  0  0  0  0  0  0  0  0  0  0  0  # atno 10718 bound_to 10713
  152.9787  135.5826  154.4513 H   0  0  0  0  0  0  0  0  0  0  0  0  # atno 10763 bound_to 10752
  154.4101  135.2770  155.2044 H   0  0  0  0  0  0  0  0  0  0  0  0  # atno 10764 bound_to 10752
  154.3837  135.6141  153.5859 H   0  0  0  0  0  0  0  0  0  0  0  0  # atno 10765 bound_to 10752
  140.0375  134.9321  157.0781 H   0  0  0  0  0  0  0  0  0  0  0  0  # atno 11005 bound_to 11000
  145.6050  141.0349  143.1998 LP  0  0  0  0  0  0  0  0  0  0  0  0  # atno 17320 bound_to 7965
  144.7356  139.7596  143.7330 LP  0  0  0  0  0  0  0  0  0  0  0  0  # atno 17321 bound_to 7965
  140.0993  144.5553  150.7000 LP  0  0  0  0  0  0  0  0  0  0  0  0  # atno 17342 bound_to 10162
  140.7081  143.2483  151.4666 LP  0  0  0  0  0  0  0  0  0  0  0  0  # atno 17343 bound_to 10162
  156.9263  130.9699  151.3540 LP  0  0  0  0  0  0  0  0  0  0  0  0  # atno 17370 bound_to 10713
  157.5928  130.8456  149.8684 LP  0  0  0  0  0  0  0  0  0  0  0  0  # atno 17371 bound_to 10713
  140.4123  134.1968  155.7163 LP  0  0  0  0  0  0  0  0  0  0  0  0  # atno 17394 bound_to 11000
  141.1865  133.8300  157.1065 LP  0  0  0  0  0  0  0  0  0  0  0  0  # atno 17395 bound_to 11000

$$$$
