AV-unprocessed.smi:1701|AV-procd|sdf|6840|dock5
  -GOLD-   22720 8 13D 1   1.00000     0.00000
 Structure written by MMmdl.
 54 56  0  0  0  0  0  0  0  0  4 V2000
  151.9331  145.7208  159.6401 C   0  0  0  0  0  0  0  0  0  0  0  0
  152.3259  144.5238  158.7616 C   0  0  0  0  0  0  0  0  0  0  0  0
  151.8038  143.2542  159.2674 N   0  0  0  0  0  0  0  0  0  0  0  0
  152.5958  142.5702  160.2924 C   0  0  0  0  0  0  0  0  0  0  0  0
  152.5307  143.2618  161.6634 C   0  0  0  0  0  0  0  0  0  0  0  0
  151.0668  142.4774  158.3429 C   0  0  0  0  0  0  0  0  0  0  0  0
  151.2968  142.5385  156.9473 C   0  0  0  0  0  0  0  0  0  0  0  0
  150.5345  141.7370  156.0736 C   0  0  0  0  0  0  0  0  0  0  0  0
  149.5538  140.8689  156.5947 C   0  0  0  0  0  0  0  0  0  0  0  0
  148.7942  140.0999  155.6728 N   0  0  0  0  0  0  0  0  0  0  0  0
  149.1935  139.4730  154.5385 C   0  0  0  0  0  0  0  0  0  0  0  0
  150.3629  139.5832  154.1750 O   0  0  0  0  0  0  0  0  0  0  0  0
  148.2888  138.7559  153.8050 N   0  5  0  0  0  0  0  0  0  0  0  0
  146.8640  139.0415  153.5501 C   0  0  1  0  0  0  0  0  0  0  0  0
  146.7021  139.6503  152.1430 C   0  0  0  0  0  0  0  0  0  0  0  0
  146.4498  138.4621  151.1911 C   0  0  0  0  0  0  0  0  0  0  0  0
  146.3961  137.2639  152.0525 N   0  3  2  0  0  0  0  0  0  0  0  0
  145.5380  136.1465  151.5998 C   0  0  0  0  0  0  0  0  0  0  0  0
  145.6592  134.9685  152.5877 C   0  0  0  0  0  0  0  0  0  0  0  0
  145.3693  135.4031  154.0389 C   0  0  0  0  0  0  0  0  0  0  0  0
  146.2437  136.6058  154.4423 C   0  0  0  0  0  0  0  0  0  0  0  0
  146.0624  137.7371  153.4059 C   0  0  1  0  0  0  0  0  0  0  0  0
  149.3496  140.8523  157.9942 C   0  0  0  0  0  0  0  0  0  0  0  0
  150.1019  141.6382  158.7944 N   0  3  0  0  0  0  0  0  0  0  0  0
  152.3259  146.6482  159.2236 H   0  0  0  0  0  0  0  0  0  0  0  0
  152.3275  145.6200  160.6516 H   0  0  0  0  0  0  0  0  0  0  0  0
  150.8499  145.8251  159.7104 H   0  0  0  0  0  0  0  0  0  0  0  0
  151.9378  144.6778  157.7541 H   0  0  0  0  0  0  0  0  0  0  0  0
  153.4082  144.4867  158.6482 H   0  0  0  0  0  0  0  0  0  0  0  0
  152.2745  141.5314  160.3778 H   0  0  0  0  0  0  0  0  0  0  0  0
  153.6373  142.5335  159.9709 H   0  0  0  0  0  0  0  0  0  0  0  0
  153.1623  142.7423  162.3839 H   0  0  0  0  0  0  0  0  0  0  0  0
  151.5202  143.2806  162.0706 H   0  0  0  0  0  0  0  0  0  0  0  0
  152.8836  144.2913  161.5986 H   0  0  0  0  0  0  0  0  0  0  0  0
  152.0377  143.2032  156.5301 H   0  0  0  0  0  0  0  0  0  0  0  0
  150.7056  141.7901  155.0082 H   0  0  0  0  0  0  0  0  0  0  0  0
  147.8039  140.0538  155.8628 H   0  0  0  0  0  0  0  0  0  0  0  0
  146.4226  139.6841  154.3128 H   0  0  0  0  0  0  0  0  0  0  0  0
  145.8340  140.3104  152.1308 H   0  0  0  0  0  0  0  0  0  0  0  0
  147.5590  140.2512  151.8350 H   0  0  0  0  0  0  0  0  0  0  0  0
  145.5084  138.5996  150.6567 H   0  0  0  0  0  0  0  0  0  0  0  0
  147.2436  138.3525  150.4515 H   0  0  0  0  0  0  0  0  0  0  0  0
  144.5015  136.4805  151.5317 H   0  0  0  0  0  0  0  0  0  0  0  0
  145.8433  135.8339  150.6008 H   0  0  0  0  0  0  0  0  0  0  0  0
  144.9807  134.1665  152.2960 H   0  0  0  0  0  0  0  0  0  0  0  0
  146.6667  134.5546  152.5323 H   0  0  0  0  0  0  0  0  0  0  0  0
  144.3162  135.6709  154.1343 H   0  0  0  0  0  0  0  0  0  0  0  0
  145.5397  134.5702  154.7215 H   0  0  0  0  0  0  0  0  0  0  0  0
  145.9672  136.9456  155.4417 H   0  0  0  0  0  0  0  0  0  0  0  0
  147.2852  136.2829  154.4973 H   0  0  0  0  0  0  0  0  0  0  0  0
  145.0055  138.0140  153.4044 H   0  0  0  0  0  0  0  0  0  0  0  0
  148.6089  140.2566  158.5063 H   0  0  0  0  0  0  0  0  0  0  0  0
  147.3442  136.9204  152.1156 H   0  0  0  0  0  0  0  0  0  0  0  0
  149.9293  141.5990  159.7989 H   0  0  0  0  0  0  0  0  0  0  0  0
  1  2  1  0  0  0  0
  1 25  1  0  0  0  0
  1 26  1  0  0  0  0
  1 27  1  0  0  0  0
  2  3  1  0  0  0  0
  2 28  1  0  0  0  0
  2 29  1  0  0  0  0
  3  4  1  0  0  0  0
  3  6  1  0  0  0  0
  4  5  1  0  0  0  0
  4 30  1  0  0  0  0
  4 31  1  0  0  0  0
  5 32  1  0  0  0  0
  5 33  1  0  0  0  0
  5 34  1  0  0  0  0
  6 24  1  0  0  0  0
  6  7  2  0  0  0  0
  7  8  1  0  0  0  0
  7 35  1  0  0  0  0
  8  9  2  0  0  0  0
  8 36  1  0  0  0  0
  9 10  1  0  0  0  0
  9 23  1  0  0  0  0
 10 11  1  0  0  0  0
 10 37  1  0  0  0  0
 11 12  2  0  0  0  0
 11 13  1  0  0  0  0
 13 14  1  0  0  0  0
 14 22  1  0  0  0  0
 14 15  1  0  0  0  0
 14 38  1  0  0  0  0
 15 16  1  0  0  0  0
 15 39  1  0  0  0  0
 15 40  1  0  0  0  0
 16 17  1  0  0  0  0
 16 41  1  0  0  0  0
 16 42  1  0  0  0  0
 17 22  1  0  0  0  0
 17 18  1  0  0  0  0
 17 53  1  0  0  0  0
 18 19  1  0  0  0  0
 18 43  1  0  0  0  0
 18 44  1  0  0  0  0
 19 20  1  0  0  0  0
 19 45  1  0  0  0  0
 19 46  1  0  0  0  0
 20 21  1  0  0  0  0
 20 47  1  0  0  0  0
 20 48  1  0  0  0  0
 21 22  1  0  0  0  0
 21 49  1  0  0  0  0
 21 50  1  0  0  0  0
 22 51  1  0  0  0  0
 23 24  2  0  0  0  0
 23 52  1  0  0  0  0
 24 54  1  0  0  0  0
M  CHG  1  13  -1
M  CHG  1  17   1
M  CHG  1  24   1
M  END
> <s_m_source_file>
AV-unprocessed.smi

> <i_m_source_file_index>
1701

> <i_lp_mmshare_version>
43012

> <i_f3d_flags>
0

> <s_epik_input>
W0NIM11bQ0gyXU4oW0NIMl1bQ0gzXSljMVtjSF1bY0hdYyhbY0hdbjEpW05IXUMoPU8pW05IXVtDQEhdKFtDSDJdW0NIMl0yKVtDQEBIXShOMjMpW0NIMl1bQ0gyXVtDSDJdW0NIMl0z

> <s_epik_cmdline>
J2VwaWtfcHl0aG9uJywgJy1waCcsICc3LjAnLCAnLXRuJywgJzgnLCAnLW1hJywgJzIwMCcsICctbWV0YWxfYmluZGluZycsICctaW1hZScsICc8aW5maWxlLm1hZT4nLCAnLW9tYWUnLCAnPG91dGZpbGUubWFlPic=

> <r_lp_tautomer_probability>
0.999994

> <r_epik_Ionization_Penalty>
7.37095

> <r_epik_Ionization_Penalty_Charging>
7.37095

> <r_epik_Ionization_Penalty_Neutral>
3.78969e-06

> <r_epik_State_Penalty>
6.83842

> <r_epik_Charging_Adjusted_Penalty>
14.2094

> <i_epik_Tot_Q>
1

> <i_epik_Tot_abs_Q>
3

> <r_epik_Metal_State_Penalty>
2.78552

> <b_epik_Metal_Only>
1

> <s_lp_Force_Field>
OPLS_2005

> <r_lp_Energy>
51.4286

> <b_lp_Chiralities_Consistent>
1

> <s_lp_Variant>
AV-unprocessed.smi:1701-20

> <Gold.Version>
5.8.1

> <Gold.Id.Protein>
6NUR|6NUR_protein|mol2

> <Gold.PLP.Fitness>
50.2607

> <Gold.PLP.PLP>
-44.2894

> <Gold.PLP.part.hbond>
-2.0000

> <Gold.PLP.part.metal>
0.0000

> <Gold.PLP.part.buried>
-0.5859

> <Gold.PLP.part.nonpolar>
-44.5931

> <Gold.PLP.part.repulsive>
1.7017

> <Gold.PLP.ligand.clash>
0.0000

> <Gold.PLP.ligand.torsion>
2.0297

> <Gold.PLP.Chemscore.Hbond>
3.0000

> <Gold.PLP.Chemscore.CHOScore>
0.0000

> <Gold.PLP.Chemscore.Metal>
0.0000

> <Gold.Chemscore.Hbonds>
donor molecule, donor type, donor heavy atom, donor atom, acceptor molecule, acceptor atom, score
      L1  H    17    53       P1  7948  2.00
      P1  H  7989  7998       L1    12  1.00

> <Gold.PLP.Chemscore.Internal.Correction>
1.0307

> <Gold.Rescore>
     Score         DG    S(hbond)    S(metal)    S(lipo)     H(rot)  DE(clash)    DE(int)     intcor
     17.60     -21.82       1.99        0.00     111.03       1.28       1.29       2.93       ----

> <Gold.Chemscore.Fitness>
17.5992

> <Gold.Chemscore.DG>
-21.8218

> <Gold.Chemscore.ZeroCoef>
-5.4800

> <Gold.Chemscore.Hbond>
1.9874

> <Gold.Chemscore.Metal>
0.0000

> <Gold.Chemscore.Lipo>
111.0285

> <Gold.Chemscore.Internal_Hbond>
0.0000

> <Gold.Chemscore.DEClash>
1.2906

> <Gold.Chemscore.DEInternal>
2.9320

> <Gold.Chemscore.Rot>
1.2838

> <Gold.Chemscore.Internal.Correction>
   9.000000E+99

> <Gold.Chemscore.Hbonds>
donor molecule, donor type, donor heavy atom, donor atom, acceptor molecule, acceptor atom, score
      L1  H    17    53       P1  7948  1.00
      P1  H  7989  7998       L1    12  0.99

> <Gold.Chemscore.Hbond.Weighted>
-6.6380

> <Gold.Chemscore.Metal.Weighted>
-0.0000

> <Gold.Chemscore.Lipo.Weighted>
-12.9903

> <Gold.Chemscore.Internal_Hbond.Weighted>
0.0000

> <Gold.Chemscore.DEClash.Weighted>
1.2906

> <Gold.Chemscore.DEInternal.Weighted>
2.9320

> <Gold.Chemscore.Rot.Weighted>
3.2865

> <Gold.Chemscore.Internal.Correction.Weighted>
   9.000000E+99

> <Gold.Protein.RotatedTorsions>
[ 6907 6896 6895 6894 ] final -167.59 input  -60.11 | X-H torsion
[ 7974 7965 7964 7962 ] final -174.65 input  175.53 | X-H torsion
[ 8008 7997 7996 7995 ] final  110.60 input   59.86 | X-H torsion
[ 10167 10162 10161 10158 ] final   46.01 input  -65.29 | X-H torsion
[ 10718 10713 10712 10709 ] final   62.15 input   66.30 | X-H torsion
[ 10763 10752 10751 10750 ] final  -26.84 input  -60.55 | X-H torsion
[ 11005 11000 10999 10996 ] final  -76.15 input  -57.11 | X-H torsion

> <Gold.Protein.ActiveResidues>
 VAL166  LYS551  ARG553  GLY616  TRP617  ASP618  TYR619  PRO620  LYS621  CYS622 
 ASP623  PHE694  ASN695  SER759  ASP760  ASP761  ALA762  ILE779  LEU786  VAL792 
 PHE793  MET794  SER795  GLU796  ALA797  LYS798  CYS799  TRP800  GLU811  SER814 

> <Gold.Protein.RotatedAtoms>
  151.4621  133.3590  159.2810 H   0  0  0  0  0  0  0  0  0  0  0  0  # atno 6907 bound_to 6896
  150.9019  134.8433  159.7376 H   0  0  0  0  0  0  0  0  0  0  0  0  # atno 6908 bound_to 6896
  152.4884  134.4542  159.9636 H   0  0  0  0  0  0  0  0  0  0  0  0  # atno 6909 bound_to 6896
  144.7131  140.1440  143.6389 H   0  0  0  0  0  0  0  0  0  0  0  0  # atno 7974 bound_to 7965
  156.2064  140.3035  155.9636 H   0  0  0  0  0  0  0  0  0  0  0  0  # atno 8008 bound_to 7997
  155.2831  140.0438  157.3034 H   0  0  0  0  0  0  0  0  0  0  0  0  # atno 8009 bound_to 7997
  154.5639  140.2328  155.8302 H   0  0  0  0  0  0  0  0  0  0  0  0  # atno 8010 bound_to 7997
  140.3183  144.2737  150.6187 H   0  0  0  0  0  0  0  0  0  0  0  0  # atno 10167 bound_to 10162
  157.5880  130.9034  149.9551 H   0  0  0  0  0  0  0  0  0  0  0  0  # atno 10718 bound_to 10713
  153.7224  135.6944  153.5009 H   0  0  0  0  0  0  0  0  0  0  0  0  # atno 10763 bound_to 10752
  153.2194  135.4375  155.0471 H   0  0  0  0  0  0  0  0  0  0  0  0  # atno 10764 bound_to 10752
  154.8280  135.3457  154.6757 H   0  0  0  0  0  0  0  0  0  0  0  0  # atno 10765 bound_to 10752
  141.1651  133.6973  156.7625 H   0  0  0  0  0  0  0  0  0  0  0  0  # atno 11005 bound_to 11000
  145.9176  139.2526  143.1400 LP  0  0  0  0  0  0  0  0  0  0  0  0  # atno 17320 bound_to 7965
  145.9653  140.8803  143.0190 LP  0  0  0  0  0  0  0  0  0  0  0  0  # atno 17321 bound_to 7965
  140.5507  143.2207  151.7932 LP  0  0  0  0  0  0  0  0  0  0  0  0  # atno 17342 bound_to 10162
  139.4879  144.4480  151.9687 LP  0  0  0  0  0  0  0  0  0  0  0  0  # atno 17343 bound_to 10162
  156.0931  130.3661  150.0357 LP  0  0  0  0  0  0  0  0  0  0  0  0  # atno 17370 bound_to 10713
  156.8485  130.9450  151.3627 LP  0  0  0  0  0  0  0  0  0  0  0  0  # atno 17371 bound_to 10713
  140.2524  134.8530  157.3680 LP  0  0  0  0  0  0  0  0  0  0  0  0  # atno 17394 bound_to 11000
  140.1690  134.4632  155.7844 LP  0  0  0  0  0  0  0  0  0  0  0  0  # atno 17395 bound_to 11000

$$$$
