#       Name:                AV-unprocessed.smi:3187
#       Creating user name   scv26
#       Creation time:       Fri Mar 27 18:01:57 2020


#       File generated by GOLD software.
#

@<TRIPOS>MOLECULE
AV-unprocessed.smi:3187
    42    43     1
SMALL
NO_CHARGES


@<TRIPOS>ATOM
      1 ****         0.6266   2.9567  -0.6969 C.3            1 S1                 0.0000
      2 ****        -0.8068   2.4661  -0.8187 C.2            1 S1                 0.0000
      3 ****        -1.5624   2.8051  -1.8822 C.2            1 S1                 0.0000
      4 ****        -3.0173   2.4133  -2.0721 C.3            1 S1                 0.0000
      5 ****        -3.5150   1.4122  -1.0169 C.3            1 S1                 0.0000
      6 ****        -2.9143   1.7117   0.3672 C.3            1 S1                 0.0000
      7 ****        -3.5797   0.8836   1.4801 C.3            1 S1                 0.0000
      8 ****        -1.3624   1.6176   0.3335 C.3            1 S1                 0.0000
      9 ****        -0.8438   0.1560   0.2880 C.3            1 S1                 0.0000
     10 ****         0.6158   0.0600   0.4879 N.4            1 S1                 1.0000
     11 ****         1.1504  -1.3125   0.3969 C.3            1 S1                 0.0000
     12 ****         2.6707  -1.3277   0.6109 C.3            1 S1                 0.0000
     13 ****         3.2254  -2.6778   0.4863 N.pl3          1 S1                 0.0000
     14 ****         3.7062  -3.2761  -0.6503 C.2            1 S1                 0.0000
     15 ****         4.1134  -4.5343  -0.2874 C.2            1 S1                 0.0000
     16 ****         3.8653  -4.6502   1.0541 N.pl3          1 S1                 1.0000
     17 ****         3.3258  -3.5202   1.5232 C.2            1 S1                 0.0000
     18 ****         0.8037   3.3836   0.2906 H              1 S1                 0.0000
     19 ****         0.8381   3.7325  -1.4339 H              1 S1                 0.0000
     20 ****         1.3404   2.1520  -0.8639 H              1 S1                 0.0000
     21 ****        -1.1412   3.4250  -2.6604 H              1 S1                 0.0000
     22 ****        -3.6101   3.3270  -2.0183 H              1 S1                 0.0000
     23 ****        -3.1578   2.0058  -3.0737 H              1 S1                 0.0000
     24 ****        -4.6045   1.4434  -0.9766 H              1 S1                 0.0000
     25 ****        -3.2549   0.3981  -1.3211 H              1 S1                 0.0000
     26 ****        -3.1562   2.7517   0.5942 H              1 S1                 0.0000
     27 ****        -3.5338  -0.1865   1.2779 H              1 S1                 0.0000
     28 ****        -4.6339   1.1452   1.5765 H              1 S1                 0.0000
     29 ****        -3.1085   1.0689   2.4457 H              1 S1                 0.0000
     30 ****        -1.0071   2.0671   1.2621 H              1 S1                 0.0000
     31 ****        -1.3075  -0.4438   1.0700 H              1 S1                 0.0000
     32 ****        -1.1047  -0.3066  -0.6646 H              1 S1                 0.0000
     33 ****         1.0678   0.6278  -0.2149 H              1 S1                 0.0000
     34 ****         0.6605  -1.9398   1.1431 H              1 S1                 0.0000
     35 ****         0.9076  -1.7259  -0.5832 H              1 S1                 0.0000
     36 ****         3.1694  -0.6945  -0.1245 H              1 S1                 0.0000
     37 ****         2.9299  -0.9406   1.5977 H              1 S1                 0.0000
     38 ****         3.7237  -2.7772  -1.6086 H              1 S1                 0.0000
     39 ****         4.5499  -5.3343  -0.8678 H              1 S1                 0.0000
     40 ****         3.0299  -3.3291   2.5395 H              1 S1                 0.0000
     41 ****         0.8376   0.4372   1.3985 H              1 S1                 0.0000
     42 ****         4.0618  -5.4714   1.6129 H              1 S1                 0.0000
@<TRIPOS>BOND
    1    1    2 1     
    2    1   18 1     
    3    1   19 1     
    4    1   20 1     
    5    2    8 1     
    6    2    3 2     
    7    3    4 1     
    8    3   21 1     
    9    4    5 1     
   10    4   22 1     
   11    4   23 1     
   12    5    6 1     
   13    5   24 1     
   14    5   25 1     
   15    6    7 1     
   16    6    8 1     
   17    6   26 1     
   18    7   27 1     
   19    7   28 1     
   20    7   29 1     
   21    8    9 1     
   22    8   30 1     
   23    9   10 1     
   24    9   31 1     
   25    9   32 1     
   26   10   11 1     
   27   10   33 1     
   28   10   41 1     
   29   11   12 1     
   30   11   34 1     
   31   11   35 1     
   32   12   13 1     
   33   12   36 1     
   34   12   37 1     
   35   13   17 1     
   36   13   14 1     
   37   14   15 2     
   38   14   38 1     
   39   15   16 1     
   40   15   39 1     
   41   16   17 2     
   42   16   42 1     
   43   17   40 1     
@<TRIPOS>SUBSTRUCTURE
      1 S1             1
@<TRIPOS>SET
DONOR_HYDROGENS      STATIC     ATOMS    <user>   **** ""
3 33 41 42
ATOM$RED        STATIC     ATOMS    COLORGROUP SYSTEM
3 33 41 42
