AV-unprocessed.smi:1103|AV-procd|sdf|4772|dock8
  -GOLD-   22720 3313D 1   1.00000     0.00000
 Structure written by MMmdl.
 44 45  0  0  0  0  0  0  0  0  2 V2000
  146.7366  143.1155  153.2062 C   0  0  0  0  0  0  0  0  0  0  0  0
  146.8079  142.5523  154.6324 C   0  0  0  0  0  0  0  0  0  0  0  0
  148.1488  142.0089  154.9685 N   0  3  2  0  0  0  0  0  0  0  0  0
  148.6044  141.0032  153.9735 C   0  0  0  0  0  0  0  0  0  0  0  0
  150.0388  140.5327  154.2633 C   0  0  0  0  0  0  0  0  0  0  0  0
  150.1675  140.0013  155.6983 C   0  0  0  0  0  0  0  0  0  0  0  0
  149.6675  141.0367  156.7232 C   0  0  1  0  0  0  0  0  0  0  0  0
  150.6657  142.2061  156.8962 C   0  0  0  0  0  0  0  0  0  0  0  0
  151.0169  142.4481  158.2922 N   0  0  0  0  0  0  0  0  0  0  0  0
  151.8062  143.4391  158.7351 C   0  0  0  0  0  0  0  0  0  0  0  0
  152.3001  144.2925  157.9984 O   0  0  0  0  0  0  0  0  0  0  0  0
  152.0831  143.4744  160.2386 C   0  0  0  0  0  0  0  0  0  0  0  0
  152.7363  142.2537  160.6735 N   0  0  0  0  0  0  0  0  0  0  0  0
  153.0883  141.8796  161.9534 C   0  0  0  0  0  0  0  0  0  0  0  0
  153.6899  140.6556  161.8737 C   0  0  0  0  0  0  0  0  0  0  0  0
  154.2548  139.8145  162.9818 C   0  0  0  0  0  0  0  0  0  0  0  0
  153.6560  140.3610  160.4807 C   0  0  0  0  0  0  0  0  0  0  0  0
  153.0871  141.3179  159.7653 N   0  0  0  0  0  0  0  0  0  0  0  0
  148.2306  141.4770  156.3562 C   0  0  0  0  0  0  0  0  0  0  0  0
  145.7268  143.4586  152.9808 H   0  0  0  0  0  0  0  0  0  0  0  0
  146.9942  142.3534  152.4704 H   0  0  0  0  0  0  0  0  0  0  0  0
  147.4050  143.9640  153.0627 H   0  0  0  0  0  0  0  0  0  0  0  0
  146.5184  143.3109  155.3611 H   0  0  0  0  0  0  0  0  0  0  0  0
  146.0662  141.7559  154.7077 H   0  0  0  0  0  0  0  0  0  0  0  0
  147.9224  140.1513  153.9801 H   0  0  0  0  0  0  0  0  0  0  0  0
  148.5665  141.4311  152.9710 H   0  0  0  0  0  0  0  0  0  0  0  0
  150.3221  139.7535  153.5549 H   0  0  0  0  0  0  0  0  0  0  0  0
  150.7365  141.3550  154.1027 H   0  0  0  0  0  0  0  0  0  0  0  0
  149.5794  139.0875  155.7936 H   0  0  0  0  0  0  0  0  0  0  0  0
  151.2004  139.7205  155.9075 H   0  0  0  0  0  0  0  0  0  0  0  0
  149.6139  140.5302  157.6882 H   0  0  0  0  0  0  0  0  0  0  0  0
  151.5923  141.9706  156.3717 H   0  0  0  0  0  0  0  0  0  0  0  0
  150.2864  143.1174  156.4322 H   0  0  0  0  0  0  0  0  0  0  0  0
  150.6604  141.7909  158.9718 H   0  0  0  0  0  0  0  0  0  0  0  0
  152.7303  144.3213  160.4705 H   0  0  0  0  0  0  0  0  0  0  0  0
  151.1588  143.6133  160.8023 H   0  0  0  0  0  0  0  0  0  0  0  0
  152.8864  142.5114  162.8061 H   0  0  0  0  0  0  0  0  0  0  0  0
  154.9800  139.0898  162.6108 H   0  0  0  0  0  0  0  0  0  0  0  0
  153.4750  139.2543  163.4977 H   0  0  0  0  0  0  0  0  0  0  0  0
  154.7637  140.4220  163.7305 H   0  0  0  0  0  0  0  0  0  0  0  0
  154.0285  139.4846  159.9709 H   0  0  0  0  0  0  0  0  0  0  0  0
  147.8690  142.2114  157.0738 H   0  0  0  0  0  0  0  0  0  0  0  0
  147.5575  140.6224  156.4425 H   0  0  0  0  0  0  0  0  0  0  0  0
  148.7953  142.7830  154.9092 H   0  0  0  0  0  0  0  0  0  0  0  0
  1  2  1  0  0  0  0
  1 20  1  0  0  0  0
  1 21  1  0  0  0  0
  1 22  1  0  0  0  0
  2  3  1  0  0  0  0
  2 23  1  0  0  0  0
  2 24  1  0  0  0  0
  3 19  1  0  0  0  0
  3  4  1  0  0  0  0
  3 44  1  0  0  0  0
  4  5  1  0  0  0  0
  4 25  1  0  0  0  0
  4 26  1  0  0  0  0
  5  6  1  0  0  0  0
  5 27  1  0  0  0  0
  5 28  1  0  0  0  0
  6  7  1  0  0  0  0
  6 29  1  0  0  0  0
  6 30  1  0  0  0  0
  7  8  1  0  0  0  0
  7 19  1  0  0  0  0
  7 31  1  0  0  0  0
  8  9  1  0  0  0  0
  8 32  1  0  0  0  0
  8 33  1  0  0  0  0
  9 10  1  0  0  0  0
  9 34  1  0  0  0  0
 10 11  2  0  0  0  0
 10 12  1  0  0  0  0
 12 13  1  0  0  0  0
 12 35  1  0  0  0  0
 12 36  1  0  0  0  0
 13 18  1  0  0  0  0
 13 14  1  0  0  0  0
 14 15  2  0  0  0  0
 14 37  1  0  0  0  0
 15 16  1  0  0  0  0
 15 17  1  0  0  0  0
 16 38  1  0  0  0  0
 16 39  1  0  0  0  0
 16 40  1  0  0  0  0
 17 18  2  0  0  0  0
 17 41  1  0  0  0  0
 19 42  1  0  0  0  0
 19 43  1  0  0  0  0
M  CHG  1   3   1
M  END
> <s_m_source_file>
AV-unprocessed.smi

> <i_m_source_file_index>
1103

> <i_lp_mmshare_version>
43012

> <i_f3d_flags>
0

> <s_epik_input>
W0NIM11bQ0gyXU4xW0NIMl1bQ0gyXVtDSDJdW0NASF0oW0NIMl0xKVtDSDJdW05IXUMoPU8pW0NIMl1uMltjSF1jKFtDSDNdKVtjSF1uMg==

> <s_epik_cmdline>
J2VwaWtfcHl0aG9uJywgJy1waCcsICc3LjAnLCAnLXRuJywgJzgnLCAnLW1hJywgJzIwMCcsICctbWV0YWxfYmluZGluZycsICctaW1hZScsICc8aW5maWxlLm1hZT4nLCAnLW9tYWUnLCAnPG91dGZpbGUubWFlPic=

> <r_lp_tautomer_probability>
1

> <r_epik_Ionization_Penalty>
0.000672456

> <r_epik_Ionization_Penalty_Charging>
0.000647327

> <r_epik_Ionization_Penalty_Neutral>
2.51297e-05

> <r_epik_State_Penalty>
0.000409793

> <r_epik_Charging_Adjusted_Penalty>
0.00105712

> <i_epik_Tot_Q>
1

> <i_epik_Tot_abs_Q>
1

> <r_epik_Metal_State_Penalty>
-0

> <b_epik_Metal_Only>
0

> <s_lp_Force_Field>
OPLS_2005

> <r_lp_Energy>
19.6745

> <b_lp_Chiralities_Consistent>
1

> <s_lp_Variant>
AV-unprocessed.smi:1103-2

> <Gold.Version>
5.8.1

> <Gold.Id.Protein>
6NUR|6NUR_protein|mol2

> <Gold.PLP.Fitness>
46.7817

> <Gold.PLP.PLP>
-42.1818

> <Gold.PLP.part.hbond>
-1.0000

> <Gold.PLP.part.metal>
0.0000

> <Gold.PLP.part.buried>
-1.3913

> <Gold.PLP.part.nonpolar>
-37.8560

> <Gold.PLP.part.repulsive>
0.2141

> <Gold.PLP.ligand.clash>
0.0000

> <Gold.PLP.ligand.torsion>
0.7216

> <Gold.PLP.Chemscore.Hbond>
2.0000

> <Gold.PLP.Chemscore.CHOScore>
0.0000

> <Gold.PLP.Chemscore.Metal>
0.0000

> <Gold.Chemscore.Hbonds>
donor molecule, donor type, donor heavy atom, donor atom, acceptor molecule, acceptor atom, score
      L1  H     3    44       P1  8028  1.33

> <Gold.PLP.Chemscore.Internal.Correction>
0.0432

> <Gold.Rescore>
     Score         DG    S(hbond)    S(metal)    S(lipo)     H(rot)  DE(clash)    DE(int)     intcor
     12.76     -15.02       0.94        0.00      91.39       1.68       0.12       2.14       ----

> <Gold.Chemscore.Fitness>
12.7597

> <Gold.Chemscore.DG>
-15.0179

> <Gold.Chemscore.ZeroCoef>
-5.4800

> <Gold.Chemscore.Hbond>
0.9435

> <Gold.Chemscore.Metal>
0.0000

> <Gold.Chemscore.Lipo>
91.3943

> <Gold.Chemscore.Internal_Hbond>
0.0000

> <Gold.Chemscore.DEClash>
0.1194

> <Gold.Chemscore.DEInternal>
2.1388

> <Gold.Chemscore.Rot>
1.6823

> <Gold.Chemscore.Internal.Correction>
   9.000000E+99

> <Gold.Chemscore.Hbonds>
donor molecule, donor type, donor heavy atom, donor atom, acceptor molecule, acceptor atom, score
      L1  H     3    44       P1  8028  0.64

> <Gold.Chemscore.Hbond.Weighted>
-3.1514

> <Gold.Chemscore.Metal.Weighted>
-0.0000

> <Gold.Chemscore.Lipo.Weighted>
-10.6931

> <Gold.Chemscore.Internal_Hbond.Weighted>
0.0000

> <Gold.Chemscore.DEClash.Weighted>
0.1194

> <Gold.Chemscore.DEInternal.Weighted>
2.1388

> <Gold.Chemscore.Rot.Weighted>
4.3066

> <Gold.Chemscore.Internal.Correction.Weighted>
   9.000000E+99

> <Gold.Protein.RotatedTorsions>
[ 6907 6896 6895 6894 ] final  101.05 input  -60.11 | X-H torsion
[ 7974 7965 7964 7962 ] final   37.42 input  175.53 | X-H torsion
[ 8008 7997 7996 7995 ] final   -1.73 input   59.86 | X-H torsion
[ 10167 10162 10161 10158 ] final  127.39 input  -65.29 | X-H torsion
[ 10718 10713 10712 10709 ] final  -77.91 input   66.30 | X-H torsion
[ 10763 10752 10751 10750 ] final   40.32 input  -60.55 | X-H torsion
[ 11005 11000 10999 10996 ] final -139.13 input  -57.11 | X-H torsion

> <Gold.Protein.ActiveResidues>
 VAL166  LYS551  ARG553  GLY616  TRP617  ASP618  TYR619  PRO620  LYS621  CYS622 
 ASP623  PHE694  ASN695  SER759  ASP760  ASP761  ALA762  ILE779  LEU786  VAL792 
 PHE793  MET794  SER795  GLU796  ALA797  LYS798  CYS799  TRP800  GLU811  SER814 

> <Gold.Protein.RotatedAtoms>
  152.5358  134.0184  159.7970 H   0  0  0  0  0  0  0  0  0  0  0  0  # atno 6907 bound_to 6896
  151.0375  133.5728  159.2661 H   0  0  0  0  0  0  0  0  0  0  0  0  # atno 6908 bound_to 6896
  151.2710  135.0692  159.9187 H   0  0  0  0  0  0  0  0  0  0  0  0  # atno 6909 bound_to 6896
  146.1139  139.5897  142.9334 H   0  0  0  0  0  0  0  0  0  0  0  0  # atno 7974 bound_to 7965
  154.6435  140.2552  155.7294 H   0  0  0  0  0  0  0  0  0  0  0  0  # atno 8008 bound_to 7997
  156.2541  140.2882  156.0760 H   0  0  0  0  0  0  0  0  0  0  0  0  # atno 8009 bound_to 7997
  155.1559  140.0383  157.2822 H   0  0  0  0  0  0  0  0  0  0  0  0  # atno 8010 bound_to 7997
  139.5581  144.6863  151.4123 H   0  0  0  0  0  0  0  0  0  0  0  0  # atno 10167 bound_to 10162
  156.0132  130.4504  150.3416 H   0  0  0  0  0  0  0  0  0  0  0  0  # atno 10718 bound_to 10713
  152.9940  135.6195  154.2607 H   0  0  0  0  0  0  0  0  0  0  0  0  # atno 10763 bound_to 10752
  154.2343  135.2791  155.2880 H   0  0  0  0  0  0  0  0  0  0  0  0  # atno 10764 bound_to 10752
  154.5423  135.5757  153.6908 H   0  0  0  0  0  0  0  0  0  0  0  0  # atno 10765 bound_to 10752
  140.8549  134.2240  157.4740 H   0  0  0  0  0  0  0  0  0  0  0  0  # atno 11005 bound_to 11000
  145.5607  141.0404  143.2228 LP  0  0  0  0  0  0  0  0  0  0  0  0  # atno 17320 bound_to 7965
  144.7536  139.7132  143.7263 LP  0  0  0  0  0  0  0  0  0  0  0  0  # atno 17321 bound_to 7965
  140.6857  143.7980  150.7182 LP  0  0  0  0  0  0  0  0  0  0  0  0  # atno 17342 bound_to 10162
  140.1447  143.4410  152.2171 LP  0  0  0  0  0  0  0  0  0  0  0  0  # atno 17343 bound_to 10162
  157.1512  131.0321  151.2884 LP  0  0  0  0  0  0  0  0  0  0  0  0  # atno 17370 bound_to 10713
  157.4391  130.7533  149.7054 LP  0  0  0  0  0  0  0  0  0  0  0  0  # atno 17371 bound_to 10713
  139.8705  134.9701  156.4691 LP  0  0  0  0  0  0  0  0  0  0  0  0  # atno 17394 bound_to 11000
  140.8748  133.7961  155.9403 LP  0  0  0  0  0  0  0  0  0  0  0  0  # atno 17395 bound_to 11000

$$$$
