AV-unprocessed.smi:1309|AV-procd|sdf|5444|dock6
  -GOLD-   22720 5 13D 1   1.00000     0.00000
 Structure written by MMmdl.
 41 42  0  0  0  0  0  0  0  0  1 V2000
  152.8044  144.6648  158.3535 C   0  0  0  0  0  0  0  0  0  0  0  0
  151.9011  143.7501  159.1935 C   0  0  0  0  0  0  0  0  0  0  0  0
  152.4530  143.4888  160.6028 C   0  0  0  0  0  0  0  0  0  0  0  0
  151.5645  142.4798  158.4776 C   0  0  0  0  0  0  0  0  0  0  0  0
  151.6415  141.2696  159.0392 N   0  0  0  0  0  0  0  0  0  0  0  0
  151.2633  140.2423  158.1687 C   0  0  0  0  0  0  0  0  0  0  0  0
  151.2762  138.8174  158.6402 C   0  0  0  0  0  0  0  0  0  0  0  0
  149.8571  138.2468  158.6289 C   0  0  0  0  0  0  0  0  0  0  0  0
  148.9133  138.9481  158.2649 O   0  0  0  0  0  0  0  0  0  0  0  0
  149.7188  136.9729  159.0307 N   0  0  0  0  0  0  0  0  0  0  0  0
  148.4564  136.2389  159.0867 C   0  0  0  0  0  0  0  0  0  0  0  0
  147.8304  136.1938  160.4929 C   0  0  0  0  0  0  0  0  0  0  0  0
  147.5929  137.2424  161.0955 O   0  0  0  0  0  0  0  0  0  0  0  0
  147.5696  134.9852  161.0321 N   0  0  0  0  0  0  0  0  0  0  0  0
  147.8466  133.6927  160.4060 C   0  0  0  0  0  0  0  0  0  0  0  0
  147.6202  132.6478  161.4990 C   0  0  0  0  0  0  0  0  0  0  0  0
  146.6356  133.3123  162.4511 C   0  0  0  0  0  0  0  0  0  0  0  0
  146.9653  134.8019  162.3501 C   0  0  0  0  0  0  0  0  0  0  0  0
  150.9106  140.6954  156.9213 C   0  0  0  0  0  0  0  0  0  0  0  0
  151.0244  142.4295  156.8029 S   0  0  0  0  0  0  0  0  0  0  0  0
  152.3460  144.8920  157.3904 H   0  0  0  0  0  0  0  0  0  0  0  0
  153.7712  144.1983  158.1609 H   0  0  0  0  0  0  0  0  0  0  0  0
  152.9882  145.6110  158.8634 H   0  0  0  0  0  0  0  0  0  0  0  0
  150.9602  144.2855  159.3268 H   0  0  0  0  0  0  0  0  0  0  0  0
  151.7499  142.9048  161.1975 H   0  0  0  0  0  0  0  0  0  0  0  0
  152.6372  144.4239  161.1323 H   0  0  0  0  0  0  0  0  0  0  0  0
  153.3941  142.9390  160.5644 H   0  0  0  0  0  0  0  0  0  0  0  0
  151.9185  138.2050  158.0057 H   0  0  0  0  0  0  0  0  0  0  0  0
  151.6850  138.7474  159.6491 H   0  0  0  0  0  0  0  0  0  0  0  0
  150.5475  136.4746  159.3206 H   0  0  0  0  0  0  0  0  0  0  0  0
  147.7511  136.6735  158.3764 H   0  0  0  0  0  0  0  0  0  0  0  0
  148.6485  135.2180  158.7568 H   0  0  0  0  0  0  0  0  0  0  0  0
  147.1480  133.5387  159.5823 H   0  0  0  0  0  0  0  0  0  0  0  0
  148.8613  133.6306  160.0103 H   0  0  0  0  0  0  0  0  0  0  0  0
  147.2555  131.6979  161.1069 H   0  0  0  0  0  0  0  0  0  0  0  0
  148.5584  132.4558  162.0214 H   0  0  0  0  0  0  0  0  0  0  0  0
  145.6172  133.1388  162.1009 H   0  0  0  0  0  0  0  0  0  0  0  0
  146.7080  132.9311  163.4700 H   0  0  0  0  0  0  0  0  0  0  0  0
  147.6882  135.0873  163.1158 H   0  0  0  0  0  0  0  0  0  0  0  0
  146.0724  135.4151  162.4812 H   0  0  0  0  0  0  0  0  0  0  0  0
  150.5858  140.1168  156.0694 H   0  0  0  0  0  0  0  0  0  0  0  0
  1  2  1  0  0  0  0
  1 21  1  0  0  0  0
  1 22  1  0  0  0  0
  1 23  1  0  0  0  0
  2  3  1  0  0  0  0
  2  4  1  0  0  0  0
  2 24  1  0  0  0  0
  3 25  1  0  0  0  0
  3 26  1  0  0  0  0
  3 27  1  0  0  0  0
  4 20  1  0  0  0  0
  4  5  2  0  0  0  0
  5  6  1  0  0  0  0
  6  7  1  0  0  0  0
  6 19  2  0  0  0  0
  7  8  1  0  0  0  0
  7 28  1  0  0  0  0
  7 29  1  0  0  0  0
  8  9  2  0  0  0  0
  8 10  1  0  0  0  0
 10 11  1  0  0  0  0
 10 30  1  0  0  0  0
 11 12  1  0  0  0  0
 11 31  1  0  0  0  0
 11 32  1  0  0  0  0
 12 13  2  0  0  0  0
 12 14  1  0  0  0  0
 14 18  1  0  0  0  0
 14 15  1  0  0  0  0
 15 16  1  0  0  0  0
 15 33  1  0  0  0  0
 15 34  1  0  0  0  0
 16 17  1  0  0  0  0
 16 35  1  0  0  0  0
 16 36  1  0  0  0  0
 17 18  1  0  0  0  0
 17 37  1  0  0  0  0
 17 38  1  0  0  0  0
 18 39  1  0  0  0  0
 18 40  1  0  0  0  0
 19 20  1  0  0  0  0
 19 41  1  0  0  0  0
M  END
> <s_m_source_file>
AV-unprocessed.smi

> <i_m_source_file_index>
1309

> <i_lp_mmshare_version>
43012

> <i_f3d_flags>
0

> <s_epik_input>
W0NIM11bQ0hdKFtDSDNdKWMxbmMoW2NIXXMxKVtDSDJdQyg9TylbTkhdW0NIMl1DKD1PKU4yW0NIMl1bQ0gyXVtDSDJdW0NIMl0y

> <s_epik_cmdline>
J2VwaWtfcHl0aG9uJywgJy1waCcsICc3LjAnLCAnLXRuJywgJzgnLCAnLW1hJywgJzIwMCcsICctbWV0YWxfYmluZGluZycsICctaW1hZScsICc8aW5maWxlLm1hZT4nLCAnLW9tYWUnLCAnPG91dGZpbGUubWFlPic=

> <r_lp_tautomer_probability>
1

> <r_epik_Ionization_Penalty>
2.87584e-05

> <r_epik_Ionization_Penalty_Charging>
0

> <r_epik_Ionization_Penalty_Neutral>
2.87584e-05

> <r_epik_State_Penalty>
-0

> <r_epik_Charging_Adjusted_Penalty>
0

> <i_epik_Tot_Q>
0

> <i_epik_Tot_abs_Q>
0

> <r_epik_Metal_State_Penalty>
-0

> <b_epik_Metal_Only>
0

> <s_lp_Force_Field>
OPLS_2005

> <r_lp_Energy>
16.8696

> <b_lp_Chiralities_Consistent>
1

> <s_lp_Variant>
AV-unprocessed.smi:1309-1

> <Gold.Version>
5.8.1

> <Gold.Id.Protein>
6NUR|6NUR_protein|mol2

> <Gold.PLP.Fitness>
47.2439

> <Gold.PLP.PLP>
-42.4258

> <Gold.PLP.part.hbond>
-2.2102

> <Gold.PLP.part.metal>
0.0000

> <Gold.PLP.part.buried>
-5.3957

> <Gold.PLP.part.nonpolar>
-34.5558

> <Gold.PLP.part.repulsive>
0.1876

> <Gold.PLP.ligand.clash>
0.0000

> <Gold.PLP.ligand.torsion>
0.3560

> <Gold.PLP.Chemscore.Hbond>
1.8080

> <Gold.PLP.Chemscore.CHOScore>
0.0000

> <Gold.PLP.Chemscore.Metal>
0.0000

> <Gold.Chemscore.Hbonds>
donor molecule, donor type, donor heavy atom, donor atom, acceptor molecule, acceptor atom, score
      P1  H  6931  6943       L1    13  0.86
      P1  H  6934  6947       L1    13  0.93

> <Gold.PLP.Chemscore.Internal.Correction>
0.1060

> <Gold.Rescore>
     Score         DG    S(hbond)    S(metal)    S(lipo)     H(rot)  DE(clash)    DE(int)     intcor
     18.66     -19.02       1.77        0.00     102.47       1.70       0.02       0.34       ----

> <Gold.Chemscore.Fitness>
18.6582

> <Gold.Chemscore.DG>
-19.0198

> <Gold.Chemscore.ZeroCoef>
-5.4800

> <Gold.Chemscore.Hbond>
1.7665

> <Gold.Chemscore.Metal>
0.0000

> <Gold.Chemscore.Lipo>
102.4740

> <Gold.Chemscore.Internal_Hbond>
0.0000

> <Gold.Chemscore.DEClash>
0.0232

> <Gold.Chemscore.DEInternal>
0.3384

> <Gold.Chemscore.Rot>
1.6991

> <Gold.Chemscore.Internal.Correction>
   9.000000E+99

> <Gold.Chemscore.Hbonds>
donor molecule, donor type, donor heavy atom, donor atom, acceptor molecule, acceptor atom, score
      P1  H  6931  6943       L1    13  0.85
      P1  H  6934  6947       L1    13  0.90

> <Gold.Chemscore.Hbond.Weighted>
-5.9001

> <Gold.Chemscore.Metal.Weighted>
-0.0000

> <Gold.Chemscore.Lipo.Weighted>
-11.9895

> <Gold.Chemscore.Internal_Hbond.Weighted>
0.0000

> <Gold.Chemscore.DEClash.Weighted>
0.0232

> <Gold.Chemscore.DEInternal.Weighted>
0.3384

> <Gold.Chemscore.Rot.Weighted>
4.3497

> <Gold.Chemscore.Internal.Correction.Weighted>
   9.000000E+99

> <Gold.Protein.RotatedTorsions>
[ 6907 6896 6895 6894 ] final  176.08 input  -60.11 | X-H torsion
[ 7974 7965 7964 7962 ] final   54.15 input  175.53 | X-H torsion
[ 8008 7997 7996 7995 ] final -174.36 input   59.86 | X-H torsion
[ 10167 10162 10161 10158 ] final  139.52 input  -65.29 | X-H torsion
[ 10718 10713 10712 10709 ] final  -43.85 input   66.30 | X-H torsion
[ 10763 10752 10751 10750 ] final  112.02 input  -60.55 | X-H torsion
[ 11005 11000 10999 10996 ] final   88.56 input  -57.11 | X-H torsion

> <Gold.Protein.ActiveResidues>
 VAL166  LYS551  ARG553  GLY616  TRP617  ASP618  TYR619  PRO620  LYS621  CYS622 
 ASP623  PHE694  ASN695  SER759  ASP760  ASP761  ALA762  ILE779  LEU786  VAL792 
 PHE793  MET794  SER795  GLU796  ALA797  LYS798  CYS799  TRP800  GLU811  SER814 

> <Gold.Protein.RotatedAtoms>
  151.7259  133.3316  159.3327 H   0  0  0  0  0  0  0  0  0  0  0  0  # atno 6907 bound_to 6896
  150.7633  134.6406  159.6244 H   0  0  0  0  0  0  0  0  0  0  0  0  # atno 6908 bound_to 6896
  152.3622  134.6857  160.0255 H   0  0  0  0  0  0  0  0  0  0  0  0  # atno 6909 bound_to 6896
  145.9638  139.4084  143.0232 H   0  0  0  0  0  0  0  0  0  0  0  0  # atno 7974 bound_to 7965
  155.9691  140.1159  157.0828 H   0  0  0  0  0  0  0  0  0  0  0  0  # atno 8008 bound_to 7997
  154.4151  140.1167  156.5349 H   0  0  0  0  0  0  0  0  0  0  0  0  # atno 8009 bound_to 7997
  155.6620  140.3473  155.4788 H   0  0  0  0  0  0  0  0  0  0  0  0  # atno 8010 bound_to 7997
  139.5076  144.6290  151.5866 H   0  0  0  0  0  0  0  0  0  0  0  0  # atno 10167 bound_to 10162
  156.2446  130.4183  149.8720 H   0  0  0  0  0  0  0  0  0  0  0  0  # atno 10718 bound_to 10713
  153.4718  135.3699  155.2395 H   0  0  0  0  0  0  0  0  0  0  0  0  # atno 10763 bound_to 10752
  154.8757  135.3933  154.3803 H   0  0  0  0  0  0  0  0  0  0  0  0  # atno 10764 bound_to 10752
  153.4393  135.7084  153.6244 H   0  0  0  0  0  0  0  0  0  0  0  0  # atno 10765 bound_to 10752
  139.8894  134.8495  156.3018 H   0  0  0  0  0  0  0  0  0  0  0  0  # atno 11005 bound_to 11000
  145.8002  140.9774  143.1003 LP  0  0  0  0  0  0  0  0  0  0  0  0  # atno 17320 bound_to 7965
  144.6821  139.9792  143.7483 LP  0  0  0  0  0  0  0  0  0  0  0  0  # atno 17321 bound_to 7965
  140.6016  143.9600  150.6390 LP  0  0  0  0  0  0  0  0  0  0  0  0  # atno 17342 bound_to 10162
  140.2813  143.3387  152.1148 LP  0  0  0  0  0  0  0  0  0  0  0  0  # atno 17343 bound_to 10162
  156.6289  130.8657  151.3491 LP  0  0  0  0  0  0  0  0  0  0  0  0  # atno 17370 bound_to 10713
  157.7190  130.9533  150.1364 LP  0  0  0  0  0  0  0  0  0  0  0  0  # atno 17371 bound_to 10713
  140.9908  133.7209  156.0812 LP  0  0  0  0  0  0  0  0  0  0  0  0  # atno 17394 bound_to 11000
  140.7627  134.3921  157.5523 LP  0  0  0  0  0  0  0  0  0  0  0  0  # atno 17395 bound_to 11000

$$$$
