AV-unprocessed.smi:49|AV-procd|sdf|479|dock3
  -GOLD-   2262016343D 1   1.00000     0.00000
 Structure written by MMmdl.
 28 29  0  0  0  0  0  0  0  0  2 V2000
  151.7228  144.0965  157.5594 C   0  0  0  0  0  0  0  0  0  0  0  0
  151.3678  142.6341  157.8485 C   0  0  0  0  0  0  0  0  0  0  0  0
  150.8122  141.9308  156.6537 C   0  0  0  0  0  0  0  0  0  0  0  0
  149.7480  142.3978  155.9849 N   0  0  0  0  0  0  0  0  0  0  0  0
  149.5711  141.4832  155.0198 C   0  0  0  0  0  0  0  0  0  0  0  0
  148.4577  141.6085  154.0194 C   0  0  2  0  0  0  0  0  0  0  0  0
  147.0717  141.8116  154.6502 C   0  0  0  0  0  0  0  0  0  0  0  0
  146.4787  140.4046  154.7012 C   0  0  1  0  0  0  0  0  0  0  0  0
  145.0669  140.4168  154.6880 O   0  0  0  0  0  0  0  0  0  0  0  0
  147.0704  139.7384  153.4594 C   0  0  0  0  0  0  0  0  0  0  0  0
  148.4297  140.2953  153.3362 N   0  3  0  0  0  0  0  0  0  0  0  0
  150.4662  140.4885  155.0777 N   0  0  0  0  0  0  0  0  0  0  0  0
  151.2831  140.7846  156.1543 N   0  0  0  0  0  0  0  0  0  0  0  0
  148.6876  142.4021  153.3070 H   0  0  0  0  0  0  0  0  0  0  0  0
  146.8271  139.8898  155.5980 H   0  0  0  0  0  0  0  0  0  0  0  0
  149.2101  143.2324  156.1698 H   0  0  0  0  0  0  0  0  0  0  0  0
  152.1239  144.5821  158.4491 H   0  0  0  0  0  0  0  0  0  0  0  0
  150.8448  144.6590  157.2406 H   0  0  0  0  0  0  0  0  0  0  0  0
  152.4730  144.1710  156.7717 H   0  0  0  0  0  0  0  0  0  0  0  0
  152.2516  142.0994  158.1982 H   0  0  0  0  0  0  0  0  0  0  0  0
  150.6352  142.5839  158.6548 H   0  0  0  0  0  0  0  0  0  0  0  0
  147.1016  142.3091  155.6204 H   0  0  0  0  0  0  0  0  0  0  0  0
  146.4707  142.4316  153.9831 H   0  0  0  0  0  0  0  0  0  0  0  0
  144.7680  140.4585  153.7923 H   0  0  0  0  0  0  0  0  0  0  0  0
  147.0829  138.6502  153.5259 H   0  0  0  0  0  0  0  0  0  0  0  0
  146.5061  140.0183  152.5686 H   0  0  0  0  0  0  0  0  0  0  0  0
  148.7019  140.3771  152.3673 H   0  0  0  0  0  0  0  0  0  0  0  0
  149.0725  139.6839  153.8204 H   0  0  0  0  0  0  0  0  0  0  0  0
  1  2  1  0  0  0  0
  1 17  1  0  0  0  0
  1 18  1  0  0  0  0
  1 19  1  0  0  0  0
  2 20  1  0  0  0  0
  2 21  1  0  0  0  0
  2  3  1  0  0  0  0
  3  4  1  0  0  0  0
  3 13  2  0  0  0  0
  4 16  1  0  0  0  0
  4  5  1  0  0  0  0
  5 12  2  0  0  0  0
  5  6  1  0  0  0  0
  6 14  1  0  0  0  0
  6 11  1  0  0  0  0
  6  7  1  0  0  0  0
  7  8  1  0  0  0  0
  7 22  1  0  0  0  0
  7 23  1  0  0  0  0
  8 15  1  0  0  0  0
  8  9  1  0  0  0  0
  8 10  1  0  0  0  0
  9 24  1  0  0  0  0
 10 11  1  0  0  0  0
 10 25  1  0  0  0  0
 10 26  1  0  0  0  0
 11 27  1  0  0  0  0
 11 28  1  0  0  0  0
 12 13  1  0  0  0  0
M  CHG  1  11   1
M  END
> <s_m_source_file>
AV-unprocessed.smi

> <i_m_source_file_index>
49

> <i_lp_mmshare_version>
43012

> <i_f3d_flags>
0

> <s_epik_input>
W0NIM11bQ0gyXWMxbmMobltuSF0xKVtDQEBIXTJbQ0gyXVtDQEBIXShbT0hdKVtDSDJdW05IXTI=

> <s_epik_cmdline>
J2VwaWtfcHl0aG9uJywgJy1waCcsICc3LjAnLCAnLXRuJywgJzgnLCAnLW1hJywgJzIwMCcsICctbWV0YWxfYmluZGluZycsICctaW1hZScsICc8aW5maWxlLm1hZT4nLCAnLW9tYWUnLCAnPG91dGZpbGUubWFlPic=

> <r_lp_tautomer_probability>
0.0517155

> <r_epik_Ionization_Penalty>
0.939819

> <r_epik_Ionization_Penalty_Charging>
0.0688988

> <r_epik_Ionization_Penalty_Neutral>
0.87092

> <r_epik_State_Penalty>
2.1224

> <r_epik_Charging_Adjusted_Penalty>
2.1913

> <i_epik_Tot_Q>
1

> <i_epik_Tot_abs_Q>
1

> <r_epik_Metal_State_Penalty>
2.39725

> <b_epik_Metal_Only>
0

> <s_lp_Force_Field>
OPLS_2005

> <r_lp_Energy>
21.4308

> <b_lp_Chiralities_Consistent>
1

> <s_lp_Variant>
AV-unprocessed.smi:49-17

> <Gold.Version>
5.8.1

> <Gold.Id.Protein>
6NUR|6NUR_protein|mol2

> <Gold.PLP.Fitness>
37.7046

> <Gold.PLP.PLP>
-26.2561

> <Gold.PLP.part.hbond>
-3.7166

> <Gold.PLP.part.metal>
0.0000

> <Gold.PLP.part.buried>
-4.0675

> <Gold.PLP.part.nonpolar>
-19.8299

> <Gold.PLP.part.repulsive>
0.3556

> <Gold.PLP.ligand.clash>
0.0000

> <Gold.PLP.ligand.torsion>
0.2002

> <Gold.PLP.Chemscore.Hbond>
3.9440

> <Gold.PLP.Chemscore.CHOScore>
0.0000

> <Gold.PLP.Chemscore.Metal>
0.0000

> <Gold.Chemscore.Hbonds>
donor molecule, donor type, donor heavy atom, donor atom, acceptor molecule, acceptor atom, score
      L1  H     4    16       P1  8028  0.90
      L1  H     9    24       P1 10175  1.00
      L1  H    11    27       P1  7957  1.00
      P1  H  7989  7998       L1    12  1.00

> <Gold.PLP.Chemscore.Internal.Correction>
0.0169

> <Gold.Rescore>
     Score         DG    S(hbond)    S(metal)    S(lipo)     H(rot)  DE(clash)    DE(int)     intcor
     15.86     -15.99       2.97        0.00      46.26       1.89       0.01       0.12       ----

> <Gold.Chemscore.Fitness>
15.8585

> <Gold.Chemscore.DG>
-15.9925

> <Gold.Chemscore.ZeroCoef>
-5.4800

> <Gold.Chemscore.Hbond>
2.9743

> <Gold.Chemscore.Metal>
0.0000

> <Gold.Chemscore.Lipo>
46.2600

> <Gold.Chemscore.Internal_Hbond>
0.0000

> <Gold.Chemscore.DEClash>
0.0106

> <Gold.Chemscore.DEInternal>
0.1234

> <Gold.Chemscore.Rot>
1.8883

> <Gold.Chemscore.Internal.Correction>
   9.000000E+99

> <Gold.Chemscore.Hbonds>
donor molecule, donor type, donor heavy atom, donor atom, acceptor molecule, acceptor atom, score
      L1  H     4    16       P1  8028  0.87
      L1  H     9    24       P1 10175  0.99
      L1  H    11    27       P1  7957  0.92
      P1  H  7989  7998       L1    12  0.13

> <Gold.Chemscore.Hbond.Weighted>
-9.9341

> <Gold.Chemscore.Metal.Weighted>
-0.0000

> <Gold.Chemscore.Lipo.Weighted>
-5.4124

> <Gold.Chemscore.Internal_Hbond.Weighted>
0.0000

> <Gold.Chemscore.DEClash.Weighted>
0.0106

> <Gold.Chemscore.DEInternal.Weighted>
0.1234

> <Gold.Chemscore.Rot.Weighted>
4.8340

> <Gold.Chemscore.Internal.Correction.Weighted>
   9.000000E+99

> <Gold.Protein.RotatedTorsions>
[ 6907 6896 6895 6894 ] final   36.40 input  -60.11 | X-H torsion
[ 7974 7965 7964 7962 ] final -142.34 input  175.53 | X-H torsion
[ 8008 7997 7996 7995 ] final  161.05 input   59.86 | X-H torsion
[ 10167 10162 10161 10158 ] final   19.94 input  -65.29 | X-H torsion
[ 10718 10713 10712 10709 ] final  107.55 input   66.30 | X-H torsion
[ 10763 10752 10751 10750 ] final   87.99 input  -60.55 | X-H torsion
[ 11005 11000 10999 10996 ] final  -48.14 input  -57.11 | X-H torsion

> <Gold.Protein.ActiveResidues>
 VAL166  LYS551  ARG553  GLY616  TRP617  ASP618  TYR619  PRO620  LYS621  CYS622 
 ASP623  PHE694  ASN695  SER759  ASP760  ASP761  ALA762  ILE779  LEU786  VAL792 
 PHE793  MET794  SER795  GLU796  ALA797  LYS798  CYS799  TRP800  GLU811  SER814 

> <Gold.Protein.RotatedAtoms>
  152.1292  134.9148  160.0559 H   0  0  0  0  0  0  0  0  0  0  0  0  # atno 6907 bound_to 6896
  152.0259  133.3912  159.4285 H   0  0  0  0  0  0  0  0  0  0  0  0  # atno 6908 bound_to 6896
  150.6855  134.3496  159.4947 H   0  0  0  0  0  0  0  0  0  0  0  0  # atno 6909 bound_to 6896
  144.8451  140.5969  143.5427 H   0  0  0  0  0  0  0  0  0  0  0  0  # atno 7974 bound_to 7965
  156.2130  140.1787  156.7652 H   0  0  0  0  0  0  0  0  0  0  0  0  # atno 8008 bound_to 7997
  154.5750  140.0676  156.9050 H   0  0  0  0  0  0  0  0  0  0  0  0  # atno 8009 bound_to 7997
  155.2604  140.3335  155.4276 H   0  0  0  0  0  0  0  0  0  0  0  0  # atno 8010 bound_to 7997
  140.5541  143.9456  150.6598 H   0  0  0  0  0  0  0  0  0  0  0  0  # atno 10167 bound_to 10162
  157.6623  131.0875  150.6173 H   0  0  0  0  0  0  0  0  0  0  0  0  # atno 10718 bound_to 10713
  153.1723  135.4523  154.9919 H   0  0  0  0  0  0  0  0  0  0  0  0  # atno 10763 bound_to 10752
  154.7974  135.3243  154.7635 H   0  0  0  0  0  0  0  0  0  0  0  0  # atno 10764 bound_to 10752
  153.8110  135.6955  153.4896 H   0  0  0  0  0  0  0  0  0  0  0  0  # atno 10765 bound_to 10752
  141.0683  133.6687  156.3398 H   0  0  0  0  0  0  0  0  0  0  0  0  # atno 11005 bound_to 11000
  145.4615  139.1512  143.3864 LP  0  0  0  0  0  0  0  0  0  0  0  0  # atno 17320 bound_to 7965
  146.2736  140.4745  142.8804 LP  0  0  0  0  0  0  0  0  0  0  0  0  # atno 17321 bound_to 7965
  140.2889  143.3338  152.1081 LP  0  0  0  0  0  0  0  0  0  0  0  0  # atno 17342 bound_to 10162
  139.5040  144.6767  151.6111 LP  0  0  0  0  0  0  0  0  0  0  0  0  # atno 17343 bound_to 10162
  156.6476  130.4476  149.5730 LP  0  0  0  0  0  0  0  0  0  0  0  0  # atno 17370 bound_to 10713
  156.2162  130.6709  151.1321 LP  0  0  0  0  0  0  0  0  0  0  0  0  # atno 17371 bound_to 10713
  140.5727  134.5824  157.5461 LP  0  0  0  0  0  0  0  0  0  0  0  0  # atno 17394 bound_to 11000
  139.9498  134.7637  156.0476 LP  0  0  0  0  0  0  0  0  0  0  0  0  # atno 17395 bound_to 11000

$$$$
