AV-unprocessed.smi:1465|AV-procd|sdf|5952|dock3
  -GOLD-   22720 6 33D 1   1.00000     0.00000
 Structure written by MMmdl.
 54 55  0  0  0  0  0  0  0  0  2 V2000
  151.5204  145.3147  160.0505 C   0  0  0  0  0  0  0  0  0  0  0  0
  152.4905  144.5871  159.3171 O   0  0  0  0  0  0  0  0  0  0  0  0
  151.9218  143.8569  158.2436 C   0  0  0  0  0  0  0  0  0  0  0  0
  151.6321  142.4236  158.7132 C   0  0  0  0  0  0  0  0  0  0  0  0
  151.4882  141.5081  157.5738 N   0  0  0  0  0  0  0  0  0  0  0  0
  150.4978  141.8248  156.6243 C   0  0  0  0  0  0  0  0  0  0  0  0
  150.2606  141.0551  155.5441 C   0  0  0  0  0  0  0  0  0  0  0  0
  149.2047  141.4352  154.6030 C   0  0  0  0  0  0  0  0  0  0  0  0
  148.8919  142.5962  154.3357 O   0  0  0  0  0  0  0  0  0  0  0  0
  148.5826  140.3865  154.0372 N   0  0  0  0  0  0  0  0  0  0  0  0
  147.4801  140.4622  153.0796 C   0  0  2  0  0  0  0  0  0  0  0  0
  146.3992  141.4334  153.5836 C   0  0  0  0  0  0  0  0  0  0  0  0
  145.6208  140.8616  154.7828 C   0  0  0  0  0  0  0  0  0  0  0  0
  145.0258  139.5377  154.4579 N   0  3  2  0  0  0  0  0  0  0  0  0
  144.1589  138.9990  155.5384 C   0  0  0  0  0  0  0  0  0  0  0  0
  143.5384  137.6267  155.1954 C   0  0  0  0  0  0  0  0  0  0  0  0
  142.6395  137.7373  153.9551 C   0  0  0  0  0  0  0  0  0  0  0  0
  142.7499  137.0407  156.3788 C   0  0  0  0  0  0  0  0  0  0  0  0
  146.0646  138.5634  154.0351 C   0  0  0  0  0  0  0  0  0  0  0  0
  146.8511  139.0799  152.8173 C   0  0  0  0  0  0  0  0  0  0  0  0
  151.0811  139.8637  155.3818 C   0  0  0  0  0  0  0  0  0  0  0  0
  152.0239  139.5520  156.2928 C   0  0  0  0  0  0  0  0  0  0  0  0
  152.2648  140.3882  157.4726 C   0  0  0  0  0  0  0  0  0  0  0  0
  153.1112  140.0965  158.3177 O   0  0  0  0  0  0  0  0  0  0  0  0
  152.0052  145.8566  160.8625 H   0  0  0  0  0  0  0  0  0  0  0  0
  150.7750  144.6486  160.4875 H   0  0  0  0  0  0  0  0  0  0  0  0
  151.0111  146.0428  159.4171 H   0  0  0  0  0  0  0  0  0  0  0  0
  151.0017  144.3403  157.9110 H   0  0  0  0  0  0  0  0  0  0  0  0
  152.6112  143.8421  157.3978 H   0  0  0  0  0  0  0  0  0  0  0  0
  152.4377  142.0836  159.3660 H   0  0  0  0  0  0  0  0  0  0  0  0
  150.7377  142.4098  159.3386 H   0  0  0  0  0  0  0  0  0  0  0  0
  149.9435  142.7264  156.8460 H   0  0  0  0  0  0  0  0  0  0  0  0
  148.8868  139.4632  154.3096 H   0  0  0  0  0  0  0  0  0  0  0  0
  147.8755  140.8544  152.1408 H   0  0  0  0  0  0  0  0  0  0  0  0
  146.8464  142.3922  153.8493 H   0  0  0  0  0  0  0  0  0  0  0  0
  145.6992  141.6411  152.7730 H   0  0  0  0  0  0  0  0  0  0  0  0
  146.2780  140.7639  155.6483 H   0  0  0  0  0  0  0  0  0  0  0  0
  144.8428  141.5708  155.0608 H   0  0  0  0  0  0  0  0  0  0  0  0
  144.7445  138.8855  156.4521 H   0  0  0  0  0  0  0  0  0  0  0  0
  143.3799  139.7276  155.7684 H   0  0  0  0  0  0  0  0  0  0  0  0
  144.3327  136.9255  154.9421 H   0  0  0  0  0  0  0  0  0  0  0  0
  141.8036  138.4159  154.1284 H   0  0  0  0  0  0  0  0  0  0  0  0
  142.2268  136.7659  153.6805 H   0  0  0  0  0  0  0  0  0  0  0  0
  143.1978  138.1095  153.0955 H   0  0  0  0  0  0  0  0  0  0  0  0
  141.9371  137.7021  156.6810 H   0  0  0  0  0  0  0  0  0  0  0  0
  143.3898  136.8802  157.2467 H   0  0  0  0  0  0  0  0  0  0  0  0
  142.3121  136.0765  156.1184 H   0  0  0  0  0  0  0  0  0  0  0  0
  146.7403  138.3624  154.8680 H   0  0  0  0  0  0  0  0  0  0  0  0
  145.5945  137.6145  153.7740 H   0  0  0  0  0  0  0  0  0  0  0  0
  146.1749  139.1531  151.9645 H   0  0  0  0  0  0  0  0  0  0  0  0
  147.6152  138.3562  152.5315 H   0  0  0  0  0  0  0  0  0  0  0  0
  150.9572  139.2060  154.5343 H   0  0  0  0  0  0  0  0  0  0  0  0
  152.6205  138.6627  156.1519 H   0  0  0  0  0  0  0  0  0  0  0  0
  144.4262  139.6722  153.6561 H   0  0  0  0  0  0  0  0  0  0  0  0
  1  2  1  0  0  0  0
  1 25  1  0  0  0  0
  1 26  1  0  0  0  0
  1 27  1  0  0  0  0
  2  3  1  0  0  0  0
  3  4  1  0  0  0  0
  3 28  1  0  0  0  0
  3 29  1  0  0  0  0
  4  5  1  0  0  0  0
  4 30  1  0  0  0  0
  4 31  1  0  0  0  0
  5 23  1  0  0  0  0
  5  6  1  0  0  0  0
  6  7  2  0  0  0  0
  6 32  1  0  0  0  0
  7  8  1  0  0  0  0
  7 21  1  0  0  0  0
  8  9  2  0  0  0  0
  8 10  1  0  0  0  0
 10 11  1  0  0  0  0
 10 33  1  0  0  0  0
 11 20  1  0  0  0  0
 11 12  1  0  0  0  0
 11 34  1  0  0  0  0
 12 13  1  0  0  0  0
 12 35  1  0  0  0  0
 12 36  1  0  0  0  0
 13 14  1  0  0  0  0
 13 37  1  0  0  0  0
 13 38  1  0  0  0  0
 14 15  1  0  0  0  0
 14 19  1  0  0  0  0
 14 54  1  0  0  0  0
 15 16  1  0  0  0  0
 15 39  1  0  0  0  0
 15 40  1  0  0  0  0
 16 17  1  0  0  0  0
 16 18  1  0  0  0  0
 16 41  1  0  0  0  0
 17 42  1  0  0  0  0
 17 43  1  0  0  0  0
 17 44  1  0  0  0  0
 18 45  1  0  0  0  0
 18 46  1  0  0  0  0
 18 47  1  0  0  0  0
 19 20  1  0  0  0  0
 19 48  1  0  0  0  0
 19 49  1  0  0  0  0
 20 50  1  0  0  0  0
 20 51  1  0  0  0  0
 21 22  2  0  0  0  0
 21 52  1  0  0  0  0
 22 23  1  0  0  0  0
 22 53  1  0  0  0  0
 23 24  2  0  0  0  0
M  CHG  1  14   1
M  END
> <s_m_source_file>
AV-unprocessed.smi

> <i_m_source_file_index>
1465

> <i_lp_mmshare_version>
43012

> <i_f3d_flags>
0

> <s_epik_input>
W0NIM11PW0NIMl1bQ0gyXW4xW2NIXWMoW2NIXVtjSF1jMT1PKUMoPU8pW05IXVtDSF0yW0NIMl1bQ0gyXU4oW0NIMl1bQ0gyXTIpW0NIMl1bQ0hdKFtDSDNdKVtDSDNd

> <s_epik_cmdline>
J2VwaWtfcHl0aG9uJywgJy1waCcsICc3LjAnLCAnLXRuJywgJzgnLCAnLW1hJywgJzIwMCcsICctbWV0YWxfYmluZGluZycsICctaW1hZScsICc8aW5maWxlLm1hZT4nLCAnLW9tYWUnLCAnPG91dGZpbGUubWFlPic=

> <r_lp_tautomer_probability>
1

> <r_epik_Ionization_Penalty>
0.00386091

> <r_epik_Ionization_Penalty_Charging>
0.0038603

> <r_epik_Ionization_Penalty_Neutral>
6.13806e-07

> <r_epik_State_Penalty>
0.00275716

> <r_epik_Charging_Adjusted_Penalty>
0.00661746

> <i_epik_Tot_Q>
1

> <i_epik_Tot_abs_Q>
1

> <r_epik_Metal_State_Penalty>
-0

> <b_epik_Metal_Only>
0

> <s_lp_Force_Field>
OPLS_2005

> <r_lp_Energy>
34.4783

> <b_lp_Chiralities_Consistent>
1

> <s_lp_Variant>
AV-unprocessed.smi:1465-2

> <Gold.Version>
5.8.1

> <Gold.Id.Protein>
6NUR|6NUR_protein|mol2

> <Gold.PLP.Fitness>
46.4263

> <Gold.PLP.PLP>
-35.0022

> <Gold.PLP.part.hbond>
-4.1829

> <Gold.PLP.part.metal>
0.0000

> <Gold.PLP.part.buried>
3.4721

> <Gold.PLP.part.nonpolar>
-36.9445

> <Gold.PLP.part.repulsive>
4.2620

> <Gold.PLP.ligand.clash>
0.0000

> <Gold.PLP.ligand.torsion>
0.9066

> <Gold.PLP.Chemscore.Hbond>
3.3523

> <Gold.PLP.Chemscore.CHOScore>
1.0000

> <Gold.PLP.Chemscore.Metal>
0.0000

> <Gold.Chemscore.Hbonds>
donor molecule, donor type, donor heavy atom, donor atom, acceptor molecule, acceptor atom, score
      L1  H    14    54       P1 10175  2.00
      P1  H  7997  8010       L1    24  0.90
      P1  H  8011  8017       L1     9  0.03
      P1  H  8022  8030       L1     9  0.32
      L1  C     6    32       P1  8028  0.96

> <Gold.PLP.Chemscore.Internal.Correction>
0.1802

> <Gold.Rescore>
     Score         DG    S(hbond)    S(metal)    S(lipo)     H(rot)  DE(clash)    DE(int)     intcor
     13.82     -18.48       1.91        0.00      95.60       1.78       2.36       2.30       ----

> <Gold.Chemscore.Fitness>
13.8218

> <Gold.Chemscore.DG>
-18.4819

> <Gold.Chemscore.ZeroCoef>
-5.4800

> <Gold.Chemscore.Hbond>
1.9058

> <Gold.Chemscore.Metal>
0.0000

> <Gold.Chemscore.Lipo>
95.6021

> <Gold.Chemscore.Internal_Hbond>
0.0000

> <Gold.Chemscore.DEClash>
2.3580

> <Gold.Chemscore.DEInternal>
2.3021

> <Gold.Chemscore.Rot>
1.7769

> <Gold.Chemscore.Internal.Correction>
   9.000000E+99

> <Gold.Chemscore.Hbonds>
donor molecule, donor type, donor heavy atom, donor atom, acceptor molecule, acceptor atom, score
      L1  H    14    54       P1 10175  0.98
      P1  H  7997  8010       L1    24  0.19
      P1  H  8022  8030       L1     9  0.33

> <Gold.Chemscore.Hbond.Weighted>
-6.3655

> <Gold.Chemscore.Metal.Weighted>
-0.0000

> <Gold.Chemscore.Lipo.Weighted>
-11.1854

> <Gold.Chemscore.Internal_Hbond.Weighted>
0.0000

> <Gold.Chemscore.DEClash.Weighted>
2.3580

> <Gold.Chemscore.DEInternal.Weighted>
2.3021

> <Gold.Chemscore.Rot.Weighted>
4.5490

> <Gold.Chemscore.Internal.Correction.Weighted>
   9.000000E+99

> <Gold.Protein.RotatedTorsions>
[ 6907 6896 6895 6894 ] final  -52.69 input  -60.11 | X-H torsion
[ 7974 7965 7964 7962 ] final  -94.46 input  175.53 | X-H torsion
[ 8008 7997 7996 7995 ] final   24.12 input   59.86 | X-H torsion
[ 10167 10162 10161 10158 ] final  152.57 input  -65.29 | X-H torsion
[ 10718 10713 10712 10709 ] final -158.93 input   66.30 | X-H torsion
[ 10763 10752 10751 10750 ] final -140.94 input  -60.55 | X-H torsion
[ 11005 11000 10999 10996 ] final  -90.47 input  -57.11 | X-H torsion

> <Gold.Protein.ActiveResidues>
 VAL166  LYS551  ARG553  GLY616  TRP617  ASP618  TYR619  PRO620  LYS621  CYS622 
 ASP623  PHE694  ASN695  SER759  ASP760  ASP761  ALA762  ILE779  LEU786  VAL792 
 PHE793  MET794  SER795  GLU796  ALA797  LYS798  CYS799  TRP800  GLU811  SER814 

> <Gold.Protein.RotatedAtoms>
  150.8494  134.7814  159.6996 H   0  0  0  0  0  0  0  0  0  0  0  0  # atno 6907 bound_to 6896
  152.4563  134.5281  159.9812 H   0  0  0  0  0  0  0  0  0  0  0  0  # atno 6908 bound_to 6896
  151.5405  133.3395  159.2970 H   0  0  0  0  0  0  0  0  0  0  0  0  # atno 6909 bound_to 6896
  145.3729  140.9508  143.2437 H   0  0  0  0  0  0  0  0  0  0  0  0  # atno 7974 bound_to 7965
  154.9915  140.3114  155.4904 H   0  0  0  0  0  0  0  0  0  0  0  0  # atno 8008 bound_to 7997
  156.2939  140.2248  156.4960 H   0  0  0  0  0  0  0  0  0  0  0  0  # atno 8009 bound_to 7997
  154.7699  140.0453  157.1031 H   0  0  0  0  0  0  0  0  0  0  0  0  # atno 8010 bound_to 7997
  139.4832  144.5346  151.7666 H   0  0  0  0  0  0  0  0  0  0  0  0  # atno 10167 bound_to 10162
  156.5610  130.8647  151.2809 H   0  0  0  0  0  0  0  0  0  0  0  0  # atno 10718 bound_to 10713
  154.8562  135.3538  154.5788 H   0  0  0  0  0  0  0  0  0  0  0  0  # atno 10763 bound_to 10752
  153.6399  135.6998  153.5250 H   0  0  0  0  0  0  0  0  0  0  0  0  # atno 10764 bound_to 10752
  153.2979  135.4215  155.1185 H   0  0  0  0  0  0  0  0  0  0  0  0  # atno 10765 bound_to 10752
  141.1565  133.7694  156.9741 H   0  0  0  0  0  0  0  0  0  0  0  0  # atno 11005 bound_to 11000
  144.8563  139.5245  143.6833 LP  0  0  0  0  0  0  0  0  0  0  0  0  # atno 17320 bound_to 7965
  146.2877  139.7050  142.9183 LP  0  0  0  0  0  0  0  0  0  0  0  0  # atno 17321 bound_to 7965
  140.4877  144.1356  150.5944 LP  0  0  0  0  0  0  0  0  0  0  0  0  # atno 17342 bound_to 10162
  140.4206  143.2613  151.9720 LP  0  0  0  0  0  0  0  0  0  0  0  0  # atno 17343 bound_to 10162
  157.7368  130.9786  150.2159 LP  0  0  0  0  0  0  0  0  0  0  0  0  # atno 17370 bound_to 10713
  156.2799  130.3732  149.7946 LP  0  0  0  0  0  0  0  0  0  0  0  0  # atno 17371 bound_to 10713
  140.1109  134.9477  157.2064 LP  0  0  0  0  0  0  0  0  0  0  0  0  # atno 17394 bound_to 11000
  140.3195  134.2933  155.7249 LP  0  0  0  0  0  0  0  0  0  0  0  0  # atno 17395 bound_to 11000

$$$$
