AV-unprocessed.smi:3106|AV-procd|sdf|11823|dock3
  -GOLD-   2272017193D 1   1.00000     0.00000
 Structure written by MMmdl.
 29 30  0  0  0  0  0  0  0  0  1 V2000
  151.6740  145.5998  160.0578 C   0  0  0  0  0  0  0  0  0  0  0  0
  151.7614  144.2682  159.3424 C   0  0  0  0  0  0  0  0  0  0  0  0
  152.5787  143.2337  159.8353 C   0  0  0  0  0  0  0  0  0  0  0  0
  152.6240  142.0127  159.1352 C   0  0  0  0  0  0  0  0  0  0  0  0
  151.8530  141.8543  157.9617 C   0  0  0  0  0  0  0  0  0  0  0  0
  151.9713  140.5873  157.3319 N   0  0  0  0  0  0  0  0  0  0  0  0
  151.5019  140.2018  156.1297 C   0  0  0  0  0  0  0  0  0  0  0  0
  150.8861  140.9348  155.3552 O   0  0  0  0  0  0  0  0  0  0  0  0
  151.7962  138.7508  155.7236 C   0  0  2  0  0  0  0  0  0  0  0  0
  151.0695  138.2923  154.4558 C   0  0  0  0  0  0  0  0  0  0  0  0
  150.9916  136.7979  154.6719 C   0  0  0  0  0  0  0  0  0  0  0  0
  150.7375  136.7087  156.1730 C   0  0  0  0  0  0  0  0  0  0  0  0
  151.3676  137.8510  156.7472 O   0  0  0  0  0  0  0  0  0  0  0  0
  151.0670  142.8568  157.4957 N   0  0  0  0  0  0  0  0  0  0  0  0
  151.0236  144.0266  158.1673 C   0  0  0  0  0  0  0  0  0  0  0  0
  152.6191  145.8399  160.5459 H   0  0  0  0  0  0  0  0  0  0  0  0
  150.8923  145.5679  160.8170 H   0  0  0  0  0  0  0  0  0  0  0  0
  151.4415  146.4022  159.3571 H   0  0  0  0  0  0  0  0  0  0  0  0
  153.1619  143.3700  160.7342 H   0  0  0  0  0  0  0  0  0  0  0  0
  153.2465  141.2084  159.4995 H   0  0  0  0  0  0  0  0  0  0  0  0
  152.4638  139.8820  157.8602 H   0  0  0  0  0  0  0  0  0  0  0  0
  152.8725  138.6263  155.5959 H   0  0  0  0  0  0  0  0  0  0  0  0
  150.0646  138.7149  154.3985 H   0  0  0  0  0  0  0  0  0  0  0  0
  151.6047  138.5550  153.5430 H   0  0  0  0  0  0  0  0  0  0  0  0
  150.2144  136.3165  154.0777 H   0  0  0  0  0  0  0  0  0  0  0  0
  151.9482  136.3355  154.4246 H   0  0  0  0  0  0  0  0  0  0  0  0
  149.6682  136.7643  156.3808 H   0  0  0  0  0  0  0  0  0  0  0  0
  151.1188  135.7831  156.6051 H   0  0  0  0  0  0  0  0  0  0  0  0
  150.3810  144.7896  157.7533 H   0  0  0  0  0  0  0  0  0  0  0  0
  1  2  1  0  0  0  0
  1 16  1  0  0  0  0
  1 17  1  0  0  0  0
  1 18  1  0  0  0  0
  2 15  1  0  0  0  0
  2  3  2  0  0  0  0
  3  4  1  0  0  0  0
  3 19  1  0  0  0  0
  4  5  2  0  0  0  0
  4 20  1  0  0  0  0
  5  6  1  0  0  0  0
  5 14  1  0  0  0  0
  6  7  1  0  0  0  0
  6 21  1  0  0  0  0
  7  8  2  0  0  0  0
  7  9  1  0  0  0  0
  9 13  1  0  0  0  0
  9 10  1  0  0  0  0
  9 22  1  0  0  0  0
 10 11  1  0  0  0  0
 10 23  1  0  0  0  0
 10 24  1  0  0  0  0
 11 12  1  0  0  0  0
 11 25  1  0  0  0  0
 11 26  1  0  0  0  0
 12 13  1  0  0  0  0
 12 27  1  0  0  0  0
 12 28  1  0  0  0  0
 14 15  2  0  0  0  0
 15 29  1  0  0  0  0
M  END
> <s_m_source_file>
AV-unprocessed.smi

> <i_m_source_file_index>
3106

> <i_lp_mmshare_version>
43012

> <i_f3d_flags>
0

> <s_epik_input>
W0NIM11jMVtjSF1bY0hdYyhuW2NIXTEpW05IXUMoPU8pW0NAQEhdMltDSDJdW0NIMl1bQ0gyXU8y

> <s_epik_cmdline>
J2VwaWtfcHl0aG9uJywgJy1waCcsICc3LjAnLCAnLXRuJywgJzgnLCAnLW1hJywgJzIwMCcsICctbWV0YWxfYmluZGluZycsICctaW1hZScsICc8aW5maWxlLm1hZT4nLCAnLW9tYWUnLCAnPG91dGZpbGUubWFlPic=

> <r_epik_Ionization_Penalty>
0.00356606

> <r_epik_Ionization_Penalty_Charging>
0

> <r_epik_Ionization_Penalty_Neutral>
0.00356606

> <r_epik_State_Penalty>
0.00372088

> <r_epik_Charging_Adjusted_Penalty>
0.00372088

> <i_epik_Tot_Q>
0

> <i_epik_Tot_abs_Q>
0

> <r_epik_Metal_State_Penalty>
-0

> <b_epik_Metal_Only>
0

> <s_lp_Force_Field>
OPLS_2005

> <r_lp_Energy>
20.8335

> <b_lp_Chiralities_Consistent>
1

> <s_lp_Variant>
AV-unprocessed.smi:3106-1

> <Gold.Version>
5.8.1

> <Gold.Id.Protein>
6NUR|6NUR_protein|mol2

> <Gold.PLP.Fitness>
36.9480

> <Gold.PLP.PLP>
-32.0254

> <Gold.PLP.part.hbond>
-1.0000

> <Gold.PLP.part.metal>
0.0000

> <Gold.PLP.part.buried>
-3.8633

> <Gold.PLP.part.nonpolar>
-28.1473

> <Gold.PLP.part.repulsive>
0.2818

> <Gold.PLP.ligand.clash>
0.0000

> <Gold.PLP.ligand.torsion>
0.1606

> <Gold.PLP.Chemscore.Hbond>
0.7520

> <Gold.PLP.Chemscore.CHOScore>
0.9946

> <Gold.PLP.Chemscore.Metal>
0.0000

> <Gold.Chemscore.Hbonds>
donor molecule, donor type, donor heavy atom, donor atom, acceptor molecule, acceptor atom, score
      P1  H  7989  7998       L1     8  0.74
      L1  C    15    29       P1  8028  0.85
      L1  C    15    29       P1  8029  0.14

> <Gold.PLP.Chemscore.Internal.Correction>
0.0042

> <Gold.Rescore>
     Score         DG    S(hbond)    S(metal)    S(lipo)     H(rot)  DE(clash)    DE(int)     intcor
     13.69     -15.05       0.76        0.00      82.05       1.00       0.02       1.33       ----

> <Gold.Chemscore.Fitness>
13.6910

> <Gold.Chemscore.DG>
-15.0475

> <Gold.Chemscore.ZeroCoef>
-5.4800

> <Gold.Chemscore.Hbond>
0.7567

> <Gold.Chemscore.Metal>
0.0000

> <Gold.Chemscore.Lipo>
82.0530

> <Gold.Chemscore.Internal_Hbond>
0.0000

> <Gold.Chemscore.DEClash>
0.0234

> <Gold.Chemscore.DEInternal>
1.3331

> <Gold.Chemscore.Rot>
1.0000

> <Gold.Chemscore.Internal.Correction>
   9.000000E+99

> <Gold.Chemscore.Hbonds>
donor molecule, donor type, donor heavy atom, donor atom, acceptor molecule, acceptor atom, score
      P1  H  7989  7998       L1     8  0.61

> <Gold.Chemscore.Hbond.Weighted>
-2.5273

> <Gold.Chemscore.Metal.Weighted>
-0.0000

> <Gold.Chemscore.Lipo.Weighted>
-9.6002

> <Gold.Chemscore.Internal_Hbond.Weighted>
0.0000

> <Gold.Chemscore.DEClash.Weighted>
0.0234

> <Gold.Chemscore.DEInternal.Weighted>
1.3331

> <Gold.Chemscore.Rot.Weighted>
2.5600

> <Gold.Chemscore.Internal.Correction.Weighted>
   9.000000E+99

> <Gold.Protein.RotatedTorsions>
[ 6907 6896 6895 6894 ] final  -94.31 input  -60.11 | X-H torsion
[ 7974 7965 7964 7962 ] final  -13.52 input  175.53 | X-H torsion
[ 8008 7997 7996 7995 ] final -127.86 input   59.86 | X-H torsion
[ 10167 10162 10161 10158 ] final   40.53 input  -65.29 | X-H torsion
[ 10718 10713 10712 10709 ] final -111.49 input   66.30 | X-H torsion
[ 10763 10752 10751 10750 ] final   61.07 input  -60.55 | X-H torsion
[ 11005 11000 10999 10996 ] final   -8.06 input  -57.11 | X-H torsion

> <Gold.Protein.ActiveResidues>
 VAL166  LYS551  ARG553  GLY616  TRP617  ASP618  TYR619  PRO620  LYS621  CYS622 
 ASP623  PHE694  ASN695  SER759  ASP760  ASP761  ALA762  ILE779  LEU786  VAL792 
 PHE793  MET794  SER795  GLU796  ALA797  LYS798  CYS799  TRP800  GLU811  SER814 

> <Gold.Protein.RotatedAtoms>
  150.6939  134.1832  159.4256 H   0  0  0  0  0  0  0  0  0  0  0  0  # atno 6907 bound_to 6896
  151.9806  135.0028  160.0566 H   0  0  0  0  0  0  0  0  0  0  0  0  # atno 6908 bound_to 6896
  152.1758  133.4639  159.4969 H   0  0  0  0  0  0  0  0  0  0  0  0  # atno 6909 bound_to 6896
  146.2111  140.3215  142.8391 H   0  0  0  0  0  0  0  0  0  0  0  0  # atno 7974 bound_to 7965
  155.2531  140.0433  157.2989 H   0  0  0  0  0  0  0  0  0  0  0  0  # atno 8008 bound_to 7997
  154.5756  140.2386  155.8097 H   0  0  0  0  0  0  0  0  0  0  0  0  # atno 8009 bound_to 7997
  156.2155  140.2986  155.9839 H   0  0  0  0  0  0  0  0  0  0  0  0  # atno 8010 bound_to 7997
  140.3733  144.2076  150.6132 H   0  0  0  0  0  0  0  0  0  0  0  0  # atno 10167 bound_to 10162
  156.0650  130.5870  150.8381 H   0  0  0  0  0  0  0  0  0  0  0  0  # atno 10718 bound_to 10713
  152.9939  135.5514  154.5975 H   0  0  0  0  0  0  0  0  0  0  0  0  # atno 10763 bound_to 10752
  154.5323  135.2814  155.1171 H   0  0  0  0  0  0  0  0  0  0  0  0  # atno 10764 bound_to 10752
  154.2481  135.6404  153.5283 H   0  0  0  0  0  0  0  0  0  0  0  0  # atno 10765 bound_to 10752
  140.7195  133.8841  155.8810 H   0  0  0  0  0  0  0  0  0  0  0  0  # atno 11005 bound_to 11000
  144.8917  140.7532  143.5922 LP  0  0  0  0  0  0  0  0  0  0  0  0  # atno 17320 bound_to 7965
  145.3137  139.1810  143.4625 LP  0  0  0  0  0  0  0  0  0  0  0  0  # atno 17321 bound_to 7965
  140.5011  143.2317  151.8677 LP  0  0  0  0  0  0  0  0  0  0  0  0  # atno 17342 bound_to 10162
  139.4802  144.5058  151.8999 LP  0  0  0  0  0  0  0  0  0  0  0  0  # atno 17343 bound_to 10162
  157.5686  131.0946  150.9452 LP  0  0  0  0  0  0  0  0  0  0  0  0  # atno 17370 bound_to 10713
  156.9674  130.5478  149.5289 LP  0  0  0  0  0  0  0  0  0  0  0  0  # atno 17371 bound_to 10713
  141.0016  134.1143  157.4311 LP  0  0  0  0  0  0  0  0  0  0  0  0  # atno 17394 bound_to 11000
  139.8852  135.0070  156.6417 LP  0  0  0  0  0  0  0  0  0  0  0  0  # atno 17395 bound_to 11000

$$$$
