AV-unprocessed.smi:1898|AV-procd|sdf|7703|dock5
  -GOLD-   22720 9443D 1   1.00000     0.00000
 Structure written by MMmdl.
 46 47  0  0  0  0  0  0  0  0  3 V2000
  153.0379  139.6749  159.6860 C   0  0  0  0  0  0  0  0  0  0  0  0
  151.9983  140.6914  159.5766 N   0  5  0  0  0  0  0  0  0  0  0  0
  151.2009  140.8336  158.4842 C   0  0  0  0  0  0  0  0  0  0  0  0
  150.0224  141.1920  158.3876 O   0  0  0  0  0  0  0  0  0  0  0  0
  151.9624  140.5019  157.1959 C   0  0  0  0  0  0  0  0  0  0  0  0
  151.2678  139.4149  156.4626 N   0  3  2  0  0  0  0  0  0  0  0  0
  150.9351  138.2632  157.3384 C   0  0  0  0  0  0  0  0  0  0  0  0
  150.0804  137.2268  156.5900 C   0  0  0  0  0  0  0  0  0  0  0  0
  150.7820  136.7440  155.3104 C   0  0  1  0  0  0  0  0  0  0  0  0
  149.9025  135.8400  154.5749 N   0  0  0  0  0  0  0  0  0  0  0  0
  149.7175  134.5423  154.8555 C   0  0  0  0  0  0  0  0  0  0  0  0
  150.2640  133.9697  155.7975 O   0  0  0  0  0  0  0  0  0  0  0  0
  148.8632  133.9784  153.9845 N   0  0  0  0  0  0  0  0  0  0  0  0
  148.4078  132.6317  153.9062 C   0  0  0  0  0  0  0  0  0  0  0  0
  149.0241  131.5420  154.5695 C   0  0  0  0  0  0  0  0  0  0  0  0
  148.4912  130.2503  154.4031 C   0  0  0  0  0  0  0  0  0  0  0  0
  147.3649  130.0908  153.5760 C   0  0  0  0  0  0  0  0  0  0  0  0
  146.7730  131.1156  152.9297 N   0  0  0  0  0  0  0  0  0  0  0  0
  147.2852  132.3619  153.0878 C   0  0  0  0  0  0  0  0  0  0  0  0
  146.6808  133.4093  152.4185 O   0  0  0  0  0  0  0  0  0  0  0  0
  145.5989  133.1206  151.5395 C   0  0  0  0  0  0  0  0  0  0  0  0
  151.1630  137.9565  154.4412 C   0  0  0  0  0  0  0  0  0  0  0  0
  151.9909  138.9775  155.2383 C   0  0  0  0  0  0  0  0  0  0  0  0
  153.5840  139.7527  160.6256 H   0  0  0  0  0  0  0  0  0  0  0  0
  153.7796  139.7494  158.8902 H   0  0  0  0  0  0  0  0  0  0  0  0
  152.6338  138.6628  159.6470 H   0  0  0  0  0  0  0  0  0  0  0  0
  152.1075  141.3706  156.5496 H   0  0  0  0  0  0  0  0  0  0  0  0
  152.9586  140.1734  157.4957 H   0  0  0  0  0  0  0  0  0  0  0  0
  151.8556  137.8042  157.7025 H   0  0  0  0  0  0  0  0  0  0  0  0
  150.3856  138.6119  158.2136 H   0  0  0  0  0  0  0  0  0  0  0  0
  149.8724  136.3799  157.2451 H   0  0  0  0  0  0  0  0  0  0  0  0
  149.1147  137.6694  156.3403 H   0  0  0  0  0  0  0  0  0  0  0  0
  151.6904  136.2107  155.5983 H   0  0  0  0  0  0  0  0  0  0  0  0
  149.4070  136.2287  153.7857 H   0  0  0  0  0  0  0  0  0  0  0  0
  148.4562  134.6016  153.3024 H   0  0  0  0  0  0  0  0  0  0  0  0
  149.8972  131.6598  155.1907 H   0  0  0  0  0  0  0  0  0  0  0  0
  148.9392  129.4005  154.8964 H   0  0  0  0  0  0  0  0  0  0  0  0
  146.9301  129.1136  153.4252 H   0  0  0  0  0  0  0  0  0  0  0  0
  145.2407  134.0478  151.0927 H   0  0  0  0  0  0  0  0  0  0  0  0
  144.7621  132.6652  152.0710 H   0  0  0  0  0  0  0  0  0  0  0  0
  145.9095  132.4615  150.7274 H   0  0  0  0  0  0  0  0  0  0  0  0
  151.7281  137.6312  153.5668 H   0  0  0  0  0  0  0  0  0  0  0  0
  150.2611  138.4408  154.0635 H   0  0  0  0  0  0  0  0  0  0  0  0
  152.2052  139.8337  154.5984 H   0  0  0  0  0  0  0  0  0  0  0  0
  152.9532  138.5454  155.5172 H   0  0  0  0  0  0  0  0  0  0  0  0
  150.3878  139.8083  156.1610 H   0  0  0  0  0  0  0  0  0  0  0  0
  1  2  1  0  0  0  0
  1 24  1  0  0  0  0
  1 25  1  0  0  0  0
  1 26  1  0  0  0  0
  2  3  1  0  0  0  0
  3  4  2  0  0  0  0
  3  5  1  0  0  0  0
  5  6  1  0  0  0  0
  5 27  1  0  0  0  0
  5 28  1  0  0  0  0
  6 23  1  0  0  0  0
  6  7  1  0  0  0  0
  6 46  1  0  0  0  0
  7  8  1  0  0  0  0
  7 29  1  0  0  0  0
  7 30  1  0  0  0  0
  8  9  1  0  0  0  0
  8 31  1  0  0  0  0
  8 32  1  0  0  0  0
  9 10  1  0  0  0  0
  9 22  1  0  0  0  0
  9 33  1  0  0  0  0
 10 11  1  0  0  0  0
 10 34  1  0  0  0  0
 11 12  2  0  0  0  0
 11 13  1  0  0  0  0
 13 14  1  0  0  0  0
 13 35  1  0  0  0  0
 14 19  1  0  0  0  0
 14 15  2  0  0  0  0
 15 16  1  0  0  0  0
 15 36  1  0  0  0  0
 16 17  2  0  0  0  0
 16 37  1  0  0  0  0
 17 18  1  0  0  0  0
 17 38  1  0  0  0  0
 18 19  2  0  0  0  0
 19 20  1  0  0  0  0
 20 21  1  0  0  0  0
 21 39  1  0  0  0  0
 21 40  1  0  0  0  0
 21 41  1  0  0  0  0
 22 23  1  0  0  0  0
 22 42  1  0  0  0  0
 22 43  1  0  0  0  0
 23 44  1  0  0  0  0
 23 45  1  0  0  0  0
M  CHG  1   2  -1
M  CHG  1   6   1
M  END
> <s_m_source_file>
AV-unprocessed.smi

> <i_m_source_file_index>
1898

> <i_lp_mmshare_version>
43012

> <i_f3d_flags>
0

> <s_epik_input>
W0NIM11bTkhdQyg9TylbQ0gyXU4xW0NIMl1bQ0gyXVtDSF0oW0NIMl1bQ0gyXTEpW05IXUMoPU8pW05IXWMyW2NIXVtjSF1bY0hdbmMyT1tDSDNd

> <s_epik_cmdline>
J2VwaWtfcHl0aG9uJywgJy1waCcsICc3LjAnLCAnLXRuJywgJzgnLCAnLW1hJywgJzIwMCcsICctbWV0YWxfYmluZGluZycsICctaW1hZScsICc8aW5maWxlLm1hZT4nLCAnLW9tYWUnLCAnPG91dGZpbGUubWFlPic=

> <r_lp_tautomer_probability>
1

> <r_epik_Ionization_Penalty>
6.13954

> <r_epik_Ionization_Penalty_Charging>
6.13946

> <r_epik_Ionization_Penalty_Neutral>
7.84403e-05

> <r_epik_State_Penalty>
6.9595

> <r_epik_Charging_Adjusted_Penalty>
13.099

> <i_epik_Tot_Q>
0

> <i_epik_Tot_abs_Q>
2

> <r_epik_Metal_State_Penalty>
2.89145

> <b_epik_Metal_Only>
1

> <s_lp_Force_Field>
OPLS_2005

> <r_lp_Energy>
12.3689

> <b_lp_Chiralities_Consistent>
1

> <s_lp_Variant>
AV-unprocessed.smi:1898-4

> <Gold.Version>
5.8.1

> <Gold.Id.Protein>
6NUR|6NUR_protein|mol2

> <Gold.PLP.Fitness>
37.9232

> <Gold.PLP.PLP>
-33.2295

> <Gold.PLP.part.hbond>
-2.7259

> <Gold.PLP.part.metal>
0.0000

> <Gold.PLP.part.buried>
-5.5116

> <Gold.PLP.part.nonpolar>
-26.0766

> <Gold.PLP.part.repulsive>
0.9165

> <Gold.PLP.ligand.clash>
0.0000

> <Gold.PLP.ligand.torsion>
0.6287

> <Gold.PLP.Chemscore.Hbond>
1.9600

> <Gold.PLP.Chemscore.CHOScore>
0.0000

> <Gold.PLP.Chemscore.Metal>
0.0000

> <Gold.Chemscore.Hbonds>
donor molecule, donor type, donor heavy atom, donor atom, acceptor molecule, acceptor atom, score
      L1  H    10    34       P1  7948  0.99
      L1  H    13    35       P1  7948  0.50

> <Gold.PLP.Chemscore.Internal.Correction>
0.0711

> <Gold.Rescore>
     Score         DG    S(hbond)    S(metal)    S(lipo)     H(rot)  DE(clash)    DE(int)     intcor
     10.92     -12.68       1.31        0.00      66.32       1.93       0.03       1.73       ----

> <Gold.Chemscore.Fitness>
10.9203

> <Gold.Chemscore.DG>
-12.6774

> <Gold.Chemscore.ZeroCoef>
-5.4800

> <Gold.Chemscore.Hbond>
1.3097

> <Gold.Chemscore.Metal>
0.0000

> <Gold.Chemscore.Lipo>
66.3197

> <Gold.Chemscore.Internal_Hbond>
0.0000

> <Gold.Chemscore.DEClash>
0.0304

> <Gold.Chemscore.DEInternal>
1.7266

> <Gold.Chemscore.Rot>
1.9283

> <Gold.Chemscore.Internal.Correction>
   9.000000E+99

> <Gold.Chemscore.Hbonds>
donor molecule, donor type, donor heavy atom, donor atom, acceptor molecule, acceptor atom, score
      L1  H    10    34       P1  7948  0.73
      L1  H    13    35       P1  7948  0.24

> <Gold.Chemscore.Hbond.Weighted>
-4.3745

> <Gold.Chemscore.Metal.Weighted>
-0.0000

> <Gold.Chemscore.Lipo.Weighted>
-7.7594

> <Gold.Chemscore.Internal_Hbond.Weighted>
0.0000

> <Gold.Chemscore.DEClash.Weighted>
0.0304

> <Gold.Chemscore.DEInternal.Weighted>
1.7266

> <Gold.Chemscore.Rot.Weighted>
4.9365

> <Gold.Chemscore.Internal.Correction.Weighted>
   9.000000E+99

> <Gold.Protein.RotatedTorsions>
[ 6907 6896 6895 6894 ] final -120.01 input  -60.11 | X-H torsion
[ 7974 7965 7964 7962 ] final -136.55 input  175.53 | X-H torsion
[ 8008 7997 7996 7995 ] final  -86.56 input   59.86 | X-H torsion
[ 10167 10162 10161 10158 ] final -156.36 input  -65.29 | X-H torsion
[ 10718 10713 10712 10709 ] final   77.57 input   66.30 | X-H torsion
[ 10763 10752 10751 10750 ] final   69.55 input  -60.55 | X-H torsion
[ 11005 11000 10999 10996 ] final -162.06 input  -57.11 | X-H torsion

> <Gold.Protein.ActiveResidues>
 VAL166  LYS551  ARG553  GLY616  TRP617  ASP618  TYR619  PRO620  LYS621  CYS622 
 ASP623  PHE694  ASN695  SER759  ASP760  ASP761  ALA762  ILE779  LEU786  VAL792 
 PHE793  MET794  SER795  GLU796  ALA797  LYS798  CYS799  TRP800  GLU811  SER814 

> <Gold.Protein.RotatedAtoms>
  150.8355  133.8020  159.3081 H   0  0  0  0  0  0  0  0  0  0  0  0  # atno 6907 bound_to 6896
  151.5737  135.1060  160.0011 H   0  0  0  0  0  0  0  0  0  0  0  0  # atno 6908 bound_to 6896
  152.4428  133.7438  159.6712 H   0  0  0  0  0  0  0  0  0  0  0  0  # atno 6909 bound_to 6896
  144.8917  140.6652  143.5141 H   0  0  0  0  0  0  0  0  0  0  0  0  # atno 7974 bound_to 7965
  154.6532  140.0577  156.9979 H   0  0  0  0  0  0  0  0  0  0  0  0  # atno 8008 bound_to 7997
  155.1339  140.3259  155.4449 H   0  0  0  0  0  0  0  0  0  0  0  0  # atno 8009 bound_to 7997
  156.2585  140.1976  156.6458 H   0  0  0  0  0  0  0  0  0  0  0  0  # atno 8010 bound_to 7997
  139.6856  143.9507  152.2359 H   0  0  0  0  0  0  0  0  0  0  0  0  # atno 10167 bound_to 10162
  157.6715  130.9827  150.1660 H   0  0  0  0  0  0  0  0  0  0  0  0  # atno 10718 bound_to 10713
  153.0293  135.5206  154.7305 H   0  0  0  0  0  0  0  0  0  0  0  0  # atno 10763 bound_to 10752
  154.6334  135.2903  155.0191 H   0  0  0  0  0  0  0  0  0  0  0  0  # atno 10764 bound_to 10752
  154.1135  135.6618  153.4942 H   0  0  0  0  0  0  0  0  0  0  0  0  # atno 10765 bound_to 10752
  140.6135  134.4824  157.5217 H   0  0  0  0  0  0  0  0  0  0  0  0  # atno 11005 bound_to 11000
  145.3771  139.1645  143.4301 LP  0  0  0  0  0  0  0  0  0  0  0  0  # atno 17320 bound_to 7965
  146.3058  140.3848  142.8688 LP  0  0  0  0  0  0  0  0  0  0  0  0  # atno 17321 bound_to 7965
  139.9309  144.6742  150.8364 LP  0  0  0  0  0  0  0  0  0  0  0  0  # atno 17342 bound_to 10162
  140.7666  143.3309  151.2411 LP  0  0  0  0  0  0  0  0  0  0  0  0  # atno 17343 bound_to 10162
  156.2425  130.3692  149.8321 LP  0  0  0  0  0  0  0  0  0  0  0  0  # atno 17370 bound_to 10713
  156.6117  130.8589  151.3456 LP  0  0  0  0  0  0  0  0  0  0  0  0  # atno 17371 bound_to 10713
  139.9182  134.8202  156.1296 LP  0  0  0  0  0  0  0  0  0  0  0  0  # atno 17394 bound_to 11000
  141.0792  133.6762  156.2299 LP  0  0  0  0  0  0  0  0  0  0  0  0  # atno 17395 bound_to 11000

$$$$
