AV-unprocessed.smi:2489|AV-procd|sdf|9797|dock7
  -GOLD-   2272013433D 1   1.00000     0.00000
 Structure written by MMmdl.
 33 34  0  0  0  0  0  0  0  0  1 V2000
  151.5704  145.4456  159.8809 C   0  0  0  0  0  0  0  0  0  0  0  0
  151.2821  144.5466  158.8203 O   0  0  0  0  0  0  0  0  0  0  0  0
  151.7551  143.2566  158.9238 C   0  0  0  0  0  0  0  0  0  0  0  0
  152.4513  142.7452  160.0444 C   0  0  0  0  0  0  0  0  0  0  0  0
  152.8788  141.4052  160.0131 C   0  0  0  0  0  0  0  0  0  0  0  0
  152.6589  140.5813  158.9687 N   0  0  0  0  0  0  0  0  0  0  0  0
  151.9941  141.0540  157.8864 C   0  0  0  0  0  0  0  0  0  0  0  0
  151.7097  140.2753  156.7333 N   0  0  0  0  0  0  0  0  0  0  0  0
  152.4510  139.2961  156.1824 C   0  0  0  0  0  0  0  0  0  0  0  0
  153.5430  138.9209  156.6110 O   0  0  0  0  0  0  0  0  0  0  0  0
  151.8565  138.6510  154.9240 C   0  0  2  0  0  0  0  0  0  0  0  0
  150.3825  139.0094  154.6610 C   0  0  0  0  0  0  0  0  0  0  0  0
  149.6387  137.7561  155.0737 C   0  0  0  0  0  0  0  0  0  0  0  0
  150.6463  136.6705  154.7123 C   0  0  2  0  0  0  0  0  0  0  0  0
  150.4154  135.3371  155.4304 C   0  0  0  0  0  0  0  0  0  0  0  0
  151.8912  137.2352  155.0989 O   0  0  0  0  0  0  0  0  0  0  0  0
  151.5297  142.3873  157.8372 C   0  0  0  0  0  0  0  0  0  0  0  0
  151.1341  146.4188  159.6567 H   0  0  0  0  0  0  0  0  0  0  0  0
  152.6450  145.5869  160.0031 H   0  0  0  0  0  0  0  0  0  0  0  0
  151.1418  145.1012  160.8229 H   0  0  0  0  0  0  0  0  0  0  0  0
  152.6648  143.3447  160.9163 H   0  0  0  0  0  0  0  0  0  0  0  0
  153.4134  140.9828  160.8509 H   0  0  0  0  0  0  0  0  0  0  0  0
  150.8403  140.4900  156.2674 H   0  0  0  0  0  0  0  0  0  0  0  0
  152.4571  138.9203  154.0535 H   0  0  0  0  0  0  0  0  0  0  0  0
  150.0326  139.8943  155.1941 H   0  0  0  0  0  0  0  0  0  0  0  0
  150.2349  139.1936  153.5960 H   0  0  0  0  0  0  0  0  0  0  0  0
  149.4561  137.7679  156.1493 H   0  0  0  0  0  0  0  0  0  0  0  0
  148.6825  137.6388  154.5633 H   0  0  0  0  0  0  0  0  0  0  0  0
  150.6552  136.5198  153.6315 H   0  0  0  0  0  0  0  0  0  0  0  0
  149.4493  134.9098  155.1605 H   0  0  0  0  0  0  0  0  0  0  0  0
  150.4363  135.4626  156.5133 H   0  0  0  0  0  0  0  0  0  0  0  0
  151.1862  134.6137  155.1642 H   0  0  0  0  0  0  0  0  0  0  0  0
  151.0007  142.7490  156.9672 H   0  0  0  0  0  0  0  0  0  0  0  0
  1  2  1  0  0  0  0
  1 18  1  0  0  0  0
  1 19  1  0  0  0  0
  1 20  1  0  0  0  0
  2  3  1  0  0  0  0
  3 17  1  0  0  0  0
  3  4  2  0  0  0  0
  4  5  1  0  0  0  0
  4 21  1  0  0  0  0
  5  6  2  0  0  0  0
  5 22  1  0  0  0  0
  6  7  1  0  0  0  0
  7  8  1  0  0  0  0
  7 17  2  0  0  0  0
  8  9  1  0  0  0  0
  8 23  1  0  0  0  0
  9 10  2  0  0  0  0
  9 11  1  0  0  0  0
 11 16  1  0  0  0  0
 11 12  1  0  0  0  0
 11 24  1  0  0  0  0
 12 13  1  0  0  0  0
 12 25  1  0  0  0  0
 12 26  1  0  0  0  0
 13 14  1  0  0  0  0
 13 27  1  0  0  0  0
 13 28  1  0  0  0  0
 14 15  1  0  0  0  0
 14 16  1  0  0  0  0
 14 29  1  0  0  0  0
 15 30  1  0  0  0  0
 15 31  1  0  0  0  0
 15 32  1  0  0  0  0
 17 33  1  0  0  0  0
M  END
> <s_m_source_file>
AV-unprocessed.smi

> <i_m_source_file_index>
2489

> <i_lp_mmshare_version>
43012

> <i_f3d_flags>
0

> <s_epik_input>
W0NIM11PYzFbY0hdW2NIXW5jKFtjSF0xKVtOSF1DKD1PKVtDQEBIXTJbQ0gyXVtDSDJdW0NASF0oTzIpW0NIM10=

> <s_epik_cmdline>
J2VwaWtfcHl0aG9uJywgJy1waCcsICc3LjAnLCAnLXRuJywgJzgnLCAnLW1hJywgJzIwMCcsICctbWV0YWxfYmluZGluZycsICctaW1hZScsICc8aW5maWxlLm1hZT4nLCAnLW9tYWUnLCAnPG91dGZpbGUubWFlPic=

> <r_epik_Ionization_Penalty>
0.0871917

> <r_epik_Ionization_Penalty_Charging>
0

> <r_epik_Ionization_Penalty_Neutral>
0.0871917

> <r_epik_State_Penalty>
0.146479

> <r_epik_Charging_Adjusted_Penalty>
0.146479

> <i_epik_Tot_Q>
0

> <i_epik_Tot_abs_Q>
0

> <r_epik_Metal_State_Penalty>
0.067489

> <b_epik_Metal_Only>
0

> <s_lp_Force_Field>
OPLS_2005

> <r_lp_Energy>
22.1888

> <b_lp_Chiralities_Consistent>
1

> <s_lp_Variant>
AV-unprocessed.smi:2489-3

> <Gold.Version>
5.8.1

> <Gold.Id.Protein>
6NUR|6NUR_protein|mol2

> <Gold.PLP.Fitness>
38.7580

> <Gold.PLP.PLP>
-33.8120

> <Gold.PLP.part.hbond>
-1.7588

> <Gold.PLP.part.metal>
0.0000

> <Gold.PLP.part.buried>
-5.3364

> <Gold.PLP.part.nonpolar>
-27.9717

> <Gold.PLP.part.repulsive>
0.3094

> <Gold.PLP.ligand.clash>
0.0000

> <Gold.PLP.ligand.torsion>
0.4588

> <Gold.PLP.Chemscore.Hbond>
1.9516

> <Gold.PLP.Chemscore.CHOScore>
0.0000

> <Gold.PLP.Chemscore.Metal>
0.0000

> <Gold.Chemscore.Hbonds>
donor molecule, donor type, donor heavy atom, donor atom, acceptor molecule, acceptor atom, score
      P1  H  7997  8009       L1    10  0.71
      P1  H 10752 10765       L1    16  0.76

> <Gold.PLP.Chemscore.Internal.Correction>
0.0089

> <Gold.Rescore>
     Score         DG    S(hbond)    S(metal)    S(lipo)     H(rot)  DE(clash)    DE(int)     intcor
     14.98     -16.45       1.38        0.00      81.21       1.23       0.08       1.39       ----

> <Gold.Chemscore.Fitness>
14.9805

> <Gold.Chemscore.DG>
-16.4458

> <Gold.Chemscore.ZeroCoef>
-5.4800

> <Gold.Chemscore.Hbond>
1.3785

> <Gold.Chemscore.Metal>
0.0000

> <Gold.Chemscore.Lipo>
81.2066

> <Gold.Chemscore.Internal_Hbond>
0.0000

> <Gold.Chemscore.DEClash>
0.0766

> <Gold.Chemscore.DEInternal>
1.3887

> <Gold.Chemscore.Rot>
1.2264

> <Gold.Chemscore.Internal.Correction>
   9.000000E+99

> <Gold.Chemscore.Hbonds>
donor molecule, donor type, donor heavy atom, donor atom, acceptor molecule, acceptor atom, score
      P1  H  7997  8009       L1    10  0.40
      P1  H 10752 10765       L1    16  0.12

> <Gold.Chemscore.Hbond.Weighted>
-4.6042

> <Gold.Chemscore.Metal.Weighted>
-0.0000

> <Gold.Chemscore.Lipo.Weighted>
-9.5012

> <Gold.Chemscore.Internal_Hbond.Weighted>
0.0000

> <Gold.Chemscore.DEClash.Weighted>
0.0766

> <Gold.Chemscore.DEInternal.Weighted>
1.3887

> <Gold.Chemscore.Rot.Weighted>
3.1396

> <Gold.Chemscore.Internal.Correction.Weighted>
   9.000000E+99

> <Gold.Protein.RotatedTorsions>
[ 6907 6896 6895 6894 ] final -105.14 input  -60.11 | X-H torsion
[ 7974 7965 7964 7962 ] final  164.06 input  175.53 | X-H torsion
[ 8008 7997 7996 7995 ] final -179.97 input   59.86 | X-H torsion
[ 10167 10162 10161 10158 ] final   43.89 input  -65.29 | X-H torsion
[ 10718 10713 10712 10709 ] final   35.45 input   66.30 | X-H torsion
[ 10763 10752 10751 10750 ] final -167.34 input  -60.55 | X-H torsion
[ 11005 11000 10999 10996 ] final  -51.59 input  -57.11 | X-H torsion

> <Gold.Protein.ActiveResidues>
 VAL166  LYS551  ARG553  GLY616  TRP617  ASP618  TYR619  PRO620  LYS621  CYS622 
 ASP623  PHE694  ASN695  SER759  ASP760  ASP761  ALA762  ILE779  LEU786  VAL792 
 PHE793  MET794  SER795  GLU796  ALA797  LYS798  CYS799  TRP800  GLU811  SER814 

> <Gold.Protein.RotatedAtoms>
  150.7322  134.0172  159.3688 H   0  0  0  0  0  0  0  0  0  0  0  0  # atno 6907 bound_to 6896
  151.8134  135.0671  160.0425 H   0  0  0  0  0  0  0  0  0  0  0  0  # atno 6908 bound_to 6896
  152.3056  133.5663  159.5683 H   0  0  0  0  0  0  0  0  0  0  0  0  # atno 6909 bound_to 6896
  144.7562  139.8272  143.6349 H   0  0  0  0  0  0  0  0  0  0  0  0  # atno 7974 bound_to 7965
  156.0367  140.1294  157.0200 H   0  0  0  0  0  0  0  0  0  0  0  0  # atno 8008 bound_to 7997
  154.4373  140.1038  156.6248 H   0  0  0  0  0  0  0  0  0  0  0  0  # atno 8009 bound_to 7997
  155.5728  140.3467  155.4522 H   0  0  0  0  0  0  0  0  0  0  0  0  # atno 8010 bound_to 7997
  140.3398  144.2484  150.6157 H   0  0  0  0  0  0  0  0  0  0  0  0  # atno 10167 bound_to 10162
  157.3229  130.7457  149.6796 H   0  0  0  0  0  0  0  0  0  0  0  0  # atno 10718 bound_to 10713
  154.6742  135.2944  154.9701 H   0  0  0  0  0  0  0  0  0  0  0  0  # atno 10763 bound_to 10752
  154.0718  135.6617  153.4829 H   0  0  0  0  0  0  0  0  0  0  0  0  # atno 10764 bound_to 10752
  153.0505  135.5176  154.7752 H   0  0  0  0  0  0  0  0  0  0  0  0  # atno 10765 bound_to 10752
  141.0879  133.6638  156.3900 H   0  0  0  0  0  0  0  0  0  0  0  0  # atno 11005 bound_to 11000
  146.1574  139.4676  143.0010 LP  0  0  0  0  0  0  0  0  0  0  0  0  # atno 17320 bound_to 7965
  145.6773  141.0200  143.1625 LP  0  0  0  0  0  0  0  0  0  0  0  0  # atno 17321 bound_to 7965
  140.5320  143.2241  151.8224 LP  0  0  0  0  0  0  0  0  0  0  0  0  # atno 17342 bound_to 10162
  139.4842  144.4709  151.9426 LP  0  0  0  0  0  0  0  0  0  0  0  0  # atno 17343 bound_to 10162
  155.9687  130.4218  150.4485 LP  0  0  0  0  0  0  0  0  0  0  0  0  # atno 17370 bound_to 10713
  157.2504  131.0545  151.2383 LP  0  0  0  0  0  0  0  0  0  0  0  0  # atno 17371 bound_to 10713
  140.5320  134.6204  157.5353 LP  0  0  0  0  0  0  0  0  0  0  0  0  # atno 17394 bound_to 11000
  139.9700  134.7308  156.0060 LP  0  0  0  0  0  0  0  0  0  0  0  0  # atno 17395 bound_to 11000

$$$$
