AV-unprocessed.smi:290|AV-procd|sdf|2231|dock3
  -GOLD-   2262022 93D 1   1.00000     0.00000
 Structure written by MMmdl.
 59 62  0  0  0  0  0  0  0  0  2 V2000
  134.8072  141.6300  156.3401 C   0  0  0  0  0  0  0  0  0  0  0  0
  134.8574  141.0142  154.9368 C   0  0  2  0  0  0  0  0  0  0  0  0
  133.6510  140.2943  154.7160 O   0  0  0  0  0  0  0  0  0  0  0  0
  133.8785  139.3992  153.6454 C   0  0  0  0  0  0  0  0  0  0  0  0
  135.2404  138.8253  154.0034 C   0  0  0  0  0  0  0  0  0  0  0  0
  136.0035  140.0109  154.6017 C   0  0  1  0  0  0  0  0  0  0  0  0
  136.7775  140.5786  153.5601 O   0  0  0  0  0  0  0  0  0  0  0  0
  136.9328  139.5223  155.7535 C   0  0  0  0  0  0  0  0  0  0  0  0
  137.9432  138.5352  155.3899 N   0  0  0  0  0  0  0  0  0  0  0  0
  137.8948  137.1793  155.6168 C   0  0  0  0  0  0  0  0  0  0  0  0
  138.9188  136.5035  155.1751 N   0  0  0  0  0  0  0  0  0  0  0  0
  139.7211  137.4523  154.5506 C   0  0  0  0  0  0  0  0  0  0  0  0
  140.9655  137.4159  153.8492 C   0  0  0  0  0  0  0  0  0  0  0  0
  141.7130  136.3038  153.6147 N   0  0  0  0  0  0  0  0  0  0  0  0
  141.1718  134.9870  153.9091 C   0  0  0  0  0  0  0  0  0  0  0  0
  141.7343  134.0800  152.8231 C   0  0  0  0  0  0  0  0  0  0  0  0
  143.0880  134.7140  152.4653 C   0  0  1  0  0  0  0  0  0  0  0  0
  143.5427  134.3136  151.0983 N   0  3  1  0  0  0  0  0  0  0  0  0
  144.5419  135.2232  150.4858 C   0  0  0  0  0  0  0  0  0  0  0  0
  143.9879  132.8951  151.0256 C   0  0  0  0  0  0  0  0  0  0  0  0
  144.1341  132.4143  149.5726 C   0  0  0  0  0  0  0  0  0  0  0  0
  142.8577  132.2435  148.9930 O   0  0  0  0  0  0  0  0  0  0  0  0
  142.8098  136.2290  152.6533 C   0  0  2  0  0  0  0  0  0  0  0  0
  144.0317  137.0138  153.1796 C   0  0  0  0  0  0  0  0  0  0  0  0
  141.4395  138.5948  153.3673 N   0  0  0  0  0  0  0  0  0  0  0  0
  140.7546  139.7274  153.5418 C   0  0  0  0  0  0  0  0  0  0  0  0
  139.5913  139.9081  154.1659 N   0  0  0  0  0  0  0  0  0  0  0  0
  139.1107  138.7357  154.6700 C   0  0  0  0  0  0  0  0  0  0  0  0
  143.8293  134.3935  153.1997 H   0  0  0  0  0  0  0  0  0  0  0  0
  142.4597  136.6405  151.7074 H   0  0  0  0  0  0  0  0  0  0  0  0
  135.6520  142.2965  156.5044 H   0  0  0  0  0  0  0  0  0  0  0  0
  134.7958  140.8699  157.1207 H   0  0  0  0  0  0  0  0  0  0  0  0
  133.9048  142.2299  156.4592 H   0  0  0  0  0  0  0  0  0  0  0  0
  134.8580  141.8334  154.2147 H   0  0  0  0  0  0  0  0  0  0  0  0
  133.1014  138.6375  153.5812 H   0  0  0  0  0  0  0  0  0  0  0  0
  133.9137  139.9442  152.7007 H   0  0  0  0  0  0  0  0  0  0  0  0
  135.0973  138.0505  154.7581 H   0  0  0  0  0  0  0  0  0  0  0  0
  135.7412  138.3594  153.1534 H   0  0  0  0  0  0  0  0  0  0  0  0
  137.5731  140.9276  153.9327 H   0  0  0  0  0  0  0  0  0  0  0  0
  137.4228  140.3672  156.2377 H   0  0  0  0  0  0  0  0  0  0  0  0
  136.3198  139.0633  156.5306 H   0  0  0  0  0  0  0  0  0  0  0  0
  137.0723  136.6992  156.1262 H   0  0  0  0  0  0  0  0  0  0  0  0
  141.5204  134.6759  154.8945 H   0  0  0  0  0  0  0  0  0  0  0  0
  140.0812  134.9665  153.9085 H   0  0  0  0  0  0  0  0  0  0  0  0
  141.8079  133.0468  153.1618 H   0  0  0  0  0  0  0  0  0  0  0  0
  141.0702  134.1023  151.9574 H   0  0  0  0  0  0  0  0  0  0  0  0
  145.4328  135.3007  151.1101 H   0  0  0  0  0  0  0  0  0  0  0  0
  144.1319  136.2203  150.3302 H   0  0  0  0  0  0  0  0  0  0  0  0
  144.8544  134.8642  149.5057 H   0  0  0  0  0  0  0  0  0  0  0  0
  144.9342  132.7837  151.5569 H   0  0  0  0  0  0  0  0  0  0  0  0
  143.2930  132.2280  151.5341 H   0  0  0  0  0  0  0  0  0  0  0  0
  144.7220  133.1051  148.9689 H   0  0  0  0  0  0  0  0  0  0  0  0
  144.6509  131.4544  149.5510 H   0  0  0  0  0  0  0  0  0  0  0  0
  142.3099  132.9708  149.2488 H   0  0  0  0  0  0  0  0  0  0  0  0
  144.8656  137.0074  152.4814 H   0  0  0  0  0  0  0  0  0  0  0  0
  144.3901  136.5940  154.1199 H   0  0  0  0  0  0  0  0  0  0  0  0
  143.7898  138.0591  153.3687 H   0  0  0  0  0  0  0  0  0  0  0  0
  141.2027  140.6150  153.1198 H   0  0  0  0  0  0  0  0  0  0  0  0
  142.7179  134.3705  150.5174 H   0  0  0  0  0  0  0  0  0  0  0  0
  1  2  1  0  0  0  0
  1 31  1  0  0  0  0
  1 32  1  0  0  0  0
  1 33  1  0  0  0  0
  2  6  1  0  0  0  0
  2  3  1  0  0  0  0
  2 34  1  0  0  0  0
  3  4  1  0  0  0  0
  4  5  1  0  0  0  0
  4 35  1  0  0  0  0
  4 36  1  0  0  0  0
  5  6  1  0  0  0  0
  5 37  1  0  0  0  0
  5 38  1  0  0  0  0
  6  7  1  0  0  0  0
  6  8  1  0  0  0  0
  7 39  1  0  0  0  0
  8  9  1  0  0  0  0
  8 40  1  0  0  0  0
  8 41  1  0  0  0  0
  9 28  1  0  0  0  0
  9 10  1  0  0  0  0
 10 11  2  0  0  0  0
 10 42  1  0  0  0  0
 11 12  1  0  0  0  0
 12 28  2  0  0  0  0
 12 13  1  0  0  0  0
 13 14  1  0  0  0  0
 13 25  2  0  0  0  0
 14 23  1  0  0  0  0
 14 15  1  0  0  0  0
 15 16  1  0  0  0  0
 15 43  1  0  0  0  0
 15 44  1  0  0  0  0
 16 17  1  0  0  0  0
 16 45  1  0  0  0  0
 16 46  1  0  0  0  0
 17 29  1  0  0  0  0
 17 18  1  0  0  0  0
 17 23  1  0  0  0  0
 18 19  1  0  0  0  0
 18 20  1  0  0  0  0
 18 59  1  0  0  0  0
 19 47  1  0  0  0  0
 19 48  1  0  0  0  0
 19 49  1  0  0  0  0
 20 21  1  0  0  0  0
 20 50  1  0  0  0  0
 20 51  1  0  0  0  0
 21 22  1  0  0  0  0
 21 52  1  0  0  0  0
 21 53  1  0  0  0  0
 22 54  1  0  0  0  0
 23 30  1  0  0  0  0
 23 24  1  0  0  0  0
 24 55  1  0  0  0  0
 24 56  1  0  0  0  0
 24 57  1  0  0  0  0
 25 26  1  0  0  0  0
 26 27  2  0  0  0  0
 26 58  1  0  0  0  0
 27 28  1  0  0  0  0
M  CHG  1  18   1
M  END
> <s_m_source_file>
AV-unprocessed.smi

> <i_m_source_file_index>
290

> <i_lp_mmshare_version>
43012

> <i_f3d_flags>
0

> <s_epik_input>
W0NIMl0xW0NIMl1PW0NAQEhdKFtDSDNdKVtDQEBdMShbT0hdKVtDSDJdbihbY0hdbjIpYyhjMjMpbltjSF1uYzNONFtDSDJdW0NIMl1bQ0BIXShbQ0BIXTRbQ0gzXSlOKFtDSDNdKVtDSDJdW0NIMl1bT0hd

> <s_epik_cmdline>
J2VwaWtfcHl0aG9uJywgJy1waCcsICc3LjAnLCAnLXRuJywgJzgnLCAnLW1hJywgJzIwMCcsICctbWV0YWxfYmluZGluZycsICctaW1hZScsICc8aW5maWxlLm1hZT4nLCAnLW9tYWUnLCAnPG91dGZpbGUubWFlPic=

> <r_lp_tautomer_probability>
1

> <r_epik_Ionization_Penalty>
0.0036983

> <r_epik_Ionization_Penalty_Charging>
0.0032725

> <r_epik_Ionization_Penalty_Neutral>
0.000425798

> <r_epik_State_Penalty>
-0

> <r_epik_Charging_Adjusted_Penalty>
0.0032725

> <i_epik_Tot_Q>
1

> <i_epik_Tot_abs_Q>
1

> <r_epik_Metal_State_Penalty>
-0

> <b_epik_Metal_Only>
0

> <s_lp_Force_Field>
OPLS_2005

> <r_lp_Energy>
63.0436

> <b_lp_Chiralities_Consistent>
1

> <s_lp_Variant>
AV-unprocessed.smi:290-17

> <Gold.Version>
5.8.1

> <Gold.Id.Protein>
6NUR|6NUR_protein|mol2

> <Gold.PLP.Fitness>
54.5653

> <Gold.PLP.PLP>
-38.8163

> <Gold.PLP.part.hbond>
-5.0000

> <Gold.PLP.part.metal>
0.0000

> <Gold.PLP.part.buried>
-2.0441

> <Gold.PLP.part.nonpolar>
-34.0812

> <Gold.PLP.part.repulsive>
0.4800

> <Gold.PLP.ligand.clash>
0.0000

> <Gold.PLP.ligand.torsion>
0.5969

> <Gold.PLP.Chemscore.Hbond>
4.7713

> <Gold.PLP.Chemscore.CHOScore>
0.7579

> <Gold.PLP.Chemscore.Metal>
0.0000

> <Gold.Chemscore.Hbonds>
donor molecule, donor type, donor heavy atom, donor atom, acceptor molecule, acceptor atom, score
      L1  H    18    59       P1 10186  2.00
      L1  H    22    54       P1 10186  1.00
      P1  H 10785 10796       L1    22  0.44
      P1  H 11000 11005       L1    11  0.68
      L1  C    26    58       P1 10160  0.46
      L1  C    26    58       P1 10174  0.07
      L1  C    26    58       P1 10175  0.14

> <Gold.PLP.Chemscore.Internal.Correction>
0.3554

> <Gold.Rescore>
     Score         DG    S(hbond)    S(metal)    S(lipo)     H(rot)  DE(clash)    DE(int)     intcor
     12.13     -15.81       2.76        0.00      82.90       3.35       0.29       3.39       ----

> <Gold.Chemscore.Fitness>
12.1305

> <Gold.Chemscore.DG>
-15.8052

> <Gold.Chemscore.ZeroCoef>
-5.4800

> <Gold.Chemscore.Hbond>
2.7564

> <Gold.Chemscore.Metal>
0.0000

> <Gold.Chemscore.Lipo>
82.8991

> <Gold.Chemscore.Internal_Hbond>
0.0000

> <Gold.Chemscore.DEClash>
0.2889

> <Gold.Chemscore.DEInternal>
3.3858

> <Gold.Chemscore.Rot>
3.3518

> <Gold.Chemscore.Internal.Correction>
   9.000000E+99

> <Gold.Chemscore.Hbonds>
donor molecule, donor type, donor heavy atom, donor atom, acceptor molecule, acceptor atom, score
      L1  H    18    59       P1 10186  0.54
      L1  H    22    54       P1 10186  0.98
      P1  H 10785 10796       L1    22  0.03
      P1  H 11000 11005       L1    11  0.66

> <Gold.Chemscore.Hbond.Weighted>
-9.2065

> <Gold.Chemscore.Metal.Weighted>
-0.0000

> <Gold.Chemscore.Lipo.Weighted>
-9.6992

> <Gold.Chemscore.Internal_Hbond.Weighted>
0.0000

> <Gold.Chemscore.DEClash.Weighted>
0.2889

> <Gold.Chemscore.DEInternal.Weighted>
3.3858

> <Gold.Chemscore.Rot.Weighted>
8.5806

> <Gold.Chemscore.Internal.Correction.Weighted>
   9.000000E+99

> <Gold.Protein.RotatedTorsions>
[ 6907 6896 6895 6894 ] final   76.25 input  -60.11 | X-H torsion
[ 7974 7965 7964 7962 ] final  159.97 input  175.53 | X-H torsion
[ 8008 7997 7996 7995 ] final  -98.69 input   59.86 | X-H torsion
[ 10167 10162 10161 10158 ] final   -3.36 input  -65.29 | X-H torsion
[ 10718 10713 10712 10709 ] final   27.52 input   66.30 | X-H torsion
[ 10763 10752 10751 10750 ] final  -75.77 input  -60.55 | X-H torsion
[ 11005 11000 10999 10996 ] final   81.11 input  -57.11 | X-H torsion

> <Gold.Protein.ActiveResidues>
 VAL166  LYS551  ARG553  GLY616  TRP617  ASP618  TYR619  PRO620  LYS621  CYS622 
 ASP623  PHE694  ASN695  SER759  ASP760  ASP761  ALA762  ILE779  LEU786  VAL792 
 PHE793  MET794  SER795  GLU796  ALA797  LYS798  CYS799  TRP800  GLU811  SER814 

> <Gold.Protein.RotatedAtoms>
  152.5064  134.3997  159.9411 H   0  0  0  0  0  0  0  0  0  0  0  0  # atno 6907 bound_to 6896
  151.3960  133.3767  159.2734 H   0  0  0  0  0  0  0  0  0  0  0  0  # atno 6908 bound_to 6896
  150.9397  134.8828  159.7663 H   0  0  0  0  0  0  0  0  0  0  0  0  # atno 6909 bound_to 6896
  144.7762  139.7692  143.6278 H   0  0  0  0  0  0  0  0  0  0  0  0  # atno 7974 bound_to 7965
  154.8046  140.0453  157.1298 H   0  0  0  0  0  0  0  0  0  0  0  0  # atno 8008 bound_to 7997
  154.9439  140.3056  155.5087 H   0  0  0  0  0  0  0  0  0  0  0  0  # atno 8009 bound_to 7997
  156.2965  140.2300  156.4510 H   0  0  0  0  0  0  0  0  0  0  0  0  # atno 8010 bound_to 7997
  140.6887  143.6549  150.8317 H   0  0  0  0  0  0  0  0  0  0  0  0  # atno 10167 bound_to 10162
  157.2213  130.6980  149.6271 H   0  0  0  0  0  0  0  0  0  0  0  0  # atno 10718 bound_to 10713
  154.4910  135.5820  153.6459 H   0  0  0  0  0  0  0  0  0  0  0  0  # atno 10763 bound_to 10752
  152.9862  135.6112  154.3125 H   0  0  0  0  0  0  0  0  0  0  0  0  # atno 10764 bound_to 10752
  154.3025  135.2846  155.2584 H   0  0  0  0  0  0  0  0  0  0  0  0  # atno 10765 bound_to 10752
  139.9110  134.7972  156.1998 H   0  0  0  0  0  0  0  0  0  0  0  0  # atno 11005 bound_to 11000
  146.1942  139.5199  142.9785 LP  0  0  0  0  0  0  0  0  0  0  0  0  # atno 17320 bound_to 7965
  145.6181  141.0327  143.1930 LP  0  0  0  0  0  0  0  0  0  0  0  0  # atno 17321 bound_to 7965
  140.0259  143.5493  152.2780 LP  0  0  0  0  0  0  0  0  0  0  0  0  # atno 17342 bound_to 10162
  139.6269  144.7638  151.2620 LP  0  0  0  0  0  0  0  0  0  0  0  0  # atno 17343 bound_to 10162
  155.9682  130.4519  150.5752 LP  0  0  0  0  0  0  0  0  0  0  0  0  # atno 17370 bound_to 10713
  157.3573  131.0744  151.1665 LP  0  0  0  0  0  0  0  0  0  0  0  0  # atno 17371 bound_to 10713
  141.0532  133.6878  156.1810 LP  0  0  0  0  0  0  0  0  0  0  0  0  # atno 17394 bound_to 11000
  140.6778  134.4799  157.5588 LP  0  0  0  0  0  0  0  0  0  0  0  0  # atno 17395 bound_to 11000

$$$$
