AV-unprocessed.smi:465|AV-procd|sdf|2640|dock4
  -GOLD-   2262023 53D 1   1.00000     0.00000
 Structure written by MMmdl.
 43 45  0  0  0  0  0  0  0  0  2 V2000
  154.4792  136.7044  164.0833 C   0  0  0  0  0  0  0  0  0  0  0  0
  154.3396  137.5588  162.8403 C   0  0  0  0  0  0  0  0  0  0  0  0
  154.8980  138.8513  162.8063 C   0  0  0  0  0  0  0  0  0  0  0  0
  154.7651  139.6480  161.6529 C   0  0  0  0  0  0  0  0  0  0  0  0
  154.0753  139.1701  160.5196 C   0  0  0  0  0  0  0  0  0  0  0  0
  153.9891  140.0166  159.4356 O   0  0  0  0  0  0  0  0  0  0  0  0
  153.3212  139.5527  158.2694 C   0  0  0  0  0  0  0  0  0  0  0  0
  151.8103  139.7594  158.4386 C   0  0  0  0  0  0  0  0  0  0  0  0
  151.3645  141.0618  157.9182 N   0  0  0  0  0  0  0  0  0  0  0  0
  150.5851  141.3728  156.8399 C   0  0  0  0  0  0  0  0  0  0  0  0
  149.9676  140.4267  155.8582 C   0  0  0  0  0  0  0  0  0  0  0  0
  149.0692  141.1641  154.8549 C   0  0  0  0  0  0  0  0  0  0  0  0
  149.6264  141.0835  153.5612 O   0  0  0  0  0  0  0  0  0  0  0  0
  150.4657  142.7309  156.8101 N   0  3  0  0  0  0  0  0  0  0  0  0
  151.1918  143.2951  157.8587 C   0  0  0  0  0  0  0  0  0  0  0  0
  151.3781  144.6244  158.2256 C   0  0  0  0  0  0  0  0  0  0  0  0
  152.1925  144.8615  159.3523 C   0  0  0  0  0  0  0  0  0  0  0  0
  152.7852  143.7997  160.0658 C   0  0  0  0  0  0  0  0  0  0  0  0
  152.5868  142.4560  159.6852 C   0  0  0  0  0  0  0  0  0  0  0  0
  151.7779  142.2294  158.5714 C   0  0  0  0  0  0  0  0  0  0  0  0
  153.5164  137.8678  160.5601 C   0  0  0  0  0  0  0  0  0  0  0  0
  153.6477  137.0705  161.7139 C   0  0  0  0  0  0  0  0  0  0  0  0
  155.4610  136.8428  164.5373 H   0  0  0  0  0  0  0  0  0  0  0  0
  154.3618  135.6461  163.8481 H   0  0  0  0  0  0  0  0  0  0  0  0
  153.7199  136.9800  164.8155 H   0  0  0  0  0  0  0  0  0  0  0  0
  155.4304  139.2355  163.6642 H   0  0  0  0  0  0  0  0  0  0  0  0
  155.2021  140.6356  161.6382 H   0  0  0  0  0  0  0  0  0  0  0  0
  153.6673  140.1061  157.3950 H   0  0  0  0  0  0  0  0  0  0  0  0
  153.5297  138.4944  158.1044 H   0  0  0  0  0  0  0  0  0  0  0  0
  151.2594  138.9777  157.9160 H   0  0  0  0  0  0  0  0  0  0  0  0
  151.5223  139.6771  159.4866 H   0  0  0  0  0  0  0  0  0  0  0  0
  150.7490  139.8862  155.3247 H   0  0  0  0  0  0  0  0  0  0  0  0
  149.3900  139.6811  156.4056 H   0  0  0  0  0  0  0  0  0  0  0  0
  148.0682  140.7321  154.8375 H   0  0  0  0  0  0  0  0  0  0  0  0
  148.9652  142.2135  155.1307 H   0  0  0  0  0  0  0  0  0  0  0  0
  149.2407  140.3468  153.1117 H   0  0  0  0  0  0  0  0  0  0  0  0
  150.9272  145.4393  157.6786 H   0  0  0  0  0  0  0  0  0  0  0  0
  152.3678  145.8779  159.6744 H   0  0  0  0  0  0  0  0  0  0  0  0
  153.4052  144.0202  160.9227 H   0  0  0  0  0  0  0  0  0  0  0  0
  153.0491  141.6519  160.2381 H   0  0  0  0  0  0  0  0  0  0  0  0
  152.9796  137.4565  159.7191 H   0  0  0  0  0  0  0  0  0  0  0  0
  153.2141  136.0811  161.7298 H   0  0  0  0  0  0  0  0  0  0  0  0
  149.9311  143.2340  156.1136 H   0  0  0  0  0  0  0  0  0  0  0  0
  1  2  1  0  0  0  0
  1 23  1  0  0  0  0
  1 24  1  0  0  0  0
  1 25  1  0  0  0  0
  2 22  1  0  0  0  0
  2  3  2  0  0  0  0
  3  4  1  0  0  0  0
  3 26  1  0  0  0  0
  4  5  2  0  0  0  0
  4 27  1  0  0  0  0
  5  6  1  0  0  0  0
  5 21  1  0  0  0  0
  6  7  1  0  0  0  0
  7  8  1  0  0  0  0
  7 28  1  0  0  0  0
  7 29  1  0  0  0  0
  8  9  1  0  0  0  0
  8 30  1  0  0  0  0
  8 31  1  0  0  0  0
  9 20  1  0  0  0  0
  9 10  1  0  0  0  0
 10 11  1  0  0  0  0
 10 14  2  0  0  0  0
 11 12  1  0  0  0  0
 11 32  1  0  0  0  0
 11 33  1  0  0  0  0
 12 13  1  0  0  0  0
 12 34  1  0  0  0  0
 12 35  1  0  0  0  0
 13 36  1  0  0  0  0
 14 15  1  0  0  0  0
 14 43  1  0  0  0  0
 15 20  2  0  0  0  0
 15 16  1  0  0  0  0
 16 17  2  0  0  0  0
 16 37  1  0  0  0  0
 17 18  1  0  0  0  0
 17 38  1  0  0  0  0
 18 19  2  0  0  0  0
 18 39  1  0  0  0  0
 19 20  1  0  0  0  0
 19 40  1  0  0  0  0
 21 22  2  0  0  0  0
 21 41  1  0  0  0  0
 22 42  1  0  0  0  0
M  CHG  1  14   1
M  END
> <s_m_source_file>
AV-unprocessed.smi

> <i_m_source_file_index>
465

> <i_lp_mmshare_version>
43012

> <i_f3d_flags>
0

> <s_epik_input>
W0NIM11jMVtjSF1bY0hdYyhbY0hdW2NIXTEpT1tDSDJdW0NIMl1uKGMobjIpW0NIMl1bQ0gyXVtPSF0pYyhjMjMpW2NIXVtjSF1bY0hdW2NIXTM=

> <s_epik_cmdline>
J2VwaWtfcHl0aG9uJywgJy1waCcsICc3LjAnLCAnLXRuJywgJzgnLCAnLW1hJywgJzIwMCcsICctbWV0YWxfYmluZGluZycsICctaW1hZScsICc8aW5maWxlLm1hZT4nLCAnLW9tYWUnLCAnPG91dGZpbGUubWFlPic=

> <r_lp_tautomer_probability>
1

> <r_epik_Ionization_Penalty>
0.721766

> <r_epik_Ionization_Penalty_Charging>
0.721766

> <r_epik_Ionization_Penalty_Neutral>
5.89567e-08

> <r_epik_State_Penalty>
0.746256

> <r_epik_Charging_Adjusted_Penalty>
1.46802

> <i_epik_Tot_Q>
1

> <i_epik_Tot_abs_Q>
1

> <r_epik_Metal_State_Penalty>
4.64148

> <b_epik_Metal_Only>
0

> <s_lp_Force_Field>
OPLS_2005

> <r_lp_Energy>
20.4807

> <b_lp_Chiralities_Consistent>
1

> <s_lp_Variant>
AV-unprocessed.smi:465-2

> <Gold.Version>
5.8.1

> <Gold.Id.Protein>
6NUR|6NUR_protein|mol2

> <Gold.PLP.Fitness>
59.4470

> <Gold.PLP.PLP>
-50.0122

> <Gold.PLP.part.hbond>
-4.2032

> <Gold.PLP.part.metal>
0.0000

> <Gold.PLP.part.buried>
-3.1023

> <Gold.PLP.part.nonpolar>
-42.2628

> <Gold.PLP.part.repulsive>
0.0383

> <Gold.PLP.ligand.clash>
0.0000

> <Gold.PLP.ligand.torsion>
0.7706

> <Gold.PLP.Chemscore.Hbond>
3.6400

> <Gold.PLP.Chemscore.CHOScore>
0.0000

> <Gold.PLP.Chemscore.Metal>
0.0000

> <Gold.Chemscore.Hbonds>
donor molecule, donor type, donor heavy atom, donor atom, acceptor molecule, acceptor atom, score
      L1  H    13    36       P1  7957  0.40
      L1  H    14    43       P1  8028  1.95
      P1  H  7989  7998       L1    13  0.26
      P1  H  8011  8017       L1    13  1.00

> <Gold.PLP.Chemscore.Internal.Correction>
0.0560

> <Gold.Rescore>
     Score         DG    S(hbond)    S(metal)    S(lipo)     H(rot)  DE(clash)    DE(int)     intcor
     21.09     -23.70       2.18        0.00     145.36       2.36       0.53       2.09       ----

> <Gold.Chemscore.Fitness>
21.0879

> <Gold.Chemscore.DG>
-23.7034

> <Gold.Chemscore.ZeroCoef>
-5.4800

> <Gold.Chemscore.Hbond>
2.1766

> <Gold.Chemscore.Metal>
0.0000

> <Gold.Chemscore.Lipo>
145.3635

> <Gold.Chemscore.Internal_Hbond>
0.0000

> <Gold.Chemscore.DEClash>
0.5285

> <Gold.Chemscore.DEInternal>
2.0870

> <Gold.Chemscore.Rot>
2.3648

> <Gold.Chemscore.Internal.Correction>
   9.000000E+99

> <Gold.Chemscore.Hbonds>
donor molecule, donor type, donor heavy atom, donor atom, acceptor molecule, acceptor atom, score
      L1  H    13    36       P1  7957  0.38
      L1  H    14    43       P1  8028  0.93
      P1  H  7989  7998       L1    13  0.16
      P1  H  8011  8017       L1    13  0.57

> <Gold.Chemscore.Hbond.Weighted>
-7.2699

> <Gold.Chemscore.Metal.Weighted>
-0.0000

> <Gold.Chemscore.Lipo.Weighted>
-17.0075

> <Gold.Chemscore.Internal_Hbond.Weighted>
0.0000

> <Gold.Chemscore.DEClash.Weighted>
0.5285

> <Gold.Chemscore.DEInternal.Weighted>
2.0870

> <Gold.Chemscore.Rot.Weighted>
6.0540

> <Gold.Chemscore.Internal.Correction.Weighted>
   9.000000E+99

> <Gold.Protein.RotatedTorsions>
[ 6907 6896 6895 6894 ] final -137.34 input  -60.11 | X-H torsion
[ 7974 7965 7964 7962 ] final  124.65 input  175.53 | X-H torsion
[ 8008 7997 7996 7995 ] final  -79.16 input   59.86 | X-H torsion
[ 10167 10162 10161 10158 ] final  -86.75 input  -65.29 | X-H torsion
[ 10718 10713 10712 10709 ] final   53.67 input   66.30 | X-H torsion
[ 10763 10752 10751 10750 ] final    3.15 input  -60.55 | X-H torsion
[ 11005 11000 10999 10996 ] final  -94.99 input  -57.11 | X-H torsion

> <Gold.Protein.ActiveResidues>
 VAL166  LYS551  ARG553  GLY616  TRP617  ASP618  TYR619  PRO620  LYS621  CYS622 
 ASP623  PHE694  ASN695  SER759  ASP760  ASP761  ALA762  ILE779  LEU786  VAL792 
 PHE793  MET794  SER795  GLU796  ALA797  LYS798  CYS799  TRP800  GLU811  SER814 

> <Gold.Protein.RotatedAtoms>
  151.0212  133.5875  159.2670 H   0  0  0  0  0  0  0  0  0  0  0  0  # atno 6907 bound_to 6896
  151.2990  135.0762  159.9241 H   0  0  0  0  0  0  0  0  0  0  0  0  # atno 6908 bound_to 6896
  152.5323  133.9897  159.7899 H   0  0  0  0  0  0  0  0  0  0  0  0  # atno 6909 bound_to 6896
  145.0820  139.3650  143.4904 H   0  0  0  0  0  0  0  0  0  0  0  0  # atno 7974 bound_to 7965
  154.5758  140.0683  156.9032 H   0  0  0  0  0  0  0  0  0  0  0  0  # atno 8008 bound_to 7997
  155.2551  140.3354  155.4260 H   0  0  0  0  0  0  0  0  0  0  0  0  # atno 8009 bound_to 7997
  156.2153  140.1776  156.7588 H   0  0  0  0  0  0  0  0  0  0  0  0  # atno 8010 bound_to 7997
  140.3912  143.2704  151.9262 H   0  0  0  0  0  0  0  0  0  0  0  0  # atno 10167 bound_to 10162
  157.5188  130.8550  149.8531 H   0  0  0  0  0  0  0  0  0  0  0  0  # atno 10718 bound_to 10713
  153.2869  135.6945  153.7331 H   0  0  0  0  0  0  0  0  0  0  0  0  # atno 10763 bound_to 10752
  153.6297  135.3412  155.3038 H   0  0  0  0  0  0  0  0  0  0  0  0  # atno 10764 bound_to 10752
  154.8512  135.4406  154.1939 H   0  0  0  0  0  0  0  0  0  0  0  0  # atno 10765 bound_to 10752
  141.1455  133.7995  157.0374 H   0  0  0  0  0  0  0  0  0  0  0  0  # atno 11005 bound_to 11000
  146.3531  140.0615  142.8629 LP  0  0  0  0  0  0  0  0  0  0  0  0  # atno 17320 bound_to 7965
  145.1167  140.9438  143.4624 LP  0  0  0  0  0  0  0  0  0  0  0  0  # atno 17321 bound_to 7965
  139.4789  144.5726  151.8064 LP  0  0  0  0  0  0  0  0  0  0  0  0  # atno 17342 bound_to 10162
  140.4838  144.1411  150.5937 LP  0  0  0  0  0  0  0  0  0  0  0  0  # atno 17343 bound_to 10162
  156.0339  130.3757  150.1614 LP  0  0  0  0  0  0  0  0  0  0  0  0  # atno 17370 bound_to 10713
  156.9802  130.9862  151.3439 LP  0  0  0  0  0  0  0  0  0  0  0  0  # atno 17371 bound_to 10713
  140.0714  134.9700  157.1474 LP  0  0  0  0  0  0  0  0  0  0  0  0  # atno 17394 bound_to 11000
  140.3705  134.2396  155.7178 LP  0  0  0  0  0  0  0  0  0  0  0  0  # atno 17395 bound_to 11000

$$$$
