#       Name:                AV-unprocessed.smi:645
#       Creating user name   scv26
#       Creation time:       Fri Mar 27 00:08:43 2020


#       File generated by GOLD software.
#

@<TRIPOS>MOLECULE
AV-unprocessed.smi:645
    28    29     1
SMALL
NO_CHARGES


@<TRIPOS>ATOM
      1 ****        -1.9960  -0.4845   0.7348 C.3            1 S1                 0.0000
      2 ****        -0.4555  -0.5018   0.6251 C.3            1 S1                 0.0000
      3 ****         0.0356   0.2339  -0.6375 C.ar           1 S1                 0.0000
      4 ****         0.9318  -0.3586  -1.5623 C.ar           1 S1                 0.0000
      5 ****         1.3342   0.3765  -2.6947 C.ar           1 S1                 0.0000
      6 ****         0.9116   1.6306  -2.9568 N.ar           1 S1                 0.0000
      7 ****         0.0593   2.1982  -2.0789 C.ar           1 S1                 0.0000
      8 ****        -0.4039   1.5499  -0.9176 C.ar           1 S1                 0.0000
      9 ****         0.0033  -1.8828   0.7257 N.pl3          1 S1                -1.0000
     10 ****         0.8066  -2.0036   1.8084 C.2            1 S1                 0.0000
     11 ****         1.3913  -3.0098   2.2029 O.2            1 S1                 0.0000
     12 ****         0.9043  -0.8384   2.4539 N.am           1 S1                 0.0000
     13 ****         0.1871   0.1129   1.8641 C.2            1 S1                 0.0000
     14 ****         0.0500   1.2766   2.2416 O.2            1 S1                 0.0000
     15 ****        -2.3936   0.5283   0.7973 H              1 S1                 0.0000
     16 ****        -2.3420  -1.0161   1.6229 H              1 S1                 0.0000
     17 ****        -2.4547  -0.9637  -0.1308 H              1 S1                 0.0000
     18 ****         1.3156  -1.3580  -1.4225 H              1 S1                 0.0000
     19 ****         2.0166  -0.0565  -3.4111 H              1 S1                 0.0000
     20 ****        -0.2636   3.2030  -2.3076 H              1 S1                 0.0000
     21 ****        -1.0804   2.0651  -0.2523 H              1 S1                 0.0000
     22 ****         1.4430  -0.7022   3.2960 H              1 S1                 0.0000
     23 ****         1.2189   2.1214  -3.7721 LP             1 S1                 0.0000
     24 ****        -0.2370  -2.6215   0.0960 LP             1 S1                 0.0000
     25 ****         1.2982  -3.8706   1.7026 LP             1 S1                 0.0000
     26 ****         1.9601  -2.9678   3.0242 LP             1 S1                 0.0000
     27 ****        -0.5242   1.9073   1.7194 LP             1 S1                 0.0000
     28 ****         0.5127   1.5913   3.0703 LP             1 S1                 0.0000
@<TRIPOS>BOND
    1    1    2 1     
    2    1   15 1     
    3    1   16 1     
    4    1   17 1     
    5    2   13 1     
    6    2    3 1     
    7    2    9 1     
    8    3    8 ar    
    9    3    4 ar    
   10    4    5 ar    
   11    4   18 1     
   12    5    6 ar    
   13    5   19 1     
   14    6    7 ar    
   15    7    8 ar    
   16    7   20 1     
   17    8   21 1     
   18    9   10 1     
   19   10   11 2     
   20   10   12 am    
   21   12   13 am    
   22   12   22 1     
   23   13   14 2     
   24    6   23 1     
   25    9   24 1     
   26   11   25 1     
   27   11   26 1     
   28   14   27 1     
   29   14   28 1     
@<TRIPOS>SUBSTRUCTURE
      1 S1             1
@<TRIPOS>SET
LONE_PAIRS      STATIC     ATOMS    <user>   **** ""
6 23 24 25 26 27 28
DONOR_HYDROGENS      STATIC     ATOMS    <user>   **** ""
1 22
ATOM$BLUE        STATIC     ATOMS    COLORGROUP SYSTEM
6 23 24 25 26 27 28
ATOM$RED        STATIC     ATOMS    COLORGROUP SYSTEM
1 22
