#       Name:                AV-unprocessed.smi:2122
#       Creating user name   scv26
#       Creation time:       Fri Mar 27 11:39:23 2020


#       File generated by GOLD software.
#

@<TRIPOS>MOLECULE
AV-unprocessed.smi:2122
    47    47     1
SMALL
NO_CHARGES


@<TRIPOS>ATOM
      1 ****        -4.0664  -2.8416  -1.8968 C.3            1 S1                 0.0000
      2 ****        -3.5828  -2.6330  -0.4576 C.3            1 S1                 0.0000
      3 ****        -2.6393  -1.4306  -0.3219 C.3            1 S1                 0.0000
      4 ****        -2.1678  -1.2178   1.1267 C.3            1 S1                 0.0000
      5 ****        -1.2600  -0.0959   1.2585 N.am           1 S1                 0.0000
      6 ****         0.1306  -0.2074   1.1712 C.2            1 S1                 0.0000
      7 ****         0.6777  -1.4591   0.9346 N.pl3          1 S1                 0.0000
      8 ****         0.9508   0.8767   1.2867 C.2            1 S1                 0.0000
      9 ****         2.3394   0.7834   1.2081 N.pl3          1 S1                 0.0000
     10 ****         2.9729  -0.5101   0.9945 C.3            1 S1                 0.0000
     11 ****         3.2513   1.8524   1.6155 C.3            1 S1                 0.0000
     12 ****         2.6920   3.2658   1.3818 C.3            1 S1                 0.0000
     13 ****         3.6859   4.2141   1.7309 O.3            1 S1                 0.0000
     14 ****         3.2546   5.5489   1.5320 C.3            1 S1                 0.0000
     15 ****         0.3873   2.2129   1.5192 C.2            1 S1                 0.0000
     16 ****         1.0329   3.2506   1.6626 O.2            1 S1                 0.0000
     17 ****        -1.0035   2.2628   1.5721 N.am           1 S1                 0.0000
     18 ****        -1.8580   1.1739   1.4405 C.2            1 S1                 0.0000
     19 ****        -3.0758   1.3522   1.4851 O.2            1 S1                 0.0000
     20 ****        -1.4274   3.1680   1.7145 H              1 S1                 0.0000
     21 ****        -4.7312  -3.7030  -1.9628 H              1 S1                 0.0000
     22 ****        -3.2284  -3.0150  -2.5721 H              1 S1                 0.0000
     23 ****        -4.6135  -1.9704  -2.2583 H              1 S1                 0.0000
     24 ****        -4.4459  -2.4963   0.1950 H              1 S1                 0.0000
     25 ****        -3.0760  -3.5354  -0.1142 H              1 S1                 0.0000
     26 ****        -1.7729  -1.5747  -0.9688 H              1 S1                 0.0000
     27 ****        -3.1454  -0.5334  -0.6803 H              1 S1                 0.0000
     28 ****        -3.0022  -1.0591   1.8122 H              1 S1                 0.0000
     29 ****        -1.6499  -2.0958   1.5112 H              1 S1                 0.0000
     30 ****         0.0956  -2.2773   0.8264 H              1 S1                 0.0000
     31 ****         1.6744  -1.6026   0.8606 H              1 S1                 0.0000
     32 ****         2.2347  -1.2836   0.7781 H              1 S1                 0.0000
     33 ****         3.5286  -0.8145   1.8820 H              1 S1                 0.0000
     34 ****         3.6646  -0.4622   0.1530 H              1 S1                 0.0000
     35 ****         3.4978   1.7226   2.6700 H              1 S1                 0.0000
     36 ****         4.1870   1.7490   1.0640 H              1 S1                 0.0000
     37 ****         2.4138   3.3888   0.3337 H              1 S1                 0.0000
     38 ****         1.7987   3.4345   1.9850 H              1 S1                 0.0000
     39 ****         4.0505   6.2375   1.8155 H              1 S1                 0.0000
     40 ****         2.3798   5.7766   2.1426 H              1 S1                 0.0000
     41 ****         3.0087   5.7317   0.4851 H              1 S1                 0.0000
     42 ****         4.4963   4.0515   1.1681 LP             1 S1                 0.0000
     43 ****         3.9202   4.0930   2.6955 LP             1 S1                 0.0000
     44 ****         2.0319   3.2272   1.6246 LP             1 S1                 0.0000
     45 ****         0.5586   4.1173   1.8172 LP             1 S1                 0.0000
     46 ****        -3.6986   0.5756   1.3904 LP             1 S1                 0.0000
     47 ****        -3.4417   2.2736   1.6161 LP             1 S1                 0.0000
@<TRIPOS>BOND
    1    1    2 1     
    2    1   21 1     
    3    1   22 1     
    4    1   23 1     
    5    2    3 1     
    6    2   24 1     
    7    2   25 1     
    8    3    4 1     
    9    3   26 1     
   10    3   27 1     
   11    4    5 1     
   12    4   28 1     
   13    4   29 1     
   14    5   18 1     
   15    5    6 1     
   16    6    7 1     
   17    6    8 2     
   18    7   30 1     
   19    7   31 1     
   20    8    9 1     
   21    8   15 1     
   22    9   10 1     
   23    9   11 1     
   24   10   32 1     
   25   10   33 1     
   26   10   34 1     
   27   11   12 1     
   28   11   35 1     
   29   11   36 1     
   30   12   13 1     
   31   12   37 1     
   32   12   38 1     
   33   13   14 1     
   34   14   39 1     
   35   14   40 1     
   36   14   41 1     
   37   15   16 2     
   38   15   17 1     
   39   17   20 1     
   40   17   18 1     
   41   18   19 2     
   42   13   42 1     
   43   13   43 1     
   44   16   44 1     
   45   16   45 1     
   46   19   46 1     
   47   19   47 1     
@<TRIPOS>SUBSTRUCTURE
      1 S1             1
@<TRIPOS>SET
LONE_PAIRS      STATIC     ATOMS    <user>   **** ""
6 42 43 44 45 46 47
DONOR_HYDROGENS      STATIC     ATOMS    <user>   **** ""
3 30 31 20
ATOM$BLUE        STATIC     ATOMS    COLORGROUP SYSTEM
6 42 43 44 45 46 47
ATOM$RED        STATIC     ATOMS    COLORGROUP SYSTEM
3 30 31 20
