#       Name:                AV-unprocessed.smi:702
#       Creating user name   scv26
#       Creation time:       Fri Mar 27 00:40:05 2020


#       File generated by GOLD software.
#

@<TRIPOS>MOLECULE
AV-unprocessed.smi:702
    55    57     1
SMALL
NO_CHARGES


@<TRIPOS>ATOM
      1 ****        -1.5781  -0.9473  -2.7424 C.3            1 S1                 0.0000
      2 ****        -1.0850  -0.2790  -1.4388 C.3            1 S1                 0.0000
      3 ****         0.3766  -0.1762  -1.5007 N.am           1 S1                 0.0000
      4 ****         1.1172   0.9112  -1.2391 C.2            1 S1                 0.0000
      5 ****         0.6379   1.9892  -0.8928 O.2            1 S1                 0.0000
      6 ****         2.4262   0.6507  -1.4022 N.am           1 S1                 0.0000
      7 ****         3.5531   1.4982  -1.2082 C.ar           1 S1                 0.0000
      8 ****         4.8143   0.9881  -1.5808 C.ar           1 S1                 0.0000
      9 ****         5.9568   1.7922  -1.3981 C.ar           1 S1                 0.0000
     10 ****         5.9117   3.0359  -0.8775 N.ar           1 S1                 0.0000
     11 ****         4.7060   3.5227  -0.5167 C.ar           1 S1                 0.0000
     12 ****         3.5027   2.8019  -0.6558 C.ar           1 S1                 0.0000
     13 ****        -1.5470  -0.9519  -0.0897 C.3            1 S1                 0.0000
     14 ****        -1.1146  -0.0990   1.0850 N.4            1 S1                 1.0000
     15 ****        -1.7689   1.2403   1.1801 C.3            1 S1                 0.0000
     16 ****        -1.0852   2.0963   2.2581 C.3            1 S1                 0.0000
     17 ****        -1.1697   1.4327   3.5107 O.3            1 S1                 0.0000
     18 ****        -0.5064   0.1773   3.4852 C.3            1 S1                 0.0000
     19 ****        -1.1576  -0.7388   2.4345 C.3            1 S1                 0.0000
     20 ****        -3.0853  -1.1943  -0.0549 C.3            1 S1                 0.0000
     21 ****        -3.3023  -2.6929  -0.2723 C.3            1 S1                 0.0000
     22 ****        -2.0786  -3.3331   0.3716 C.3            1 S1                 0.0000
     23 ****        -0.9382  -2.3903  -0.0130 C.3            1 S1                 0.0000
     24 ****        -2.6650  -0.9945  -2.7933 H              1 S1                 0.0000
     25 ****        -1.1969  -1.9574  -2.8823 H              1 S1                 0.0000
     26 ****        -1.2542  -0.3691  -3.6085 H              1 S1                 0.0000
     27 ****        -1.5079   0.7207  -1.5067 H              1 S1                 0.0000
     28 ****         0.8668  -1.0128  -1.7830 H              1 S1                 0.0000
     29 ****         2.6490  -0.2800  -1.7232 H              1 S1                 0.0000
     30 ****         4.9114  -0.0021  -2.0020 H              1 S1                 0.0000
     31 ****         6.9334   1.4251  -1.6769 H              1 S1                 0.0000
     32 ****         4.6993   4.5191  -0.1001 H              1 S1                 0.0000
     33 ****         2.5850   3.2663  -0.3336 H              1 S1                 0.0000
     34 ****        -1.7300   1.7949   0.2476 H              1 S1                 0.0000
     35 ****        -2.8253   1.1329   1.4270 H              1 S1                 0.0000
     36 ****        -0.0430   2.2923   2.0005 H              1 S1                 0.0000
     37 ****        -1.5805   3.0641   2.3393 H              1 S1                 0.0000
     38 ****         0.5556   0.3166   3.2757 H              1 S1                 0.0000
     39 ****        -0.5778  -0.2767   4.4737 H              1 S1                 0.0000
     40 ****        -2.1880  -0.9465   2.7233 H              1 S1                 0.0000
     41 ****        -0.6300  -1.6878   2.4726 H              1 S1                 0.0000
     42 ****        -3.5088  -0.9519   0.9184 H              1 S1                 0.0000
     43 ****        -3.6344  -0.5866  -0.7741 H              1 S1                 0.0000
     44 ****        -4.2378  -3.0477   0.1613 H              1 S1                 0.0000
     45 ****        -3.3227  -2.9207  -1.3387 H              1 S1                 0.0000
     46 ****        -2.1988  -3.3588   1.4552 H              1 S1                 0.0000
     47 ****        -1.9115  -4.3550   0.0300 H              1 S1                 0.0000
     48 ****        -0.5762  -2.7216  -0.9835 H              1 S1                 0.0000
     49 ****        -0.0625  -2.4843   0.6267 H              1 S1                 0.0000
     50 ****        -0.1370   0.0892   0.9137 H              1 S1                 0.0000
     51 ****        -0.3523   2.0873  -0.7935 LP             1 S1                 0.0000
     52 ****         1.2383   2.7678  -0.7105 LP             1 S1                 0.0000
     53 ****         6.7437   3.5787  -0.7629 LP             1 S1                 0.0000
     54 ****        -2.1329   1.2858   3.7354 LP             1 S1                 0.0000
     55 ****        -0.7478   2.0080   4.2114 LP             1 S1                 0.0000
@<TRIPOS>BOND
    1    1    2 1     
    2    1   24 1     
    3    1   25 1     
    4    1   26 1     
    5    2    3 1     
    6    2   13 1     
    7    2   27 1     
    8    3    4 am    
    9    3   28 1     
   10    4    5 2     
   11    4    6 am    
   12    6    7 1     
   13    6   29 1     
   14    7   12 ar    
   15    7    8 ar    
   16    8    9 ar    
   17    8   30 1     
   18    9   10 ar    
   19    9   31 1     
   20   10   11 ar    
   21   11   12 ar    
   22   11   32 1     
   23   12   33 1     
   24   13   23 1     
   25   13   14 1     
   26   13   20 1     
   27   14   19 1     
   28   14   15 1     
   29   14   50 1     
   30   15   16 1     
   31   15   34 1     
   32   15   35 1     
   33   16   17 1     
   34   16   36 1     
   35   16   37 1     
   36   17   18 1     
   37   18   19 1     
   38   18   38 1     
   39   18   39 1     
   40   19   40 1     
   41   19   41 1     
   42   20   21 1     
   43   20   42 1     
   44   20   43 1     
   45   21   22 1     
   46   21   44 1     
   47   21   45 1     
   48   22   23 1     
   49   22   46 1     
   50   22   47 1     
   51   23   48 1     
   52   23   49 1     
   53    5   51 1     
   54    5   52 1     
   55   10   53 1     
   56   17   54 1     
   57   17   55 1     
@<TRIPOS>SUBSTRUCTURE
      1 S1             1
@<TRIPOS>SET
LONE_PAIRS      STATIC     ATOMS    <user>   **** ""
5 51 52 53 54 55
DONOR_HYDROGENS      STATIC     ATOMS    <user>   **** ""
3 28 29 50
ATOM$BLUE        STATIC     ATOMS    COLORGROUP SYSTEM
5 51 52 53 54 55
ATOM$RED        STATIC     ATOMS    COLORGROUP SYSTEM
3 28 29 50
