AV-unprocessed.smi:1730|AV-procd|sdf|6970|dock1
  -GOLD-   22720 8183D 1   1.00000     0.00000
 Structure written by MMmdl.
 38 39  0  0  0  0  0  0  0  0  1 V2000
  151.6564  138.3028  154.5352 C   0  0  0  0  0  0  0  0  0  0  0  0
  150.2837  138.2190  154.1682 O   0  0  0  0  0  0  0  0  0  0  0  0
  149.5267  139.3750  154.1765 C   0  0  0  0  0  0  0  0  0  0  0  0
  150.0951  140.5155  154.6425 N   0  0  0  0  0  0  0  0  0  0  0  0
  149.3564  141.6441  154.6526 C   0  0  0  0  0  0  0  0  0  0  0  0
  148.0218  141.6955  154.2102 C   0  0  0  0  0  0  0  0  0  0  0  0
  147.4298  140.5139  153.7275 C   0  0  0  0  0  0  0  0  0  0  0  0
  148.1976  139.3249  153.6956 C   0  0  0  0  0  0  0  0  0  0  0  0
  147.6913  138.0753  153.2446 N   0  0  0  0  0  0  0  0  0  0  0  0
  146.4459  137.5867  153.3674 C   0  0  0  0  0  0  0  0  0  0  0  0
  145.5037  138.1703  153.9026 O   0  0  0  0  0  0  0  0  0  0  0  0
  146.3477  136.3741  152.8037 N   0  0  0  0  0  0  0  0  0  0  0  0
  145.1401  135.5521  152.7401 C   0  0  2  0  0  0  0  0  0  0  0  0
  144.9877  134.7948  154.0675 C   0  0  0  0  0  0  0  0  0  0  0  0
  145.2058  134.5927  151.5340 C   0  0  2  0  0  0  0  0  0  0  0  0
  143.9976  133.6670  151.3765 C   0  0  0  0  0  0  0  0  0  0  0  0
  144.5825  132.5398  150.5570 C   0  0  0  0  0  0  0  0  0  0  0  0
  145.9848  132.4168  151.1461 C   0  0  0  0  0  0  0  0  0  0  0  0
  146.3149  133.7054  151.6591 O   0  0  0  0  0  0  0  0  0  0  0  0
  152.1083  137.3136  154.4665 H   0  0  0  0  0  0  0  0  0  0  0  0
  151.7753  138.6502  155.5625 H   0  0  0  0  0  0  0  0  0  0  0  0
  152.2075  138.9654  153.8661 H   0  0  0  0  0  0  0  0  0  0  0  0
  149.8419  142.5315  155.0308 H   0  0  0  0  0  0  0  0  0  0  0  0
  147.4634  142.6191  154.2449 H   0  0  0  0  0  0  0  0  0  0  0  0
  146.3997  140.5391  153.4065 H   0  0  0  0  0  0  0  0  0  0  0  0
  148.3348  137.5219  152.6978 H   0  0  0  0  0  0  0  0  0  0  0  0
  147.1776  135.9841  152.3818 H   0  0  0  0  0  0  0  0  0  0  0  0
  144.2612  136.1888  152.6233 H   0  0  0  0  0  0  0  0  0  0  0  0
  144.0795  134.1917  154.0757 H   0  0  0  0  0  0  0  0  0  0  0  0
  144.9275  135.4865  154.9085 H   0  0  0  0  0  0  0  0  0  0  0  0
  145.8316  134.1269  154.2445 H   0  0  0  0  0  0  0  0  0  0  0  0
  145.3375  135.1592  150.6104 H   0  0  0  0  0  0  0  0  0  0  0  0
  143.6694  133.2923  152.3473 H   0  0  0  0  0  0  0  0  0  0  0  0
  143.1495  134.1508  150.8912 H   0  0  0  0  0  0  0  0  0  0  0  0
  144.0087  131.6153  150.6239 H   0  0  0  0  0  0  0  0  0  0  0  0
  144.6396  132.8323  149.5077 H   0  0  0  0  0  0  0  0  0  0  0  0
  145.9923  131.7048  151.9719 H   0  0  0  0  0  0  0  0  0  0  0  0
  146.7142  132.0856  150.4069 H   0  0  0  0  0  0  0  0  0  0  0  0
  1  2  1  0  0  0  0
  1 20  1  0  0  0  0
  1 21  1  0  0  0  0
  1 22  1  0  0  0  0
  2  3  1  0  0  0  0
  3  8  1  0  0  0  0
  3  4  2  0  0  0  0
  4  5  1  0  0  0  0
  5  6  2  0  0  0  0
  5 23  1  0  0  0  0
  6  7  1  0  0  0  0
  6 24  1  0  0  0  0
  7  8  2  0  0  0  0
  7 25  1  0  0  0  0
  8  9  1  0  0  0  0
  9 10  1  0  0  0  0
  9 26  1  0  0  0  0
 10 11  2  0  0  0  0
 10 12  1  0  0  0  0
 12 13  1  0  0  0  0
 12 27  1  0  0  0  0
 13 14  1  0  0  0  0
 13 15  1  0  0  0  0
 13 28  1  0  0  0  0
 14 29  1  0  0  0  0
 14 30  1  0  0  0  0
 14 31  1  0  0  0  0
 15 19  1  0  0  0  0
 15 16  1  0  0  0  0
 15 32  1  0  0  0  0
 16 17  1  0  0  0  0
 16 33  1  0  0  0  0
 16 34  1  0  0  0  0
 17 18  1  0  0  0  0
 17 35  1  0  0  0  0
 17 36  1  0  0  0  0
 18 19  1  0  0  0  0
 18 37  1  0  0  0  0
 18 38  1  0  0  0  0
M  END
> <s_m_source_file>
AV-unprocessed.smi

> <i_m_source_file_index>
1730

> <i_lp_mmshare_version>
43012

> <i_f3d_flags>
0

> <s_epik_input>
W0NIM11PYzFuW2NIXVtjSF1bY0hdYzFbTkhdQyg9TylbTkhdW0NASF0oW0NIM10pW0NAQEhdMltDSDJdW0NIMl1bQ0gyXU8y

> <s_epik_cmdline>
J2VwaWtfcHl0aG9uJywgJy1waCcsICc3LjAnLCAnLXRuJywgJzgnLCAnLW1hJywgJzIwMCcsICctbWV0YWxfYmluZGluZycsICctaW1hZScsICc8aW5maWxlLm1hZT4nLCAnLW9tYWUnLCAnPG91dGZpbGUubWFlPic=

> <r_lp_tautomer_probability>
1

> <r_epik_Ionization_Penalty>
9.187e-05

> <r_epik_Ionization_Penalty_Charging>
0

> <r_epik_Ionization_Penalty_Neutral>
9.187e-05

> <r_epik_State_Penalty>
-0

> <r_epik_Charging_Adjusted_Penalty>
0

> <i_epik_Tot_Q>
0

> <i_epik_Tot_abs_Q>
0

> <r_epik_Metal_State_Penalty>
-0

> <b_epik_Metal_Only>
0

> <s_lp_Force_Field>
OPLS_2005

> <r_lp_Energy>
20.3341

> <b_lp_Chiralities_Consistent>
1

> <s_lp_Variant>
AV-unprocessed.smi:1730-1

> <Gold.Version>
5.8.1

> <Gold.Id.Protein>
6NUR|6NUR_protein|mol2

> <Gold.PLP.Fitness>
41.4435

> <Gold.PLP.PLP>
-30.9609

> <Gold.PLP.part.hbond>
-3.0000

> <Gold.PLP.part.metal>
0.0000

> <Gold.PLP.part.buried>
-2.8007

> <Gold.PLP.part.nonpolar>
-25.6443

> <Gold.PLP.part.repulsive>
0.7082

> <Gold.PLP.ligand.clash>
0.0000

> <Gold.PLP.ligand.torsion>
0.6181

> <Gold.PLP.Chemscore.Hbond>
2.9040

> <Gold.PLP.Chemscore.CHOScore>
0.9973

> <Gold.PLP.Chemscore.Metal>
0.0000

> <Gold.Chemscore.Hbonds>
donor molecule, donor type, donor heavy atom, donor atom, acceptor molecule, acceptor atom, score
      L1  H     9    26       P1  7948  1.00
      L1  H    12    27       P1  7948  0.98
      P1  H  7989  7998       L1     4  0.91
      L1  C     5    23       P1  8028  1.00

> <Gold.PLP.Chemscore.Internal.Correction>
0.0150

> <Gold.Rescore>
     Score         DG    S(hbond)    S(metal)    S(lipo)     H(rot)  DE(clash)    DE(int)     intcor
     15.81     -17.52       2.31        0.00      69.01       1.47       0.25       1.46       ----

> <Gold.Chemscore.Fitness>
15.8066

> <Gold.Chemscore.DG>
-17.5212

> <Gold.Chemscore.ZeroCoef>
-5.4800

> <Gold.Chemscore.Hbond>
2.3137

> <Gold.Chemscore.Metal>
0.0000

> <Gold.Chemscore.Lipo>
69.0145

> <Gold.Chemscore.Internal_Hbond>
0.0000

> <Gold.Chemscore.DEClash>
0.2522

> <Gold.Chemscore.DEInternal>
1.4624

> <Gold.Chemscore.Rot>
1.4693

> <Gold.Chemscore.Internal.Correction>
   9.000000E+99

> <Gold.Chemscore.Hbonds>
donor molecule, donor type, donor heavy atom, donor atom, acceptor molecule, acceptor atom, score
      L1  H     9    26       P1  7948  0.99
      L1  H    12    27       P1  7948  0.93
      P1  H  7989  7998       L1     4  0.29

> <Gold.Chemscore.Hbond.Weighted>
-7.7278

> <Gold.Chemscore.Metal.Weighted>
-0.0000

> <Gold.Chemscore.Lipo.Weighted>
-8.0747

> <Gold.Chemscore.Internal_Hbond.Weighted>
0.0000

> <Gold.Chemscore.DEClash.Weighted>
0.2522

> <Gold.Chemscore.DEInternal.Weighted>
1.4624

> <Gold.Chemscore.Rot.Weighted>
3.7613

> <Gold.Chemscore.Internal.Correction.Weighted>
   9.000000E+99

> <Gold.Protein.RotatedTorsions>
[ 6907 6896 6895 6894 ] final  103.78 input  -60.11 | X-H torsion
[ 7974 7965 7964 7962 ] final   92.87 input  175.53 | X-H torsion
[ 8008 7997 7996 7995 ] final  -73.37 input   59.86 | X-H torsion
[ 10167 10162 10161 10158 ] final -151.10 input  -65.29 | X-H torsion
[ 10718 10713 10712 10709 ] final   91.67 input   66.30 | X-H torsion
[ 10763 10752 10751 10750 ] final    5.77 input  -60.55 | X-H torsion
[ 11005 11000 10999 10996 ] final  121.08 input  -57.11 | X-H torsion

> <Gold.Protein.ActiveResidues>
 VAL166  LYS551  ARG553  GLY616  TRP617  ASP618  TYR619  PRO620  LYS621  CYS622 
 ASP623  PHE694  ASN695  SER759  ASP760  ASP761  ALA762  ILE779  LEU786  VAL792 
 PHE793  MET794  SER795  GLU796  ALA797  LYS798  CYS799  TRP800  GLU811  SER814 

> <Gold.Protein.RotatedAtoms>
  152.5285  133.9775  159.7790 H   0  0  0  0  0  0  0  0  0  0  0  0  # atno 6907 bound_to 6896
  151.0035  133.6025  159.2699 H   0  0  0  0  0  0  0  0  0  0  0  0  # atno 6908 bound_to 6896
  151.3126  135.0804  159.9331 H   0  0  0  0  0  0  0  0  0  0  0  0  # atno 6909 bound_to 6896
  145.4865  139.2277  143.2853 H   0  0  0  0  0  0  0  0  0  0  0  0  # atno 7974 bound_to 7965
  154.5242  140.0780  156.8227 H   0  0  0  0  0  0  0  0  0  0  0  0  # atno 8008 bound_to 7997
  155.3512  140.3413  155.4221 H   0  0  0  0  0  0  0  0  0  0  0  0  # atno 8009 bound_to 7997
  156.1713  140.1621  156.8429 H   0  0  0  0  0  0  0  0  0  0  0  0  # atno 8010 bound_to 7997
  139.7296  143.8828  152.2530 H   0  0  0  0  0  0  0  0  0  0  0  0  # atno 10167 bound_to 10162
  157.6960  131.0416  150.3765 H   0  0  0  0  0  0  0  0  0  0  0  0  # atno 10718 bound_to 10713
  153.2555  135.6918  153.7634 H   0  0  0  0  0  0  0  0  0  0  0  0  # atno 10763 bound_to 10752
  153.6713  135.3344  155.3155 H   0  0  0  0  0  0  0  0  0  0  0  0  # atno 10764 bound_to 10752
  154.8410  135.4500  154.1527 H   0  0  0  0  0  0  0  0  0  0  0  0  # atno 10765 bound_to 10752
  139.9211  134.9637  156.7904 H   0  0  0  0  0  0  0  0  0  0  0  0  # atno 11005 bound_to 11000
  146.2310  140.5656  142.8975 LP  0  0  0  0  0  0  0  0  0  0  0  0  # atno 17320 bound_to 7965
  144.7858  140.5934  143.6574 LP  0  0  0  0  0  0  0  0  0  0  0  0  # atno 17321 bound_to 7965
  139.8748  144.7049  150.8946 LP  0  0  0  0  0  0  0  0  0  0  0  0  # atno 17342 bound_to 10162
  140.7769  143.3709  151.1651 LP  0  0  0  0  0  0  0  0  0  0  0  0  # atno 17343 bound_to 10162
  156.4184  130.3948  149.6842 LP  0  0  0  0  0  0  0  0  0  0  0  0  # atno 17370 bound_to 10713
  156.4102  130.7718  151.2731 LP  0  0  0  0  0  0  0  0  0  0  0  0  # atno 17371 bound_to 10713
  140.6472  133.9764  155.7737 LP  0  0  0  0  0  0  0  0  0  0  0  0  # atno 17394 bound_to 11000
  141.0732  134.0174  157.3496 LP  0  0  0  0  0  0  0  0  0  0  0  0  # atno 17395 bound_to 11000

$$$$
