AV-unprocessed.smi:1356|AV-procd|sdf|5546|dock2
  -GOLD-   22720 5133D 1   1.00000     0.00000
 Structure written by MMmdl.
 42 43  0  0  0  0  0  0  0  0  2 V2000
  146.7837  133.1576  154.2557 C   0  0  0  0  0  0  0  0  0  0  0  0
  148.1757  132.7384  153.8171 C   0  0  2  0  0  0  0  0  0  0  0  0
  149.2112  132.3176  154.8329 C   0  0  0  0  0  0  0  0  0  0  0  0
  149.4305  133.5774  154.0193 C   0  0  2  0  0  0  0  0  0  0  0  0
  149.3553  134.8921  154.7318 C   0  0  0  0  0  0  0  0  0  0  0  0
  148.3526  135.2891  155.3261 O   0  0  0  0  0  0  0  0  0  0  0  0
  150.4967  135.5955  154.6827 N   0  0  0  0  0  0  0  0  0  0  0  0
  150.7280  136.8876  155.3271 C   0  0  0  0  0  0  0  0  0  0  0  0
  150.9403  138.0459  154.3260 C   0  0  0  0  0  0  0  0  0  0  0  0
  151.4957  139.3180  154.9747 C   0  0  0  0  0  0  0  0  0  0  0  0
  152.6900  139.3961  155.2631 O   0  0  0  0  0  0  0  0  0  0  0  0
  150.6122  140.2980  155.2186 N   0  0  0  0  0  0  0  0  0  0  0  0
  150.9202  141.5494  155.8986 C   0  0  0  0  0  0  0  0  0  0  0  0
  150.5795  141.4707  157.3966 C   0  0  0  0  0  0  0  0  0  0  0  0
  151.1474  142.6396  158.1772 C   0  0  0  0  0  0  0  0  0  0  0  0
  151.9803  142.4598  159.3028 C   0  0  0  0  0  0  0  0  0  0  0  0
  152.4710  143.5931  159.9846 C   0  0  0  0  0  0  0  0  0  0  0  0
  152.1189  144.8801  159.5273 C   0  0  0  0  0  0  0  0  0  0  0  0
  151.2831  145.0014  158.3984 C   0  0  0  0  0  0  0  0  0  0  0  0
  150.8331  143.8916  157.7727 N   0  3  0  0  0  0  0  0  0  0  0  0
  146.7710  133.4881  155.2937 H   0  0  0  0  0  0  0  0  0  0  0  0
  146.0991  132.3142  154.1656 H   0  0  0  0  0  0  0  0  0  0  0  0
  146.4187  133.9668  153.6230 H   0  0  0  0  0  0  0  0  0  0  0  0
  148.1625  132.1868  152.8790 H   0  0  0  0  0  0  0  0  0  0  0  0
  148.9557  132.4160  155.8866 H   0  0  0  0  0  0  0  0  0  0  0  0
  149.8379  131.4606  154.5948 H   0  0  0  0  0  0  0  0  0  0  0  0
  150.1661  133.5187  153.2182 H   0  0  0  0  0  0  0  0  0  0  0  0
  151.2723  135.2002  154.1710 H   0  0  0  0  0  0  0  0  0  0  0  0
  149.8692  137.1031  155.9638 H   0  0  0  0  0  0  0  0  0  0  0  0
  151.5879  136.8101  155.9941 H   0  0  0  0  0  0  0  0  0  0  0  0
  151.6324  137.7287  153.5456 H   0  0  0  0  0  0  0  0  0  0  0  0
  150.0008  138.2726  153.8199 H   0  0  0  0  0  0  0  0  0  0  0  0
  149.6515  140.1493  154.9442 H   0  0  0  0  0  0  0  0  0  0  0  0
  151.9721  141.8023  155.7540 H   0  0  0  0  0  0  0  0  0  0  0  0
  150.3412  142.3438  155.4265 H   0  0  0  0  0  0  0  0  0  0  0  0
  149.4971  141.4412  157.5317 H   0  0  0  0  0  0  0  0  0  0  0  0
  150.9660  140.5455  157.8271 H   0  0  0  0  0  0  0  0  0  0  0  0
  152.2404  141.4674  159.6420 H   0  0  0  0  0  0  0  0  0  0  0  0
  153.1092  143.4770  160.8485 H   0  0  0  0  0  0  0  0  0  0  0  0
  152.4839  145.7609  160.0354 H   0  0  0  0  0  0  0  0  0  0  0  0
  150.9632  145.9448  157.9802 H   0  0  0  0  0  0  0  0  0  0  0  0
  150.2280  144.0028  156.9585 H   0  0  0  0  0  0  0  0  0  0  0  0
  1  2  1  0  0  0  0
  1 21  1  0  0  0  0
  1 22  1  0  0  0  0
  1 23  1  0  0  0  0
  2  4  1  0  0  0  0
  2  3  1  0  0  0  0
  2 24  1  0  0  0  0
  3  4  1  0  0  0  0
  3 25  1  0  0  0  0
  3 26  1  0  0  0  0
  4  5  1  0  0  0  0
  4 27  1  0  0  0  0
  5  6  2  0  0  0  0
  5  7  1  0  0  0  0
  7  8  1  0  0  0  0
  7 28  1  0  0  0  0
  8  9  1  0  0  0  0
  8 29  1  0  0  0  0
  8 30  1  0  0  0  0
  9 10  1  0  0  0  0
  9 31  1  0  0  0  0
  9 32  1  0  0  0  0
 10 11  2  0  0  0  0
 10 12  1  0  0  0  0
 12 13  1  0  0  0  0
 12 33  1  0  0  0  0
 13 14  1  0  0  0  0
 13 34  1  0  0  0  0
 13 35  1  0  0  0  0
 14 15  1  0  0  0  0
 14 36  1  0  0  0  0
 14 37  1  0  0  0  0
 15 20  1  0  0  0  0
 15 16  2  0  0  0  0
 16 17  1  0  0  0  0
 16 38  1  0  0  0  0
 17 18  2  0  0  0  0
 17 39  1  0  0  0  0
 18 19  1  0  0  0  0
 18 40  1  0  0  0  0
 19 20  2  0  0  0  0
 19 41  1  0  0  0  0
 20 42  1  0  0  0  0
M  CHG  1  20   1
M  END
> <s_m_source_file>
AV-unprocessed.smi

> <i_m_source_file_index>
1356

> <i_lp_mmshare_version>
43012

> <i_f3d_flags>
0

> <s_epik_input>
W0NIM11bQ0BASF0xW0NIMl1bQ0BIXTFDKD1PKVtOSF1bQ0gyXVtDSDJdQyg9TylbTkhdW0NIMl1bQ0gyXWMyW2NIXVtjSF1bY0hdW2NIXW4y

> <s_epik_cmdline>
J2VwaWtfcHl0aG9uJywgJy1waCcsICc3LjAnLCAnLXRuJywgJzgnLCAnLW1hJywgJzIwMCcsICctbWV0YWxfYmluZGluZycsICctaW1hZScsICc8aW5maWxlLm1hZT4nLCAnLW9tYWUnLCAnPG91dGZpbGUubWFlPic=

> <r_epik_Ionization_Penalty>
1.86966

> <r_epik_Ionization_Penalty_Charging>
1.86966

> <r_epik_Ionization_Penalty_Neutral>
5.0403e-08

> <r_epik_State_Penalty>
1.98858

> <r_epik_Charging_Adjusted_Penalty>
3.85824

> <i_epik_Tot_Q>
1

> <i_epik_Tot_abs_Q>
1

> <r_epik_Metal_State_Penalty>
2.01347

> <b_epik_Metal_Only>
0

> <s_lp_Force_Field>
OPLS_2005

> <r_lp_Energy>
10.2403

> <b_lp_Chiralities_Consistent>
1

> <s_lp_Variant>
AV-unprocessed.smi:1356-7

> <Gold.Version>
5.8.1

> <Gold.Id.Protein>
6NUR|6NUR_protein|mol2

> <Gold.PLP.Fitness>
51.6505

> <Gold.PLP.PLP>
-43.7289

> <Gold.PLP.part.hbond>
-3.9913

> <Gold.PLP.part.metal>
0.0000

> <Gold.PLP.part.buried>
-4.4727

> <Gold.PLP.part.nonpolar>
-35.0483

> <Gold.PLP.part.repulsive>
1.0274

> <Gold.PLP.ligand.clash>
0.0000

> <Gold.PLP.ligand.torsion>
0.6131

> <Gold.PLP.Chemscore.Hbond>
3.0000

> <Gold.PLP.Chemscore.CHOScore>
0.0000

> <Gold.PLP.Chemscore.Metal>
0.0000

> <Gold.Chemscore.Hbonds>
donor molecule, donor type, donor heavy atom, donor atom, acceptor molecule, acceptor atom, score
      L1  H    20    42       P1  8028  2.00
      P1  H  7997  8009       L1    11  1.00

> <Gold.PLP.Chemscore.Internal.Correction>
0.1478

> <Gold.Rescore>
     Score         DG    S(hbond)    S(metal)    S(lipo)     H(rot)  DE(clash)    DE(int)     intcor
     16.05     -17.99       1.95        0.00     101.82       2.31       0.03       1.91       ----

> <Gold.Chemscore.Fitness>
16.0520

> <Gold.Chemscore.DG>
-17.9919

> <Gold.Chemscore.ZeroCoef>
-5.4800

> <Gold.Chemscore.Hbond>
1.9531

> <Gold.Chemscore.Metal>
0.0000

> <Gold.Chemscore.Lipo>
101.8151

> <Gold.Chemscore.Internal_Hbond>
0.0000

> <Gold.Chemscore.DEClash>
0.0288

> <Gold.Chemscore.DEInternal>
1.9110

> <Gold.Chemscore.Rot>
2.3140

> <Gold.Chemscore.Internal.Correction>
   9.000000E+99

> <Gold.Chemscore.Hbonds>
donor molecule, donor type, donor heavy atom, donor atom, acceptor molecule, acceptor atom, score
      L1  H    20    42       P1  8028  0.95
      P1  H  7997  8009       L1    11  0.94

> <Gold.Chemscore.Hbond.Weighted>
-6.5233

> <Gold.Chemscore.Metal.Weighted>
-0.0000

> <Gold.Chemscore.Lipo.Weighted>
-11.9124

> <Gold.Chemscore.Internal_Hbond.Weighted>
0.0000

> <Gold.Chemscore.DEClash.Weighted>
0.0288

> <Gold.Chemscore.DEInternal.Weighted>
1.9110

> <Gold.Chemscore.Rot.Weighted>
5.9238

> <Gold.Chemscore.Internal.Correction.Weighted>
   9.000000E+99

> <Gold.Protein.RotatedTorsions>
[ 6907 6896 6895 6894 ] final  113.35 input  -60.11 | X-H torsion
[ 7974 7965 7964 7962 ] final    1.15 input  175.53 | X-H torsion
[ 8008 7997 7996 7995 ] final -144.17 input   59.86 | X-H torsion
[ 10167 10162 10161 10158 ] final  136.27 input  -65.29 | X-H torsion
[ 10718 10713 10712 10709 ] final   44.01 input   66.30 | X-H torsion
[ 10763 10752 10751 10750 ] final  149.15 input  -60.55 | X-H torsion
[ 11005 11000 10999 10996 ] final    1.26 input  -57.11 | X-H torsion

> <Gold.Protein.ActiveResidues>
 VAL166  LYS551  ARG553  GLY616  TRP617  ASP618  TYR619  PRO620  LYS621  CYS622 
 ASP623  PHE694  ASN695  SER759  ASP760  ASP761  ALA762  ILE779  LEU786  VAL792 
 PHE793  MET794  SER795  GLU796  ALA797  LYS798  CYS799  TRP800  GLU811  SER814 

> <Gold.Protein.RotatedAtoms>
  152.4865  133.8387  159.7141 H   0  0  0  0  0  0  0  0  0  0  0  0  # atno 6907 bound_to 6896
  150.8957  133.7175  159.2899 H   0  0  0  0  0  0  0  0  0  0  0  0  # atno 6908 bound_to 6896
  151.4633  135.1044  159.9783 H   0  0  0  0  0  0  0  0  0  0  0  0  # atno 6909 bound_to 6896
  146.2439  140.1030  142.8347 H   0  0  0  0  0  0  0  0  0  0  0  0  # atno 7974 bound_to 7965
  155.5225  140.0592  157.2904 H   0  0  0  0  0  0  0  0  0  0  0  0  # atno 8008 bound_to 7997
  154.4512  140.1950  156.0458 H   0  0  0  0  0  0  0  0  0  0  0  0  # atno 8009 bound_to 7997
  156.0709  140.3260  155.7578 H   0  0  0  0  0  0  0  0  0  0  0  0  # atno 8010 bound_to 7997
  139.5186  144.6473  151.5402 H   0  0  0  0  0  0  0  0  0  0  0  0  # atno 10167 bound_to 10162
  157.4222  130.7976  149.7525 H   0  0  0  0  0  0  0  0  0  0  0  0  # atno 10718 bound_to 10713
  154.0664  135.2870  155.3316 H   0  0  0  0  0  0  0  0  0  0  0  0  # atno 10763 bound_to 10752
  154.6775  135.5276  153.8222 H   0  0  0  0  0  0  0  0  0  0  0  0  # atno 10764 bound_to 10752
  153.0502  135.6573  154.0848 H   0  0  0  0  0  0  0  0  0  0  0  0  # atno 10765 bound_to 10752
  140.6174  133.9693  155.8207 H   0  0  0  0  0  0  0  0  0  0  0  0  # atno 11005 bound_to 11000
  145.0552  140.9047  143.4971 LP  0  0  0  0  0  0  0  0  0  0  0  0  # atno 17320 bound_to 7965
  145.1135  139.2741  143.5625 LP  0  0  0  0  0  0  0  0  0  0  0  0  # atno 17321 bound_to 7965
  140.6264  143.9161  150.6568 LP  0  0  0  0  0  0  0  0  0  0  0  0  # atno 17342 bound_to 10162
  140.2451  143.3635  152.1453 LP  0  0  0  0  0  0  0  0  0  0  0  0  # atno 17343 bound_to 10162
  155.9884  130.3959  150.3119 LP  0  0  0  0  0  0  0  0  0  0  0  0  # atno 17370 bound_to 10713
  157.1268  131.0261  151.2986 LP  0  0  0  0  0  0  0  0  0  0  0  0  # atno 17371 bound_to 10713
  141.0766  134.0125  157.3448 LP  0  0  0  0  0  0  0  0  0  0  0  0  # atno 17394 bound_to 11000
  139.9167  135.0197  156.7909 LP  0  0  0  0  0  0  0  0  0  0  0  0  # atno 17395 bound_to 11000

$$$$
