#       Name:                AV-unprocessed.smi:882
#       Creating user name   scv26
#       Creation time:       Fri Mar 27 01:53:04 2020


#       File generated by GOLD software.
#

@<TRIPOS>MOLECULE
AV-unprocessed.smi:882
    39    40     1
SMALL
NO_CHARGES


@<TRIPOS>ATOM
      1 ****        -6.3722   2.5124  -0.2738 C.1            1 S1                 0.0000
      2 ****        -5.9393   1.4337   0.1004 C.1            1 S1                 0.0000
      3 ****        -5.4095   0.1308   0.5372 C.3            1 S1                 0.0000
      4 ****        -3.9523   0.0781   0.5101 N.am           1 S1                 0.0000
      5 ****        -3.2059  -0.2778  -0.5493 C.2            1 S1                 0.0000
      6 ****        -3.6809  -0.6321  -1.6285 O.2            1 S1                 0.0000
      7 ****        -1.7214  -0.2814  -0.3246 C.ar           1 S1                 0.0000
      8 ****        -1.1002   0.6305   0.5566 C.ar           1 S1                 0.0000
      9 ****         0.2993   0.5939   0.7071 C.ar           1 S1                 0.0000
     10 ****         1.0506  -0.3475  -0.0356 C.ar           1 S1                 0.0000
     11 ****         2.4553  -0.4006   0.0974 N.3            1 S1                 0.0000
     12 ****         3.1568   0.8683  -0.0818 C.3            1 S1                 0.0000
     13 ****         4.6180   0.7440   0.3833 C.3            1 S1                 0.0000
     14 ****         5.2496  -0.3375  -0.2935 O.3            1 S1                 0.0000
     15 ****         4.6159  -1.5804  -0.0114 C.3            1 S1                 0.0000
     16 ****         3.1566  -1.5384  -0.4948 C.3            1 S1                 0.0000
     17 ****         0.4518  -1.2188  -0.8846 N.ar           1 S1                 0.0000
     18 ****        -0.8898  -1.1792  -1.0272 C.ar           1 S1                 0.0000
     19 ****        -6.7475   3.4557  -0.6016 H              1 S1                 0.0000
     20 ****        -5.7491  -0.0442   1.5579 H              1 S1                 0.0000
     21 ****        -5.8467  -0.6515  -0.0851 H              1 S1                 0.0000
     22 ****        -3.4735   0.3306   1.3624 H              1 S1                 0.0000
     23 ****        -1.6776   1.3530   1.1151 H              1 S1                 0.0000
     24 ****         0.7748   1.2768   1.3950 H              1 S1                 0.0000
     25 ****         3.1239   1.1410  -1.1374 H              1 S1                 0.0000
     26 ****         2.6789   1.6771   0.4687 H              1 S1                 0.0000
     27 ****         5.1606   1.6637   0.1647 H              1 S1                 0.0000
     28 ****         4.6707   0.5924   1.4627 H              1 S1                 0.0000
     29 ****         5.1567  -2.3783  -0.5203 H              1 S1                 0.0000
     30 ****         4.6660  -1.7929   1.0577 H              1 S1                 0.0000
     31 ****         2.6603  -2.4712  -0.2241 H              1 S1                 0.0000
     32 ****         3.1264  -1.4556  -1.5822 H              1 S1                 0.0000
     33 ****        -1.3062  -1.8941  -1.7221 H              1 S1                 0.0000
     34 ****        -4.6728  -0.6661  -1.7511 LP             1 S1                 0.0000
     35 ****        -3.0748  -0.8859  -2.3823 LP             1 S1                 0.0000
     36 ****         2.5103  -0.6017   1.0755 LP             1 S1                 0.0000
     37 ****         6.2049  -0.3879  -0.0022 LP             1 S1                 0.0000
     38 ****         5.2099  -0.1702  -1.2786 LP             1 S1                 0.0000
     39 ****         0.9967  -1.8817  -1.3980 LP             1 S1                 0.0000
@<TRIPOS>BOND
    1    1    2 3     
    2    1   19 1     
    3    2    3 1     
    4    3    4 1     
    5    3   20 1     
    6    3   21 1     
    7    4    5 am    
    8    4   22 1     
    9    5    6 2     
   10    5    7 1     
   11    7   18 ar    
   12    7    8 ar    
   13    8    9 ar    
   14    8   23 1     
   15    9   10 ar    
   16    9   24 1     
   17   10   11 1     
   18   10   17 ar    
   19   11   16 1     
   20   11   12 1     
   21   12   13 1     
   22   12   25 1     
   23   12   26 1     
   24   13   14 1     
   25   13   27 1     
   26   13   28 1     
   27   14   15 1     
   28   15   16 1     
   29   15   29 1     
   30   15   30 1     
   31   16   31 1     
   32   16   32 1     
   33   17   18 ar    
   34   18   33 1     
   35    6   34 1     
   36    6   35 1     
   37   11   36 1     
   38   14   37 1     
   39   14   38 1     
   40   17   39 1     
@<TRIPOS>SUBSTRUCTURE
      1 S1             1
@<TRIPOS>SET
LONE_PAIRS      STATIC     ATOMS    <user>   **** ""
6 34 35 36 37 38 39
DONOR_HYDROGENS      STATIC     ATOMS    <user>   **** ""
1 22
ATOM$BLUE        STATIC     ATOMS    COLORGROUP SYSTEM
6 34 35 36 37 38 39
ATOM$RED        STATIC     ATOMS    COLORGROUP SYSTEM
1 22
