#       Name:                AV-unprocessed.smi:2746
#       Creating user name   scv26
#       Creation time:       Fri Mar 27 15:02:50 2020


#       File generated by GOLD software.
#

@<TRIPOS>MOLECULE
AV-unprocessed.smi:2746
    44    45     1
SMALL
NO_CHARGES


@<TRIPOS>ATOM
      1 ****        -5.2388  -2.8399   0.5290 C.2            1 S1                 0.0000
      2 ****        -4.4410  -1.8009   0.8180 C.2            1 S1                 0.0000
      3 ****        -3.9081  -0.8157  -0.2060 C.3            1 S1                 0.0000
      4 ****        -4.4482   0.5956   0.0565 C.3            1 S1                 0.0000
      5 ****        -2.4493  -0.7890  -0.1771 N.am           1 S1                 0.0000
      6 ****        -1.6446  -1.6882  -0.7679 C.2            1 S1                 0.0000
      7 ****        -2.0570  -2.6690  -1.3880 O.2            1 S1                 0.0000
      8 ****        -0.1722  -1.4705  -0.5736 C.ar           1 S1                 0.0000
      9 ****         0.3868  -0.1875  -0.3612 C.ar           1 S1                 0.0000
     10 ****         1.7835  -0.0485  -0.2101 C.ar           1 S1                 0.0000
     11 ****         2.3238   1.2265   0.0059 N.3            1 S1                 0.0000
     12 ****         2.9219   1.3854   1.3256 C.3            1 S1                 0.0000
     13 ****         3.3790   2.8410   1.5252 C.3            1 S1                 0.0000
     14 ****         4.2692   3.2093   0.4756 O.3            1 S1                 0.0000
     15 ****         3.6499   3.1270  -0.8050 C.3            1 S1                 0.0000
     16 ****         3.2019   1.6784  -1.0665 C.3            1 S1                 0.0000
     17 ****         2.5970  -1.2035  -0.2821 C.ar           1 S1                 0.0000
     18 ****         1.9932  -2.4559  -0.5073 C.ar           1 S1                 0.0000
     19 ****         0.6528  -2.5406  -0.6462 N.pl3          1 S1                 1.0000
     20 ****        -5.5548  -3.0405  -0.4841 H              1 S1                 0.0000
     21 ****        -5.5863  -3.5050   1.3054 H              1 S1                 0.0000
     22 ****        -4.1474  -1.6334   1.8442 H              1 S1                 0.0000
     23 ****        -4.2394  -1.1248  -1.1994 H              1 S1                 0.0000
     24 ****        -5.5378   0.6112   0.0131 H              1 S1                 0.0000
     25 ****        -4.0801   1.3026  -0.6876 H              1 S1                 0.0000
     26 ****        -4.1499   0.9609   1.0398 H              1 S1                 0.0000
     27 ****        -2.0204  -0.0302   0.3324 H              1 S1                 0.0000
     28 ****        -0.2423   0.6902  -0.3179 H              1 S1                 0.0000
     29 ****         2.1988   1.1120   2.0952 H              1 S1                 0.0000
     30 ****         3.7752   0.7139   1.4299 H              1 S1                 0.0000
     31 ****         2.5238   3.5185   1.5453 H              1 S1                 0.0000
     32 ****         3.8925   2.9468   2.4808 H              1 S1                 0.0000
     33 ****         2.8028   3.8129  -0.8561 H              1 S1                 0.0000
     34 ****         4.3631   3.4436  -1.5661 H              1 S1                 0.0000
     35 ****         4.0766   1.0299  -1.1301 H              1 S1                 0.0000
     36 ****         2.6816   1.6148  -2.0231 H              1 S1                 0.0000
     37 ****         3.6694  -1.1348  -0.1703 H              1 S1                 0.0000
     38 ****         2.5379  -3.3857  -0.5820 H              1 S1                 0.0000
     39 ****         0.2363  -3.4572  -0.8143 H              1 S1                 0.0000
     40 ****        -3.0403  -2.8299  -1.4725 LP             1 S1                 0.0000
     41 ****        -1.4085  -3.3045  -1.8071 LP             1 S1                 0.0000
     42 ****         1.5364   1.8426  -0.0138 LP             1 S1                 0.0000
     43 ****         5.0588   2.5959   0.4921 LP             1 S1                 0.0000
     44 ****         4.5744   4.1496   0.6265 LP             1 S1                 0.0000
@<TRIPOS>BOND
    1    1    2 2     
    2    1   20 1     
    3    1   21 1     
    4    2    3 1     
    5    2   22 1     
    6    3    4 1     
    7    3    5 1     
    8    3   23 1     
    9    4   24 1     
   10    4   25 1     
   11    4   26 1     
   12    5    6 am    
   13    5   27 1     
   14    6    7 2     
   15    6    8 1     
   16    8   19 ar    
   17    8    9 ar    
   18    9   10 ar    
   19    9   28 1     
   20   10   11 1     
   21   10   17 ar    
   22   11   16 1     
   23   11   12 1     
   24   12   13 1     
   25   12   29 1     
   26   12   30 1     
   27   13   14 1     
   28   13   31 1     
   29   13   32 1     
   30   14   15 1     
   31   15   16 1     
   32   15   33 1     
   33   15   34 1     
   34   16   35 1     
   35   16   36 1     
   36   17   18 ar    
   37   17   37 1     
   38   18   19 ar    
   39   18   38 1     
   40   19   39 1     
   41    7   40 1     
   42    7   41 1     
   43   11   42 1     
   44   14   43 1     
   45   14   44 1     
@<TRIPOS>SUBSTRUCTURE
      1 S1             1
@<TRIPOS>SET
LONE_PAIRS      STATIC     ATOMS    <user>   **** ""
5 40 41 42 43 44
DONOR_HYDROGENS      STATIC     ATOMS    <user>   **** ""
2 27 39
ATOM$BLUE        STATIC     ATOMS    COLORGROUP SYSTEM
5 40 41 42 43 44
ATOM$RED        STATIC     ATOMS    COLORGROUP SYSTEM
2 27 39
