AV-unprocessed.smi:2032|AV-procd|sdf|8252|dock7
  -GOLD-   2272010523D 1   1.00000     0.00000
 Structure written by MMmdl.
 42 43  0  0  0  0  0  0  0  0  3 V2000
  148.4412  141.7629  154.3475 C   0  0  0  0  0  0  0  0  0  0  0  0
  148.9470  140.3599  154.7004 C   0  0  1  0  0  0  0  0  0  0  0  0
  148.5768  139.3236  153.6177 C   0  0  0  0  0  0  0  0  0  0  0  0
  149.1318  137.9805  153.9426 N   0  3  2  0  0  0  0  0  0  0  0  0
  148.4398  137.2420  155.0549 C   0  0  2  0  0  0  0  0  0  0  0  0
  149.2913  136.0567  155.5721 C   0  0  0  0  0  0  0  0  0  0  0  0
  147.0321  136.7352  154.6317 C   0  0  0  0  0  0  0  0  0  0  0  0
  147.0738  135.8282  153.4883 N   0  0  0  0  0  0  0  0  0  0  0  0
  146.0851  135.0053  153.1096 C   0  0  0  0  0  0  0  0  0  0  0  0
  145.0232  134.9921  153.7370 O   0  0  0  0  0  0  0  0  0  0  0  0
  146.3920  134.2444  152.0357 N   0  5  0  0  0  0  0  0  0  0  0  0
  145.4202  133.5948  151.3746 C   0  0  0  0  0  0  0  0  0  0  0  0
  145.6654  132.6614  150.4481 N   0  0  0  0  0  0  0  0  0  0  0  0
  144.5077  132.1134  149.8924 C   0  0  0  0  0  0  0  0  0  0  0  0
  143.3542  132.6361  150.4142 C   0  0  0  0  0  0  0  0  0  0  0  0
  143.6895  133.8385  151.6270 S   0  0  0  0  0  0  0  0  0  0  0  0
  150.6063  138.1250  154.0907 C   0  0  0  0  0  0  0  0  0  0  0  0
  150.9591  139.1738  155.1679 C   0  0  1  0  0  0  0  0  0  0  0  0
  152.4721  139.3873  155.2872 C   0  0  0  0  0  0  0  0  0  0  0  0
  150.3664  140.4201  154.8128 O   0  0  0  0  0  0  0  0  0  0  0  0
  147.3548  141.7766  154.2563 H   0  0  0  0  0  0  0  0  0  0  0  0
  148.8611  142.1089  153.4025 H   0  0  0  0  0  0  0  0  0  0  0  0
  148.7177  142.4827  155.1184 H   0  0  0  0  0  0  0  0  0  0  0  0
  148.5186  140.0773  155.6628 H   0  0  0  0  0  0  0  0  0  0  0  0
  147.5053  139.3058  153.4369 H   0  0  0  0  0  0  0  0  0  0  0  0
  149.0071  139.6409  152.6664 H   0  0  0  0  0  0  0  0  0  0  0  0
  148.3091  137.9280  155.8907 H   0  0  0  0  0  0  0  0  0  0  0  0
  148.7581  135.4597  156.3112 H   0  0  0  0  0  0  0  0  0  0  0  0
  150.1975  136.3879  156.0775 H   0  0  0  0  0  0  0  0  0  0  0  0
  149.5766  135.3891  154.7588 H   0  0  0  0  0  0  0  0  0  0  0  0
  146.5251  136.1978  155.4309 H   0  0  0  0  0  0  0  0  0  0  0  0
  146.3937  137.5800  154.3722 H   0  0  0  0  0  0  0  0  0  0  0  0
  147.9242  135.8120  152.9444 H   0  0  0  0  0  0  0  0  0  0  0  0
  144.5984  131.3536  149.1306 H   0  0  0  0  0  0  0  0  0  0  0  0
  142.3342  132.3879  150.1629 H   0  0  0  0  0  0  0  0  0  0  0  0
  151.1019  137.1757  154.2823 H   0  0  0  0  0  0  0  0  0  0  0  0
  151.0085  138.4548  153.1315 H   0  0  0  0  0  0  0  0  0  0  0  0
  150.5823  138.8603  156.1423 H   0  0  0  0  0  0  0  0  0  0  0  0
  152.9767  138.4648  155.5757 H   0  0  0  0  0  0  0  0  0  0  0  0
  152.7012  140.1402  156.0420 H   0  0  0  0  0  0  0  0  0  0  0  0
  152.9007  139.7223  154.3422 H   0  0  0  0  0  0  0  0  0  0  0  0
  148.9873  137.4106  153.1215 H   0  0  0  0  0  0  0  0  0  0  0  0
  1  2  1  0  0  0  0
  1 21  1  0  0  0  0
  1 22  1  0  0  0  0
  1 23  1  0  0  0  0
  2 20  1  0  0  0  0
  2  3  1  0  0  0  0
  2 24  1  0  0  0  0
  3  4  1  0  0  0  0
  3 25  1  0  0  0  0
  3 26  1  0  0  0  0
  4  5  1  0  0  0  0
  4 17  1  0  0  0  0
  4 42  1  0  0  0  0
  5  6  1  0  0  0  0
  5  7  1  0  0  0  0
  5 27  1  0  0  0  0
  6 28  1  0  0  0  0
  6 29  1  0  0  0  0
  6 30  1  0  0  0  0
  7  8  1  0  0  0  0
  7 31  1  0  0  0  0
  7 32  1  0  0  0  0
  8  9  1  0  0  0  0
  8 33  1  0  0  0  0
  9 10  2  0  0  0  0
  9 11  1  0  0  0  0
 11 12  1  0  0  0  0
 12 16  1  0  0  0  0
 12 13  2  0  0  0  0
 13 14  1  0  0  0  0
 14 15  2  0  0  0  0
 14 34  1  0  0  0  0
 15 16  1  0  0  0  0
 15 35  1  0  0  0  0
 17 18  1  0  0  0  0
 17 36  1  0  0  0  0
 17 37  1  0  0  0  0
 18 19  1  0  0  0  0
 18 20  1  0  0  0  0
 18 38  1  0  0  0  0
 19 39  1  0  0  0  0
 19 40  1  0  0  0  0
 19 41  1  0  0  0  0
M  CHG  1   4   1
M  CHG  1  11  -1
M  END
> <s_m_source_file>
AV-unprocessed.smi

> <i_m_source_file_index>
2032

> <i_lp_mmshare_version>
43012

> <i_f3d_flags>
0

> <s_epik_input>
W0NIM11bQ0BASF0xW0NIMl1OKFtDSDJdW0NASF0oTzEpW0NIM10pW0NASF0oW0NIM10pW0NIMl1bTkhdQyg9TylbTkhdYzJuW2NIXVtjSF1zMg==

> <s_epik_cmdline>
J2VwaWtfcHl0aG9uJywgJy1waCcsICc3LjAnLCAnLXRuJywgJzgnLCAnLW1hJywgJzIwMCcsICctbWV0YWxfYmluZGluZycsICctaW1hZScsICc8aW5maWxlLm1hZT4nLCAnLW9tYWUnLCAnPG91dGZpbGUubWFlPic=

> <r_lp_tautomer_probability>
0.999

> <r_epik_Ionization_Penalty>
6.71699

> <r_epik_Ionization_Penalty_Charging>
5.88592

> <r_epik_Ionization_Penalty_Neutral>
0.831074

> <r_epik_State_Penalty>
6.08365

> <r_epik_Charging_Adjusted_Penalty>
11.9696

> <i_epik_Tot_Q>
0

> <i_epik_Tot_abs_Q>
2

> <r_epik_Metal_State_Penalty>
2.0947

> <b_epik_Metal_Only>
1

> <s_lp_Force_Field>
OPLS_2005

> <r_lp_Energy>
10.9101

> <b_lp_Chiralities_Consistent>
1

> <s_lp_Variant>
AV-unprocessed.smi:2032-22

> <Gold.Version>
5.8.1

> <Gold.Id.Protein>
6NUR|6NUR_protein|mol2

> <Gold.PLP.Fitness>
47.4086

> <Gold.PLP.PLP>
-31.9888

> <Gold.PLP.part.hbond>
-2.8718

> <Gold.PLP.part.metal>
0.0000

> <Gold.PLP.part.buried>
-0.5511

> <Gold.PLP.part.nonpolar>
-28.8828

> <Gold.PLP.part.repulsive>
0.4410

> <Gold.PLP.ligand.clash>
0.0063

> <Gold.PLP.ligand.torsion>
0.4743

> <Gold.PLP.Chemscore.Hbond>
4.0000

> <Gold.PLP.Chemscore.CHOScore>
1.4347

> <Gold.PLP.Chemscore.Metal>
0.0000

> <Gold.Chemscore.Hbonds>
donor molecule, donor type, donor heavy atom, donor atom, acceptor molecule, acceptor atom, score
      L1  H     4    42       P1  7948  2.00
      L1  H     8    33       P1  7948  1.00
      P1  H  7989  7998       L1    20  0.85
      L1  C    15    35       P1 10186  0.65
      L1  C    15    35       P1 10952  0.83

> <Gold.PLP.Chemscore.Internal.Correction>
0.0708

> <Gold.Rescore>
     Score         DG    S(hbond)    S(metal)    S(lipo)     H(rot)  DE(clash)    DE(int)     intcor
     16.46     -19.28       2.69        0.00      75.62       1.58       1.02       1.80       ----

> <Gold.Chemscore.Fitness>
16.4600

> <Gold.Chemscore.DG>
-19.2797

> <Gold.Chemscore.ZeroCoef>
-5.4800

> <Gold.Chemscore.Hbond>
2.6928

> <Gold.Chemscore.Metal>
0.0000

> <Gold.Chemscore.Lipo>
75.6249

> <Gold.Chemscore.Internal_Hbond>
0.0000

> <Gold.Chemscore.DEClash>
1.0183

> <Gold.Chemscore.DEInternal>
1.8014

> <Gold.Chemscore.Rot>
1.5791

> <Gold.Chemscore.Internal.Correction>
   9.000000E+99

> <Gold.Chemscore.Hbonds>
donor molecule, donor type, donor heavy atom, donor atom, acceptor molecule, acceptor atom, score
      L1  H     4    42       P1  7948  1.00
      L1  H     8    33       P1  7948  0.94
      P1  H  7989  7998       L1    20  0.14

> <Gold.Chemscore.Hbond.Weighted>
-8.9940

> <Gold.Chemscore.Metal.Weighted>
-0.0000

> <Gold.Chemscore.Lipo.Weighted>
-8.8481

> <Gold.Chemscore.Internal_Hbond.Weighted>
0.0000

> <Gold.Chemscore.DEClash.Weighted>
1.0183

> <Gold.Chemscore.DEInternal.Weighted>
1.8014

> <Gold.Chemscore.Rot.Weighted>
4.0425

> <Gold.Chemscore.Internal.Correction.Weighted>
   9.000000E+99

> <Gold.Protein.RotatedTorsions>
[ 6907 6896 6895 6894 ] final -115.70 input  -60.11 | X-H torsion
[ 7974 7965 7964 7962 ] final    4.31 input  175.53 | X-H torsion
[ 8008 7997 7996 7995 ] final  -70.63 input   59.86 | X-H torsion
[ 10167 10162 10161 10158 ] final  172.28 input  -65.29 | X-H torsion
[ 10718 10713 10712 10709 ] final  108.23 input   66.30 | X-H torsion
[ 10763 10752 10751 10750 ] final  142.12 input  -60.55 | X-H torsion
[ 11005 11000 10999 10996 ] final -104.40 input  -57.11 | X-H torsion

> <Gold.Protein.ActiveResidues>
 VAL166  LYS551  ARG553  GLY616  TRP617  ASP618  TYR619  PRO620  LYS621  CYS622 
 ASP623  PHE694  ASN695  SER759  ASP760  ASP761  ALA762  ILE779  LEU786  VAL792 
 PHE793  MET794  SER795  GLU796  ALA797  LYS798  CYS799  TRP800  GLU811  SER814 

> <Gold.Protein.RotatedAtoms>
  150.7998  133.8621  159.3234 H   0  0  0  0  0  0  0  0  0  0  0  0  # atno 6907 bound_to 6896
  151.6436  135.1008  160.0156 H   0  0  0  0  0  0  0  0  0  0  0  0  # atno 6908 bound_to 6896
  152.4084  133.6885  159.6411 H   0  0  0  0  0  0  0  0  0  0  0  0  # atno 6909 bound_to 6896
  146.2444  140.0553  142.8372 H   0  0  0  0  0  0  0  0  0  0  0  0  # atno 7974 bound_to 7965
  154.5026  140.0831  156.7830 H   0  0  0  0  0  0  0  0  0  0  0  0  # atno 8008 bound_to 7997
  155.3967  140.3435  155.4236 H   0  0  0  0  0  0  0  0  0  0  0  0  # atno 8009 bound_to 7997
  156.1476  140.1548  156.8809 H   0  0  0  0  0  0  0  0  0  0  0  0  # atno 8010 bound_to 7997
  139.5072  144.3392  152.0035 H   0  0  0  0  0  0  0  0  0  0  0  0  # atno 10167 bound_to 10162
  157.6595  131.0889  150.6274 H   0  0  0  0  0  0  0  0  0  0  0  0  # atno 10718 bound_to 10713
  153.9505  135.2970  155.3439 H   0  0  0  0  0  0  0  0  0  0  0  0  # atno 10763 bound_to 10752
  154.7429  135.5016  153.9156 H   0  0  0  0  0  0  0  0  0  0  0  0  # atno 10764 bound_to 10752
  153.0996  135.6731  153.9805 H   0  0  0  0  0  0  0  0  0  0  0  0  # atno 10765 bound_to 10752
  141.1102  133.8720  157.1606 H   0  0  0  0  0  0  0  0  0  0  0  0  # atno 11005 bound_to 11000
  145.0947  140.9307  143.4748 LP  0  0  0  0  0  0  0  0  0  0  0  0  # atno 17320 bound_to 7965
  145.0734  139.3014  143.5820 LP  0  0  0  0  0  0  0  0  0  0  0  0  # atno 17321 bound_to 7965
  140.2830  144.3838  150.6113 LP  0  0  0  0  0  0  0  0  0  0  0  0  # atno 17342 bound_to 10162
  140.6004  143.2167  151.7083 LP  0  0  0  0  0  0  0  0  0  0  0  0  # atno 17343 bound_to 10162
  156.6578  130.4503  149.5697 LP  0  0  0  0  0  0  0  0  0  0  0  0  # atno 17370 bound_to 10713
  156.2089  130.6667  151.1248 LP  0  0  0  0  0  0  0  0  0  0  0  0  # atno 17371 bound_to 10713
  139.9992  135.0034  157.0151 LP  0  0  0  0  0  0  0  0  0  0  0  0  # atno 17394 bound_to 11000
  140.4795  134.1304  155.7215 LP  0  0  0  0  0  0  0  0  0  0  0  0  # atno 17395 bound_to 11000

$$$$
