#       Name:                AV-unprocessed.smi:2726
#       Creating user name   scv26
#       Creation time:       Fri Mar 27 14:56:13 2020


#       File generated by GOLD software.
#

@<TRIPOS>MOLECULE
AV-unprocessed.smi:2726
    45    46     1
SMALL
NO_CHARGES


@<TRIPOS>ATOM
      1 ****        -5.9174   0.3930   0.1437 C.3            1 S1                 0.0000
      2 ****        -4.6943   1.3270   0.1198 C.3            1 S1                 0.0000
      3 ****        -4.7332   2.1700  -1.1722 C.3            1 S1                 0.0000
      4 ****        -4.7372   2.2385   1.3643 C.3            1 S1                 0.0000
      5 ****        -3.5021   0.4705   0.1435 N.am           1 S1                 0.0000
      6 ****        -2.2095   0.8379   0.1374 C.2            1 S1                 0.0000
      7 ****        -1.8248   2.0066   0.1141 O.2            1 S1                 0.0000
      8 ****        -1.4061  -0.2394   0.1379 N.am           1 S1                 0.0000
      9 ****         0.0138  -0.2804   0.1326 C.ar           1 S1                 0.0000
     10 ****         0.8410   0.7636   0.6101 C.ar           1 S1                 0.0000
     11 ****         2.2385   0.5965   0.5703 C.ar           1 S1                 0.0000
     12 ****         2.7675  -0.6079   0.0627 C.ar           1 S1                 0.0000
     13 ****         4.1608  -0.7688   0.0209 N.3            1 S1                 0.0000
     14 ****         4.6836  -1.8639   0.8211 C.3            1 S1                 0.0000
     15 ****         6.1141  -2.0855   0.3237 C.3            1 S1                 0.0000
     16 ****         6.1380  -1.4845  -1.0871 C.3            1 S1                 0.0000
     17 ****         4.7236  -0.9417  -1.3082 C.3            1 S1                 0.0000
     18 ****         1.9805  -1.6163  -0.3828 N.ar           1 S1                 0.0000
     19 ****         0.6417  -1.4507  -0.3406 C.ar           1 S1                 0.0000
     20 ****        -6.8495   0.9590   0.1232 H              1 S1                 0.0000
     21 ****        -5.9296  -0.2247   1.0426 H              1 S1                 0.0000
     22 ****        -5.9234  -0.2782  -0.7162 H              1 S1                 0.0000
     23 ****        -4.6717   1.5396  -2.0601 H              1 S1                 0.0000
     24 ****        -3.9137   2.8871  -1.2196 H              1 S1                 0.0000
     25 ****        -5.6598   2.7410  -1.2397 H              1 S1                 0.0000
     26 ****        -5.6657   2.8092   1.3995 H              1 S1                 0.0000
     27 ****        -3.9204   2.9601   1.3737 H              1 S1                 0.0000
     28 ****        -4.6751   1.6575   2.2851 H              1 S1                 0.0000
     29 ****        -3.6865  -0.5218   0.1604 H              1 S1                 0.0000
     30 ****        -1.8654  -1.1359   0.0696 H              1 S1                 0.0000
     31 ****         0.4353   1.6768   1.0166 H              1 S1                 0.0000
     32 ****         2.8906   1.3799   0.9283 H              1 S1                 0.0000
     33 ****         4.6611  -1.6198   1.8836 H              1 S1                 0.0000
     34 ****         4.0912  -2.7675   0.6704 H              1 S1                 0.0000
     35 ****         6.8228  -1.5580   0.9632 H              1 S1                 0.0000
     36 ****         6.3825  -3.1423   0.3301 H              1 S1                 0.0000
     37 ****         6.8669  -0.6745  -1.1336 H              1 S1                 0.0000
     38 ****         6.4079  -2.2191  -1.8466 H              1 S1                 0.0000
     39 ****         4.1351  -1.6564  -1.8853 H              1 S1                 0.0000
     40 ****         4.7369   0.0020  -1.8543 H              1 S1                 0.0000
     41 ****         0.0523  -2.2805  -0.7032 H              1 S1                 0.0000
     42 ****        -2.4911   2.7522   0.0983 LP             1 S1                 0.0000
     43 ****        -0.8459   2.2108   0.1110 LP             1 S1                 0.0000
     44 ****         4.4457   0.1083   0.4076 LP             1 S1                 0.0000
     45 ****         2.3814  -2.4623  -0.7342 LP             1 S1                 0.0000
@<TRIPOS>BOND
    1    1    2 1     
    2    1   20 1     
    3    1   21 1     
    4    1   22 1     
    5    2    3 1     
    6    2    4 1     
    7    2    5 1     
    8    3   23 1     
    9    3   24 1     
   10    3   25 1     
   11    4   26 1     
   12    4   27 1     
   13    4   28 1     
   14    5    6 am    
   15    5   29 1     
   16    6    7 2     
   17    6    8 am    
   18    8    9 1     
   19    8   30 1     
   20    9   19 ar    
   21    9   10 ar    
   22   10   11 ar    
   23   10   31 1     
   24   11   12 ar    
   25   11   32 1     
   26   12   13 1     
   27   12   18 ar    
   28   13   17 1     
   29   13   14 1     
   30   14   15 1     
   31   14   33 1     
   32   14   34 1     
   33   15   16 1     
   34   15   35 1     
   35   15   36 1     
   36   16   17 1     
   37   16   37 1     
   38   16   38 1     
   39   17   39 1     
   40   17   40 1     
   41   18   19 ar    
   42   19   41 1     
   43    7   42 1     
   44    7   43 1     
   45   13   44 1     
   46   18   45 1     
@<TRIPOS>SUBSTRUCTURE
      1 S1             1
@<TRIPOS>SET
LONE_PAIRS      STATIC     ATOMS    <user>   **** ""
4 42 43 44 45
DONOR_HYDROGENS      STATIC     ATOMS    <user>   **** ""
2 29 30
ATOM$BLUE        STATIC     ATOMS    COLORGROUP SYSTEM
4 42 43 44 45
ATOM$RED        STATIC     ATOMS    COLORGROUP SYSTEM
2 29 30
