AV-unprocessed.smi:102|AV-procd|sdf|947|dock3
  -GOLD-   2262017473D 1   1.00000     0.00000
 Structure written by MMmdl.
 44 45  0  0  0  0  0  0  0  0  1 V2000
  145.9670  135.8398  161.8085 C   0  0  0  0  0  0  0  0  0  0  0  0
  147.3755  136.3138  161.4766 C   0  0  0  0  0  0  0  0  0  0  0  0
  148.2251  136.4701  162.3535 O   0  0  0  0  0  0  0  0  0  0  0  0
  147.5482  136.5268  160.1650 O   0  0  0  0  0  0  0  0  0  0  0  0
  148.8311  136.3449  159.5856 C   0  0  0  0  0  0  0  0  0  0  0  0
  149.2634  137.6080  158.8273 C   0  0  2  0  0  0  0  0  0  0  0  0
  148.3765  137.8762  157.7437 O   0  0  0  0  0  0  0  0  0  0  0  0
  149.0717  137.9361  156.5330 C   0  0  2  0  0  0  0  0  0  0  0  0
  148.8920  136.5992  155.8257 N   0  0  0  0  0  0  0  0  0  0  0  0
  148.0971  135.5590  156.3031 C   0  0  0  0  0  0  0  0  0  0  0  0
  147.9161  134.3974  155.6310 C   0  0  0  0  0  0  0  0  0  0  0  0
  147.1298  133.4430  156.1570 F   0  0  0  0  0  0  0  0  0  0  0  0
  148.5530  134.1750  154.3380 C   0  0  0  0  0  0  0  0  0  0  0  0
  148.4467  133.1579  153.6558 O   0  0  0  0  0  0  0  0  0  0  0  0
  149.3286  135.2455  153.8886 N   0  0  0  0  0  0  0  0  0  0  0  0
  149.5225  136.4481  154.5689 C   0  0  0  0  0  0  0  0  0  0  0  0
  150.2218  137.3271  154.0664 O   0  0  0  0  0  0  0  0  0  0  0  0
  150.5248  138.2768  156.9034 C   0  0  1  0  0  0  0  0  0  0  0  0
  150.6492  139.6882  157.0580 O   0  0  0  0  0  0  0  0  0  0  0  0
  150.7759  140.4826  155.9810 C   0  0  0  0  0  0  0  0  0  0  0  0
  150.8449  141.9578  156.3520 C   0  0  0  0  0  0  0  0  0  0  0  0
  150.8259  140.1113  154.8084 O   0  0  0  0  0  0  0  0  0  0  0  0
  150.6808  137.5646  158.2458 C   0  0  1  0  0  0  0  0  0  0  0  0
  151.6323  138.1927  159.0974 O   0  0  0  0  0  0  0  0  0  0  0  0
  152.8403  138.5379  158.6184 C   0  0  0  0  0  0  0  0  0  0  0  0
  153.7326  139.1626  159.6826 C   0  0  0  0  0  0  0  0  0  0  0  0
  153.2264  138.3956  157.4580 O   0  0  0  0  0  0  0  0  0  0  0  0
  149.7843  135.1420  152.9937 H   0  0  0  0  0  0  0  0  0  0  0  0
  145.6695  135.0304  161.1417 H   0  0  0  0  0  0  0  0  0  0  0  0
  145.2577  136.6599  161.6979 H   0  0  0  0  0  0  0  0  0  0  0  0
  145.9174  135.4768  162.8352 H   0  0  0  0  0  0  0  0  0  0  0  0
  149.5589  136.1131  160.3643 H   0  0  0  0  0  0  0  0  0  0  0  0
  148.8031  135.4955  158.9017 H   0  0  0  0  0  0  0  0  0  0  0  0
  149.1790  138.4637  159.4983 H   0  0  0  0  0  0  0  0  0  0  0  0
  148.6297  138.6651  155.8504 H   0  0  0  0  0  0  0  0  0  0  0  0
  147.5808  135.6365  157.2452 H   0  0  0  0  0  0  0  0  0  0  0  0
  151.2349  137.9267  156.1546 H   0  0  0  0  0  0  0  0  0  0  0  0
  151.4519  142.0999  157.2463 H   0  0  0  0  0  0  0  0  0  0  0  0
  149.8445  142.3445  156.5458 H   0  0  0  0  0  0  0  0  0  0  0  0
  151.2876  142.5353  155.5402 H   0  0  0  0  0  0  0  0  0  0  0  0
  150.9612  136.5245  158.0814 H   0  0  0  0  0  0  0  0  0  0  0  0
  153.5639  138.6910  160.6510 H   0  0  0  0  0  0  0  0  0  0  0  0
  153.5205  140.2278  159.7733 H   0  0  0  0  0  0  0  0  0  0  0  0
  154.7833  139.0401  159.4189 H   0  0  0  0  0  0  0  0  0  0  0  0
  1  2  1  0  0  0  0
  1 29  1  0  0  0  0
  1 30  1  0  0  0  0
  1 31  1  0  0  0  0
  2  3  2  0  0  0  0
  2  4  1  0  0  0  0
  4  5  1  0  0  0  0
  5  6  1  0  0  0  0
  5 32  1  0  0  0  0
  5 33  1  0  0  0  0
  6 23  1  0  0  0  0
  6  7  1  0  0  0  0
  6 34  1  0  0  0  0
  7  8  1  0  0  0  0
  8  9  1  0  0  0  0
  8 18  1  0  0  0  0
  8 35  1  0  0  0  0
  9 16  1  0  0  0  0
  9 10  1  0  0  0  0
 10 11  2  0  0  0  0
 10 36  1  0  0  0  0
 11 12  1  0  0  0  0
 11 13  1  0  0  0  0
 13 14  2  0  0  0  0
 13 15  1  0  0  0  0
 15 28  1  0  0  0  0
 15 16  1  0  0  0  0
 16 17  2  0  0  0  0
 18 19  1  0  0  0  0
 18 23  1  0  0  0  0
 18 37  1  0  0  0  0
 19 20  1  0  0  0  0
 20 21  1  0  0  0  0
 20 22  2  0  0  0  0
 21 38  1  0  0  0  0
 21 39  1  0  0  0  0
 21 40  1  0  0  0  0
 23 24  1  0  0  0  0
 23 41  1  0  0  0  0
 24 25  1  0  0  0  0
 25 26  1  0  0  0  0
 25 27  2  0  0  0  0
 26 42  1  0  0  0  0
 26 43  1  0  0  0  0
 26 44  1  0  0  0  0
M  END
> <s_m_source_file>
AV-unprocessed.smi

> <i_m_source_file_index>
102

> <i_lp_mmshare_version>
43012

> <i_f3d_flags>
0

> <s_epik_input>
W0NIM11DKD1PKU9bQ0gyXVtDQEBIXTFPW0NASF0oW0NAQEhdKE9DKD1PKVtDSDNdKVtDQEhdMU9DKD1PKVtDSDNdKW4yW2NIXWMoRiljKD1PKVtuSF1jMj1P

> <s_epik_cmdline>
J2VwaWtfcHl0aG9uJywgJy1waCcsICc3LjAnLCAnLXRuJywgJzgnLCAnLW1hJywgJzIwMCcsICctbWV0YWxfYmluZGluZycsICctaW1hZScsICc8aW5maWxlLm1hZT4nLCAnLW9tYWUnLCAnPG91dGZpbGUubWFlPic=

> <r_lp_tautomer_probability>
0.999537

> <r_epik_Ionization_Penalty>
0.058267

> <r_epik_Ionization_Penalty_Charging>
0.058267

> <r_epik_Ionization_Penalty_Neutral>
6.57791e-16

> <r_epik_State_Penalty>
0.0503774

> <r_epik_Charging_Adjusted_Penalty>
0.108644

> <i_epik_Tot_Q>
0

> <i_epik_Tot_abs_Q>
0

> <r_epik_Metal_State_Penalty>
2.6644

> <b_epik_Metal_Only>
0

> <s_epik_Chemistry_Notes>
This compound has an ester and may undergo hydrolysis at high or low pH. This compound contains an acetal/aminal-like group ( X-CH(R)-Y where X, Y are N, S, or O) that may be acid/base labile, releasing an aldehyde.

> <s_lp_Force_Field>
OPLS_2005

> <r_lp_Energy>
12.8292

> <b_lp_Chiralities_Consistent>
1

> <s_lp_Variant>
AV-unprocessed.smi:102-3

> <Gold.Version>
5.8.1

> <Gold.Id.Protein>
6NUR|6NUR_protein|mol2

> <Gold.PLP.Fitness>
37.0870

> <Gold.PLP.PLP>
-29.5808

> <Gold.PLP.part.hbond>
-4.5978

> <Gold.PLP.part.metal>
0.0000

> <Gold.PLP.part.buried>
-5.4475

> <Gold.PLP.part.nonpolar>
-20.8220

> <Gold.PLP.part.repulsive>
0.4471

> <Gold.PLP.ligand.clash>
0.0000

> <Gold.PLP.ligand.torsion>
0.9939

> <Gold.PLP.Chemscore.Hbond>
3.0946

> <Gold.PLP.Chemscore.CHOScore>
0.0000

> <Gold.PLP.Chemscore.Metal>
0.0000

> <Gold.Chemscore.Hbonds>
donor molecule, donor type, donor heavy atom, donor atom, acceptor molecule, acceptor atom, score
      P1  H  6931  6943       L1     3  1.00
      P1  H  7989  7998       L1    22  1.00
      P1  H  7997  8008       L1    27  0.67

> <Gold.PLP.Chemscore.Internal.Correction>
0.2101

> <Gold.Rescore>
     Score         DG    S(hbond)    S(metal)    S(lipo)     H(rot)  DE(clash)    DE(int)     intcor
      5.32      -9.68       2.82        0.00      44.10       4.05       0.01       4.34       ----

> <Gold.Chemscore.Fitness>
5.3229

> <Gold.Chemscore.DG>
-9.6766

> <Gold.Chemscore.ZeroCoef>
-5.4800

> <Gold.Chemscore.Hbond>
2.8173

> <Gold.Chemscore.Metal>
0.0000

> <Gold.Chemscore.Lipo>
44.1023

> <Gold.Chemscore.Internal_Hbond>
0.0000

> <Gold.Chemscore.DEClash>
0.0142

> <Gold.Chemscore.DEInternal>
4.3395

> <Gold.Chemscore.Rot>
4.0520

> <Gold.Chemscore.Internal.Correction>
   9.000000E+99

> <Gold.Chemscore.Hbonds>
donor molecule, donor type, donor heavy atom, donor atom, acceptor molecule, acceptor atom, score
      P1  H  6931  6943       L1     3  0.43
      P1  H  7989  7998       L1    22  1.00
      P1  H  7997  8008       L1    27  0.42

> <Gold.Chemscore.Hbond.Weighted>
-9.4098

> <Gold.Chemscore.Metal.Weighted>
-0.0000

> <Gold.Chemscore.Lipo.Weighted>
-5.1600

> <Gold.Chemscore.Internal_Hbond.Weighted>
0.0000

> <Gold.Chemscore.DEClash.Weighted>
0.0142

> <Gold.Chemscore.DEInternal.Weighted>
4.3395

> <Gold.Chemscore.Rot.Weighted>
10.3732

> <Gold.Chemscore.Internal.Correction.Weighted>
   9.000000E+99

> <Gold.Protein.RotatedTorsions>
[ 6907 6896 6895 6894 ] final  -24.11 input  -60.11 | X-H torsion
[ 7974 7965 7964 7962 ] final  -25.00 input  175.53 | X-H torsion
[ 8008 7997 7996 7995 ] final  -84.63 input   59.86 | X-H torsion
[ 10167 10162 10161 10158 ] final   79.76 input  -65.29 | X-H torsion
[ 10718 10713 10712 10709 ] final    6.99 input   66.30 | X-H torsion
[ 10763 10752 10751 10750 ] final  -75.61 input  -60.55 | X-H torsion
[ 11005 11000 10999 10996 ] final  113.41 input  -57.11 | X-H torsion

> <Gold.Protein.ActiveResidues>
 VAL166  LYS551  ARG553  GLY616  TRP617  ASP618  TYR619  PRO620  LYS621  CYS622 
 ASP623  PHE694  ASN695  SER759  ASP760  ASP761  ALA762  ILE779  LEU786  VAL792 
 PHE793  MET794  SER795  GLU796  ALA797  LYS798  CYS799  TRP800  GLU811  SER814 

> <Gold.Protein.RotatedAtoms>
  151.1943  135.0416  159.8845 H   0  0  0  0  0  0  0  0  0  0  0  0  # atno 6907 bound_to 6896
  152.5437  134.0921  159.8291 H   0  0  0  0  0  0  0  0  0  0  0  0  # atno 6908 bound_to 6896
  151.1053  133.5165  159.2640 H   0  0  0  0  0  0  0  0  0  0  0  0  # atno 6909 bound_to 6896
  146.1519  140.4828  142.8608 H   0  0  0  0  0  0  0  0  0  0  0  0  # atno 7974 bound_to 7965
  154.6319  140.0602  156.9743 H   0  0  0  0  0  0  0  0  0  0  0  0  # atno 8008 bound_to 7997
  155.1651  140.3286  155.4385 H   0  0  0  0  0  0  0  0  0  0  0  0  # atno 8009 bound_to 7997
  156.2487  140.1924  156.6757 H   0  0  0  0  0  0  0  0  0  0  0  0  # atno 8010 bound_to 7997
  139.9569  144.5988  150.8108 H   0  0  0  0  0  0  0  0  0  0  0  0  # atno 10167 bound_to 10162
  156.9303  130.5823  149.5649 H   0  0  0  0  0  0  0  0  0  0  0  0  # atno 10718 bound_to 10713
  154.4889  135.5825  153.6444 H   0  0  0  0  0  0  0  0  0  0  0  0  # atno 10763 bound_to 10752
  152.9859  135.6108  154.3151 H   0  0  0  0  0  0  0  0  0  0  0  0  # atno 10764 bound_to 10752
  154.3049  135.2846  155.2573 H   0  0  0  0  0  0  0  0  0  0  0  0  # atno 10765 bound_to 10752
  139.8952  134.9549  156.6735 H   0  0  0  0  0  0  0  0  0  0  0  0  # atno 11005 bound_to 11000
  144.7914  140.6039  143.6539 LP  0  0  0  0  0  0  0  0  0  0  0  0  # atno 17320 bound_to 7965
  145.4803  139.1496  143.3765 LP  0  0  0  0  0  0  0  0  0  0  0  0  # atno 17321 bound_to 7965
  140.7565  143.3068  151.2942 LP  0  0  0  0  0  0  0  0  0  0  0  0  # atno 17342 bound_to 10162
  139.6584  144.0233  152.2676 LP  0  0  0  0  0  0  0  0  0  0  0  0  # atno 17343 bound_to 10162
  156.0450  130.5528  150.8860 LP  0  0  0  0  0  0  0  0  0  0  0  0  # atno 17370 bound_to 10713
  157.5851  131.0945  150.9209 LP  0  0  0  0  0  0  0  0  0  0  0  0  # atno 17371 bound_to 10713
  140.7355  133.9022  155.8241 LP  0  0  0  0  0  0  0  0  0  0  0  0  # atno 17394 bound_to 11000
  141.0119  134.1008  157.4212 LP  0  0  0  0  0  0  0  0  0  0  0  0  # atno 17395 bound_to 11000

$$$$
