AV-unprocessed.smi:2443|AV-procd|sdf|9631|dock6
  -GOLD-   2272013263D 1   1.00000     0.00000
 Structure written by MMmdl.
 37 39  0  0  0  0  0  0  0  0  1 V2000
  150.8744  141.4749  156.0625 C   0  0  0  0  0  0  0  0  0  0  0  0
  150.5839  140.4248  155.1470 O   0  0  0  0  0  0  0  0  0  0  0  0
  149.3069  140.3450  154.6313 C   0  0  0  0  0  0  0  0  0  0  0  0
  148.9282  139.2021  153.8974 C   0  0  0  0  0  0  0  0  0  0  0  0
  147.6126  139.1624  153.3833 C   0  0  0  0  0  0  0  0  0  0  0  0
  147.2719  137.9957  152.6497 N   0  0  0  0  0  0  0  0  0  0  0  0
  146.0626  137.4232  152.5179 C   0  0  0  0  0  0  0  0  0  0  0  0
  145.0184  137.8406  153.0194 O   0  0  0  0  0  0  0  0  0  0  0  0
  146.1281  136.3211  151.7576 N   0  0  0  0  0  0  0  0  0  0  0  0
  144.9947  135.4651  151.4256 C   0  0  0  0  0  0  0  0  0  0  0  0
  145.2791  133.9682  151.3765 C   0  0  0  0  0  0  0  0  0  0  0  0
  144.0904  133.0910  150.9929 C   0  0  0  0  0  0  0  0  0  0  0  0
  144.3011  131.6242  150.6946 C   0  0  0  0  0  0  0  0  0  0  0  0
  143.8488  132.5518  149.5961 C   0  0  0  0  0  0  0  0  0  0  0  0
  146.6370  133.5254  150.8647 C   0  0  0  0  0  0  0  0  0  0  0  0
  146.3412  133.4506  152.3351 C   0  0  0  0  0  0  0  0  0  0  0  0
  146.7674  140.1989  153.6070 N   0  0  0  0  0  0  0  0  0  0  0  0
  147.2214  141.2344  154.3152 C   0  0  0  0  0  0  0  0  0  0  0  0
  148.4407  141.3658  154.8389 N   0  0  0  0  0  0  0  0  0  0  0  0
  151.9167  141.4051  156.3729 H   0  0  0  0  0  0  0  0  0  0  0  0
  150.2568  141.4048  156.9589 H   0  0  0  0  0  0  0  0  0  0  0  0
  150.7310  142.4546  155.6044 H   0  0  0  0  0  0  0  0  0  0  0  0
  149.6247  138.3925  153.7354 H   0  0  0  0  0  0  0  0  0  0  0  0
  148.0368  137.5454  152.1694 H   0  0  0  0  0  0  0  0  0  0  0  0
  147.0266  136.0491  151.3864 H   0  0  0  0  0  0  0  0  0  0  0  0
  144.1722  135.6660  152.1143 H   0  0  0  0  0  0  0  0  0  0  0  0
  144.6400  135.7708  150.4412 H   0  0  0  0  0  0  0  0  0  0  0  0
  143.1842  133.3156  151.5525 H   0  0  0  0  0  0  0  0  0  0  0  0
  145.3251  131.2591  150.6503 H   0  0  0  0  0  0  0  0  0  0  0  0
  143.5725  130.9213  151.0936 H   0  0  0  0  0  0  0  0  0  0  0  0
  142.8150  132.4692  149.2671 H   0  0  0  0  0  0  0  0  0  0  0  0
  144.5659  132.7479  148.8040 H   0  0  0  0  0  0  0  0  0  0  0  0
  146.6882  132.5861  150.3173 H   0  0  0  0  0  0  0  0  0  0  0  0
  147.3332  134.2924  150.5312 H   0  0  0  0  0  0  0  0  0  0  0  0
  146.8374  134.1756  152.9773 H   0  0  0  0  0  0  0  0  0  0  0  0
  146.2519  132.4556  152.7612 H   0  0  0  0  0  0  0  0  0  0  0  0
  146.5315  142.0480  154.4821 H   0  0  0  0  0  0  0  0  0  0  0  0
  1  2  1  0  0  0  0
  1 20  1  0  0  0  0
  1 21  1  0  0  0  0
  1 22  1  0  0  0  0
  2  3  1  0  0  0  0
  3 19  1  0  0  0  0
  3  4  2  0  0  0  0
  4  5  1  0  0  0  0
  4 23  1  0  0  0  0
  5  6  1  0  0  0  0
  5 17  2  0  0  0  0
  6  7  1  0  0  0  0
  6 24  1  0  0  0  0
  7  8  2  0  0  0  0
  7  9  1  0  0  0  0
  9 10  1  0  0  0  0
  9 25  1  0  0  0  0
 10 11  1  0  0  0  0
 10 26  1  0  0  0  0
 10 27  1  0  0  0  0
 11 16  1  0  0  0  0
 11 12  1  0  0  0  0
 11 15  1  0  0  0  0
 12 14  1  0  0  0  0
 12 13  1  0  0  0  0
 12 28  1  0  0  0  0
 13 14  1  0  0  0  0
 13 29  1  0  0  0  0
 13 30  1  0  0  0  0
 14 31  1  0  0  0  0
 14 32  1  0  0  0  0
 15 16  1  0  0  0  0
 15 33  1  0  0  0  0
 15 34  1  0  0  0  0
 16 35  1  0  0  0  0
 16 36  1  0  0  0  0
 17 18  1  0  0  0  0
 18 19  2  0  0  0  0
 18 37  1  0  0  0  0
M  END
> <s_m_source_file>
AV-unprocessed.smi

> <i_m_source_file_index>
2443

> <i_lp_mmshare_version>
43012

> <i_f3d_flags>
0

> <s_epik_input>
W0NIM11PYzFbY0hdYyhuW2NIXW4xKVtOSF1DKD1PKVtOSF1bQ0gyXUMyKFtDSDJdW0NIMl0yKVtDSF0zW0NIMl1bQ0gyXTM=

> <s_epik_cmdline>
J2VwaWtfcHl0aG9uJywgJy1waCcsICc3LjAnLCAnLXRuJywgJzgnLCAnLW1hJywgJzIwMCcsICctbWV0YWxfYmluZGluZycsICctaW1hZScsICc8aW5maWxlLm1hZT4nLCAnLW9tYWUnLCAnPG91dGZpbGUubWFlPic=

> <r_lp_tautomer_probability>
1

> <r_epik_Ionization_Penalty>
2.73859e-05

> <r_epik_Ionization_Penalty_Charging>
0

> <r_epik_Ionization_Penalty_Neutral>
2.73859e-05

> <r_epik_State_Penalty>
-0

> <r_epik_Charging_Adjusted_Penalty>
0

> <i_epik_Tot_Q>
0

> <i_epik_Tot_abs_Q>
0

> <r_epik_Metal_State_Penalty>
-0

> <b_epik_Metal_Only>
0

> <s_lp_Force_Field>
OPLS_2005

> <r_lp_Energy>
26.0575

> <b_lp_Chiralities_Consistent>
1

> <s_lp_Variant>
AV-unprocessed.smi:2443-1

> <Gold.Version>
5.8.1

> <Gold.Id.Protein>
6NUR|6NUR_protein|mol2

> <Gold.PLP.Fitness>
41.8975

> <Gold.PLP.PLP>
-34.3998

> <Gold.PLP.part.hbond>
-2.9765

> <Gold.PLP.part.metal>
0.0000

> <Gold.PLP.part.buried>
-4.5918

> <Gold.PLP.part.nonpolar>
-28.7123

> <Gold.PLP.part.repulsive>
1.3667

> <Gold.PLP.ligand.clash>
0.0000

> <Gold.PLP.ligand.torsion>
1.7513

> <Gold.PLP.Chemscore.Hbond>
2.8160

> <Gold.PLP.Chemscore.CHOScore>
0.0000

> <Gold.PLP.Chemscore.Metal>
0.0000

> <Gold.Chemscore.Hbonds>
donor molecule, donor type, donor heavy atom, donor atom, acceptor molecule, acceptor atom, score
      L1  H     6    24       P1  7948  1.00
      L1  H     9    25       P1  7948  0.80
      P1  H  7989  7998       L1     2  1.00

> <Gold.PLP.Chemscore.Internal.Correction>
2.5522

> <Gold.Rescore>
     Score         DG    S(hbond)    S(metal)    S(lipo)     H(rot)  DE(clash)    DE(int)     intcor
     12.73     -16.28       2.45        0.00      63.24       1.86       0.58       2.97       ----

> <Gold.Chemscore.Fitness>
12.7288

> <Gold.Chemscore.DG>
-16.2817

> <Gold.Chemscore.ZeroCoef>
-5.4800

> <Gold.Chemscore.Hbond>
2.4457

> <Gold.Chemscore.Metal>
0.0000

> <Gold.Chemscore.Lipo>
63.2431

> <Gold.Chemscore.Internal_Hbond>
0.0000

> <Gold.Chemscore.DEClash>
0.5791

> <Gold.Chemscore.DEInternal>
2.9738

> <Gold.Chemscore.Rot>
1.8619

> <Gold.Chemscore.Internal.Correction>
   9.000000E+99

> <Gold.Chemscore.Hbonds>
donor molecule, donor type, donor heavy atom, donor atom, acceptor molecule, acceptor atom, score
      L1  H     6    24       P1  7948  0.96
      L1  H     9    25       P1  7948  0.79
      P1  H  7989  7998       L1     2  0.14

> <Gold.Chemscore.Hbond.Weighted>
-8.1687

> <Gold.Chemscore.Metal.Weighted>
-0.0000

> <Gold.Chemscore.Lipo.Weighted>
-7.3994

> <Gold.Chemscore.Internal_Hbond.Weighted>
0.0000

> <Gold.Chemscore.DEClash.Weighted>
0.5791

> <Gold.Chemscore.DEInternal.Weighted>
2.9738

> <Gold.Chemscore.Rot.Weighted>
4.7665

> <Gold.Chemscore.Internal.Correction.Weighted>
   9.000000E+99

> <Gold.Protein.RotatedTorsions>
[ 6907 6896 6895 6894 ] final -161.27 input  -60.11 | X-H torsion
[ 7974 7965 7964 7962 ] final  -42.74 input  175.53 | X-H torsion
[ 8008 7997 7996 7995 ] final  -25.01 input   59.86 | X-H torsion
[ 10167 10162 10161 10158 ] final  -67.84 input  -65.29 | X-H torsion
[ 10718 10713 10712 10709 ] final  -18.85 input   66.30 | X-H torsion
[ 10763 10752 10751 10750 ] final   69.40 input  -60.55 | X-H torsion
[ 11005 11000 10999 10996 ] final   43.17 input  -57.11 | X-H torsion

> <Gold.Protein.ActiveResidues>
 VAL166  LYS551  ARG553  GLY616  TRP617  ASP618  TYR619  PRO620  LYS621  CYS622 
 ASP623  PHE694  ASN695  SER759  ASP760  ASP761  ALA762  ILE779  LEU786  VAL792 
 PHE793  MET794  SER795  GLU796  ALA797  LYS798  CYS799  TRP800  GLU811  SER814 

> <Gold.Protein.RotatedAtoms>
  151.3621  133.3885  159.2690 H   0  0  0  0  0  0  0  0  0  0  0  0  # atno 6907 bound_to 6896
  150.9717  134.9090  159.7802 H   0  0  0  0  0  0  0  0  0  0  0  0  # atno 6908 bound_to 6896
  152.5187  134.3583  159.9328 H   0  0  0  0  0  0  0  0  0  0  0  0  # atno 6909 bound_to 6896
  146.0087  140.6990  142.9235 H   0  0  0  0  0  0  0  0  0  0  0  0  # atno 7974 bound_to 7965
  154.4498  140.1938  156.0553 H   0  0  0  0  0  0  0  0  0  0  0  0  # atno 8008 bound_to 7997
  156.0623  140.3295  155.7449 H   0  0  0  0  0  0  0  0  0  0  0  0  # atno 8009 bound_to 7997
  155.5392  140.0585  157.2864 H   0  0  0  0  0  0  0  0  0  0  0  0  # atno 8010 bound_to 7997
  140.5553  143.2312  151.6833 H   0  0  0  0  0  0  0  0  0  0  0  0  # atno 10167 bound_to 10162
  156.5538  130.4708  149.6439 H   0  0  0  0  0  0  0  0  0  0  0  0  # atno 10718 bound_to 10713
  153.0285  135.5212  154.7282 H   0  0  0  0  0  0  0  0  0  0  0  0  # atno 10763 bound_to 10752
  154.6317  135.2901  155.0211 H   0  0  0  0  0  0  0  0  0  0  0  0  # atno 10764 bound_to 10752
  154.1160  135.6615  153.4946 H   0  0  0  0  0  0  0  0  0  0  0  0  # atno 10765 bound_to 10752
  140.1670  134.4270  155.8281 H   0  0  0  0  0  0  0  0  0  0  0  0  # atno 11005 bound_to 11000
  144.6945  140.3360  143.7207 LP  0  0  0  0  0  0  0  0  0  0  0  0  # atno 17320 bound_to 7965
  145.7376  139.1754  143.2394 LP  0  0  0  0  0  0  0  0  0  0  0  0  # atno 17321 bound_to 7965
  139.5045  144.3752  152.0431 LP  0  0  0  0  0  0  0  0  0  0  0  0  # atno 17342 bound_to 10162
  140.2873  144.3793  150.6100 LP  0  0  0  0  0  0  0  0  0  0  0  0  # atno 17343 bound_to 10162
  156.2860  130.7097  151.1934 LP  0  0  0  0  0  0  0  0  0  0  0  0  # atno 17370 bound_to 10713
  157.7382  131.0543  150.5308 LP  0  0  0  0  0  0  0  0  0  0  0  0  # atno 17371 bound_to 10713
  141.2214  133.6939  156.7695 LP  0  0  0  0  0  0  0  0  0  0  0  0  # atno 17394 bound_to 11000
  140.2422  134.8604  157.3585 LP  0  0  0  0  0  0  0  0  0  0  0  0  # atno 17395 bound_to 11000

$$$$
