AV-unprocessed.smi:2089|AV-procd|sdf|8530|dock7
  -GOLD-   2272011253D 1   1.00000     0.00000
 Structure written by MMmdl.
 40 41  0  0  0  0  0  0  0  0  2 V2000
  150.5474  134.4736  155.5436 C   0  0  0  0  0  0  0  0  0  0  0  0
  150.9544  135.8244  156.7233 S   0  0  0  0  0  0  0  0  0  0  0  0
  150.1416  135.6384  157.9354 O   0  0  0  0  0  0  0  0  0  0  0  0
  152.4160  135.9461  156.8324 O   0  0  0  0  0  0  0  0  0  0  0  0
  150.3656  137.2354  155.9129 N   0  0  0  0  0  0  0  0  0  0  0  0
  148.9795  137.2438  155.4253 C   0  0  0  0  0  0  0  0  0  0  0  0
  148.9487  138.2621  154.2883 C   0  0  0  0  0  0  0  0  0  0  0  0
  150.3547  138.1726  153.7121 C   0  0  0  0  0  0  0  0  0  0  0  0
  151.2444  137.9041  154.9389 C   0  0  1  0  0  0  0  0  0  0  0  0
  151.9033  139.1680  155.5098 C   0  0  0  0  0  0  0  0  0  0  0  0
  152.8271  139.7242  154.9151 O   0  0  0  0  0  0  0  0  0  0  0  0
  151.4022  139.6222  156.6673 N   0  0  0  0  0  0  0  0  0  0  0  0
  151.8673  140.8183  157.3534 C   0  0  0  0  0  0  0  0  0  0  0  0
  150.6807  141.6976  157.7706 C   0  0  0  0  0  0  0  0  0  0  0  0
  151.1221  142.9278  158.5397 C   0  0  0  0  0  0  0  0  0  0  0  0
  151.9037  142.8414  159.7125 C   0  0  0  0  0  0  0  0  0  0  0  0
  152.2866  144.0270  160.3739 C   0  0  0  0  0  0  0  0  0  0  0  0
  151.8820  145.2722  159.8490 C   0  0  0  0  0  0  0  0  0  0  0  0
  151.1031  145.3002  158.6742 C   0  0  0  0  0  0  0  0  0  0  0  0
  150.7556  144.1425  158.0701 N   0  3  0  0  0  0  0  0  0  0  0  0
  150.8412  133.5169  155.9747 H   0  0  0  0  0  0  0  0  0  0  0  0
  151.0860  134.6268  154.6088 H   0  0  0  0  0  0  0  0  0  0  0  0
  149.4752  134.4697  155.3496 H   0  0  0  0  0  0  0  0  0  0  0  0
  148.7215  136.2540  155.0472 H   0  0  0  0  0  0  0  0  0  0  0  0
  148.2862  137.4950  156.2281 H   0  0  0  0  0  0  0  0  0  0  0  0
  148.1738  138.0504  153.5513 H   0  0  0  0  0  0  0  0  0  0  0  0
  148.7711  139.2617  154.6874 H   0  0  0  0  0  0  0  0  0  0  0  0
  150.4177  137.3285  153.0239 H   0  0  0  0  0  0  0  0  0  0  0  0
  150.6304  139.0668  153.1512 H   0  0  0  0  0  0  0  0  0  0  0  0
  152.0374  137.2169  154.6382 H   0  0  0  0  0  0  0  0  0  0  0  0
  150.6355  139.1149  157.0862 H   0  0  0  0  0  0  0  0  0  0  0  0
  152.4478  140.5275  158.2305 H   0  0  0  0  0  0  0  0  0  0  0  0
  152.5340  141.3768  156.6941 H   0  0  0  0  0  0  0  0  0  0  0  0
  150.1209  142.0147  156.8891 H   0  0  0  0  0  0  0  0  0  0  0  0
  149.9870  141.1218  158.3851 H   0  0  0  0  0  0  0  0  0  0  0  0
  152.2090  141.8806  160.1010 H   0  0  0  0  0  0  0  0  0  0  0  0
  152.8846  143.9819  161.2724 H   0  0  0  0  0  0  0  0  0  0  0  0
  152.1654  146.1916  160.3403 H   0  0  0  0  0  0  0  0  0  0  0  0
  150.7506  146.2059  158.2027 H   0  0  0  0  0  0  0  0  0  0  0  0
  150.1925  144.1868  157.2204 H   0  0  0  0  0  0  0  0  0  0  0  0
  1  2  1  0  0  0  0
  1 21  1  0  0  0  0
  1 22  1  0  0  0  0
  1 23  1  0  0  0  0
  2  3  2  0  0  0  0
  2  4  2  0  0  0  0
  2  5  1  0  0  0  0
  5  9  1  0  0  0  0
  5  6  1  0  0  0  0
  6  7  1  0  0  0  0
  6 24  1  0  0  0  0
  6 25  1  0  0  0  0
  7  8  1  0  0  0  0
  7 26  1  0  0  0  0
  7 27  1  0  0  0  0
  8  9  1  0  0  0  0
  8 28  1  0  0  0  0
  8 29  1  0  0  0  0
  9 10  1  0  0  0  0
  9 30  1  0  0  0  0
 10 11  2  0  0  0  0
 10 12  1  0  0  0  0
 12 13  1  0  0  0  0
 12 31  1  0  0  0  0
 13 14  1  0  0  0  0
 13 32  1  0  0  0  0
 13 33  1  0  0  0  0
 14 15  1  0  0  0  0
 14 34  1  0  0  0  0
 14 35  1  0  0  0  0
 15 20  1  0  0  0  0
 15 16  2  0  0  0  0
 16 17  1  0  0  0  0
 16 36  1  0  0  0  0
 17 18  2  0  0  0  0
 17 37  1  0  0  0  0
 18 19  1  0  0  0  0
 18 38  1  0  0  0  0
 19 20  2  0  0  0  0
 19 39  1  0  0  0  0
 20 40  1  0  0  0  0
M  CHG  1  20   1
M  END
> <s_m_source_file>
AV-unprocessed.smi

> <i_m_source_file_index>
2089

> <i_lp_mmshare_version>
43012

> <i_f3d_flags>
0

> <s_epik_input>
W0NIM11TKD1PKSg9TylOMVtDSDJdW0NIMl1bQ0gyXVtDQEhdMUMoPU8pW05IXVtDSDJdW0NIMl1jMltjSF1bY0hdW2NIXVtjSF1uMg==

> <s_epik_cmdline>
J2VwaWtfcHl0aG9uJywgJy1waCcsICc3LjAnLCAnLXRuJywgJzgnLCAnLW1hJywgJzIwMCcsICctbWV0YWxfYmluZGluZycsICctaW1hZScsICc8aW5maWxlLm1hZT4nLCAnLW9tYWUnLCAnPG91dGZpbGUubWFlPic=

> <r_epik_Ionization_Penalty>
1.90116

> <r_epik_Ionization_Penalty_Charging>
1.90116

> <r_epik_Ionization_Penalty_Neutral>
1.4017e-07

> <r_epik_State_Penalty>
2.02245

> <r_epik_Charging_Adjusted_Penalty>
3.9236

> <i_epik_Tot_Q>
1

> <i_epik_Tot_abs_Q>
1

> <r_epik_Metal_State_Penalty>
2.04621

> <b_epik_Metal_Only>
0

> <s_lp_Force_Field>
OPLS_2005

> <r_lp_Energy>
11.7086

> <b_lp_Chiralities_Consistent>
1

> <s_lp_Variant>
AV-unprocessed.smi:2089-3

> <Gold.Version>
5.8.1

> <Gold.Id.Protein>
6NUR|6NUR_protein|mol2

> <Gold.PLP.Fitness>
49.6471

> <Gold.PLP.PLP>
-35.4780

> <Gold.PLP.part.hbond>
-4.9683

> <Gold.PLP.part.metal>
0.0000

> <Gold.PLP.part.buried>
-1.8823

> <Gold.PLP.part.nonpolar>
-28.3520

> <Gold.PLP.part.repulsive>
0.2082

> <Gold.PLP.ligand.clash>
0.0000

> <Gold.PLP.ligand.torsion>
0.9657

> <Gold.PLP.Chemscore.Hbond>
5.1856

> <Gold.PLP.Chemscore.CHOScore>
0.0000

> <Gold.PLP.Chemscore.Metal>
0.0000

> <Gold.Chemscore.Hbonds>
donor molecule, donor type, donor heavy atom, donor atom, acceptor molecule, acceptor atom, score
      L1  H    20    40       P1  8028  1.76
      P1  H  6896  6908       L1     3  0.82
      P1  H  7989  7998       L1    11  0.34
      P1  H  7997  8008       L1    11  1.00
      P1  H 10752 10765       L1     4  1.00

> <Gold.PLP.Chemscore.Internal.Correction>
0.5439

> <Gold.Rescore>
     Score         DG    S(hbond)    S(metal)    S(lipo)     H(rot)  DE(clash)    DE(int)     intcor
     22.22     -23.98       3.70        0.00      96.31       2.00       0.60       1.15       ----

> <Gold.Chemscore.Fitness>
22.2230

> <Gold.Chemscore.DG>
-23.9794

> <Gold.Chemscore.ZeroCoef>
-5.4800

> <Gold.Chemscore.Hbond>
3.7011

> <Gold.Chemscore.Metal>
0.0000

> <Gold.Chemscore.Lipo>
96.3140

> <Gold.Chemscore.Internal_Hbond>
0.0000

> <Gold.Chemscore.DEClash>
0.6049

> <Gold.Chemscore.DEInternal>
1.1514

> <Gold.Chemscore.Rot>
2.0043

> <Gold.Chemscore.Internal.Correction>
   9.000000E+99

> <Gold.Chemscore.Hbonds>
donor molecule, donor type, donor heavy atom, donor atom, acceptor molecule, acceptor atom, score
      L1  H    20    40       P1  8028  0.67
      P1  H  6896  6908       L1     3  0.79
      P1  H  7989  7998       L1    11  0.09
      P1  H  7997  8008       L1    11  0.97
      P1  H 10752 10765       L1     4  0.69

> <Gold.Chemscore.Hbond.Weighted>
-12.3615

> <Gold.Chemscore.Metal.Weighted>
-0.0000

> <Gold.Chemscore.Lipo.Weighted>
-11.2687

> <Gold.Chemscore.Internal_Hbond.Weighted>
0.0000

> <Gold.Chemscore.DEClash.Weighted>
0.6049

> <Gold.Chemscore.DEInternal.Weighted>
1.1514

> <Gold.Chemscore.Rot.Weighted>
5.1309

> <Gold.Chemscore.Internal.Correction.Weighted>
   9.000000E+99

> <Gold.Protein.RotatedTorsions>
[ 6907 6896 6895 6894 ] final  174.34 input  -60.11 | X-H torsion
[ 7974 7965 7964 7962 ] final   78.29 input  175.53 | X-H torsion
[ 8008 7997 7996 7995 ] final  -13.17 input   59.86 | X-H torsion
[ 10167 10162 10161 10158 ] final  -46.40 input  -65.29 | X-H torsion
[ 10718 10713 10712 10709 ] final   -3.15 input   66.30 | X-H torsion
[ 10763 10752 10751 10750 ] final -146.22 input  -60.55 | X-H torsion
[ 11005 11000 10999 10996 ] final -128.98 input  -57.11 | X-H torsion

> <Gold.Protein.ActiveResidues>
 VAL166  LYS551  ARG553  GLY616  TRP617  ASP618  TYR619  PRO620  LYS621  CYS622 
 ASP623  PHE694  ASN695  SER759  ASP760  ASP761  ALA762  ILE779  LEU786  VAL792 
 PHE793  MET794  SER795  GLU796  ALA797  LYS798  CYS799  TRP800  GLU811  SER814 

> <Gold.Protein.RotatedAtoms>
  151.7539  133.3329  159.3398 H   0  0  0  0  0  0  0  0  0  0  0  0  # atno 6907 bound_to 6896
  150.7524  134.6167  159.6124 H   0  0  0  0  0  0  0  0  0  0  0  0  # atno 6908 bound_to 6896
  152.3450  134.7085  160.0304 H   0  0  0  0  0  0  0  0  0  0  0  0  # atno 6909 bound_to 6896
  145.6791  139.2518  143.1825 H   0  0  0  0  0  0  0  0  0  0  0  0  # atno 7974 bound_to 7965
  154.5315  140.2256  155.8796 H   0  0  0  0  0  0  0  0  0  0  0  0  # atno 8008 bound_to 7997
  156.1768  140.3109  155.9038 H   0  0  0  0  0  0  0  0  0  0  0  0  # atno 8009 bound_to 7997
  155.3442  140.0452  157.3036 H   0  0  0  0  0  0  0  0  0  0  0  0  # atno 8010 bound_to 7997
  140.6819  143.2833  151.3777 H   0  0  0  0  0  0  0  0  0  0  0  0  # atno 10167 bound_to 10162
  156.7803  130.5328  149.5752 H   0  0  0  0  0  0  0  0  0  0  0  0  # atno 10718 bound_to 10713
  154.8346  135.3392  154.6627 H   0  0  0  0  0  0  0  0  0  0  0  0  # atno 10763 bound_to 10752
  153.7243  135.6956  153.5009 H   0  0  0  0  0  0  0  0  0  0  0  0  # atno 10764 bound_to 10752
  153.2358  135.4401  155.0597 H   0  0  0  0  0  0  0  0  0  0  0  0  # atno 10765 bound_to 10752
  140.9470  134.1116  157.4098 H   0  0  0  0  0  0  0  0  0  0  0  0  # atno 11005 bound_to 11000
  146.0980  140.7578  142.9563 LP  0  0  0  0  0  0  0  0  0  0  0  0  # atno 17320 bound_to 7965
  144.7032  140.3742  143.7139 LP  0  0  0  0  0  0  0  0  0  0  0  0  # atno 17321 bound_to 7965
  139.6147  144.1026  152.2334 LP  0  0  0  0  0  0  0  0  0  0  0  0  # atno 17342 bound_to 10162
  140.0451  144.5976  150.7380 LP  0  0  0  0  0  0  0  0  0  0  0  0  # atno 17343 bound_to 10162
  156.1222  130.6118  151.0210 LP  0  0  0  0  0  0  0  0  0  0  0  0  # atno 17370 bound_to 10713
  157.6649  131.0873  150.7751 LP  0  0  0  0  0  0  0  0  0  0  0  0  # atno 17371 bound_to 10713
  139.8836  135.0054  156.6313 LP  0  0  0  0  0  0  0  0  0  0  0  0  # atno 17394 bound_to 11000
  140.7655  133.8782  155.8451 LP  0  0  0  0  0  0  0  0  0  0  0  0  # atno 17395 bound_to 11000

$$$$
