AV-unprocessed.smi:1762|AV-procd|sdf|7109|dock5
  -GOLD-   22720 8333D 1   1.00000     0.00000
 Structure written by MMmdl.
 53 54  0  0  0  0  0  0  0  0  2 V2000
  145.1104  136.9713  156.5756 C   0  0  0  0  0  0  0  0  0  0  0  0
  146.0561  136.1805  155.6540 C   0  0  1  0  0  0  0  0  0  0  0  0
  146.7947  137.0666  154.6313 C   0  0  0  0  0  0  0  0  0  0  0  0
  147.8634  137.8800  155.2254 N   0  0  0  0  0  0  0  0  0  0  0  0
  148.5471  138.7551  154.2317 C   0  0  2  0  0  0  0  0  0  0  0  0
  149.7264  139.5543  154.8348 C   0  0  0  0  0  0  0  0  0  0  0  0
  150.8808  139.3399  154.4633 O   0  0  0  0  0  0  0  0  0  0  0  0
  149.4154  140.4952  155.7406 N   0  0  0  0  0  0  0  0  0  0  0  0
  150.3771  141.3740  156.3940 C   0  0  0  0  0  0  0  0  0  0  0  0
  149.9386  141.7231  157.8265 C   0  0  0  0  0  0  0  0  0  0  0  0
  150.7814  142.8285  158.4314 C   0  0  0  0  0  0  0  0  0  0  0  0
  151.7585  142.5724  159.4177 C   0  0  0  0  0  0  0  0  0  0  0  0
  152.5047  143.6476  159.9438 C   0  0  0  0  0  0  0  0  0  0  0  0
  152.2572  144.9544  159.4749 C   0  0  0  0  0  0  0  0  0  0  0  0
  151.2682  145.1534  158.4902 C   0  0  0  0  0  0  0  0  0  0  0  0
  150.5746  144.0975  158.0105 N   0  3  0  0  0  0  0  0  0  0  0  0
  147.5990  139.6965  153.4147 C   0  0  0  0  0  0  0  0  0  0  0  0
  146.6457  140.5265  154.2984 C   0  0  0  0  0  0  0  0  0  0  0  0
  146.8097  138.9770  152.3033 C   0  0  0  0  0  0  0  0  0  0  0  0
  148.7650  136.9885  155.9744 C   0  0  0  0  0  0  0  0  0  0  0  0
  148.0261  136.1379  157.0237 C   0  0  2  0  0  0  0  0  0  0  0  0
  148.9588  135.1438  157.7248 C   0  0  0  0  0  0  0  0  0  0  0  0
  146.9879  135.3955  156.3939 O   0  0  0  0  0  0  0  0  0  0  0  0
  144.3270  137.4615  155.9974 H   0  0  0  0  0  0  0  0  0  0  0  0
  145.6337  137.7477  157.1336 H   0  0  0  0  0  0  0  0  0  0  0  0
  144.6256  136.3106  157.2945 H   0  0  0  0  0  0  0  0  0  0  0  0
  145.4381  135.4740  155.0992 H   0  0  0  0  0  0  0  0  0  0  0  0
  147.2135  136.4300  153.8501 H   0  0  0  0  0  0  0  0  0  0  0  0
  146.0447  137.6910  154.1501 H   0  0  0  0  0  0  0  0  0  0  0  0
  148.9980  138.0881  153.4935 H   0  0  0  0  0  0  0  0  0  0  0  0
  148.4433  140.6117  155.9881 H   0  0  0  0  0  0  0  0  0  0  0  0
  151.3421  140.8666  156.4104 H   0  0  0  0  0  0  0  0  0  0  0  0
  150.5127  142.2814  155.8028 H   0  0  0  0  0  0  0  0  0  0  0  0
  148.8926  142.0328  157.8380 H   0  0  0  0  0  0  0  0  0  0  0  0
  150.0027  140.8394  158.4632 H   0  0  0  0  0  0  0  0  0  0  0  0
  151.9348  141.5655  159.7682 H   0  0  0  0  0  0  0  0  0  0  0  0
  153.2577  143.4719  160.6982 H   0  0  0  0  0  0  0  0  0  0  0  0
  152.8182  145.7914  159.8648 H   0  0  0  0  0  0  0  0  0  0  0  0
  151.0132  146.1175  158.0748 H   0  0  0  0  0  0  0  0  0  0  0  0
  148.2188  140.4466  152.9263 H   0  0  0  0  0  0  0  0  0  0  0  0
  145.8782  139.9101  154.7673 H   0  0  0  0  0  0  0  0  0  0  0  0
  146.1318  141.2854  153.7077 H   0  0  0  0  0  0  0  0  0  0  0  0
  147.1908  141.0433  155.0887 H   0  0  0  0  0  0  0  0  0  0  0  0
  146.0831  138.2737  152.7091 H   0  0  0  0  0  0  0  0  0  0  0  0
  147.4702  138.4256  151.6341 H   0  0  0  0  0  0  0  0  0  0  0  0
  146.2597  139.6941  151.6934 H   0  0  0  0  0  0  0  0  0  0  0  0
  149.2960  136.3355  155.2795 H   0  0  0  0  0  0  0  0  0  0  0  0
  149.5251  137.5513  156.5148 H   0  0  0  0  0  0  0  0  0  0  0  0
  147.5961  136.7919  157.7829 H   0  0  0  0  0  0  0  0  0  0  0  0
  149.7704  135.6604  158.2380 H   0  0  0  0  0  0  0  0  0  0  0  0
  149.4018  134.4474  157.0124 H   0  0  0  0  0  0  0  0  0  0  0  0
  148.4158  134.5595  158.4678 H   0  0  0  0  0  0  0  0  0  0  0  0
  149.8636  144.2647  157.2982 H   0  0  0  0  0  0  0  0  0  0  0  0
  1  2  1  0  0  0  0
  1 24  1  0  0  0  0
  1 25  1  0  0  0  0
  1 26  1  0  0  0  0
  2 23  1  0  0  0  0
  2  3  1  0  0  0  0
  2 27  1  0  0  0  0
  3  4  1  0  0  0  0
  3 28  1  0  0  0  0
  3 29  1  0  0  0  0
  4  5  1  0  0  0  0
  4 20  1  0  0  0  0
  5  6  1  0  0  0  0
  5 17  1  0  0  0  0
  5 30  1  0  0  0  0
  6  7  2  0  0  0  0
  6  8  1  0  0  0  0
  8  9  1  0  0  0  0
  8 31  1  0  0  0  0
  9 10  1  0  0  0  0
  9 32  1  0  0  0  0
  9 33  1  0  0  0  0
 10 11  1  0  0  0  0
 10 34  1  0  0  0  0
 10 35  1  0  0  0  0
 11 16  1  0  0  0  0
 11 12  2  0  0  0  0
 12 13  1  0  0  0  0
 12 36  1  0  0  0  0
 13 14  2  0  0  0  0
 13 37  1  0  0  0  0
 14 15  1  0  0  0  0
 14 38  1  0  0  0  0
 15 16  2  0  0  0  0
 15 39  1  0  0  0  0
 16 53  1  0  0  0  0
 17 18  1  0  0  0  0
 17 19  1  0  0  0  0
 17 40  1  0  0  0  0
 18 41  1  0  0  0  0
 18 42  1  0  0  0  0
 18 43  1  0  0  0  0
 19 44  1  0  0  0  0
 19 45  1  0  0  0  0
 19 46  1  0  0  0  0
 20 21  1  0  0  0  0
 20 47  1  0  0  0  0
 20 48  1  0  0  0  0
 21 22  1  0  0  0  0
 21 23  1  0  0  0  0
 21 49  1  0  0  0  0
 22 50  1  0  0  0  0
 22 51  1  0  0  0  0
 22 52  1  0  0  0  0
M  CHG  1  16   1
M  END
> <s_m_source_file>
AV-unprocessed.smi

> <i_m_source_file_index>
1762

> <i_lp_mmshare_version>
43012

> <i_f3d_flags>
0

> <s_epik_input>
W0NIM11bQ0BASF0xW0NIMl1OKFtDSDJdW0NASF0oTzEpW0NIM10pW0NAQEhdKFtDSF0oW0NIM10pW0NIM10pQyg9TylbTkhdW0NIMl1bQ0gyXWMyW2NIXVtjSF1bY0hdW2NIXW4y

> <s_epik_cmdline>
J2VwaWtfcHl0aG9uJywgJy1waCcsICc3LjAnLCAnLXRuJywgJzgnLCAnLW1hJywgJzIwMCcsICctbWV0YWxfYmluZGluZycsICctaW1hZScsICc8aW5maWxlLm1hZT4nLCAnLW9tYWUnLCAnPG91dGZpbGUubWFlPic=

> <r_epik_Ionization_Penalty>
1.86475

> <r_epik_Ionization_Penalty_Charging>
1.85347

> <r_epik_Ionization_Penalty_Neutral>
0.0112771

> <r_epik_State_Penalty>
1.99714

> <r_epik_Charging_Adjusted_Penalty>
3.85061

> <i_epik_Tot_Q>
1

> <i_epik_Tot_abs_Q>
1

> <r_epik_Metal_State_Penalty>
2.02271

> <b_epik_Metal_Only>
0

> <s_lp_Force_Field>
OPLS_2005

> <r_lp_Energy>
35.2583

> <b_lp_Chiralities_Consistent>
1

> <s_lp_Variant>
AV-unprocessed.smi:1762-11

> <Gold.Version>
5.8.1

> <Gold.Id.Protein>
6NUR|6NUR_protein|mol2

> <Gold.PLP.Fitness>
42.2298

> <Gold.PLP.PLP>
-34.4568

> <Gold.PLP.part.hbond>
-2.2428

> <Gold.PLP.part.metal>
0.0000

> <Gold.PLP.part.buried>
-2.4180

> <Gold.PLP.part.nonpolar>
-29.5547

> <Gold.PLP.part.repulsive>
0.3696

> <Gold.PLP.ligand.clash>
0.0000

> <Gold.PLP.ligand.torsion>
0.7921

> <Gold.PLP.Chemscore.Hbond>
3.0000

> <Gold.PLP.Chemscore.CHOScore>
0.0000

> <Gold.PLP.Chemscore.Metal>
0.0000

> <Gold.Chemscore.Hbonds>
donor molecule, donor type, donor heavy atom, donor atom, acceptor molecule, acceptor atom, score
      L1  H    16    53       P1  8028  2.00
      P1  H  7989  7998       L1     7  1.00

> <Gold.PLP.Chemscore.Internal.Correction>
0.3571

> <Gold.Rescore>
     Score         DG    S(hbond)    S(metal)    S(lipo)     H(rot)  DE(clash)    DE(int)     intcor
     17.12     -18.90       1.80        0.00     100.96       1.72       0.08       1.70       ----

> <Gold.Chemscore.Fitness>
17.1244

> <Gold.Chemscore.DG>
-18.9011

> <Gold.Chemscore.ZeroCoef>
-5.4800

> <Gold.Chemscore.Hbond>
1.7981

> <Gold.Chemscore.Metal>
0.0000

> <Gold.Chemscore.Lipo>
100.9563

> <Gold.Chemscore.Internal_Hbond>
0.0000

> <Gold.Chemscore.DEClash>
0.0768

> <Gold.Chemscore.DEInternal>
1.6999

> <Gold.Chemscore.Rot>
1.7174

> <Gold.Chemscore.Internal.Correction>
   9.000000E+99

> <Gold.Chemscore.Hbonds>
donor molecule, donor type, donor heavy atom, donor atom, acceptor molecule, acceptor atom, score
      L1  H    16    53       P1  8028  0.44
      P1  H  7989  7998       L1     7  0.81

> <Gold.Chemscore.Hbond.Weighted>
-6.0057

> <Gold.Chemscore.Metal.Weighted>
-0.0000

> <Gold.Chemscore.Lipo.Weighted>
-11.8119

> <Gold.Chemscore.Internal_Hbond.Weighted>
0.0000

> <Gold.Chemscore.DEClash.Weighted>
0.0768

> <Gold.Chemscore.DEInternal.Weighted>
1.6999

> <Gold.Chemscore.Rot.Weighted>
4.3966

> <Gold.Chemscore.Internal.Correction.Weighted>
   9.000000E+99

> <Gold.Protein.RotatedTorsions>
[ 6907 6896 6895 6894 ] final  160.84 input  -60.11 | X-H torsion
[ 7974 7965 7964 7962 ] final  110.70 input  175.53 | X-H torsion
[ 8008 7997 7996 7995 ] final  -63.94 input   59.86 | X-H torsion
[ 10167 10162 10161 10158 ] final -146.12 input  -65.29 | X-H torsion
[ 10718 10713 10712 10709 ] final -101.32 input   66.30 | X-H torsion
[ 10763 10752 10751 10750 ] final   92.02 input  -60.55 | X-H torsion
[ 11005 11000 10999 10996 ] final  -81.71 input  -57.11 | X-H torsion

> <Gold.Protein.ActiveResidues>
 VAL166  LYS551  ARG553  GLY616  TRP617  ASP618  TYR619  PRO620  LYS621  CYS622 
 ASP623  PHE694  ASN695  SER759  ASP760  ASP761  ALA762  ILE779  LEU786  VAL792 
 PHE793  MET794  SER795  GLU796  ALA797  LYS798  CYS799  TRP800  GLU811  SER814 

> <Gold.Protein.RotatedAtoms>
  151.9645  133.3706  159.4047 H   0  0  0  0  0  0  0  0  0  0  0  0  # atno 6907 bound_to 6896
  150.6959  134.4205  159.5212 H   0  0  0  0  0  0  0  0  0  0  0  0  # atno 6908 bound_to 6896
  152.1899  134.8681  160.0569 H   0  0  0  0  0  0  0  0  0  0  0  0  # atno 6909 bound_to 6896
  145.2517  139.2737  143.4064 H   0  0  0  0  0  0  0  0  0  0  0  0  # atno 7974 bound_to 7965
  154.4583  140.0964  156.6820 H   0  0  0  0  0  0  0  0  0  0  0  0  # atno 8008 bound_to 7997
  155.5072  140.3475  155.4363 H   0  0  0  0  0  0  0  0  0  0  0  0  # atno 8009 bound_to 7997
  156.0820  140.1375  156.9689 H   0  0  0  0  0  0  0  0  0  0  0  0  # atno 8010 bound_to 7997
  139.7742  143.8194  152.2629 H   0  0  0  0  0  0  0  0  0  0  0  0  # atno 10167 bound_to 10162
  156.0191  130.5368  150.6946 H   0  0  0  0  0  0  0  0  0  0  0  0  # atno 10718 bound_to 10713
  153.2146  135.4376  155.0419 H   0  0  0  0  0  0  0  0  0  0  0  0  # atno 10763 bound_to 10752
  154.8218  135.3341  154.7018 H   0  0  0  0  0  0  0  0  0  0  0  0  # atno 10764 bound_to 10752
  153.7453  135.7002  153.5013 H   0  0  0  0  0  0  0  0  0  0  0  0  # atno 10765 bound_to 10752
  141.1665  133.7209  156.8464 H   0  0  0  0  0  0  0  0  0  0  0  0  # atno 11005 bound_to 11000
  146.3301  140.2909  142.8615 LP  0  0  0  0  0  0  0  0  0  0  0  0  # atno 17320 bound_to 7965
  144.9497  140.8166  143.5579 LP  0  0  0  0  0  0  0  0  0  0  0  0  # atno 17321 bound_to 7965
  139.8237  144.7284  150.9539 LP  0  0  0  0  0  0  0  0  0  0  0  0  # atno 17342 bound_to 10162
  140.7815  143.4135  151.0955 LP  0  0  0  0  0  0  0  0  0  0  0  0  # atno 17343 bound_to 10162
  157.4620  131.0884  151.0735 LP  0  0  0  0  0  0  0  0  0  0  0  0  # atno 17370 bound_to 10713
  157.1220  130.6066  149.5507 LP  0  0  0  0  0  0  0  0  0  0  0  0  # atno 17371 bound_to 10713
  140.1947  134.8940  157.3101 LP  0  0  0  0  0  0  0  0  0  0  0  0  # atno 17394 bound_to 11000
  140.2252  134.3975  155.7547 LP  0  0  0  0  0  0  0  0  0  0  0  0  # atno 17395 bound_to 11000

$$$$
