AV-unprocessed.smi:159|AV-procd|sdf|1342|dock5
  -GOLD-   2262019 43D 1   1.00000     0.00000
 Structure written by MMmdl.
 28 29  0  0  0  0  0  0  0  0  1 V2000
  147.7351  138.5790  152.9080 N   0  0  0  0  0  0  0  0  0  0  0  0
  148.6079  139.2106  153.7057 C   0  0  0  0  0  0  0  0  0  0  0  0
  148.2652  140.4825  154.3011 C   0  0  0  0  0  0  0  0  0  0  0  0
  149.1996  141.0586  155.0891 C   0  0  0  0  0  0  0  0  0  0  0  0
  150.4377  140.4741  155.3172 N   0  0  0  0  0  0  0  0  0  0  0  0
  151.4625  141.1400  156.2082 C   0  0  2  0  0  0  0  0  0  0  0  0
  151.7490  140.2707  157.4380 C   0  0  0  0  0  0  0  0  0  0  0  0
  150.9834  140.9971  158.5236 C   0  0  0  0  0  0  0  0  0  0  0  0
  151.0945  142.4514  158.0707 C   0  0  2  0  0  0  0  0  0  0  0  0
  150.0094  143.3606  158.6657 C   0  0  0  0  0  0  0  0  0  0  0  0
  150.1182  144.6607  158.1270 O   0  0  0  0  0  0  0  0  0  0  0  0
  150.9459  142.3589  156.6575 O   0  0  0  0  0  0  0  0  0  0  0  0
  150.7356  139.2169  154.7377 C   0  0  0  0  0  0  0  0  0  0  0  0
  151.8038  138.6415  154.9431 O   0  0  0  0  0  0  0  0  0  0  0  0
  149.7786  138.6500  153.9392 N   0  0  0  0  0  0  0  0  0  0  0  0
  152.3456  141.3375  155.5983 H   0  0  0  0  0  0  0  0  0  0  0  0
  152.0933  142.8229  158.3075 H   0  0  0  0  0  0  0  0  0  0  0  0
  147.9762  137.6893  152.4960 H   0  0  0  0  0  0  0  0  0  0  0  0
  146.8332  138.9948  152.7246 H   0  0  0  0  0  0  0  0  0  0  0  0
  147.3171  140.9767  154.1444 H   0  0  0  0  0  0  0  0  0  0  0  0
  148.9557  142.0054  155.5483 H   0  0  0  0  0  0  0  0  0  0  0  0
  151.4393  139.2343  157.2966 H   0  0  0  0  0  0  0  0  0  0  0  0
  152.8205  140.2954  157.6404 H   0  0  0  0  0  0  0  0  0  0  0  0
  149.9416  140.6738  158.5268 H   0  0  0  0  0  0  0  0  0  0  0  0
  151.3950  140.8297  159.5191 H   0  0  0  0  0  0  0  0  0  0  0  0
  149.0119  142.9571  158.4896 H   0  0  0  0  0  0  0  0  0  0  0  0
  150.1403  143.4427  159.7451 H   0  0  0  0  0  0  0  0  0  0  0  0
  149.7507  144.6574  157.2564 H   0  0  0  0  0  0  0  0  0  0  0  0
  1  2  1  0  0  0  0
  1 18  1  0  0  0  0
  1 19  1  0  0  0  0
  2 15  2  0  0  0  0
  2  3  1  0  0  0  0
  3  4  2  0  0  0  0
  3 20  1  0  0  0  0
  4  5  1  0  0  0  0
  4 21  1  0  0  0  0
  5  6  1  0  0  0  0
  5 13  1  0  0  0  0
  6 16  1  0  0  0  0
  6 12  1  0  0  0  0
  6  7  1  0  0  0  0
  7  8  1  0  0  0  0
  7 22  1  0  0  0  0
  7 23  1  0  0  0  0
  8  9  1  0  0  0  0
  8 24  1  0  0  0  0
  8 25  1  0  0  0  0
  9 17  1  0  0  0  0
  9 10  1  0  0  0  0
  9 12  1  0  0  0  0
 10 11  1  0  0  0  0
 10 26  1  0  0  0  0
 10 27  1  0  0  0  0
 11 28  1  0  0  0  0
 13 14  2  0  0  0  0
 13 15  1  0  0  0  0
M  END
> <s_m_source_file>
AV-unprocessed.smi

> <i_m_source_file_index>
159

> <i_lp_mmshare_version>
43012

> <i_f3d_flags>
0

> <s_epik_input>
W05IMl1jMVtjSF1bY0hdbihjKD1PKW4xKVtDQEhdMltDSDJdW0NIMl1bQ0BIXShPMilbQ0gyXVtPSF0=

> <s_epik_cmdline>
J2VwaWtfcHl0aG9uJywgJy1waCcsICc3LjAnLCAnLXRuJywgJzgnLCAnLW1hJywgJzIwMCcsICctbWV0YWxfYmluZGluZycsICctaW1hZScsICc8aW5maWxlLm1hZT4nLCAnLW9tYWUnLCAnPG91dGZpbGUubWFlPic=

> <r_lp_tautomer_probability>
0.99996

> <r_epik_Ionization_Penalty>
0.00126102

> <r_epik_Ionization_Penalty_Charging>
4.46248e-08

> <r_epik_Ionization_Penalty_Neutral>
0.00126097

> <r_epik_State_Penalty>
1.15523e-05

> <r_epik_Charging_Adjusted_Penalty>
1.1597e-05

> <i_epik_Tot_Q>
0

> <i_epik_Tot_abs_Q>
0

> <r_epik_Metal_State_Penalty>
-0

> <b_epik_Metal_Only>
0

> <s_epik_Chemistry_Notes>
This compound contains an acetal/aminal-like group ( X-CH(R)-Y where X, Y are N, S, or O) that may be acid/base labile, releasing an aldehyde.

> <s_lp_Force_Field>
OPLS_2005

> <r_lp_Energy>
25.8801

> <b_lp_Chiralities_Consistent>
1

> <s_lp_Variant>
AV-unprocessed.smi:159-4

> <Gold.Version>
5.8.1

> <Gold.Id.Protein>
6NUR|6NUR_protein|mol2

> <Gold.PLP.Fitness>
33.4659

> <Gold.PLP.PLP>
-24.5081

> <Gold.PLP.part.hbond>
-3.9443

> <Gold.PLP.part.metal>
0.0000

> <Gold.PLP.part.buried>
0.9273

> <Gold.PLP.part.nonpolar>
-21.0610

> <Gold.PLP.part.repulsive>
0.4163

> <Gold.PLP.ligand.clash>
0.0000

> <Gold.PLP.ligand.torsion>
0.0142

> <Gold.PLP.Chemscore.Hbond>
1.9913

> <Gold.PLP.Chemscore.CHOScore>
0.9998

> <Gold.PLP.Chemscore.Metal>
0.0000

> <Gold.Chemscore.Hbonds>
donor molecule, donor type, donor heavy atom, donor atom, acceptor molecule, acceptor atom, score
      L1  H     1    18       P1  7948  1.00
      L1  H    11    28       P1  8028  0.75
      L1  C     4    21       P1  8028  0.55

> <Gold.PLP.Chemscore.Internal.Correction>
0.0130

> <Gold.Rescore>
     Score         DG    S(hbond)    S(metal)    S(lipo)     H(rot)  DE(clash)    DE(int)     intcor
      9.16     -10.81       1.84        0.00      38.76       2.09       0.32       1.33       ----

> <Gold.Chemscore.Fitness>
9.1621

> <Gold.Chemscore.DG>
-10.8137

> <Gold.Chemscore.ZeroCoef>
-5.4800

> <Gold.Chemscore.Hbond>
1.8438

> <Gold.Chemscore.Metal>
0.0000

> <Gold.Chemscore.Lipo>
38.7593

> <Gold.Chemscore.Internal_Hbond>
0.0000

> <Gold.Chemscore.DEClash>
0.3243

> <Gold.Chemscore.DEInternal>
1.3273

> <Gold.Chemscore.Rot>
2.0935

> <Gold.Chemscore.Internal.Correction>
   9.000000E+99

> <Gold.Chemscore.Hbonds>
donor molecule, donor type, donor heavy atom, donor atom, acceptor molecule, acceptor atom, score
      L1  H     1    18       P1  7948  1.00
      L1  H    11    28       P1  8028  0.09

> <Gold.Chemscore.Hbond.Weighted>
-6.1582

> <Gold.Chemscore.Metal.Weighted>
-0.0000

> <Gold.Chemscore.Lipo.Weighted>
-4.5348

> <Gold.Chemscore.Internal_Hbond.Weighted>
0.0000

> <Gold.Chemscore.DEClash.Weighted>
0.3243

> <Gold.Chemscore.DEInternal.Weighted>
1.3273

> <Gold.Chemscore.Rot.Weighted>
5.3594

> <Gold.Chemscore.Internal.Correction.Weighted>
   9.000000E+99

> <Gold.Protein.RotatedTorsions>
[ 6907 6896 6895 6894 ] final   29.81 input  -60.11 | X-H torsion
[ 7974 7965 7964 7962 ] final  165.06 input  175.53 | X-H torsion
[ 8008 7997 7996 7995 ] final  -79.54 input   59.86 | X-H torsion
[ 10167 10162 10161 10158 ] final  -54.17 input  -65.29 | X-H torsion
[ 10718 10713 10712 10709 ] final -148.10 input   66.30 | X-H torsion
[ 10763 10752 10751 10750 ] final  157.46 input  -60.55 | X-H torsion
[ 11005 11000 10999 10996 ] final -118.06 input  -57.11 | X-H torsion

> <Gold.Protein.ActiveResidues>
 VAL166  LYS551  ARG553  GLY616  TRP617  ASP618  TYR619  PRO620  LYS621  CYS622 
 ASP623  PHE694  ASN695  SER759  ASP760  ASP761  ALA762  ILE779  LEU786  VAL792 
 PHE793  MET794  SER795  GLU796  ALA797  LYS798  CYS799  TRP800  GLU811  SER814 

> <Gold.Protein.RotatedAtoms>
  152.0369  134.9734  160.0573 H   0  0  0  0  0  0  0  0  0  0  0  0  # atno 6907 bound_to 6896
  152.1188  133.4337  159.4674 H   0  0  0  0  0  0  0  0  0  0  0  0  # atno 6908 bound_to 6896
  150.6848  134.2478  159.4542 H   0  0  0  0  0  0  0  0  0  0  0  0  # atno 6909 bound_to 6896
  144.7518  139.8415  143.6363 H   0  0  0  0  0  0  0  0  0  0  0  0  # atno 7974 bound_to 7965
  154.5795  140.0677  156.9083 H   0  0  0  0  0  0  0  0  0  0  0  0  # atno 8008 bound_to 7997
  155.2488  140.3350  155.4266 H   0  0  0  0  0  0  0  0  0  0  0  0  # atno 8009 bound_to 7997
  156.2179  140.1786  156.7531 H   0  0  0  0  0  0  0  0  0  0  0  0  # atno 8010 bound_to 7997
  140.6445  143.2527  151.4898 H   0  0  0  0  0  0  0  0  0  0  0  0  # atno 10167 bound_to 10162
  156.4159  130.8005  151.2225 H   0  0  0  0  0  0  0  0  0  0  0  0  # atno 10718 bound_to 10713
  154.2006  135.2790  155.2992 H   0  0  0  0  0  0  0  0  0  0  0  0  # atno 10763 bound_to 10752
  154.5857  135.5575  153.7232 H   0  0  0  0  0  0  0  0  0  0  0  0  # atno 10764 bound_to 10752
  153.0089  135.6356  154.2144 H   0  0  0  0  0  0  0  0  0  0  0  0  # atno 10765 bound_to 10752
  141.0312  133.9979  157.3140 H   0  0  0  0  0  0  0  0  0  0  0  0  # atno 11005 bound_to 11000
  146.1479  139.4554  143.0067 LP  0  0  0  0  0  0  0  0  0  0  0  0  # atno 17320 bound_to 7965
  145.6916  141.0162  143.1552 LP  0  0  0  0  0  0  0  0  0  0  0  0  # atno 17321 bound_to 7965
  139.5655  144.2053  152.1758 LP  0  0  0  0  0  0  0  0  0  0  0  0  # atno 17342 bound_to 10162
  140.1333  144.5268  150.6789 LP  0  0  0  0  0  0  0  0  0  0  0  0  # atno 17343 bound_to 10162
  157.7508  131.0243  150.3871 LP  0  0  0  0  0  0  0  0  0  0  0  0  # atno 17370 bound_to 10713
  156.4178  130.3947  149.6846 LP  0  0  0  0  0  0  0  0  0  0  0  0  # atno 17371 bound_to 10713
  139.9209  135.0200  156.8060 LP  0  0  0  0  0  0  0  0  0  0  0  0  # atno 17394 bound_to 11000
  140.6403  133.9824  155.7704 LP  0  0  0  0  0  0  0  0  0  0  0  0  # atno 17395 bound_to 11000

$$$$
