AV-unprocessed.smi:287|AV-procd|sdf|2198|dock8
  -GOLD-   2262022 13D 1   1.00000     0.00000
 Structure written by MMmdl.
 55 58  0  0  0  0  0  0  0  0  1 V2000
  151.6861  145.1405  160.3395 C   0  0  0  0  0  0  0  0  0  0  0  0
  151.9383  143.7488  159.8709 C   0  0  0  0  0  0  0  0  0  0  0  0
  151.3547  142.9487  158.9327 C   0  0  0  0  0  0  0  0  0  0  0  0
  152.0574  141.7065  158.9348 C   0  0  0  0  0  0  0  0  0  0  0  0
  151.7596  140.5011  158.0534 C   0  0  2  0  0  0  0  0  0  0  0  0
  150.5008  139.7837  158.5671 C   0  0  0  0  0  0  0  0  0  0  0  0
  152.7887  139.5310  158.0907 O   0  0  0  0  0  0  0  0  0  0  0  0
  151.5857  140.8791  156.5641 C   0  0  0  0  0  0  0  0  0  0  0  0
  150.9953  139.8077  155.7715 N   0  0  0  0  0  0  0  0  0  0  0  0
  149.7566  139.9300  155.2503 C   0  0  0  0  0  0  0  0  0  0  0  0
  149.5210  139.2019  154.1327 N   0  0  0  0  0  0  0  0  0  0  0  0
  148.3265  139.2517  153.5368 C   0  0  0  0  0  0  0  0  0  0  0  0
  147.2470  139.9514  153.8901 N   0  0  0  0  0  0  0  0  0  0  0  0
  147.4762  140.6871  155.0161 C   0  0  0  0  0  0  0  0  0  0  0  0
  148.6924  140.7348  155.7555 C   0  0  0  0  0  0  0  0  0  0  0  0
  148.5325  141.5913  156.8399 N   0  0  0  0  0  0  0  0  0  0  0  0
  147.3028  142.0176  156.7404 C   0  0  0  0  0  0  0  0  0  0  0  0
  146.5924  141.5171  155.6708 N   0  0  0  0  0  0  0  0  0  0  0  0
  145.1736  141.7825  155.2572 C   0  0  2  0  0  0  0  0  0  0  0  0
  145.1094  143.0921  154.7845 O   0  0  0  0  0  0  0  0  0  0  0  0
  144.5342  143.9770  155.7509 C   0  0  1  0  0  0  0  0  0  0  0  0
  143.2539  144.5463  155.1033 C   0  0  0  0  0  0  0  0  0  0  0  0
  142.3931  143.4889  154.7374 O   0  0  0  0  0  0  0  0  0  0  0  0
  144.3120  143.1093  157.0092 C   0  0  1  0  0  0  0  0  0  0  0  0
  143.1522  143.4509  157.7431 O   0  0  0  0  0  0  0  0  0  0  0  0
  144.2099  141.7014  156.4494 C   0  0  2  0  0  0  0  0  0  0  0  0
  144.5710  140.7351  157.4198 O   0  0  0  0  0  0  0  0  0  0  0  0
  153.0162  141.8489  159.9084 C   0  0  0  0  0  0  0  0  0  0  0  0
  154.0745  140.9508  160.4584 C   0  0  0  0  0  0  0  0  0  0  0  0
  152.9552  143.0856  160.4763 O   0  0  0  0  0  0  0  0  0  0  0  0
  144.9716  141.0597  154.4660 H   0  0  0  0  0  0  0  0  0  0  0  0
  145.2243  144.7890  155.9847 H   0  0  0  0  0  0  0  0  0  0  0  0
  145.1830  143.1924  157.6613 H   0  0  0  0  0  0  0  0  0  0  0  0
  143.2087  141.5038  156.0636 H   0  0  0  0  0  0  0  0  0  0  0  0
  150.9451  145.6342  159.7106 H   0  0  0  0  0  0  0  0  0  0  0  0
  152.6019  145.7314  160.3088 H   0  0  0  0  0  0  0  0  0  0  0  0
  151.3148  145.1417  161.3643 H   0  0  0  0  0  0  0  0  0  0  0  0
  150.5199  143.2263  158.3062 H   0  0  0  0  0  0  0  0  0  0  0  0
  149.6340  140.4455  158.5466 H   0  0  0  0  0  0  0  0  0  0  0  0
  150.6294  139.4441  159.5959 H   0  0  0  0  0  0  0  0  0  0  0  0
  150.2603  138.9108  157.9588 H   0  0  0  0  0  0  0  0  0  0  0  0
  152.4431  138.7421  158.4794 H   0  0  0  0  0  0  0  0  0  0  0  0
  150.9986  141.7929  156.4627 H   0  0  0  0  0  0  0  0  0  0  0  0
  152.5708  141.0871  156.1443 H   0  0  0  0  0  0  0  0  0  0  0  0
  151.6027  139.0245  155.5769 H   0  0  0  0  0  0  0  0  0  0  0  0
  148.2205  138.6430  152.6511 H   0  0  0  0  0  0  0  0  0  0  0  0
  146.8836  142.7120  157.4531 H   0  0  0  0  0  0  0  0  0  0  0  0
  142.7414  145.2398  155.7709 H   0  0  0  0  0  0  0  0  0  0  0  0
  143.4819  145.0864  154.1846 H   0  0  0  0  0  0  0  0  0  0  0  0
  142.5992  143.2259  153.8537 H   0  0  0  0  0  0  0  0  0  0  0  0
  142.6302  142.6704  157.8522 H   0  0  0  0  0  0  0  0  0  0  0  0
  144.6937  139.9050  156.9846 H   0  0  0  0  0  0  0  0  0  0  0  0
  153.6518  139.9885  160.7472 H   0  0  0  0  0  0  0  0  0  0  0  0
  154.5450  141.3879  161.3395 H   0  0  0  0  0  0  0  0  0  0  0  0
  154.8521  140.7712  159.7160 H   0  0  0  0  0  0  0  0  0  0  0  0
  1  2  1  0  0  0  0
  1 35  1  0  0  0  0
  1 36  1  0  0  0  0
  1 37  1  0  0  0  0
  2 30  1  0  0  0  0
  2  3  2  0  0  0  0
  3  4  1  0  0  0  0
  3 38  1  0  0  0  0
  4  5  1  0  0  0  0
  4 28  2  0  0  0  0
  5  6  1  0  0  0  0
  5  7  1  0  0  0  0
  5  8  1  0  0  0  0
  6 39  1  0  0  0  0
  6 40  1  0  0  0  0
  6 41  1  0  0  0  0
  7 42  1  0  0  0  0
  8  9  1  0  0  0  0
  8 43  1  0  0  0  0
  8 44  1  0  0  0  0
  9 10  1  0  0  0  0
  9 45  1  0  0  0  0
 10 15  1  0  0  0  0
 10 11  2  0  0  0  0
 11 12  1  0  0  0  0
 12 13  2  0  0  0  0
 12 46  1  0  0  0  0
 13 14  1  0  0  0  0
 14 18  1  0  0  0  0
 14 15  2  0  0  0  0
 15 16  1  0  0  0  0
 16 17  2  0  0  0  0
 17 18  1  0  0  0  0
 17 47  1  0  0  0  0
 18 19  1  0  0  0  0
 19 31  1  0  0  0  0
 19 26  1  0  0  0  0
 19 20  1  0  0  0  0
 20 21  1  0  0  0  0
 21 32  1  0  0  0  0
 21 22  1  0  0  0  0
 21 24  1  0  0  0  0
 22 23  1  0  0  0  0
 22 48  1  0  0  0  0
 22 49  1  0  0  0  0
 23 50  1  0  0  0  0
 24 33  1  0  0  0  0
 24 25  1  0  0  0  0
 24 26  1  0  0  0  0
 25 51  1  0  0  0  0
 26 34  1  0  0  0  0
 26 27  1  0  0  0  0
 27 52  1  0  0  0  0
 28 29  1  0  0  0  0
 28 30  1  0  0  0  0
 29 53  1  0  0  0  0
 29 54  1  0  0  0  0
 29 55  1  0  0  0  0
M  END
> <s_m_source_file>
AV-unprocessed.smi

> <i_m_source_file_index>
287

> <i_lp_mmshare_version>
43012

> <i_f3d_flags>
0

> <s_epik_input>
W0NIM11jMVtjSF1jKGMobzEpW0NIM10pW0NAQF0oW0NIM10pKFtPSF0pW0NIMl1bTkhdYyhuW2NIXW4yKWMoYzIzKW5bY0hdbjNbQ0BASF00T1tDQEhdKFtDSDJdW09IXSlbQ0BASF0oW09IXSlbQ0BIXTRbT0hd

> <s_epik_cmdline>
J2VwaWtfcHl0aG9uJywgJy1waCcsICc3LjAnLCAnLXRuJywgJzgnLCAnLW1hJywgJzIwMCcsICctbWV0YWxfYmluZGluZycsICctaW1hZScsICc8aW5maWxlLm1hZT4nLCAnLW9tYWUnLCAnPG91dGZpbGUubWFlPic=

> <r_lp_tautomer_probability>
1

> <r_epik_Ionization_Penalty>
0.000992612

> <r_epik_Ionization_Penalty_Charging>
0

> <r_epik_Ionization_Penalty_Neutral>
0.000992612

> <r_epik_State_Penalty>
-0

> <r_epik_Charging_Adjusted_Penalty>
0

> <i_epik_Tot_Q>
0

> <i_epik_Tot_abs_Q>
0

> <r_epik_Metal_State_Penalty>
-0

> <b_epik_Metal_Only>
0

> <s_epik_Chemistry_Notes>
This compound contains an acetal/aminal-like group ( X-CH(R)-Y where X, Y are N, S, or O) that may be acid/base labile, releasing an aldehyde.

> <s_lp_Force_Field>
OPLS_2005

> <r_lp_Energy>
45.8493

> <b_lp_Chiralities_Consistent>
1

> <s_lp_Variant>
AV-unprocessed.smi:287-22

> <Gold.Version>
5.8.1

> <Gold.Id.Protein>
6NUR|6NUR_protein|mol2

> <Gold.PLP.Fitness>
47.4648

> <Gold.PLP.PLP>
-39.6997

> <Gold.PLP.part.hbond>
-2.0000

> <Gold.PLP.part.metal>
0.0000

> <Gold.PLP.part.buried>
-4.9576

> <Gold.PLP.part.nonpolar>
-34.5961

> <Gold.PLP.part.repulsive>
1.5319

> <Gold.PLP.ligand.clash>
0.0000

> <Gold.PLP.ligand.torsion>
1.0741

> <Gold.PLP.Chemscore.Hbond>
2.0000

> <Gold.PLP.Chemscore.CHOScore>
1.2516

> <Gold.PLP.Chemscore.Metal>
0.0000

> <Gold.Chemscore.Hbonds>
donor molecule, donor type, donor heavy atom, donor atom, acceptor molecule, acceptor atom, score
      L1  H    23    50       P1 10174  1.00
      P1  H  7997  8010       L1     7  0.65
      L1  C    12    46       P1  7948  0.79
      L1  C    12    46       P1  7957  0.36

> <Gold.PLP.Chemscore.Internal.Correction>
0.1586

> <Gold.Rescore>
     Score         DG    S(hbond)    S(metal)    S(lipo)     H(rot)  DE(clash)    DE(int)     intcor
      7.56      -9.96       1.98        0.00      96.93       5.27       0.25       2.15       ----

> <Gold.Chemscore.Fitness>
7.5614

> <Gold.Chemscore.DG>
-9.9628

> <Gold.Chemscore.ZeroCoef>
-5.4800

> <Gold.Chemscore.Hbond>
1.9839

> <Gold.Chemscore.Metal>
0.0000

> <Gold.Chemscore.Lipo>
96.9264

> <Gold.Chemscore.Internal_Hbond>
0.0000

> <Gold.Chemscore.DEClash>
0.2532

> <Gold.Chemscore.DEInternal>
2.1481

> <Gold.Chemscore.Rot>
5.2672

> <Gold.Chemscore.Internal.Correction>
   9.000000E+99

> <Gold.Chemscore.Hbonds>
donor molecule, donor type, donor heavy atom, donor atom, acceptor molecule, acceptor atom, score
      L1  H    23    50       P1 10174  1.00
      P1  H  7997  8010       L1     7  0.50

> <Gold.Chemscore.Hbond.Weighted>
-6.6263

> <Gold.Chemscore.Metal.Weighted>
-0.0000

> <Gold.Chemscore.Lipo.Weighted>
-11.3404

> <Gold.Chemscore.Internal_Hbond.Weighted>
0.0000

> <Gold.Chemscore.DEClash.Weighted>
0.2532

> <Gold.Chemscore.DEInternal.Weighted>
2.1481

> <Gold.Chemscore.Rot.Weighted>
13.4839

> <Gold.Chemscore.Internal.Correction.Weighted>
   9.000000E+99

> <Gold.Protein.RotatedTorsions>
[ 6907 6896 6895 6894 ] final  173.59 input  -60.11 | X-H torsion
[ 7974 7965 7964 7962 ] final  -45.40 input  175.53 | X-H torsion
[ 8008 7997 7996 7995 ] final   53.69 input   59.86 | X-H torsion
[ 10167 10162 10161 10158 ] final  -69.36 input  -65.29 | X-H torsion
[ 10718 10713 10712 10709 ] final -101.82 input   66.30 | X-H torsion
[ 10763 10752 10751 10750 ] final -127.05 input  -60.55 | X-H torsion
[ 11005 11000 10999 10996 ] final   36.22 input  -57.11 | X-H torsion

> <Gold.Protein.ActiveResidues>
 VAL166  LYS551  ARG553  GLY616  TRP617  ASP618  TYR619  PRO620  LYS621  CYS622 
 ASP623  PHE694  ASN695  SER759  ASP760  ASP761  ALA762  ILE779  LEU786  VAL792 
 PHE793  MET794  SER795  GLU796  ALA797  LYS798  CYS799  TRP800  GLU811  SER814 

> <Gold.Protein.RotatedAtoms>
  151.7659  133.3337  159.3430 H   0  0  0  0  0  0  0  0  0  0  0  0  # atno 6907 bound_to 6896
  150.7480  134.6063  159.6072 H   0  0  0  0  0  0  0  0  0  0  0  0  # atno 6908 bound_to 6896
  152.3374  134.7182  160.0324 H   0  0  0  0  0  0  0  0  0  0  0  0  # atno 6909 bound_to 6896
  145.9824  140.7269  142.9357 H   0  0  0  0  0  0  0  0  0  0  0  0  # atno 7974 bound_to 7965
  155.4724  140.3465  155.4327 H   0  0  0  0  0  0  0  0  0  0  0  0  # atno 8008 bound_to 7997
  156.1092  140.1456  156.9391 H   0  0  0  0  0  0  0  0  0  0  0  0  # atno 8009 bound_to 7997
  154.4745  140.0890  156.7205 H   0  0  0  0  0  0  0  0  0  0  0  0  # atno 8010 bound_to 7997
  140.5437  143.2314  151.7042 H   0  0  0  0  0  0  0  0  0  0  0  0  # atno 10167 bound_to 10162
  156.0207  130.5391  150.7018 H   0  0  0  0  0  0  0  0  0  0  0  0  # atno 10718 bound_to 10713
  154.8750  135.3975  154.3530 H   0  0  0  0  0  0  0  0  0  0  0  0  # atno 10763 bound_to 10752
  153.4313  135.7025  153.6234 H   0  0  0  0  0  0  0  0  0  0  0  0  # atno 10764 bound_to 10752
  153.4854  135.3760  155.2434 H   0  0  0  0  0  0  0  0  0  0  0  0  # atno 10765 bound_to 10752
  140.2348  134.3485  155.7949 H   0  0  0  0  0  0  0  0  0  0  0  0  # atno 11005 bound_to 11000
  144.6865  140.2930  143.7275 LP  0  0  0  0  0  0  0  0  0  0  0  0  # atno 17320 bound_to 7965
  145.7750  139.1871  143.2190 LP  0  0  0  0  0  0  0  0  0  0  0  0  # atno 17321 bound_to 7965
  139.4999  144.3929  152.0261 LP  0  0  0  0  0  0  0  0  0  0  0  0  # atno 17342 bound_to 10162
  140.3040  144.3614  150.6052 LP  0  0  0  0  0  0  0  0  0  0  0  0  # atno 17343 bound_to 10162
  157.4677  131.0890  151.0677 LP  0  0  0  0  0  0  0  0  0  0  0  0  # atno 17370 bound_to 10713
  157.1146  130.6036  149.5490 LP  0  0  0  0  0  0  0  0  0  0  0  0  # atno 17371 bound_to 10713
  141.2215  133.7265  156.8790 LP  0  0  0  0  0  0  0  0  0  0  0  0  # atno 17394 bound_to 11000
  140.1713  134.9098  157.2837 LP  0  0  0  0  0  0  0  0  0  0  0  0  # atno 17395 bound_to 11000

$$$$
