AV-unprocessed.smi:625|AV-procd|sdf|3108|dock1
  -GOLD-   22720 0 33D 1   1.00000     0.00000
 Structure written by MMmdl.
 49 51  0  0  0  0  0  0  0  0  1 V2000
  144.6335  143.9628  154.8480 C   0  0  0  0  0  0  0  0  0  0  0  0
  145.8466  143.1617  154.7843 N   0  0  0  0  0  0  0  0  0  0  0  0
  146.1939  142.2320  155.6894 C   0  0  0  0  0  0  0  0  0  0  0  0
  145.4858  141.9844  156.6668 O   0  0  0  0  0  0  0  0  0  0  0  0
  147.4658  141.5665  155.3963 C   0  0  0  0  0  0  0  0  0  0  0  0
  148.2580  141.8517  154.2090 C   0  0  0  0  0  0  0  0  0  0  0  0
  149.4134  141.1967  153.9819 C   0  0  0  0  0  0  0  0  0  0  0  0
  149.9196  140.1808  154.9086 C   0  0  0  0  0  0  0  0  0  0  0  0
  150.9655  139.5672  154.6967 O   0  0  0  0  0  0  0  0  0  0  0  0
  149.1520  139.9523  156.0176 N   0  0  0  0  0  0  0  0  0  0  0  0
  149.5514  138.9404  157.0138 C   0  0  0  0  0  0  0  0  0  0  0  0
  150.3926  139.4910  158.1783 C   0  0  0  0  0  0  0  0  0  0  0  0
  150.5211  138.8163  159.1991 O   0  0  0  0  0  0  0  0  0  0  0  0
  150.9423  140.7084  158.0326 N   0  0  0  0  0  0  0  0  0  0  0  0
  151.6929  141.4437  159.0450 C   0  0  1  0  0  0  0  0  0  0  0  0
  152.9563  140.6587  159.4386 C   0  0  0  0  0  0  0  0  0  0  0  0
  152.0240  142.8492  158.4908 C   0  0  1  0  0  0  0  0  0  0  0  0
  150.7971  143.6885  158.0630 C   0  0  0  0  0  0  0  0  0  0  0  0
  151.0549  145.0471  158.7405 C   0  0  1  0  0  0  0  0  0  0  0  0
  150.7831  144.9130  160.2496 C   0  0  0  0  0  0  0  0  0  0  0  0
  151.9863  144.0849  160.7365 C   0  0  0  0  0  0  0  0  0  0  0  0
  152.7724  143.8222  159.4352 C   0  0  2  0  0  0  0  0  0  0  0  0
  152.5760  145.1461  158.7027 C   0  0  0  0  0  0  0  0  0  0  0  0
  147.9422  140.6366  156.2473 C   0  0  0  0  0  0  0  0  0  0  0  0
  144.5966  144.6487  154.0018 H   0  0  0  0  0  0  0  0  0  0  0  0
  144.6039  144.5520  155.7654 H   0  0  0  0  0  0  0  0  0  0  0  0
  143.7470  143.3285  154.8119 H   0  0  0  0  0  0  0  0  0  0  0  0
  146.4648  143.3231  154.0025 H   0  0  0  0  0  0  0  0  0  0  0  0
  147.9426  142.5891  153.4857 H   0  0  0  0  0  0  0  0  0  0  0  0
  149.9835  141.4250  153.0934 H   0  0  0  0  0  0  0  0  0  0  0  0
  148.6690  138.4454  157.4231 H   0  0  0  0  0  0  0  0  0  0  0  0
  150.1223  138.1438  156.5352 H   0  0  0  0  0  0  0  0  0  0  0  0
  150.7913  141.1847  157.1551 H   0  0  0  0  0  0  0  0  0  0  0  0
  151.0539  141.5452  159.9225 H   0  0  0  0  0  0  0  0  0  0  0  0
  153.5103  141.1702  160.2254 H   0  0  0  0  0  0  0  0  0  0  0  0
  153.6261  140.5319  158.5874 H   0  0  0  0  0  0  0  0  0  0  0  0
  152.7061  139.6666  159.8152 H   0  0  0  0  0  0  0  0  0  0  0  0
  152.6521  142.7104  157.6085 H   0  0  0  0  0  0  0  0  0  0  0  0
  150.7633  143.7892  156.9775 H   0  0  0  0  0  0  0  0  0  0  0  0
  149.8483  143.2546  158.3821 H   0  0  0  0  0  0  0  0  0  0  0  0
  150.5247  145.8772  158.2728 H   0  0  0  0  0  0  0  0  0  0  0  0
  150.7701  145.8909  160.7324 H   0  0  0  0  0  0  0  0  0  0  0  0
  149.8301  144.4248  160.4572 H   0  0  0  0  0  0  0  0  0  0  0  0
  152.5892  144.6724  161.4303 H   0  0  0  0  0  0  0  0  0  0  0  0
  151.6918  143.1762  161.2594 H   0  0  0  0  0  0  0  0  0  0  0  0
  153.8158  143.5531  159.6026 H   0  0  0  0  0  0  0  0  0  0  0  0
  152.9851  145.1494  157.6907 H   0  0  0  0  0  0  0  0  0  0  0  0
  152.9678  146.0066  159.2485 H   0  0  0  0  0  0  0  0  0  0  0  0
  147.4309  140.3425  157.1535 H   0  0  0  0  0  0  0  0  0  0  0  0
  1  2  1  0  0  0  0
  1 25  1  0  0  0  0
  1 26  1  0  0  0  0
  1 27  1  0  0  0  0
  2  3  1  0  0  0  0
  2 28  1  0  0  0  0
  3  4  2  0  0  0  0
  3  5  1  0  0  0  0
  5 24  2  0  0  0  0
  5  6  1  0  0  0  0
  6  7  2  0  0  0  0
  6 29  1  0  0  0  0
  7  8  1  0  0  0  0
  7 30  1  0  0  0  0
  8  9  2  0  0  0  0
  8 10  1  0  0  0  0
 10 11  1  0  0  0  0
 10 24  1  0  0  0  0
 11 12  1  0  0  0  0
 11 31  1  0  0  0  0
 11 32  1  0  0  0  0
 12 13  2  0  0  0  0
 12 14  1  0  0  0  0
 14 15  1  0  0  0  0
 14 33  1  0  0  0  0
 15 16  1  0  0  0  0
 15 17  1  0  0  0  0
 15 34  1  0  0  0  0
 16 35  1  0  0  0  0
 16 36  1  0  0  0  0
 16 37  1  0  0  0  0
 17 22  1  0  0  0  0
 17 18  1  0  0  0  0
 17 38  1  0  0  0  0
 18 19  1  0  0  0  0
 18 39  1  0  0  0  0
 18 40  1  0  0  0  0
 19 23  1  0  0  0  0
 19 20  1  0  0  0  0
 19 41  1  0  0  0  0
 20 21  1  0  0  0  0
 20 42  1  0  0  0  0
 20 43  1  0  0  0  0
 21 22  1  0  0  0  0
 21 44  1  0  0  0  0
 21 45  1  0  0  0  0
 22 23  1  0  0  0  0
 22 46  1  0  0  0  0
 23 47  1  0  0  0  0
 23 48  1  0  0  0  0
 24 49  1  0  0  0  0
M  END
> <s_m_source_file>
AV-unprocessed.smi

> <i_m_source_file_index>
625

> <i_lp_mmshare_version>
43012

> <i_f3d_flags>
0

> <s_epik_input>
W0NIM11bTkhdQyg9TyljMVtjSF1bY0hdYyg9TyluKFtjSF0xKVtDSDJdQyg9TylbTkhdW0NASF0oW0NIM10pW0NASF0oW0NIMl1bQ0BIXTIzKVtDQEhdKFtDSDJdMylbQ0gyXVtDSDJdMg==

> <s_epik_cmdline>
J2VwaWtfcHl0aG9uJywgJy1waCcsICc3LjAnLCAnLXRuJywgJzgnLCAnLW1hJywgJzIwMCcsICctbWV0YWxfYmluZGluZycsICctaW1hZScsICc8aW5maWxlLm1hZT4nLCAnLW9tYWUnLCAnPG91dGZpbGUubWFlPic=

> <r_lp_tautomer_probability>
1

> <r_epik_Ionization_Penalty>
3.7129e-07

> <r_epik_Ionization_Penalty_Charging>
5.04114e-08

> <r_epik_Ionization_Penalty_Neutral>
3.20879e-07

> <r_epik_State_Penalty>
-0

> <r_epik_Charging_Adjusted_Penalty>
5.04114e-08

> <i_epik_Tot_Q>
0

> <i_epik_Tot_abs_Q>
0

> <r_epik_Metal_State_Penalty>
-0

> <b_epik_Metal_Only>
0

> <s_lp_Force_Field>
OPLS_2005

> <r_lp_Energy>
63.411

> <b_lp_Chiralities_Consistent>
1

> <s_lp_Variant>
AV-unprocessed.smi:625-8

> <Gold.Version>
5.8.1

> <Gold.Id.Protein>
6NUR|6NUR_protein|mol2

> <Gold.PLP.Fitness>
44.8202

> <Gold.PLP.PLP>
-42.9084

> <Gold.PLP.part.hbond>
-1.7890

> <Gold.PLP.part.metal>
0.0000

> <Gold.PLP.part.buried>
-5.2013

> <Gold.PLP.part.nonpolar>
-35.5398

> <Gold.PLP.part.repulsive>
0.2286

> <Gold.PLP.ligand.clash>
0.0000

> <Gold.PLP.ligand.torsion>
0.5924

> <Gold.PLP.Chemscore.Hbond>
1.0000

> <Gold.PLP.Chemscore.CHOScore>
0.0000

> <Gold.PLP.Chemscore.Metal>
0.0000

> <Gold.Chemscore.Hbonds>
donor molecule, donor type, donor heavy atom, donor atom, acceptor molecule, acceptor atom, score
      P1  H  7989  7998       L1     9  0.70

> <Gold.PLP.Chemscore.Internal.Correction>
0.0966

> <Gold.Rescore>
     Score         DG    S(hbond)    S(metal)    S(lipo)     H(rot)  DE(clash)    DE(int)     intcor
     17.75     -18.42       0.98        0.00     119.29       1.67       0.01       0.66       ----

> <Gold.Chemscore.Fitness>
17.7524

> <Gold.Chemscore.DG>
-18.4234

> <Gold.Chemscore.ZeroCoef>
-5.4800

> <Gold.Chemscore.Hbond>
0.9771

> <Gold.Chemscore.Metal>
0.0000

> <Gold.Chemscore.Lipo>
119.2939

> <Gold.Chemscore.Internal_Hbond>
0.0000

> <Gold.Chemscore.DEClash>
0.0073

> <Gold.Chemscore.DEInternal>
0.6636

> <Gold.Chemscore.Rot>
1.6709

> <Gold.Chemscore.Internal.Correction>
   9.000000E+99

> <Gold.Chemscore.Hbonds>
donor molecule, donor type, donor heavy atom, donor atom, acceptor molecule, acceptor atom, score
      P1  H  7989  7998       L1     9  0.07

> <Gold.Chemscore.Hbond.Weighted>
-3.2634

> <Gold.Chemscore.Metal.Weighted>
-0.0000

> <Gold.Chemscore.Lipo.Weighted>
-13.9574

> <Gold.Chemscore.Internal_Hbond.Weighted>
0.0000

> <Gold.Chemscore.DEClash.Weighted>
0.0073

> <Gold.Chemscore.DEInternal.Weighted>
0.6636

> <Gold.Chemscore.Rot.Weighted>
4.2774

> <Gold.Chemscore.Internal.Correction.Weighted>
   9.000000E+99

> <Gold.Protein.RotatedTorsions>
[ 6907 6896 6895 6894 ] final   -2.86 input  -60.11 | X-H torsion
[ 7974 7965 7964 7962 ] final   -8.47 input  175.53 | X-H torsion
[ 8008 7997 7996 7995 ] final  158.00 input   59.86 | X-H torsion
[ 10167 10162 10161 10158 ] final   21.36 input  -65.29 | X-H torsion
[ 10718 10713 10712 10709 ] final -122.65 input   66.30 | X-H torsion
[ 10763 10752 10751 10750 ] final -149.51 input  -60.55 | X-H torsion
[ 11005 11000 10999 10996 ] final   54.08 input  -57.11 | X-H torsion

> <Gold.Protein.ActiveResidues>
 VAL166  LYS551  ARG553  GLY616  TRP617  ASP618  TYR619  PRO620  LYS621  CYS622 
 ASP623  PHE694  ASN695  SER759  ASP760  ASP761  ALA762  ILE779  LEU786  VAL792 
 PHE793  MET794  SER795  GLU796  ALA797  LYS798  CYS799  TRP800  GLU811  SER814 

> <Gold.Protein.RotatedAtoms>
  151.5231  135.1067  159.9883 H   0  0  0  0  0  0  0  0  0  0  0  0  # atno 6907 bound_to 6896
  152.4611  133.7821  159.6867 H   0  0  0  0  0  0  0  0  0  0  0  0  # atno 6908 bound_to 6896
  150.8574  133.7629  159.3029 H   0  0  0  0  0  0  0  0  0  0  0  0  # atno 6909 bound_to 6896
  146.2279  140.2473  142.8346 H   0  0  0  0  0  0  0  0  0  0  0  0  # atno 7974 bound_to 7965
  156.2329  140.1870  156.7195 H   0  0  0  0  0  0  0  0  0  0  0  0  # atno 8008 bound_to 7997
  154.6055  140.0629  156.9452 H   0  0  0  0  0  0  0  0  0  0  0  0  # atno 8009 bound_to 7997
  155.2103  140.3299  155.4332 H   0  0  0  0  0  0  0  0  0  0  0  0  # atno 8010 bound_to 7997
  140.5432  143.9640  150.6532 H   0  0  0  0  0  0  0  0  0  0  0  0  # atno 10167 bound_to 10162
  156.1436  130.6484  150.9808 H   0  0  0  0  0  0  0  0  0  0  0  0  # atno 10718 bound_to 10713
  154.8173  135.3307  154.7140 H   0  0  0  0  0  0  0  0  0  0  0  0  # atno 10763 bound_to 10752
  153.7778  135.6921  153.4898 H   0  0  0  0  0  0  0  0  0  0  0  0  # atno 10764 bound_to 10752
  153.2001  135.4519  155.0203 H   0  0  0  0  0  0  0  0  0  0  0  0  # atno 10765 bound_to 10752
  140.0715  134.5463  155.9042 H   0  0  0  0  0  0  0  0  0  0  0  0  # atno 11005 bound_to 11000
  144.9439  140.8107  143.5614 LP  0  0  0  0  0  0  0  0  0  0  0  0  # atno 17320 bound_to 7965
  145.2427  139.2065  143.4984 LP  0  0  0  0  0  0  0  0  0  0  0  0  # atno 17321 bound_to 7965
  140.3046  143.3238  152.0939 LP  0  0  0  0  0  0  0  0  0  0  0  0  # atno 17342 bound_to 10162
  139.4997  144.6675  151.6321 LP  0  0  0  0  0  0  0  0  0  0  0  0  # atno 17343 bound_to 10162
  157.6597  131.0883  150.7866 LP  0  0  0  0  0  0  0  0  0  0  0  0  # atno 17370 bound_to 10713
  156.7940  130.4899  149.5380 LP  0  0  0  0  0  0  0  0  0  0  0  0  # atno 17371 bound_to 10713
  141.2013  133.6618  156.5946 LP  0  0  0  0  0  0  0  0  0  0  0  0  # atno 17394 bound_to 11000
  140.3620  134.7679  157.4540 LP  0  0  0  0  0  0  0  0  0  0  0  0  # atno 17395 bound_to 11000

$$$$
