AV-unprocessed.smi:2478|AV-procd|sdf|9764|dock5
  -GOLD-   2272013403D 1   1.00000     0.00000
 Structure written by MMmdl.
 42 43  0  0  0  0  0  0  0  0  1 V2000
  151.3813  144.9137  159.7365 C   0  0  0  0  0  0  0  0  0  0  0  0
  152.4781  144.0118  160.3239 C   0  0  1  0  0  0  0  0  0  0  0  0
  152.2018  143.6580  161.7994 C   0  0  0  0  0  0  0  0  0  0  0  0
  153.3212  142.7856  162.3902 C   0  0  0  0  0  0  0  0  0  0  0  0
  153.5454  141.5195  161.5499 C   0  0  0  0  0  0  0  0  0  0  0  0
  153.8230  141.8704  160.0791 C   0  0  0  0  0  0  0  0  0  0  0  0
  152.6961  142.7376  159.4774 C   0  0  1  0  0  0  0  0  0  0  0  0
  151.4742  142.0083  159.4396 O   0  0  0  0  0  0  0  0  0  0  0  0
  151.4117  141.0082  158.4327 C   0  0  0  0  0  0  0  0  0  0  0  0
  150.0258  141.0300  157.7883 C   0  0  0  0  0  0  0  0  0  0  0  0
  149.0199  140.9082  158.4888 O   0  0  0  0  0  0  0  0  0  0  0  0
  150.0158  141.1812  156.4512 N   0  0  0  0  0  0  0  0  0  0  0  0
  148.8992  141.2262  155.5717 C   0  0  0  0  0  0  0  0  0  0  0  0
  147.7828  141.9522  155.8302 N   0  0  0  0  0  0  0  0  0  0  0  0
  146.7665  141.9425  154.9443 C   0  0  0  0  0  0  0  0  0  0  0  0
  146.8018  141.2110  153.7452 C   0  0  0  0  0  0  0  0  0  0  0  0
  147.9522  140.4544  153.4637 C   0  0  0  0  0  0  0  0  0  0  0  0
  149.0214  140.4486  154.3921 C   0  0  0  0  0  0  0  0  0  0  0  0
  150.1850  139.7426  154.1723 O   0  0  0  0  0  0  0  0  0  0  0  0
  150.2198  138.4131  154.4556 C   0  0  0  0  0  0  0  0  0  0  0  0
  151.4696  137.9218  154.2691 F   0  0  0  0  0  0  0  0  0  0  0  0
  149.8906  138.2139  155.7547 F   0  0  0  0  0  0  0  0  0  0  0  0
  150.4070  144.4246  159.7596 H   0  0  0  0  0  0  0  0  0  0  0  0
  151.5990  145.1731  158.7003 H   0  0  0  0  0  0  0  0  0  0  0  0
  151.2973  145.8443  160.2982 H   0  0  0  0  0  0  0  0  0  0  0  0
  153.4064  144.5845  160.2943 H   0  0  0  0  0  0  0  0  0  0  0  0
  152.1022  144.5696  162.3893 H   0  0  0  0  0  0  0  0  0  0  0  0
  151.2491  143.1332  161.8828 H   0  0  0  0  0  0  0  0  0  0  0  0
  154.2467  143.3610  162.4365 H   0  0  0  0  0  0  0  0  0  0  0  0
  153.0760  142.5113  163.4166 H   0  0  0  0  0  0  0  0  0  0  0  0
  154.3775  140.9456  161.9586 H   0  0  0  0  0  0  0  0  0  0  0  0
  152.6664  140.8766  161.6142 H   0  0  0  0  0  0  0  0  0  0  0  0
  154.7656  142.4152  160.0141 H   0  0  0  0  0  0  0  0  0  0  0  0
  153.9665  140.9583  159.5009 H   0  0  0  0  0  0  0  0  0  0  0  0
  152.9734  143.0409  158.4661 H   0  0  0  0  0  0  0  0  0  0  0  0
  152.1755  141.1937  157.6754 H   0  0  0  0  0  0  0  0  0  0  0  0
  151.5846  140.0156  158.8480 H   0  0  0  0  0  0  0  0  0  0  0  0
  150.9175  141.2754  156.0069 H   0  0  0  0  0  0  0  0  0  0  0  0
  145.9023  142.5382  155.1980 H   0  0  0  0  0  0  0  0  0  0  0  0
  145.9693  141.2329  153.0576 H   0  0  0  0  0  0  0  0  0  0  0  0
  148.0053  139.8944  152.5420 H   0  0  0  0  0  0  0  0  0  0  0  0
  149.5141  137.8514  153.8430 H   0  0  0  0  0  0  0  0  0  0  0  0
  1  2  1  0  0  0  0
  1 23  1  0  0  0  0
  1 24  1  0  0  0  0
  1 25  1  0  0  0  0
  2  7  1  0  0  0  0
  2  3  1  0  0  0  0
  2 26  1  0  0  0  0
  3  4  1  0  0  0  0
  3 27  1  0  0  0  0
  3 28  1  0  0  0  0
  4  5  1  0  0  0  0
  4 29  1  0  0  0  0
  4 30  1  0  0  0  0
  5  6  1  0  0  0  0
  5 31  1  0  0  0  0
  5 32  1  0  0  0  0
  6  7  1  0  0  0  0
  6 33  1  0  0  0  0
  6 34  1  0  0  0  0
  7  8  1  0  0  0  0
  7 35  1  0  0  0  0
  8  9  1  0  0  0  0
  9 10  1  0  0  0  0
  9 36  1  0  0  0  0
  9 37  1  0  0  0  0
 10 11  2  0  0  0  0
 10 12  1  0  0  0  0
 12 13  1  0  0  0  0
 12 38  1  0  0  0  0
 13 18  1  0  0  0  0
 13 14  2  0  0  0  0
 14 15  1  0  0  0  0
 15 16  2  0  0  0  0
 15 39  1  0  0  0  0
 16 17  1  0  0  0  0
 16 40  1  0  0  0  0
 17 18  2  0  0  0  0
 17 41  1  0  0  0  0
 18 19  1  0  0  0  0
 19 20  1  0  0  0  0
 20 21  1  0  0  0  0
 20 22  1  0  0  0  0
 20 42  1  0  0  0  0
M  END
> <s_m_source_file>
AV-unprocessed.smi

> <i_m_source_file_index>
2478

> <i_lp_mmshare_version>
43012

> <i_f3d_flags>
0

> <s_epik_input>
W0NIM11bQ0BASF0xW0NIMl1bQ0gyXVtDSDJdW0NIMl1bQ0BIXTFPW0NIMl1DKD1PKVtOSF1jMm5bY0hdW2NIXVtjSF1jMk9bQ0hdKEYpRg==

> <s_epik_cmdline>
J2VwaWtfcHl0aG9uJywgJy1waCcsICc3LjAnLCAnLXRuJywgJzgnLCAnLW1hJywgJzIwMCcsICctbWV0YWxfYmluZGluZycsICctaW1hZScsICc8aW5maWxlLm1hZT4nLCAnLW9tYWUnLCAnPG91dGZpbGUubWFlPic=

> <r_lp_tautomer_probability>
1

> <r_epik_Ionization_Penalty>
6.06012e-05

> <r_epik_Ionization_Penalty_Charging>
0

> <r_epik_Ionization_Penalty_Neutral>
6.06012e-05

> <r_epik_State_Penalty>
-0

> <r_epik_Charging_Adjusted_Penalty>
0

> <i_epik_Tot_Q>
0

> <i_epik_Tot_abs_Q>
0

> <r_epik_Metal_State_Penalty>
-0

> <b_epik_Metal_Only>
0

> <s_lp_Force_Field>
OPLS_2005

> <r_lp_Energy>
14.9607

> <b_lp_Chiralities_Consistent>
1

> <s_lp_Variant>
AV-unprocessed.smi:2478-2

> <Gold.Version>
5.8.1

> <Gold.Id.Protein>
6NUR|6NUR_protein|mol2

> <Gold.PLP.Fitness>
49.8784

> <Gold.PLP.PLP>
-48.9840

> <Gold.PLP.part.hbond>
-1.9402

> <Gold.PLP.part.metal>
0.0000

> <Gold.PLP.part.buried>
-5.2374

> <Gold.PLP.part.nonpolar>
-43.7470

> <Gold.PLP.part.repulsive>
2.8108

> <Gold.PLP.ligand.clash>
0.0000

> <Gold.PLP.ligand.torsion>
1.1039

> <Gold.PLP.Chemscore.Hbond>
1.0000

> <Gold.PLP.Chemscore.CHOScore>
0.0000

> <Gold.PLP.Chemscore.Metal>
0.0000

> <Gold.Chemscore.Hbonds>
donor molecule, donor type, donor heavy atom, donor atom, acceptor molecule, acceptor atom, score
      P1  H  7989  7998       L1    19  1.00

> <Gold.PLP.Chemscore.Internal.Correction>
0.1022

> <Gold.Rescore>
     Score         DG    S(hbond)    S(metal)    S(lipo)     H(rot)  DE(clash)    DE(int)     intcor
     15.50     -18.14       0.92        0.00     122.32       1.85       1.68       0.97       ----

> <Gold.Chemscore.Fitness>
15.4966

> <Gold.Chemscore.DG>
-18.1429

> <Gold.Chemscore.ZeroCoef>
-5.4800

> <Gold.Chemscore.Hbond>
0.9229

> <Gold.Chemscore.Metal>
0.0000

> <Gold.Chemscore.Lipo>
122.3202

> <Gold.Chemscore.Internal_Hbond>
0.0000

> <Gold.Chemscore.DEClash>
1.6767

> <Gold.Chemscore.DEInternal>
0.9697

> <Gold.Chemscore.Rot>
1.8481

> <Gold.Chemscore.Internal.Correction>
   9.000000E+99

> <Gold.Chemscore.Hbonds>
donor molecule, donor type, donor heavy atom, donor atom, acceptor molecule, acceptor atom, score
      P1  H  7989  7998       L1    19  0.80

> <Gold.Chemscore.Hbond.Weighted>
-3.0825

> <Gold.Chemscore.Metal.Weighted>
-0.0000

> <Gold.Chemscore.Lipo.Weighted>
-14.3115

> <Gold.Chemscore.Internal_Hbond.Weighted>
0.0000

> <Gold.Chemscore.DEClash.Weighted>
1.6767

> <Gold.Chemscore.DEInternal.Weighted>
0.9697

> <Gold.Chemscore.Rot.Weighted>
4.7311

> <Gold.Chemscore.Internal.Correction.Weighted>
   9.000000E+99

> <Gold.Protein.RotatedTorsions>
[ 6907 6896 6895 6894 ] final  -69.51 input  -60.11 | X-H torsion
[ 7974 7965 7964 7962 ] final -127.83 input  175.53 | X-H torsion
[ 8008 7997 7996 7995 ] final -148.83 input   59.86 | X-H torsion
[ 10167 10162 10161 10158 ] final -178.81 input  -65.29 | X-H torsion
[ 10718 10713 10712 10709 ] final  155.58 input   66.30 | X-H torsion
[ 10763 10752 10751 10750 ] final  125.59 input  -60.55 | X-H torsion
[ 11005 11000 10999 10996 ] final -165.42 input  -57.11 | X-H torsion

> <Gold.Protein.ActiveResidues>
 VAL166  LYS551  ARG553  GLY616  TRP617  ASP618  TYR619  PRO620  LYS621  CYS622 
 ASP623  PHE694  ASN695  SER759  ASP760  ASP761  ALA762  ILE779  LEU786  VAL792 
 PHE793  MET794  SER795  GLU796  ALA797  LYS798  CYS799  TRP800  GLU811  SER814 

> <Gold.Protein.RotatedAtoms>
  150.7302  134.5586  159.5830 H   0  0  0  0  0  0  0  0  0  0  0  0  # atno 6907 bound_to 6896
  152.3055  134.7557  160.0357 H   0  0  0  0  0  0  0  0  0  0  0  0  # atno 6908 bound_to 6896
  151.8123  133.3348  159.3596 H   0  0  0  0  0  0  0  0  0  0  0  0  # atno 6909 bound_to 6896
  144.9731  140.7565  143.4658 H   0  0  0  0  0  0  0  0  0  0  0  0  # atno 7974 bound_to 7965
  155.5980  140.0659  157.2741 H   0  0  0  0  0  0  0  0  0  0  0  0  # atno 8008 bound_to 7997
  154.4287  140.1823  156.1190 H   0  0  0  0  0  0  0  0  0  0  0  0  # atno 8009 bound_to 7997
  156.0181  140.3319  155.7014 H   0  0  0  0  0  0  0  0  0  0  0  0  # atno 8010 bound_to 7997
  139.5415  144.2351  152.0904 H   0  0  0  0  0  0  0  0  0  0  0  0  # atno 10167 bound_to 10162
  157.2165  131.0709  151.1938 H   0  0  0  0  0  0  0  0  0  0  0  0  # atno 10718 bound_to 10713
  153.6798  135.3316  155.3175 H   0  0  0  0  0  0  0  0  0  0  0  0  # atno 10763 bound_to 10752
  154.8469  135.4406  154.1618 H   0  0  0  0  0  0  0  0  0  0  0  0  # atno 10764 bound_to 10752
  153.2631  135.6993  153.7634 H   0  0  0  0  0  0  0  0  0  0  0  0  # atno 10765 bound_to 10752
  140.5759  134.5190  157.5170 H   0  0  0  0  0  0  0  0  0  0  0  0  # atno 11005 bound_to 11000
  145.2530  139.2024  143.4932 LP  0  0  0  0  0  0  0  0  0  0  0  0  # atno 17320 bound_to 7965
  146.3387  140.2446  142.8596 LP  0  0  0  0  0  0  0  0  0  0  0  0  # atno 17321 bound_to 7965
  140.1830  144.4826  150.6518 LP  0  0  0  0  0  0  0  0  0  0  0  0  # atno 17342 bound_to 10162
  140.6646  143.2263  151.5773 LP  0  0  0  0  0  0  0  0  0  0  0  0  # atno 17343 bound_to 10162
  157.3619  130.7136  149.6507 LP  0  0  0  0  0  0  0  0  0  0  0  0  # atno 17370 bound_to 10713
  155.9686  130.4223  150.4509 LP  0  0  0  0  0  0  0  0  0  0  0  0  # atno 17371 bound_to 10713
  139.9340  134.7911  156.0854 LP  0  0  0  0  0  0  0  0  0  0  0  0  # atno 17394 bound_to 11000
  141.1027  133.6671  156.2791 LP  0  0  0  0  0  0  0  0  0  0  0  0  # atno 17395 bound_to 11000

$$$$
