AV-unprocessed.smi:2285|AV-procd|sdf|9203|dock5
  -GOLD-   2272012423D 1   1.00000     0.00000
 Structure written by MMmdl.
 36 37  0  0  0  0  0  0  0  0  1 V2000
  144.4305  131.6715  150.8892 C   0  0  0  0  0  0  0  0  0  0  0  0
  144.1447  133.1752  151.0041 C   0  0  0  0  0  0  0  0  0  0  0  0
  145.3666  134.0054  151.3919 C   0  0  0  0  0  0  0  0  0  0  0  0
  145.0856  135.5078  151.3981 C   0  0  0  0  0  0  0  0  0  0  0  0
  146.1927  136.3740  151.7891 N   0  0  0  0  0  0  0  0  0  0  0  0
  146.0660  137.5290  152.4576 C   0  0  0  0  0  0  0  0  0  0  0  0
  144.9803  137.9748  152.8334 O   0  0  0  0  0  0  0  0  0  0  0  0
  147.2682  138.1093  152.6448 N   0  0  0  0  0  0  0  0  0  0  0  0
  147.5534  139.3202  153.2890 C   0  0  0  0  0  0  0  0  0  0  0  0
  146.7903  140.3741  153.2022 N   0  0  0  0  0  0  0  0  0  0  0  0
  147.1041  141.5641  153.8587 C   0  0  0  0  0  0  0  0  0  0  0  0
  148.2154  141.6652  154.6097 C   0  0  0  0  0  0  0  0  0  0  0  0
  149.0858  140.5751  154.7504 N   0  0  0  0  0  0  0  0  0  0  0  0
  150.2799  140.7386  155.5802 C   0  0  0  0  0  0  0  0  0  0  0  0
  148.8281  139.3890  154.1353 C   0  0  0  0  0  0  0  0  0  0  0  0
  149.5608  138.4024  154.2330 O   0  0  0  0  0  0  0  0  0  0  0  0
  146.3478  133.4423  152.3992 C   0  0  0  0  0  0  0  0  0  0  0  0
  146.7329  133.5327  150.9434 C   0  0  0  0  0  0  0  0  0  0  0  0
  143.5125  131.1201  150.6852 H   0  0  0  0  0  0  0  0  0  0  0  0
  144.8539  131.2794  151.8143 H   0  0  0  0  0  0  0  0  0  0  0  0
  145.1278  131.4550  150.0801 H   0  0  0  0  0  0  0  0  0  0  0  0
  143.7253  133.5515  150.0708 H   0  0  0  0  0  0  0  0  0  0  0  0
  143.3695  133.3237  151.7568 H   0  0  0  0  0  0  0  0  0  0  0  0
  144.7237  135.8120  150.4143 H   0  0  0  0  0  0  0  0  0  0  0  0
  144.2593  135.7015  152.0818 H   0  0  0  0  0  0  0  0  0  0  0  0
  147.1190  136.0778  151.5182 H   0  0  0  0  0  0  0  0  0  0  0  0
  148.0578  137.6081  152.2652 H   0  0  0  0  0  0  0  0  0  0  0  0
  146.4146  142.3858  153.7314 H   0  0  0  0  0  0  0  0  0  0  0  0
  148.4994  142.5644  155.1370 H   0  0  0  0  0  0  0  0  0  0  0  0
  151.1806  140.5126  155.0071 H   0  0  0  0  0  0  0  0  0  0  0  0
  150.2433  140.0645  156.4372 H   0  0  0  0  0  0  0  0  0  0  0  0
  150.3848  141.7537  155.9644 H   0  0  0  0  0  0  0  0  0  0  0  0
  146.8271  134.1358  153.0874 H   0  0  0  0  0  0  0  0  0  0  0  0
  146.1477  132.4529  152.8055 H   0  0  0  0  0  0  0  0  0  0  0  0
  146.7898  132.6022  150.3818 H   0  0  0  0  0  0  0  0  0  0  0  0
  147.4653  134.2877  150.6648 H   0  0  0  0  0  0  0  0  0  0  0  0
  1  2  1  0  0  0  0
  1 19  1  0  0  0  0
  1 20  1  0  0  0  0
  1 21  1  0  0  0  0
  2  3  1  0  0  0  0
  2 22  1  0  0  0  0
  2 23  1  0  0  0  0
  3 18  1  0  0  0  0
  3  4  1  0  0  0  0
  3 17  1  0  0  0  0
  4  5  1  0  0  0  0
  4 24  1  0  0  0  0
  4 25  1  0  0  0  0
  5  6  1  0  0  0  0
  5 26  1  0  0  0  0
  6  7  2  0  0  0  0
  6  8  1  0  0  0  0
  8  9  1  0  0  0  0
  8 27  1  0  0  0  0
  9 15  1  0  0  0  0
  9 10  2  0  0  0  0
 10 11  1  0  0  0  0
 11 12  2  0  0  0  0
 11 28  1  0  0  0  0
 12 13  1  0  0  0  0
 12 29  1  0  0  0  0
 13 14  1  0  0  0  0
 13 15  1  0  0  0  0
 14 30  1  0  0  0  0
 14 31  1  0  0  0  0
 14 32  1  0  0  0  0
 15 16  2  0  0  0  0
 17 18  1  0  0  0  0
 17 33  1  0  0  0  0
 17 34  1  0  0  0  0
 18 35  1  0  0  0  0
 18 36  1  0  0  0  0
M  END
> <s_m_source_file>
AV-unprocessed.smi

> <i_m_source_file_index>
2285

> <i_lp_mmshare_version>
43012

> <i_f3d_flags>
0

> <s_epik_input>
W0NIM11bQ0gyXUMxKFtDSDJdW0NIMl0xKVtDSDJdW05IXUMoPU8pW05IXWMybltjSF1bY0hdbihbQ0gzXSljMj1P

> <s_epik_cmdline>
J2VwaWtfcHl0aG9uJywgJy1waCcsICc3LjAnLCAnLXRuJywgJzgnLCAnLW1hJywgJzIwMCcsICctbWV0YWxfYmluZGluZycsICctaW1hZScsICc8aW5maWxlLm1hZT4nLCAnLW9tYWUnLCAnPG91dGZpbGUubWFlPic=

> <r_lp_tautomer_probability>
1

> <r_epik_Ionization_Penalty>
0.000603256

> <r_epik_Ionization_Penalty_Charging>
1.64466e-07

> <r_epik_Ionization_Penalty_Neutral>
0.000603092

> <r_epik_State_Penalty>
-0

> <r_epik_Charging_Adjusted_Penalty>
1.64466e-07

> <i_epik_Tot_Q>
0

> <i_epik_Tot_abs_Q>
0

> <r_epik_Metal_State_Penalty>
-0

> <b_epik_Metal_Only>
0

> <s_lp_Force_Field>
OPLS_2005

> <r_lp_Energy>
32.2968

> <b_lp_Chiralities_Consistent>
1

> <s_lp_Variant>
AV-unprocessed.smi:2285-1

> <Gold.Version>
5.8.1

> <Gold.Id.Protein>
6NUR|6NUR_protein|mol2

> <Gold.PLP.Fitness>
40.3640

> <Gold.PLP.PLP>
-32.4808

> <Gold.PLP.part.hbond>
-2.0557

> <Gold.PLP.part.metal>
0.0000

> <Gold.PLP.part.buried>
-4.2018

> <Gold.PLP.part.nonpolar>
-28.1304

> <Gold.PLP.part.repulsive>
2.6493

> <Gold.PLP.ligand.clash>
0.0000

> <Gold.PLP.ligand.torsion>
1.0383

> <Gold.PLP.Chemscore.Hbond>
1.9280

> <Gold.PLP.Chemscore.CHOScore>
1.0000

> <Gold.PLP.Chemscore.Metal>
0.0000

> <Gold.Chemscore.Hbonds>
donor molecule, donor type, donor heavy atom, donor atom, acceptor molecule, acceptor atom, score
      L1  H     5    26       P1  7948  0.94
      L1  H     8    27       P1  7948  1.00
      L1  C    12    29       P1  8028  1.00

> <Gold.PLP.Chemscore.Internal.Correction>
1.1758

> <Gold.Rescore>
     Score         DG    S(hbond)    S(metal)    S(lipo)     H(rot)  DE(clash)    DE(int)     intcor
     12.57     -14.88       1.94        0.00      57.60       1.49       0.22       2.09       ----

> <Gold.Chemscore.Fitness>
12.5707

> <Gold.Chemscore.DG>
-14.8784

> <Gold.Chemscore.ZeroCoef>
-5.4800

> <Gold.Chemscore.Hbond>
1.9353

> <Gold.Chemscore.Metal>
0.0000

> <Gold.Chemscore.Lipo>
57.5986

> <Gold.Chemscore.Internal_Hbond>
0.0000

> <Gold.Chemscore.DEClash>
0.2181

> <Gold.Chemscore.DEInternal>
2.0895

> <Gold.Chemscore.Rot>
1.4861

> <Gold.Chemscore.Internal.Correction>
   9.000000E+99

> <Gold.Chemscore.Hbonds>
donor molecule, donor type, donor heavy atom, donor atom, acceptor molecule, acceptor atom, score
      L1  H     5    26       P1  7948  0.91
      L1  H     8    27       P1  7948  0.99

> <Gold.Chemscore.Hbond.Weighted>
-6.4638

> <Gold.Chemscore.Metal.Weighted>
-0.0000

> <Gold.Chemscore.Lipo.Weighted>
-6.7390

> <Gold.Chemscore.Internal_Hbond.Weighted>
0.0000

> <Gold.Chemscore.DEClash.Weighted>
0.2181

> <Gold.Chemscore.DEInternal.Weighted>
2.0895

> <Gold.Chemscore.Rot.Weighted>
3.8044

> <Gold.Chemscore.Internal.Correction.Weighted>
   9.000000E+99

> <Gold.Protein.RotatedTorsions>
[ 6907 6896 6895 6894 ] final  100.34 input  -60.11 | X-H torsion
[ 7974 7965 7964 7962 ] final   39.74 input  175.53 | X-H torsion
[ 8008 7997 7996 7995 ] final  118.55 input   59.86 | X-H torsion
[ 10167 10162 10161 10158 ] final  -46.41 input  -65.29 | X-H torsion
[ 10718 10713 10712 10709 ] final   19.30 input   66.30 | X-H torsion
[ 10763 10752 10751 10750 ] final -149.04 input  -60.55 | X-H torsion
[ 11005 11000 10999 10996 ] final  123.00 input  -57.11 | X-H torsion

> <Gold.Protein.ActiveResidues>
 VAL166  LYS551  ARG553  GLY616  TRP617  ASP618  TYR619  PRO620  LYS621  CYS622 
 ASP623  PHE694  ASN695  SER759  ASP760  ASP761  ALA762  ILE779  LEU786  VAL792 
 PHE793  MET794  SER795  GLU796  ALA797  LYS798  CYS799  TRP800  GLU811  SER814 

> <Gold.Protein.RotatedAtoms>
  152.5374  134.0292  159.8016 H   0  0  0  0  0  0  0  0  0  0  0  0  # atno 6907 bound_to 6896
  151.0466  133.5652  159.2653 H   0  0  0  0  0  0  0  0  0  0  0  0  # atno 6908 bound_to 6896
  151.2602  135.0659  159.9149 H   0  0  0  0  0  0  0  0  0  0  0  0  # atno 6909 bound_to 6896
  146.0960  139.5615  142.9445 H   0  0  0  0  0  0  0  0  0  0  0  0  # atno 7974 bound_to 7965
  156.2552  140.2872  156.0852 H   0  0  0  0  0  0  0  0  0  0  0  0  # atno 8008 bound_to 7997
  155.1523  140.0397  157.2841 H   0  0  0  0  0  0  0  0  0  0  0  0  # atno 8009 bound_to 7997
  154.6452  140.2531  155.7283 H   0  0  0  0  0  0  0  0  0  0  0  0  # atno 8010 bound_to 7997
  140.6818  143.2832  151.3779 H   0  0  0  0  0  0  0  0  0  0  0  0  # atno 10167 bound_to 10162
  157.1086  130.6499  149.5891 H   0  0  0  0  0  0  0  0  0  0  0  0  # atno 10718 bound_to 10713
  154.8200  135.3319  154.7067 H   0  0  0  0  0  0  0  0  0  0  0  0  # atno 10763 bound_to 10752
  153.7701  135.6926  153.4912 H   0  0  0  0  0  0  0  0  0  0  0  0  # atno 10764 bound_to 10752
  153.2050  135.4502  155.0261 H   0  0  0  0  0  0  0  0  0  0  0  0  # atno 10765 bound_to 10752
  139.9293  134.9641  156.8193 H   0  0  0  0  0  0  0  0  0  0  0  0  # atno 11005 bound_to 11000
  145.5947  141.0364  143.2051 LP  0  0  0  0  0  0  0  0  0  0  0  0  # atno 17320 bound_to 7965
  144.7396  139.7488  143.7316 LP  0  0  0  0  0  0  0  0  0  0  0  0  # atno 17321 bound_to 7965
  139.6147  144.1027  152.2333 LP  0  0  0  0  0  0  0  0  0  0  0  0  # atno 17342 bound_to 10162
  140.0453  144.5976  150.7379 LP  0  0  0  0  0  0  0  0  0  0  0  0  # atno 17343 bound_to 10162
  155.9856  130.4887  150.7039 LP  0  0  0  0  0  0  0  0  0  0  0  0  # atno 17370 bound_to 10713
  157.4579  131.0880  151.0777 LP  0  0  0  0  0  0  0  0  0  0  0  0  # atno 17371 bound_to 10713
  140.6247  133.9961  155.7634 LP  0  0  0  0  0  0  0  0  0  0  0  0  # atno 17394 bound_to 11000
  141.0871  133.9973  157.3296 LP  0  0  0  0  0  0  0  0  0  0  0  0  # atno 17395 bound_to 11000

$$$$
