AV-unprocessed.smi:223|AV-procd|sdf|1703|dock10
  -GOLD-   2262020163D 1   1.00000     0.00000
 Structure written by MMmdl.
 47 50  0  0  0  0  0  0  0  0  1 V2000
  146.4416  133.4337  151.3899 C   0  0  0  0  0  0  0  0  0  0  0  0
  144.9807  133.8847  151.2729 C   0  0  2  0  0  0  0  0  0  0  0  0
  144.3649  133.2913  150.0739 C   0  0  0  0  0  0  0  0  0  0  0  0
  143.8810  132.8246  149.1321 N   0  0  0  0  0  0  0  0  0  0  0  0
  144.8760  135.4236  151.2902 C   0  0  0  0  0  0  0  0  0  0  0  0
  144.8508  135.9982  152.6356 N   0  0  0  0  0  0  0  0  0  0  0  0
  145.7442  136.9886  152.9016 C   0  0  0  0  0  0  0  0  0  0  0  0
  145.9418  137.9712  151.9814 N   0  0  0  0  0  0  0  0  0  0  0  0
  146.8324  138.9411  152.2045 C   0  0  0  0  0  0  0  0  0  0  0  0
  147.6187  139.1222  153.2662 N   0  0  0  0  0  0  0  0  0  0  0  0
  147.4196  138.1496  154.2006 C   0  0  0  0  0  0  0  0  0  0  0  0
  146.5121  137.0558  154.1004 C   0  0  0  0  0  0  0  0  0  0  0  0
  146.5856  136.2806  155.2520 N   0  0  0  0  0  0  0  0  0  0  0  0
  147.4913  136.8720  155.9814 C   0  0  0  0  0  0  0  0  0  0  0  0
  148.0375  138.0091  155.4312 N   0  0  0  0  0  0  0  0  0  0  0  0
  149.0583  138.8607  156.0238 C   0  0  0  0  0  0  0  0  0  0  0  0
  150.3533  138.9541  155.1824 C   0  0  1  0  0  0  0  0  0  0  0  0
  150.2092  139.9941  154.2298 O   0  0  0  0  0  0  0  0  0  0  0  0
  151.5890  139.2457  156.0242 C   0  0  0  0  0  0  0  0  0  0  0  0
  152.7062  138.6035  155.2131 C   0  0  0  0  0  0  0  0  0  0  0  0
  152.1098  137.4070  154.7420 O   0  0  0  0  0  0  0  0  0  0  0  0
  150.7404  137.6587  154.4384 C   0  0  0  0  0  0  0  0  0  0  0  0
  143.5523  136.0574  153.3022 C   0  0  0  0  0  0  0  0  0  0  0  0
  142.4468  136.8880  152.6893 C   0  0  0  0  0  0  0  0  0  0  0  0
  143.1310  137.3537  153.9532 C   0  0  0  0  0  0  0  0  0  0  0  0
  146.5143  132.3459  151.4026 H   0  0  0  0  0  0  0  0  0  0  0  0
  146.8967  133.8057  152.3083 H   0  0  0  0  0  0  0  0  0  0  0  0
  147.0348  133.7974  150.5503 H   0  0  0  0  0  0  0  0  0  0  0  0
  144.4388  133.4802  152.1279 H   0  0  0  0  0  0  0  0  0  0  0  0
  145.7443  135.8424  150.7804 H   0  0  0  0  0  0  0  0  0  0  0  0
  144.0178  135.7445  150.7032 H   0  0  0  0  0  0  0  0  0  0  0  0
  146.9304  139.6759  151.4191 H   0  0  0  0  0  0  0  0  0  0  0  0
  147.7834  136.4962  156.9513 H   0  0  0  0  0  0  0  0  0  0  0  0
  148.6311  139.8533  156.1718 H   0  0  0  0  0  0  0  0  0  0  0  0
  149.2862  138.4770  157.0189 H   0  0  0  0  0  0  0  0  0  0  0  0
  149.9496  139.6108  153.4058 H   0  0  0  0  0  0  0  0  0  0  0  0
  151.7520  140.3073  156.2149 H   0  0  0  0  0  0  0  0  0  0  0  0
  151.5179  138.7419  156.9893 H   0  0  0  0  0  0  0  0  0  0  0  0
  152.9874  139.2313  154.3664 H   0  0  0  0  0  0  0  0  0  0  0  0
  153.5985  138.4022  155.8064 H   0  0  0  0  0  0  0  0  0  0  0  0
  150.1615  136.7995  154.7749 H   0  0  0  0  0  0  0  0  0  0  0  0
  150.6016  137.7429  153.3596 H   0  0  0  0  0  0  0  0  0  0  0  0
  143.2358  135.1453  153.8051 H   0  0  0  0  0  0  0  0  0  0  0  0
  142.6661  137.4297  151.7711 H   0  0  0  0  0  0  0  0  0  0  0  0
  141.4306  136.5095  152.7759 H   0  0  0  0  0  0  0  0  0  0  0  0
  142.5697  137.2882  154.8829 H   0  0  0  0  0  0  0  0  0  0  0  0
  143.8029  138.2060  153.8728 H   0  0  0  0  0  0  0  0  0  0  0  0
  1  2  1  0  0  0  0
  1 26  1  0  0  0  0
  1 27  1  0  0  0  0
  1 28  1  0  0  0  0
  2  3  1  0  0  0  0
  2  5  1  0  0  0  0
  2 29  1  0  0  0  0
  3  4  3  0  0  0  0
  5  6  1  0  0  0  0
  5 30  1  0  0  0  0
  5 31  1  0  0  0  0
  6  7  1  0  0  0  0
  6 23  1  0  0  0  0
  7 12  1  0  0  0  0
  7  8  2  0  0  0  0
  8  9  1  0  0  0  0
  9 10  2  0  0  0  0
  9 32  1  0  0  0  0
 10 11  1  0  0  0  0
 11 15  1  0  0  0  0
 11 12  2  0  0  0  0
 12 13  1  0  0  0  0
 13 14  2  0  0  0  0
 14 15  1  0  0  0  0
 14 33  1  0  0  0  0
 15 16  1  0  0  0  0
 16 17  1  0  0  0  0
 16 34  1  0  0  0  0
 16 35  1  0  0  0  0
 17 22  1  0  0  0  0
 17 18  1  0  0  0  0
 17 19  1  0  0  0  0
 18 36  1  0  0  0  0
 19 20  1  0  0  0  0
 19 37  1  0  0  0  0
 19 38  1  0  0  0  0
 20 21  1  0  0  0  0
 20 39  1  0  0  0  0
 20 40  1  0  0  0  0
 21 22  1  0  0  0  0
 22 41  1  0  0  0  0
 22 42  1  0  0  0  0
 23 25  1  0  0  0  0
 23 24  1  0  0  0  0
 23 43  1  0  0  0  0
 24 25  1  0  0  0  0
 24 44  1  0  0  0  0
 24 45  1  0  0  0  0
 25 46  1  0  0  0  0
 25 47  1  0  0  0  0
M  END
> <s_m_source_file>
AV-unprocessed.smi

> <i_m_source_file_index>
223

> <i_lp_mmshare_version>
43012

> <i_f3d_flags>
0

> <s_epik_input>
TiNDW0NAQEhdKFtDSDNdKVtDSDJdTihbQ0hdMVtDSDJdW0NIMl0xKWMobltjSF1uMiljKGMyMyluW2NIXW4zW0NIMl1bQ0BAXTQoW09IXSlbQ0gyXVtDSDJdT1tDSDJdNA==

> <s_epik_cmdline>
J2VwaWtfcHl0aG9uJywgJy1waCcsICc3LjAnLCAnLXRuJywgJzgnLCAnLW1hJywgJzIwMCcsICctbWV0YWxfYmluZGluZycsICctaW1hZScsICc8aW5maWxlLm1hZT4nLCAnLW9tYWUnLCAnPG91dGZpbGUubWFlPic=

> <r_lp_tautomer_probability>
1

> <r_epik_Ionization_Penalty>
0.000756152

> <r_epik_Ionization_Penalty_Charging>
0

> <r_epik_Ionization_Penalty_Neutral>
0.000756152

> <r_epik_State_Penalty>
0.00038036

> <r_epik_Charging_Adjusted_Penalty>
0.00038036

> <i_epik_Tot_Q>
0

> <i_epik_Tot_abs_Q>
0

> <r_epik_Metal_State_Penalty>
-0

> <b_epik_Metal_Only>
0

> <s_lp_Force_Field>
OPLS_2005

> <r_lp_Energy>
37.204

> <b_lp_Chiralities_Consistent>
1

> <s_lp_Variant>
AV-unprocessed.smi:223-1

> <Gold.Version>
5.8.1

> <Gold.Id.Protein>
6NUR|6NUR_protein|mol2

> <Gold.PLP.Fitness>
41.2511

> <Gold.PLP.PLP>
-36.5512

> <Gold.PLP.part.hbond>
-2.9587

> <Gold.PLP.part.metal>
0.0000

> <Gold.PLP.part.buried>
-6.8897

> <Gold.PLP.part.nonpolar>
-29.4343

> <Gold.PLP.part.repulsive>
2.5449

> <Gold.PLP.ligand.clash>
0.0000

> <Gold.PLP.ligand.torsion>
2.3733

> <Gold.PLP.Chemscore.Hbond>
2.5852

> <Gold.PLP.Chemscore.CHOScore>
0.1448

> <Gold.PLP.Chemscore.Metal>
0.0000

> <Gold.Chemscore.Hbonds>
donor molecule, donor type, donor heavy atom, donor atom, acceptor molecule, acceptor atom, score
      L1  H    18    36       P1  7957  0.28
      P1  H  7989  7998       L1    18  0.65
      P1  H 10752 10765       L1    21  0.77
      L1  C     9    32       P1  7957  0.34

> <Gold.PLP.Chemscore.Internal.Correction>
1.2565

> <Gold.Rescore>
     Score         DG    S(hbond)    S(metal)    S(lipo)     H(rot)  DE(clash)    DE(int)     intcor
      8.95     -11.82       1.83        0.00      61.36       2.72       0.41       2.46       ----

> <Gold.Chemscore.Fitness>
8.9519

> <Gold.Chemscore.DG>
-11.8239

> <Gold.Chemscore.ZeroCoef>
-5.4800

> <Gold.Chemscore.Hbond>
1.8324

> <Gold.Chemscore.Metal>
0.0000

> <Gold.Chemscore.Lipo>
61.3635

> <Gold.Chemscore.Internal_Hbond>
0.0000

> <Gold.Chemscore.DEClash>
0.4140

> <Gold.Chemscore.DEInternal>
2.4580

> <Gold.Chemscore.Rot>
2.7171

> <Gold.Chemscore.Internal.Correction>
   9.000000E+99

> <Gold.Chemscore.Hbonds>
donor molecule, donor type, donor heavy atom, donor atom, acceptor molecule, acceptor atom, score
      L1  H    18    36       P1  7957  0.27
      P1  H  7989  7998       L1    18  0.05
      P1  H 10752 10765       L1    21  0.74

> <Gold.Chemscore.Hbond.Weighted>
-6.1201

> <Gold.Chemscore.Metal.Weighted>
-0.0000

> <Gold.Chemscore.Lipo.Weighted>
-7.1795

> <Gold.Chemscore.Internal_Hbond.Weighted>
0.0000

> <Gold.Chemscore.DEClash.Weighted>
0.4140

> <Gold.Chemscore.DEInternal.Weighted>
2.4580

> <Gold.Chemscore.Rot.Weighted>
6.9558

> <Gold.Chemscore.Internal.Correction.Weighted>
   9.000000E+99

> <Gold.Protein.RotatedTorsions>
[ 6907 6896 6895 6894 ] final  -70.80 input  -60.11 | X-H torsion
[ 7974 7965 7964 7962 ] final -120.89 input  175.53 | X-H torsion
[ 8008 7997 7996 7995 ] final  -47.00 input   59.86 | X-H torsion
[ 10167 10162 10161 10158 ] final   87.00 input  -65.29 | X-H torsion
[ 10718 10713 10712 10709 ] final   56.86 input   66.30 | X-H torsion
[ 10763 10752 10751 10750 ] final  157.05 input  -60.55 | X-H torsion
[ 11005 11000 10999 10996 ] final -111.13 input  -57.11 | X-H torsion

> <Gold.Protein.ActiveResidues>
 VAL166  LYS551  ARG553  GLY616  TRP617  ASP618  TYR619  PRO620  LYS621  CYS622 
 ASP623  PHE694  ASN695  SER759  ASP760  ASP761  ALA762  ILE779  LEU786  VAL792 
 PHE793  MET794  SER795  GLU796  ALA797  LYS798  CYS799  TRP800  GLU811  SER814 

> <Gold.Protein.RotatedAtoms>
  150.7241  134.5400  159.5742 H   0  0  0  0  0  0  0  0  0  0  0  0  # atno 6907 bound_to 6896
  152.2913  134.7715  160.0386 H   0  0  0  0  0  0  0  0  0  0  0  0  # atno 6908 bound_to 6896
  151.8327  133.3375  159.3655 H   0  0  0  0  0  0  0  0  0  0  0  0  # atno 6909 bound_to 6896
  145.0464  140.8185  143.4235 H   0  0  0  0  0  0  0  0  0  0  0  0  # atno 7974 bound_to 7965
  154.4012  140.1357  156.4104 H   0  0  0  0  0  0  0  0  0  0  0  0  # atno 8008 bound_to 7997
  155.7739  140.3483  155.5241 H   0  0  0  0  0  0  0  0  0  0  0  0  # atno 8009 bound_to 7997
  155.8740  140.0976  157.1521 H   0  0  0  0  0  0  0  0  0  0  0  0  # atno 8010 bound_to 7997
  139.8818  144.6436  150.8835 H   0  0  0  0  0  0  0  0  0  0  0  0  # atno 10167 bound_to 10162
  157.5466  130.8735  149.8901 H   0  0  0  0  0  0  0  0  0  0  0  0  # atno 10718 bound_to 10713
  154.1941  135.2793  155.3012 H   0  0  0  0  0  0  0  0  0  0  0  0  # atno 10763 bound_to 10752
  154.5905  135.5561  153.7277 H   0  0  0  0  0  0  0  0  0  0  0  0  # atno 10764 bound_to 10752
  153.0104  135.6367  154.2080 H   0  0  0  0  0  0  0  0  0  0  0  0  # atno 10765 bound_to 10752
  141.0752  133.9313  157.2404 H   0  0  0  0  0  0  0  0  0  0  0  0  # atno 11005 bound_to 11000
  145.1582  139.2474  143.5405 LP  0  0  0  0  0  0  0  0  0  0  0  0  # atno 17320 bound_to 7965
  146.3514  140.1303  142.8597 LP  0  0  0  0  0  0  0  0  0  0  0  0  # atno 17321 bound_to 7965
  140.7743  143.3580  151.1884 LP  0  0  0  0  0  0  0  0  0  0  0  0  # atno 17342 bound_to 10162
  139.7189  143.9255  152.2977 LP  0  0  0  0  0  0  0  0  0  0  0  0  # atno 17343 bound_to 10162
  156.0541  130.3712  150.1132 LP  0  0  0  0  0  0  0  0  0  0  0  0  # atno 17370 bound_to 10713
  156.9308  130.9713  151.3533 LP  0  0  0  0  0  0  0  0  0  0  0  0  # atno 17371 bound_to 10713
  139.9564  135.0164  156.9141 LP  0  0  0  0  0  0  0  0  0  0  0  0  # atno 17394 bound_to 11000
  140.5588  134.0555  155.7392 LP  0  0  0  0  0  0  0  0  0  0  0  0  # atno 17395 bound_to 11000

$$$$
