#       Name:                AV-unprocessed.smi:102
#       Creating user name   scv26
#       Creation time:       Thu Mar 26 17:47:25 2020


#       File generated by GOLD software.
#

@<TRIPOS>MOLECULE
AV-unprocessed.smi:102
    56    57     1
SMALL
NO_CHARGES


@<TRIPOS>ATOM
      1 ****        -4.2435   3.2605  -1.5225 C.3            1 S1                 0.0000
      2 ****        -3.6464   1.8699  -1.3478 C.2            1 S1                 0.0000
      3 ****        -4.3601   0.8682  -1.2932 O.2            1 S1                 0.0000
      4 ****        -2.3074   1.8883  -1.2659 O.3            1 S1                 0.0000
      5 ****        -1.6009   0.6688  -1.1135 C.3            1 S1                 0.0000
      6 ****        -0.0891   0.9582  -1.0436 C.3            1 S1                 0.0000
      7 ****         0.2248   1.5111   0.2302 O.3            1 S1                 0.0000
      8 ****         0.4327   0.4794   1.1470 C.3            1 S1                 0.0000
      9 ****         1.5033   0.9062   2.1259 N.am           1 S1                 0.0000
     10 ****         1.1987   1.0548   3.4725 C.2            1 S1                 0.0000
     11 ****         2.1020   1.4665   4.3934 C.2            1 S1                 0.0000
     12 ****         1.7324   1.5802   5.6804 F              1 S1                 0.0000
     13 ****         3.4697   1.7925   4.0010 C.2            1 S1                 0.0000
     14 ****         4.3605   2.1653   4.7619 O.2            1 S1                 0.0000
     15 ****         3.7247   1.6548   2.6337 N.am           1 S1                 0.0000
     16 ****         2.8011   1.2384   1.6732 C.2            1 S1                 0.0000
     17 ****         3.1355   1.1790   0.4917 O.2            1 S1                 0.0000
     18 ****         0.8060  -0.7916   0.3592 C.3            1 S1                 0.0000
     19 ****        -0.1874  -1.7856   0.5978 O.3            1 S1                 0.0000
     20 ****         0.1457  -3.0875   0.6463 C.2            1 S1                 0.0000
     21 ****        -1.0573  -3.9827   0.9103 C.3            1 S1                 0.0000
     22 ****         1.2737  -3.5552   0.4922 O.2            1 S1                 0.0000
     23 ****         0.7985  -0.2933  -1.0862 C.3            1 S1                 0.0000
     24 ****         0.3728  -1.2864  -2.0143 O.3            1 S1                 0.0000
     25 ****         0.6981  -1.1872  -3.3140 C.2            1 S1                 0.0000
     26 ****         0.1550  -2.3478  -4.1367 C.3            1 S1                 0.0000
     27 ****         1.3487  -0.2795  -3.8313 O.2            1 S1                 0.0000
     28 ****         4.6543   1.8827   2.3124 H              1 S1                 0.0000
     29 ****        -3.4621   4.0044  -1.6803 H              1 S1                 0.0000
     30 ****        -4.8128   3.5393  -0.6357 H              1 S1                 0.0000
     31 ****        -4.9132   3.2780  -2.3824 H              1 S1                 0.0000
     32 ****        -1.9446   0.1365  -0.2259 H              1 S1                 0.0000
     33 ****        -1.8199   0.0374  -1.9754 H              1 S1                 0.0000
     34 ****         0.1907   1.6499  -1.8389 H              1 S1                 0.0000
     35 ****        -0.4781   0.3504   1.7342 H              1 S1                 0.0000
     36 ****         0.1996   0.8311   3.8183 H              1 S1                 0.0000
     37 ****         1.7963  -1.1405   0.6540 H              1 S1                 0.0000
     38 ****        -1.6139  -3.6261   1.7772 H              1 S1                 0.0000
     39 ****        -0.7379  -5.0073   1.1029 H              1 S1                 0.0000
     40 ****        -1.7227  -3.9850   0.0468 H              1 S1                 0.0000
     41 ****         1.8155   0.0156  -1.3301 H              1 S1                 0.0000
     42 ****         0.2986  -3.2900  -3.6074 H              1 S1                 0.0000
     43 ****         0.6674  -2.4091  -5.0971 H              1 S1                 0.0000
     44 ****        -0.9109  -2.2121  -4.3206 H              1 S1                 0.0000
     45 ****        -5.3535   0.9576  -1.3639 LP             1 S1                 0.0000
     46 ****        -3.9463  -0.0349  -1.1781 LP             1 S1                 0.0000
     47 ****        -0.5331   2.0849   0.5404 LP             1 S1                 0.0000
     48 ****         1.0543   2.0649   0.1579 LP             1 S1                 0.0000
     49 ****         4.1736   2.2665   5.7390 LP             1 S1                 0.0000
     50 ****         5.2721   2.3673   4.4037 LP             1 S1                 0.0000
     51 ****         2.4762   0.8847  -0.2003 LP             1 S1                 0.0000
     52 ****         4.0666   1.4249   0.2226 LP             1 S1                 0.0000
     53 ****         2.0468  -2.9471   0.3116 LP             1 S1                 0.0000
     54 ****         1.4172  -4.5433   0.5476 LP             1 S1                 0.0000
     55 ****         1.6873   0.4757  -3.2700 LP             1 S1                 0.0000
     56 ****         1.5388  -0.2972  -4.8129 LP             1 S1                 0.0000
@<TRIPOS>BOND
    1    1    2 1     
    2    1   29 1     
    3    1   30 1     
    4    1   31 1     
    5    2    3 2     
    6    2    4 1     
    7    4    5 1     
    8    5    6 1     
    9    5   32 1     
   10    5   33 1     
   11    6   23 1     
   12    6    7 1     
   13    6   34 1     
   14    7    8 1     
   15    8    9 1     
   16    8   18 1     
   17    8   35 1     
   18    9   16 1     
   19    9   10 1     
   20   10   11 2     
   21   10   36 1     
   22   11   12 1     
   23   11   13 1     
   24   13   14 2     
   25   13   15 1     
   26   15   28 1     
   27   15   16 1     
   28   16   17 2     
   29   18   19 1     
   30   18   23 1     
   31   18   37 1     
   32   19   20 1     
   33   20   21 1     
   34   20   22 2     
   35   21   38 1     
   36   21   39 1     
   37   21   40 1     
   38   23   24 1     
   39   23   41 1     
   40   24   25 1     
   41   25   26 1     
   42   25   27 2     
   43   26   42 1     
   44   26   43 1     
   45   26   44 1     
   46    3   45 1     
   47    3   46 1     
   48    7   47 1     
   49    7   48 1     
   50   14   49 1     
   51   14   50 1     
   52   17   51 1     
   53   17   52 1     
   54   22   53 1     
   55   22   54 1     
   56   27   55 1     
   57   27   56 1     
@<TRIPOS>SUBSTRUCTURE
      1 S1             1
@<TRIPOS>SET
LONE_PAIRS      STATIC     ATOMS    <user>   **** ""
12 45 46 47 48 49 50 51 52 53 54 55 56
DONOR_HYDROGENS      STATIC     ATOMS    <user>   **** ""
1 28
ATOM$BLUE        STATIC     ATOMS    COLORGROUP SYSTEM
12 45 46 47 48 49 50 51 52 53 54 55 56
ATOM$RED        STATIC     ATOMS    COLORGROUP SYSTEM
1 28
