AV-unprocessed.smi:332|AV-procd|sdf|2353|dock8
  -GOLD-   2262022263D 1   1.00000     0.00000
 Structure written by MMmdl.
 42 44  0  0  0  0  0  0  0  0  1 V2000
  151.3679  140.5252  157.7043 C   0  0  0  0  0  0  0  0  0  0  0  0
  151.2954  141.9696  157.1820 C   0  0  1  0  0  0  0  0  0  0  0  0
  150.1366  142.0832  156.2975 N   0  0  0  0  0  0  0  0  0  0  0  0
  149.8435  141.2639  155.2759 C   0  0  0  0  0  0  0  0  0  0  0  0
  150.5039  140.2634  154.9944 O   0  0  0  0  0  0  0  0  0  0  0  0
  148.6026  141.6311  154.4521 C   0  0  0  0  0  0  0  0  0  0  0  0
  147.6338  140.5257  154.3677 N   0  0  0  0  0  0  0  0  0  0  0  0
  147.3053  140.0526  153.0817 C   0  0  0  0  0  0  0  0  0  0  0  0
  146.4280  139.0536  152.8954 C   0  0  0  0  0  0  0  0  0  0  0  0
  145.8129  138.4591  154.0585 C   0  0  0  0  0  0  0  0  0  0  0  0
  146.1187  138.9050  155.2932 C   0  0  0  0  0  0  0  0  0  0  0  0
  147.0772  139.9966  155.5017 C   0  0  0  0  0  0  0  0  0  0  0  0
  147.3622  140.4103  156.6263 O   0  0  0  0  0  0  0  0  0  0  0  0
  151.1859  143.0181  158.3173 C   0  0  2  0  0  0  0  0  0  0  0  0
  151.3113  144.4855  157.8319 C   0  0  0  0  0  0  0  0  0  0  0  0
  152.4251  145.0616  158.7225 C   0  0  1  0  0  0  0  0  0  0  0  0
  151.9193  145.1832  160.1711 C   0  0  0  0  0  0  0  0  0  0  0  0
  151.8699  143.7157  160.6358 C   0  0  0  0  0  0  0  0  0  0  0  0
  152.3140  142.9449  159.3776 C   0  0  2  0  0  0  0  0  0  0  0  0
  153.3799  143.8797  158.8136 C   0  0  0  0  0  0  0  0  0  0  0  0
  152.2596  140.3561  158.3064 H   0  0  0  0  0  0  0  0  0  0  0  0
  151.4018  139.8139  156.8782 H   0  0  0  0  0  0  0  0  0  0  0  0
  150.5001  140.2802  158.3175 H   0  0  0  0  0  0  0  0  0  0  0  0
  152.2101  142.1675  156.6213 H   0  0  0  0  0  0  0  0  0  0  0  0
  149.5270  142.8728  156.4538 H   0  0  0  0  0  0  0  0  0  0  0  0
  148.1476  142.5139  154.9031 H   0  0  0  0  0  0  0  0  0  0  0  0
  148.8981  141.9421  153.4480 H   0  0  0  0  0  0  0  0  0  0  0  0
  147.8021  140.5550  152.2644 H   0  0  0  0  0  0  0  0  0  0  0  0
  146.1853  138.7069  151.9017 H   0  0  0  0  0  0  0  0  0  0  0  0
  145.1028  137.6541  153.9380 H   0  0  0  0  0  0  0  0  0  0  0  0
  145.6474  138.4497  156.1519 H   0  0  0  0  0  0  0  0  0  0  0  0
  150.2194  142.8821  158.8055 H   0  0  0  0  0  0  0  0  0  0  0  0
  151.6180  144.5400  156.7865 H   0  0  0  0  0  0  0  0  0  0  0  0
  150.3747  145.0358  157.9273 H   0  0  0  0  0  0  0  0  0  0  0  0
  152.8642  145.9804  158.3326 H   0  0  0  0  0  0  0  0  0  0  0  0
  152.6181  145.7559  160.7822 H   0  0  0  0  0  0  0  0  0  0  0  0
  150.9456  145.6711  160.2276 H   0  0  0  0  0  0  0  0  0  0  0  0
  152.5707  143.5517  161.4555 H   0  0  0  0  0  0  0  0  0  0  0  0
  150.8791  143.4190  160.9817 H   0  0  0  0  0  0  0  0  0  0  0  0
  152.6658  141.9389  159.6022 H   0  0  0  0  0  0  0  0  0  0  0  0
  153.7719  143.5641  157.8454 H   0  0  0  0  0  0  0  0  0  0  0  0
  154.2135  144.0490  159.4976 H   0  0  0  0  0  0  0  0  0  0  0  0
  1  2  1  0  0  0  0
  1 21  1  0  0  0  0
  1 22  1  0  0  0  0
  1 23  1  0  0  0  0
  2  3  1  0  0  0  0
  2 14  1  0  0  0  0
  2 24  1  0  0  0  0
  3  4  1  0  0  0  0
  3 25  1  0  0  0  0
  4  5  2  0  0  0  0
  4  6  1  0  0  0  0
  6  7  1  0  0  0  0
  6 26  1  0  0  0  0
  6 27  1  0  0  0  0
  7 12  1  0  0  0  0
  7  8  1  0  0  0  0
  8  9  2  0  0  0  0
  8 28  1  0  0  0  0
  9 10  1  0  0  0  0
  9 29  1  0  0  0  0
 10 11  2  0  0  0  0
 10 30  1  0  0  0  0
 11 12  1  0  0  0  0
 11 31  1  0  0  0  0
 12 13  2  0  0  0  0
 14 19  1  0  0  0  0
 14 15  1  0  0  0  0
 14 32  1  0  0  0  0
 15 16  1  0  0  0  0
 15 33  1  0  0  0  0
 15 34  1  0  0  0  0
 16 20  1  0  0  0  0
 16 17  1  0  0  0  0
 16 35  1  0  0  0  0
 17 18  1  0  0  0  0
 17 36  1  0  0  0  0
 17 37  1  0  0  0  0
 18 19  1  0  0  0  0
 18 38  1  0  0  0  0
 18 39  1  0  0  0  0
 19 20  1  0  0  0  0
 19 40  1  0  0  0  0
 20 41  1  0  0  0  0
 20 42  1  0  0  0  0
M  END
> <s_m_source_file>
AV-unprocessed.smi

> <i_m_source_file_index>
332

> <i_lp_mmshare_version>
43012

> <i_f3d_flags>
0

> <s_epik_input>
W0NIMl0xW0NIMl1bQ0BIXShbQ0gyXTIpW0NAQEhdKFtDSDJdW0NAQEhdMTIpW0NASF0oW0NIM10pW05IXUMoPU8pW0NIMl1uM1tjSF1bY0hdW2NIXVtjSF1jMz1P

> <s_epik_cmdline>
J2VwaWtfcHl0aG9uJywgJy1waCcsICc3LjAnLCAnLXRuJywgJzgnLCAnLW1hJywgJzIwMCcsICctbWV0YWxfYmluZGluZycsICctaW1hZScsICc8aW5maWxlLm1hZT4nLCAnLW9tYWUnLCAnPG91dGZpbGUubWFlPic=

> <r_lp_tautomer_probability>
1

> <r_epik_Ionization_Penalty>
4.05802e-07

> <r_epik_Ionization_Penalty_Charging>
3.84175e-07

> <r_epik_Ionization_Penalty_Neutral>
2.16269e-08

> <r_epik_State_Penalty>
-0

> <r_epik_Charging_Adjusted_Penalty>
3.84175e-07

> <i_epik_Tot_Q>
0

> <i_epik_Tot_abs_Q>
0

> <r_epik_Metal_State_Penalty>
-0

> <b_epik_Metal_Only>
0

> <s_lp_Force_Field>
OPLS_2005

> <r_lp_Energy>
60.1573

> <b_lp_Chiralities_Consistent>
1

> <s_lp_Variant>
AV-unprocessed.smi:332-2

> <Gold.Version>
5.8.1

> <Gold.Id.Protein>
6NUR|6NUR_protein|mol2

> <Gold.PLP.Fitness>
49.5069

> <Gold.PLP.PLP>
-41.6900

> <Gold.PLP.part.hbond>
-2.0000

> <Gold.PLP.part.metal>
0.0000

> <Gold.PLP.part.buried>
-1.3655

> <Gold.PLP.part.nonpolar>
-37.5166

> <Gold.PLP.part.repulsive>
0.1649

> <Gold.PLP.ligand.clash>
0.0000

> <Gold.PLP.ligand.torsion>
0.1287

> <Gold.PLP.Chemscore.Hbond>
1.6843

> <Gold.PLP.Chemscore.CHOScore>
1.0000

> <Gold.PLP.Chemscore.Metal>
0.0000

> <Gold.Chemscore.Hbonds>
donor molecule, donor type, donor heavy atom, donor atom, acceptor molecule, acceptor atom, score
      L1  H     3    25       P1  8028  0.70
      P1  H  7989  7998       L1     5  1.00
      L1  C     8    28       P1  7957  1.00

> <Gold.PLP.Chemscore.Internal.Correction>
0.0214

> <Gold.Rescore>
     Score         DG    S(hbond)    S(metal)    S(lipo)     H(rot)  DE(clash)    DE(int)     intcor
     19.41     -21.38       1.62        0.00     123.34       1.54       0.36       1.60       ----

> <Gold.Chemscore.Fitness>
19.4109

> <Gold.Chemscore.DG>
-21.3790

> <Gold.Chemscore.ZeroCoef>
-5.4800

> <Gold.Chemscore.Hbond>
1.6199

> <Gold.Chemscore.Metal>
0.0000

> <Gold.Chemscore.Lipo>
123.3372

> <Gold.Chemscore.Internal_Hbond>
0.0000

> <Gold.Chemscore.DEClash>
0.3634

> <Gold.Chemscore.DEInternal>
1.6048

> <Gold.Chemscore.Rot>
1.5398

> <Gold.Chemscore.Internal.Correction>
   9.000000E+99

> <Gold.Chemscore.Hbonds>
donor molecule, donor type, donor heavy atom, donor atom, acceptor molecule, acceptor atom, score
      L1  H     3    25       P1  8028  0.68
      P1  H  7989  7998       L1     5  0.39

> <Gold.Chemscore.Hbond.Weighted>
-5.4105

> <Gold.Chemscore.Metal.Weighted>
-0.0000

> <Gold.Chemscore.Lipo.Weighted>
-14.4304

> <Gold.Chemscore.Internal_Hbond.Weighted>
0.0000

> <Gold.Chemscore.DEClash.Weighted>
0.3634

> <Gold.Chemscore.DEInternal.Weighted>
1.6048

> <Gold.Chemscore.Rot.Weighted>
3.9419

> <Gold.Chemscore.Internal.Correction.Weighted>
   9.000000E+99

> <Gold.Protein.RotatedTorsions>
[ 6907 6896 6895 6894 ] final  -56.56 input  -60.11 | X-H torsion
[ 7974 7965 7964 7962 ] final   13.94 input  175.53 | X-H torsion
[ 8008 7997 7996 7995 ] final -160.02 input   59.86 | X-H torsion
[ 10167 10162 10161 10158 ] final   85.27 input  -65.29 | X-H torsion
[ 10718 10713 10712 10709 ] final  -69.48 input   66.30 | X-H torsion
[ 10763 10752 10751 10750 ] final  -79.76 input  -60.55 | X-H torsion
[ 11005 11000 10999 10996 ] final  174.71 input  -57.11 | X-H torsion

> <Gold.Protein.ActiveResidues>
 VAL166  LYS551  ARG553  GLY616  TRP617  ASP618  TYR619  PRO620  LYS621  CYS622 
 ASP623  PHE694  ASN695  SER759  ASP760  ASP761  ALA762  ILE779  LEU786  VAL792 
 PHE793  MET794  SER795  GLU796  ALA797  LYS798  CYS799  TRP800  GLU811  SER814 

> <Gold.Protein.RotatedAtoms>
  150.8157  134.7338  159.6727 H   0  0  0  0  0  0  0  0  0  0  0  0  # atno 6907 bound_to 6896
  152.4276  134.5836  159.9964 H   0  0  0  0  0  0  0  0  0  0  0  0  # atno 6908 bound_to 6896
  151.6033  133.3317  159.3088 H   0  0  0  0  0  0  0  0  0  0  0  0  # atno 6909 bound_to 6896
  146.2317  139.9114  142.8524 H   0  0  0  0  0  0  0  0  0  0  0  0  # atno 7974 bound_to 7965
  155.7713  140.0852  157.2106 H   0  0  0  0  0  0  0  0  0  0  0  0  # atno 8008 bound_to 7997
  154.3996  140.1525  156.3002 H   0  0  0  0  0  0  0  0  0  0  0  0  # atno 8009 bound_to 7997
  155.8745  140.3424  155.5847 H   0  0  0  0  0  0  0  0  0  0  0  0  # atno 8010 bound_to 7997
  139.8995  144.6338  150.8652 H   0  0  0  0  0  0  0  0  0  0  0  0  # atno 10167 bound_to 10162
  156.0453  130.4313  150.2154 H   0  0  0  0  0  0  0  0  0  0  0  0  # atno 10718 bound_to 10713
  154.5427  135.5684  153.6853 H   0  0  0  0  0  0  0  0  0  0  0  0  # atno 10763 bound_to 10752
  152.9968  135.6231  154.2481 H   0  0  0  0  0  0  0  0  0  0  0  0  # atno 10764 bound_to 10752
  154.2412  135.2862  155.2833 H   0  0  0  0  0  0  0  0  0  0  0  0  # atno 10765 bound_to 10752
  140.3543  134.7168  157.4289 H   0  0  0  0  0  0  0  0  0  0  0  0  # atno 11005 bound_to 11000
  145.2226  140.9941  143.4037 LP  0  0  0  0  0  0  0  0  0  0  0  0  # atno 17320 bound_to 7965
  144.9597  139.3993  143.6362 LP  0  0  0  0  0  0  0  0  0  0  0  0  # atno 17321 bound_to 7965
  140.7710  143.3448  151.2134 LP  0  0  0  0  0  0  0  0  0  0  0  0  # atno 17342 bound_to 10162
  139.7038  143.9489  152.2917 LP  0  0  0  0  0  0  0  0  0  0  0  0  # atno 17343 bound_to 10162
  157.0244  130.9989  151.3330 LP  0  0  0  0  0  0  0  0  0  0  0  0  # atno 17370 bound_to 10713
  157.5321  130.8065  149.7929 LP  0  0  0  0  0  0  0  0  0  0  0  0  # atno 17371 bound_to 10713
  140.0677  134.5906  155.8676 LP  0  0  0  0  0  0  0  0  0  0  0  0  # atno 17394 bound_to 11000
  141.2003  133.6611  156.5888 LP  0  0  0  0  0  0  0  0  0  0  0  0  # atno 17395 bound_to 11000

$$$$
