AV-unprocessed.smi:21|AV-procd|sdf|148|dock6
  -GOLD-   2262015363D 1   1.00000     0.00000
 Structure written by MMmdl.
 62 65  0  0  0  0  0  0  0  0  2 V2000
  144.9372  131.0609  151.1522 C   0  0  0  0  0  0  0  0  0  0  0  0
  145.2212  132.2793  151.8217 O   0  0  0  0  0  0  0  0  0  0  0  0
  144.6381  133.4223  151.2093 C   0  0  2  0  0  0  0  0  0  0  0  0
  145.2133  134.7231  151.7707 C   0  0  0  0  0  0  0  0  0  0  0  0
  144.4250  134.9888  153.0661 C   0  0  2  0  0  0  0  0  0  0  0  0
  145.1999  134.6275  154.3511 C   0  0  0  0  0  0  0  0  0  0  0  0
  146.5765  135.1281  154.3549 N   0  0  0  0  0  0  0  0  0  0  0  0
  147.6696  134.1918  154.1201 C   0  0  0  0  0  0  0  0  0  0  0  0
  146.8267  136.4631  154.4882 C   0  0  0  0  0  0  0  0  0  0  0  0
  145.7988  137.3337  154.2941 N   0  0  0  0  0  0  0  0  0  0  0  0
  145.9839  138.6514  154.4025 C   0  0  0  0  0  0  0  0  0  0  0  0
  147.1045  139.3129  154.6877 N   0  0  0  0  0  0  0  0  0  0  0  0
  148.1459  138.4559  154.8832 C   0  0  0  0  0  0  0  0  0  0  0  0
  148.0985  137.0323  154.8092 C   0  0  0  0  0  0  0  0  0  0  0  0
  149.3663  136.5179  155.0655 N   0  0  0  0  0  0  0  0  0  0  0  0
  150.1121  137.5669  155.2749 C   0  0  0  0  0  0  0  0  0  0  0  0
  149.4634  138.7739  155.1631 N   0  0  0  0  0  0  0  0  0  0  0  0
  150.0490  140.0914  155.3377 C   0  0  0  0  0  0  0  0  0  0  0  0
  149.6382  140.8076  156.6511 C   0  0  2  0  0  0  0  0  0  0  0  0
  148.2288  141.4147  156.4424 C   0  0  0  0  0  0  0  0  0  0  0  0
  148.2044  142.3393  155.3746 O   0  0  0  0  0  0  0  0  0  0  0  0
  150.6784  141.8748  157.1141 C   0  0  1  0  0  0  0  0  0  0  0  0
  150.2428  142.7555  158.2754 C   0  0  0  0  0  0  0  0  0  0  0  0
  151.5649  143.3304  158.7596 C   0  0  0  0  0  0  0  0  0  0  0  0
  152.4715  142.2450  158.6542 O   0  0  0  0  0  0  0  0  0  0  0  0
  152.0064  141.3285  157.6672 C   0  0  0  0  0  0  0  0  0  0  0  0
  143.2021  134.1549  152.9754 N   0  3  1  0  0  0  0  0  0  0  0  0
  141.9500  134.8583  153.3256 C   0  0  0  0  0  0  0  0  0  0  0  0
  143.1791  133.5009  151.6506 C   0  0  0  0  0  0  0  0  0  0  0  0
  144.7170  133.3613  150.1225 H   0  0  0  0  0  0  0  0  0  0  0  0
  144.1478  136.0439  153.0904 H   0  0  0  0  0  0  0  0  0  0  0  0
  145.4028  130.2351  151.6900 H   0  0  0  0  0  0  0  0  0  0  0  0
  145.3265  131.0542  150.1342 H   0  0  0  0  0  0  0  0  0  0  0  0
  143.8636  130.8725  151.1166 H   0  0  0  0  0  0  0  0  0  0  0  0
  146.2928  134.7004  151.9067 H   0  0  0  0  0  0  0  0  0  0  0  0
  145.0070  135.5285  151.0643 H   0  0  0  0  0  0  0  0  0  0  0  0
  144.6744  135.0107  155.2268 H   0  0  0  0  0  0  0  0  0  0  0  0
  145.2070  133.5444  154.4775 H   0  0  0  0  0  0  0  0  0  0  0  0
  148.4612  134.3307  154.8571 H   0  0  0  0  0  0  0  0  0  0  0  0
  148.0890  134.3289  153.1232 H   0  0  0  0  0  0  0  0  0  0  0  0
  147.3298  133.1589  154.1960 H   0  0  0  0  0  0  0  0  0  0  0  0
  145.1104  139.2638  154.2333 H   0  0  0  0  0  0  0  0  0  0  0  0
  151.1648  137.4895  155.5050 H   0  0  0  0  0  0  0  0  0  0  0  0
  151.1350  140.0099  155.2798 H   0  0  0  0  0  0  0  0  0  0  0  0
  149.7434  140.6843  154.4748 H   0  0  0  0  0  0  0  0  0  0  0  0
  149.5531  140.0454  157.4273 H   0  0  0  0  0  0  0  0  0  0  0  0
  147.4883  140.6329  156.2710 H   0  0  0  0  0  0  0  0  0  0  0  0
  147.9055  141.9623  157.3280 H   0  0  0  0  0  0  0  0  0  0  0  0
  148.6518  143.1259  155.6472 H   0  0  0  0  0  0  0  0  0  0  0  0
  150.9043  142.5318  156.2723 H   0  0  0  0  0  0  0  0  0  0  0  0
  149.5359  143.5330  157.9846 H   0  0  0  0  0  0  0  0  0  0  0  0
  149.7910  142.1543  159.0656 H   0  0  0  0  0  0  0  0  0  0  0  0
  151.8957  144.1376  158.1046 H   0  0  0  0  0  0  0  0  0  0  0  0
  151.5125  143.7139  159.7788 H   0  0  0  0  0  0  0  0  0  0  0  0
  151.8699  140.3588  158.1462 H   0  0  0  0  0  0  0  0  0  0  0  0
  152.7595  141.2203  156.8881 H   0  0  0  0  0  0  0  0  0  0  0  0
  141.7500  135.6764  152.6321 H   0  0  0  0  0  0  0  0  0  0  0  0
  142.0150  135.2713  154.3330 H   0  0  0  0  0  0  0  0  0  0  0  0
  141.1059  134.1689  153.2971 H   0  0  0  0  0  0  0  0  0  0  0  0
  142.6252  134.1247  150.9470 H   0  0  0  0  0  0  0  0  0  0  0  0
  142.6912  132.5263  151.6871 H   0  0  0  0  0  0  0  0  0  0  0  0
  143.3271  133.4125  153.6492 H   0  0  0  0  0  0  0  0  0  0  0  0
  1  2  1  0  0  0  0
  1 32  1  0  0  0  0
  1 33  1  0  0  0  0
  1 34  1  0  0  0  0
  2  3  1  0  0  0  0
  3 30  1  0  0  0  0
  3 29  1  0  0  0  0
  3  4  1  0  0  0  0
  4  5  1  0  0  0  0
  4 35  1  0  0  0  0
  4 36  1  0  0  0  0
  5 31  1  0  0  0  0
  5  6  1  0  0  0  0
  5 27  1  0  0  0  0
  6  7  1  0  0  0  0
  6 37  1  0  0  0  0
  6 38  1  0  0  0  0
  7  8  1  0  0  0  0
  7  9  1  0  0  0  0
  8 39  1  0  0  0  0
  8 40  1  0  0  0  0
  8 41  1  0  0  0  0
  9 14  1  0  0  0  0
  9 10  2  0  0  0  0
 10 11  1  0  0  0  0
 11 12  2  0  0  0  0
 11 42  1  0  0  0  0
 12 13  1  0  0  0  0
 13 17  1  0  0  0  0
 13 14  2  0  0  0  0
 14 15  1  0  0  0  0
 15 16  2  0  0  0  0
 16 17  1  0  0  0  0
 16 43  1  0  0  0  0
 17 18  1  0  0  0  0
 18 19  1  0  0  0  0
 18 44  1  0  0  0  0
 18 45  1  0  0  0  0
 19 20  1  0  0  0  0
 19 22  1  0  0  0  0
 19 46  1  0  0  0  0
 20 21  1  0  0  0  0
 20 47  1  0  0  0  0
 20 48  1  0  0  0  0
 21 49  1  0  0  0  0
 22 26  1  0  0  0  0
 22 23  1  0  0  0  0
 22 50  1  0  0  0  0
 23 24  1  0  0  0  0
 23 51  1  0  0  0  0
 23 52  1  0  0  0  0
 24 25  1  0  0  0  0
 24 53  1  0  0  0  0
 24 54  1  0  0  0  0
 25 26  1  0  0  0  0
 26 55  1  0  0  0  0
 26 56  1  0  0  0  0
 27 28  1  0  0  0  0
 27 29  1  0  0  0  0
 27 62  1  0  0  0  0
 28 57  1  0  0  0  0
 28 58  1  0  0  0  0
 28 59  1  0  0  0  0
 29 60  1  0  0  0  0
 29 61  1  0  0  0  0
M  CHG  1  27   1
M  END
> <s_m_source_file>
AV-unprocessed.smi

> <i_m_source_file_index>
21

> <i_lp_mmshare_version>
43012

> <i_f3d_flags>
0

> <s_epik_input>
W0NIM11PW0NASF0xW0NIMl1bQ0BIXShOKFtDSDNdKVtDSDJdMSlbQ0gyXU4oW0NIM10pYyhuW2NIXW4yKWMoYzIzKW5bY0hdbjNbQ0gyXVtDQEhdKFtDSDJdW09IXSlbQ0BASF00W0NIMl1bQ0gyXU9bQ0gyXTQ=

> <s_epik_cmdline>
J2VwaWtfcHl0aG9uJywgJy1waCcsICc3LjAnLCAnLXRuJywgJzgnLCAnLW1hJywgJzIwMCcsICctbWV0YWxfYmluZGluZycsICctaW1hZScsICc8aW5maWxlLm1hZT4nLCAnLW9tYWUnLCAnPG91dGZpbGUubWFlPic=

> <r_lp_tautomer_probability>
1

> <r_epik_Ionization_Penalty>
0.0157465

> <r_epik_Ionization_Penalty_Charging>
0.015354

> <r_epik_Ionization_Penalty_Neutral>
0.000392529

> <r_epik_State_Penalty>
0.0120612

> <r_epik_Charging_Adjusted_Penalty>
0.0274152

> <i_epik_Tot_Q>
1

> <i_epik_Tot_abs_Q>
1

> <r_epik_Metal_State_Penalty>
0.0121253

> <b_epik_Metal_Only>
0

> <s_lp_Force_Field>
OPLS_2005

> <r_lp_Energy>
58.7805

> <b_lp_Chiralities_Consistent>
1

> <s_lp_Variant>
AV-unprocessed.smi:21-28

> <Gold.Version>
5.8.1

> <Gold.Id.Protein>
6NUR|6NUR_protein|mol2

> <Gold.PLP.Fitness>
43.4753

> <Gold.PLP.PLP>
-33.2269

> <Gold.PLP.part.hbond>
-2.0000

> <Gold.PLP.part.metal>
0.0000

> <Gold.PLP.part.buried>
-7.8785

> <Gold.PLP.part.nonpolar>
-24.8000

> <Gold.PLP.part.repulsive>
0.4582

> <Gold.PLP.ligand.clash>
0.0000

> <Gold.PLP.ligand.torsion>
1.0328

> <Gold.PLP.Chemscore.Hbond>
3.0000

> <Gold.PLP.Chemscore.CHOScore>
1.0000

> <Gold.PLP.Chemscore.Metal>
0.0000

> <Gold.Chemscore.Hbonds>
donor molecule, donor type, donor heavy atom, donor atom, acceptor molecule, acceptor atom, score
      L1  H    21    49       P1  8028  1.00
      L1  H    27    62       P1 10957  1.62
      L1  C    11    42       P1 10175  0.91

> <Gold.PLP.Chemscore.Internal.Correction>
0.3140

> <Gold.Rescore>
     Score         DG    S(hbond)    S(metal)    S(lipo)     H(rot)  DE(clash)    DE(int)     intcor
     10.23     -14.46       1.95        0.00      88.32       3.08       0.02       4.21       ----

> <Gold.Chemscore.Fitness>
10.2289

> <Gold.Chemscore.DG>
-14.4567

> <Gold.Chemscore.ZeroCoef>
-5.4800

> <Gold.Chemscore.Hbond>
1.9515

> <Gold.Chemscore.Metal>
0.0000

> <Gold.Chemscore.Lipo>
88.3154

> <Gold.Chemscore.Internal_Hbond>
0.0000

> <Gold.Chemscore.DEClash>
0.0218

> <Gold.Chemscore.DEInternal>
4.2060

> <Gold.Chemscore.Rot>
3.0758

> <Gold.Chemscore.Internal.Correction>
   9.000000E+99

> <Gold.Chemscore.Hbonds>
donor molecule, donor type, donor heavy atom, donor atom, acceptor molecule, acceptor atom, score
      L1  H    21    49       P1  8028  0.95
      L1  H    27    62       P1 10957  0.78

> <Gold.Chemscore.Hbond.Weighted>
-6.5179

> <Gold.Chemscore.Metal.Weighted>
-0.0000

> <Gold.Chemscore.Lipo.Weighted>
-10.3329

> <Gold.Chemscore.Internal_Hbond.Weighted>
0.0000

> <Gold.Chemscore.DEClash.Weighted>
0.0218

> <Gold.Chemscore.DEInternal.Weighted>
4.2060

> <Gold.Chemscore.Rot.Weighted>
7.8741

> <Gold.Chemscore.Internal.Correction.Weighted>
   9.000000E+99

> <Gold.Protein.RotatedTorsions>
[ 6907 6896 6895 6894 ] final  -13.27 input  -60.11 | X-H torsion
[ 7974 7965 7964 7962 ] final   -2.44 input  175.53 | X-H torsion
[ 8008 7997 7996 7995 ] final   14.28 input   59.86 | X-H torsion
[ 10167 10162 10161 10158 ] final -127.20 input  -65.29 | X-H torsion
[ 10718 10713 10712 10709 ] final   -2.73 input   66.30 | X-H torsion
[ 10763 10752 10751 10750 ] final  -45.49 input  -60.55 | X-H torsion
[ 11005 11000 10999 10996 ] final -131.34 input  -57.11 | X-H torsion

> <Gold.Protein.ActiveResidues>
 VAL166  LYS551  ARG553  GLY616  TRP617  ASP618  TYR619  PRO620  LYS621  CYS622 
 ASP623  PHE694  ASN695  SER759  ASP760  ASP761  ALA762  ILE779  LEU786  VAL792 
 PHE793  MET794  SER795  GLU796  ALA797  LYS798  CYS799  TRP800  GLU811  SER814 

> <Gold.Protein.RotatedAtoms>
  151.3576  135.0897  159.9423 H   0  0  0  0  0  0  0  0  0  0  0  0  # atno 6907 bound_to 6896
  152.5170  133.9290  159.7582 H   0  0  0  0  0  0  0  0  0  0  0  0  # atno 6908 bound_to 6896
  150.9678  133.6322  159.2772 H   0  0  0  0  0  0  0  0  0  0  0  0  # atno 6909 bound_to 6896
  146.2404  140.1572  142.8333 H   0  0  0  0  0  0  0  0  0  0  0  0  # atno 7974 bound_to 7965
  154.8462  140.2922  155.5627 H   0  0  0  0  0  0  0  0  0  0  0  0  # atno 8008 bound_to 7997
  156.3014  140.2504  156.3345 H   0  0  0  0  0  0  0  0  0  0  0  0  # atno 8009 bound_to 7997
  154.9071  140.0389  157.1914 H   0  0  0  0  0  0  0  0  0  0  0  0  # atno 8010 bound_to 7997
  139.9633  143.5926  152.2438 H   0  0  0  0  0  0  0  0  0  0  0  0  # atno 10167 bound_to 10162
  156.7865  130.5347  149.5742 H   0  0  0  0  0  0  0  0  0  0  0  0  # atno 10718 bound_to 10713
  154.0295  135.6658  153.4779 H   0  0  0  0  0  0  0  0  0  0  0  0  # atno 10763 bound_to 10752
  153.0546  135.5063  154.7947 H   0  0  0  0  0  0  0  0  0  0  0  0  # atno 10764 bound_to 10752
  154.6887  135.3057  154.9475 H   0  0  0  0  0  0  0  0  0  0  0  0  # atno 10765 bound_to 10752
  140.9267  134.1374  157.4269 H   0  0  0  0  0  0  0  0  0  0  0  0  # atno 11005 bound_to 11000
  145.0119  140.8721  143.5219 LP  0  0  0  0  0  0  0  0  0  0  0  0  # atno 17320 bound_to 7965
  145.1607  139.2460  143.5393 LP  0  0  0  0  0  0  0  0  0  0  0  0  # atno 17321 bound_to 7965
  139.6537  144.7661  151.2098 LP  0  0  0  0  0  0  0  0  0  0  0  0  # atno 17342 bound_to 10162
  140.7546  143.6120  150.8596 LP  0  0  0  0  0  0  0  0  0  0  0  0  # atno 17343 bound_to 10162
  156.1185  130.6093  151.0158 LP  0  0  0  0  0  0  0  0  0  0  0  0  # atno 17370 bound_to 10713
  157.6621  131.0879  150.7814 LP  0  0  0  0  0  0  0  0  0  0  0  0  # atno 17371 bound_to 10713
  139.8787  134.9990  156.5934 LP  0  0  0  0  0  0  0  0  0  0  0  0  # atno 17394 bound_to 11000
  140.7917  133.8577  155.8651 LP  0  0  0  0  0  0  0  0  0  0  0  0  # atno 17395 bound_to 11000

$$$$
