AV-unprocessed.smi:1320|AV-procd|sdf|5460|dock1
  -GOLD-   22720 5 23D 1   1.00000     0.00000
 Structure written by MMmdl.
 36 37  0  0  0  0  0  0  0  0  1 V2000
  151.8288  140.1228  155.3974 O   0  0  0  0  0  0  0  0  0  0  0  0
  150.9831  140.4835  156.2137 C   0  0  0  0  0  0  0  0  0  0  0  0
  151.2391  140.6580  157.5222 N   0  0  0  0  0  0  0  0  0  0  0  0
  152.5188  140.4043  158.1792 C   0  0  0  0  0  0  0  0  0  0  0  0
  152.6601  141.1629  159.5139 C   0  0  0  0  0  0  0  0  0  0  0  0
  152.1116  142.5801  159.4795 C   0  0  0  0  0  0  0  0  0  0  0  0
  152.1039  143.3733  160.6463 C   0  0  0  0  0  0  0  0  0  0  0  0
  151.5542  144.6679  160.5740 C   0  0  0  0  0  0  0  0  0  0  0  0
  151.0356  145.1171  159.3442 C   0  0  0  0  0  0  0  0  0  0  0  0
  151.0905  144.2481  158.2365 C   0  0  0  0  0  0  0  0  0  0  0  0
  151.6161  143.0057  158.2946 N   0  0  0  0  0  0  0  0  0  0  0  0
  149.7120  140.7336  155.8524 N   0  0  0  0  0  0  0  0  0  0  0  0
  149.1174  140.6384  154.5172 C   0  0  0  0  0  0  0  0  0  0  0  0
  147.7327  141.3138  154.4893 C   0  0  0  0  0  0  0  0  0  0  0  0
  146.7936  140.3273  153.7938 C   0  0  0  0  0  0  0  0  0  0  0  0
  147.3710  138.9569  154.1313 C   0  0  0  0  0  0  0  0  0  0  0  0
  148.8849  139.1710  154.1015 C   0  0  0  0  0  0  0  0  0  0  0  0
  150.4780  140.9596  158.1134 H   0  0  0  0  0  0  0  0  0  0  0  0
  152.6625  139.3354  158.3451 H   0  0  0  0  0  0  0  0  0  0  0  0
  153.3140  140.7125  157.5003 H   0  0  0  0  0  0  0  0  0  0  0  0
  152.1515  140.6084  160.3034 H   0  0  0  0  0  0  0  0  0  0  0  0
  153.7115  141.1976  159.8035 H   0  0  0  0  0  0  0  0  0  0  0  0
  152.5005  142.9960  161.5775 H   0  0  0  0  0  0  0  0  0  0  0  0
  151.5279  145.3036  161.4467 H   0  0  0  0  0  0  0  0  0  0  0  0
  150.6047  146.1030  159.2522 H   0  0  0  0  0  0  0  0  0  0  0  0
  150.7010  144.5583  157.2782 H   0  0  0  0  0  0  0  0  0  0  0  0
  149.0938  141.0541  156.5837 H   0  0  0  0  0  0  0  0  0  0  0  0
  149.7621  141.1290  153.7857 H   0  0  0  0  0  0  0  0  0  0  0  0
  147.3700  141.4914  155.5033 H   0  0  0  0  0  0  0  0  0  0  0  0
  147.7556  142.2797  153.9837 H   0  0  0  0  0  0  0  0  0  0  0  0
  145.7568  140.4379  154.1128 H   0  0  0  0  0  0  0  0  0  0  0  0
  146.8289  140.4839  152.7149 H   0  0  0  0  0  0  0  0  0  0  0  0
  147.0602  138.6650  155.1354 H   0  0  0  0  0  0  0  0  0  0  0  0
  147.0423  138.1799  153.4406 H   0  0  0  0  0  0  0  0  0  0  0  0
  149.2489  139.0256  153.0835 H   0  0  0  0  0  0  0  0  0  0  0  0
  149.4081  138.4510  154.7325 H   0  0  0  0  0  0  0  0  0  0  0  0
  1  2  2  0  0  0  0
  2  3  1  0  0  0  0
  2 12  1  0  0  0  0
  3  4  1  0  0  0  0
  3 18  1  0  0  0  0
  4  5  1  0  0  0  0
  4 19  1  0  0  0  0
  4 20  1  0  0  0  0
  5  6  1  0  0  0  0
  5 21  1  0  0  0  0
  5 22  1  0  0  0  0
  6 11  1  0  0  0  0
  6  7  2  0  0  0  0
  7  8  1  0  0  0  0
  7 23  1  0  0  0  0
  8  9  2  0  0  0  0
  8 24  1  0  0  0  0
  9 10  1  0  0  0  0
  9 25  1  0  0  0  0
 10 11  2  0  0  0  0
 10 26  1  0  0  0  0
 12 13  1  0  0  0  0
 12 27  1  0  0  0  0
 13 17  1  0  0  0  0
 13 14  1  0  0  0  0
 13 28  1  0  0  0  0
 14 15  1  0  0  0  0
 14 29  1  0  0  0  0
 14 30  1  0  0  0  0
 15 16  1  0  0  0  0
 15 31  1  0  0  0  0
 15 32  1  0  0  0  0
 16 17  1  0  0  0  0
 16 33  1  0  0  0  0
 16 34  1  0  0  0  0
 17 35  1  0  0  0  0
 17 36  1  0  0  0  0
M  END
> <s_m_source_file>
AV-unprocessed.smi

> <i_m_source_file_index>
1320

> <i_lp_mmshare_version>
43012

> <i_f3d_flags>
0

> <s_epik_input>
W0NIMl0xW0NIMl1bQ0gyXVtDSDJdW0NIXTFbTkhdQyg9TylbTkhdW0NIMl1bQ0gyXWMyW2NIXVtjSF1bY0hdW2NIXW4y

> <s_epik_cmdline>
J2VwaWtfcHl0aG9uJywgJy1waCcsICc3LjAnLCAnLXRuJywgJzgnLCAnLW1hJywgJzIwMCcsICctbWV0YWxfYmluZGluZycsICctaW1hZScsICc8aW5maWxlLm1hZT4nLCAnLW9tYWUnLCAnPG91dGZpbGUubWFlPic=

> <r_epik_Ionization_Penalty>
0.0441051

> <r_epik_Ionization_Penalty_Charging>
0

> <r_epik_Ionization_Penalty_Neutral>
0.0441051

> <r_epik_State_Penalty>
0.0373009

> <r_epik_Charging_Adjusted_Penalty>
0.0373009

> <i_epik_Tot_Q>
0

> <i_epik_Tot_abs_Q>
0

> <r_epik_Metal_State_Penalty>
0.0347078

> <b_epik_Metal_Only>
0

> <s_lp_Force_Field>
OPLS_2005

> <r_lp_Energy>
26.6462

> <b_lp_Chiralities_Consistent>
1

> <s_lp_Variant>
AV-unprocessed.smi:1320-1

> <Gold.Version>
5.8.1

> <Gold.Id.Protein>
6NUR|6NUR_protein|mol2

> <Gold.PLP.Fitness>
43.9665

> <Gold.PLP.PLP>
-39.4204

> <Gold.PLP.part.hbond>
-1.0000

> <Gold.PLP.part.metal>
0.0000

> <Gold.PLP.part.buried>
-3.8872

> <Gold.PLP.part.nonpolar>
-35.4674

> <Gold.PLP.part.repulsive>
0.2226

> <Gold.PLP.ligand.clash>
0.0000

> <Gold.PLP.ligand.torsion>
0.4162

> <Gold.PLP.Chemscore.Hbond>
0.8640

> <Gold.PLP.Chemscore.CHOScore>
0.9158

> <Gold.PLP.Chemscore.Metal>
0.0000

> <Gold.Chemscore.Hbonds>
donor molecule, donor type, donor heavy atom, donor atom, acceptor molecule, acceptor atom, score
      P1  H  7989  7998       L1     1  0.84
      L1  C    10    26       P1  8028  1.00

> <Gold.PLP.Chemscore.Internal.Correction>
0.0391

> <Gold.Rescore>
     Score         DG    S(hbond)    S(metal)    S(lipo)     H(rot)  DE(clash)    DE(int)     intcor
     14.61     -16.87       0.88        0.00     105.10       1.51       0.31       1.95       ----

> <Gold.Chemscore.Fitness>
14.6061

> <Gold.Chemscore.DG>
-16.8731

> <Gold.Chemscore.ZeroCoef>
-5.4800

> <Gold.Chemscore.Hbond>
0.8839

> <Gold.Chemscore.Metal>
0.0000

> <Gold.Chemscore.Lipo>
105.0966

> <Gold.Chemscore.Internal_Hbond>
0.0000

> <Gold.Chemscore.DEClash>
0.3141

> <Gold.Chemscore.DEInternal>
1.9529

> <Gold.Chemscore.Rot>
1.5060

> <Gold.Chemscore.Internal.Correction>
   9.000000E+99

> <Gold.Chemscore.Hbonds>
donor molecule, donor type, donor heavy atom, donor atom, acceptor molecule, acceptor atom, score
      P1  H  7989  7998       L1     1  0.74

> <Gold.Chemscore.Hbond.Weighted>
-2.9521

> <Gold.Chemscore.Metal.Weighted>
-0.0000

> <Gold.Chemscore.Lipo.Weighted>
-12.2963

> <Gold.Chemscore.Internal_Hbond.Weighted>
0.0000

> <Gold.Chemscore.DEClash.Weighted>
0.3141

> <Gold.Chemscore.DEInternal.Weighted>
1.9529

> <Gold.Chemscore.Rot.Weighted>
3.8553

> <Gold.Chemscore.Internal.Correction.Weighted>
   9.000000E+99

> <Gold.Protein.RotatedTorsions>
[ 6907 6896 6895 6894 ] final  -50.33 input  -60.11 | X-H torsion
[ 7974 7965 7964 7962 ] final   -0.89 input  175.53 | X-H torsion
[ 8008 7997 7996 7995 ] final    8.09 input   59.86 | X-H torsion
[ 10167 10162 10161 10158 ] final  -47.92 input  -65.29 | X-H torsion
[ 10718 10713 10712 10709 ] final  -69.36 input   66.30 | X-H torsion
[ 10763 10752 10751 10750 ] final  -10.49 input  -60.55 | X-H torsion
[ 11005 11000 10999 10996 ] final   55.88 input  -57.11 | X-H torsion

> <Gold.Protein.ActiveResidues>
 VAL166  LYS551  ARG553  GLY616  TRP617  ASP618  TYR619  PRO620  LYS621  CYS622 
 ASP623  PHE694  ASN695  SER759  ASP760  ASP761  ALA762  ILE779  LEU786  VAL792 
 PHE793  MET794  SER795  GLU796  ALA797  LYS798  CYS799  TRP800  GLU811  SER814 

> <Gold.Protein.RotatedAtoms>
  150.8718  134.8093  159.7160 H   0  0  0  0  0  0  0  0  0  0  0  0  # atno 6907 bound_to 6896
  152.4720  134.4935  159.9712 H   0  0  0  0  0  0  0  0  0  0  0  0  # atno 6908 bound_to 6896
  151.5022  133.3463  159.2906 H   0  0  0  0  0  0  0  0  0  0  0  0  # atno 6909 bound_to 6896
  146.2423  140.1338  142.8337 H   0  0  0  0  0  0  0  0  0  0  0  0  # atno 7974 bound_to 7965
  154.7623  140.2787  155.6204 H   0  0  0  0  0  0  0  0  0  0  0  0  # atno 8008 bound_to 7997
  156.2918  140.2657  156.2332 H   0  0  0  0  0  0  0  0  0  0  0  0  # atno 8009 bound_to 7997
  155.0002  140.0373  157.2346 H   0  0  0  0  0  0  0  0  0  0  0  0  # atno 8010 bound_to 7997
  140.6754  143.2763  151.3996 H   0  0  0  0  0  0  0  0  0  0  0  0  # atno 10167 bound_to 10162
  156.0459  130.4311  150.2136 H   0  0  0  0  0  0  0  0  0  0  0  0  # atno 10718 bound_to 10713
  153.4699  135.7016  153.6000 H   0  0  0  0  0  0  0  0  0  0  0  0  # atno 10763 bound_to 10752
  153.4258  135.3814  155.2140 H   0  0  0  0  0  0  0  0  0  0  0  0  # atno 10764 bound_to 10752
  154.8725  135.3939  154.4135 H   0  0  0  0  0  0  0  0  0  0  0  0  # atno 10765 bound_to 10752
  140.0572  134.5653  155.9194 H   0  0  0  0  0  0  0  0  0  0  0  0  # atno 11005 bound_to 11000
  145.0304  140.8866  143.5113 LP  0  0  0  0  0  0  0  0  0  0  0  0  # atno 17320 bound_to 7965
  145.1401  139.2577  143.5494 LP  0  0  0  0  0  0  0  0  0  0  0  0  # atno 17321 bound_to 7965
  139.6043  144.1229  152.2232 LP  0  0  0  0  0  0  0  0  0  0  0  0  # atno 17342 bound_to 10162
  140.0623  144.5846  150.7253 LP  0  0  0  0  0  0  0  0  0  0  0  0  # atno 17343 bound_to 10162
  157.0226  130.9984  151.3335 LP  0  0  0  0  0  0  0  0  0  0  0  0  # atno 17370 bound_to 10713
  157.5334  130.8073  149.7943 LP  0  0  0  0  0  0  0  0  0  0  0  0  # atno 17371 bound_to 10713
  141.1957  133.6588  156.5657 LP  0  0  0  0  0  0  0  0  0  0  0  0  # atno 17394 bound_to 11000
  140.3825  134.7510  157.4670 LP  0  0  0  0  0  0  0  0  0  0  0  0  # atno 17395 bound_to 11000

$$$$
