#       Name:                AV-unprocessed.smi:1511
#       Creating user name   scv26
#       Creation time:       Fri Mar 27 06:22:59 2020


#       File generated by GOLD software.
#

@<TRIPOS>MOLECULE
AV-unprocessed.smi:1511
    35    36     1
SMALL
NO_CHARGES


@<TRIPOS>ATOM
      1 ****        -0.0183   0.0013   2.8671 O.2            1 S1                 0.0000
      2 ****         0.8672  -0.4331   2.1310 C.2            1 S1                 0.0000
      3 ****         2.2868   0.1219   2.2341 C.3            1 S1                 0.0000
      4 ****         2.5234   1.0980   1.1850 N.pl3          1 S1                 0.0000
      5 ****         2.1700   2.4312   1.1610 C.2            1 S1                 0.0000
      6 ****         2.5750   2.9377  -0.0405 C.2            1 S1                 0.0000
      7 ****         3.1742   1.8238  -0.6923 C.2            1 S1                 0.0000
      8 ****         3.1416   0.7239   0.0429 N.2            1 S1                 0.0000
      9 ****         0.6611  -1.3623   1.1846 N.am           1 S1                 0.0000
     10 ****        -0.6384  -1.8939   0.7890 C.3            1 S1                 0.0000
     11 ****        -1.1012  -1.2825  -0.5475 C.3            1 S1                 0.0000
     12 ****        -2.4642  -1.8329  -1.0096 C.3            1 S1                 0.0000
     13 ****        -2.9554  -0.9942  -2.1945 C.3            1 S1                 0.0000
     14 ****        -2.3454   0.7055  -1.8867 S.o2           1 S1                 0.0000
     15 ****        -1.5701   1.1532  -3.0535 O.2            1 S1                 0.0000
     16 ****        -3.4347   1.5285  -1.3398 O.2            1 S1                 0.0000
     17 ****        -1.2013   0.2532  -0.5295 C.3            1 S1                 0.0000
     18 ****         2.4327   0.6027   3.2023 H              1 S1                 0.0000
     19 ****         3.0179  -0.6849   2.1591 H              1 S1                 0.0000
     20 ****         1.6600   2.9002   1.9898 H              1 S1                 0.0000
     21 ****         2.4590   3.9493  -0.3999 H              1 S1                 0.0000
     22 ****         3.6272   1.7818  -1.6720 H              1 S1                 0.0000
     23 ****         1.4566  -1.6548   0.6353 H              1 S1                 0.0000
     24 ****        -0.5429  -2.9751   0.6858 H              1 S1                 0.0000
     25 ****        -1.3877  -1.7270   1.5646 H              1 S1                 0.0000
     26 ****        -0.3720  -1.5491  -1.3145 H              1 S1                 0.0000
     27 ****        -2.4071  -2.8907  -1.2678 H              1 S1                 0.0000
     28 ****        -3.1823  -1.7426  -0.1933 H              1 S1                 0.0000
     29 ****        -2.5149  -1.3466  -3.1275 H              1 S1                 0.0000
     30 ****        -4.0405  -0.9940  -2.2980 H              1 S1                 0.0000
     31 ****        -1.6372   0.6065   0.4056 H              1 S1                 0.0000
     32 ****        -0.2388   0.7460  -0.6706 H              1 S1                 0.0000
     33 ****         0.1914   0.7175   3.5327 LP             1 S1                 0.0000
     34 ****        -0.9475  -0.3620   2.7996 LP             1 S1                 0.0000
     35 ****         3.4951  -0.1812  -0.1936 LP             1 S1                 0.0000
@<TRIPOS>BOND
    1    1    2 2     
    2    2    3 1     
    3    2    9 am    
    4    3    4 1     
    5    3   18 1     
    6    3   19 1     
    7    4    8 1     
    8    4    5 1     
    9    5    6 2     
   10    5   20 1     
   11    6    7 1     
   12    6   21 1     
   13    7    8 2     
   14    7   22 1     
   15    9   10 1     
   16    9   23 1     
   17   10   11 1     
   18   10   24 1     
   19   10   25 1     
   20   11   17 1     
   21   11   12 1     
   22   11   26 1     
   23   12   13 1     
   24   12   27 1     
   25   12   28 1     
   26   13   14 1     
   27   13   29 1     
   28   13   30 1     
   29   14   15 2     
   30   14   16 2     
   31   14   17 1     
   32   17   31 1     
   33   17   32 1     
   34    1   33 1     
   35    1   34 1     
   36    8   35 1     
@<TRIPOS>SUBSTRUCTURE
      1 S1             1
@<TRIPOS>SET
LONE_PAIRS      STATIC     ATOMS    <user>   **** ""
5 33 34 35 15 16
DONOR_HYDROGENS      STATIC     ATOMS    <user>   **** ""
1 23
ATOM$BLUE        STATIC     ATOMS    COLORGROUP SYSTEM
5 33 34 35 15 16
ATOM$RED        STATIC     ATOMS    COLORGROUP SYSTEM
1 23
