#       Name:                AV-unprocessed.smi:1209
#       Creating user name   scv26
#       Creation time:       Fri Mar 27 04:12:31 2020


#       File generated by GOLD software.
#

@<TRIPOS>MOLECULE
AV-unprocessed.smi:1209
    55    57     1
SMALL
NO_CHARGES


@<TRIPOS>ATOM
      1 ****        -2.8329   6.9300   0.3728 C.3            1 S1                 0.0000
      2 ****        -2.2258   5.6144   0.7213 C.2            1 S1                 0.0000
      3 ****        -2.2228   4.3960   0.1038 C.2            1 S1                 0.0000
      4 ****        -1.4579   3.5776   0.9799 C.2            1 S1                 0.0000
      5 ****        -1.0979   2.1249   0.8300 C.3            1 S1                 0.0000
      6 ****         0.3360   1.9396   0.4885 N.4            1 S1                 1.0000
      7 ****         0.6777   2.4762  -0.8529 C.3            1 S1                 0.0000
      8 ****         0.7780   0.5328   0.6727 C.3            1 S1                 0.0000
      9 ****         2.2954   0.4137   0.9397 C.3            1 S1                 0.0000
     10 ****         2.5983   1.0752   2.1512 O.3            1 S1                 0.0000
     11 ****         2.7882  -1.0415   1.0652 C.3            1 S1                 0.0000
     12 ****         2.5240  -1.8228  -0.1289 N.pl3          1 S1                 0.0000
     13 ****         3.2716  -1.8697  -1.2483 C.2            1 S1                 0.0000
     14 ****         2.8369  -2.6445  -2.2377 N.2            1 S1                 0.0000
     15 ****         1.6751  -3.1666  -1.6953 C.ar           1 S1                 0.0000
     16 ****         0.7300  -4.0635  -2.2393 C.ar           1 S1                 0.0000
     17 ****        -0.4048  -4.4598  -1.4960 C.ar           1 S1                 0.0000
     18 ****        -1.3953  -5.4275  -2.1195 C.3            1 S1                 0.0000
     19 ****        -0.6072  -3.9568  -0.1859 C.ar           1 S1                 0.0000
     20 ****        -1.8212  -4.3641   0.6301 C.3            1 S1                 0.0000
     21 ****         0.3286  -3.0628   0.3739 C.ar           1 S1                 0.0000
     22 ****         1.4529  -2.6750  -0.3759 C.ar           1 S1                 0.0000
     23 ****        -1.0313   4.2522   2.0347 N.2            1 S1                 0.0000
     24 ****        -1.5185   5.5546   1.8787 O.3            1 S1                 0.0000
     25 ****        -3.3772   6.8711  -0.5700 H              1 S1                 0.0000
     26 ****        -2.0642   7.6964   0.2721 H              1 S1                 0.0000
     27 ****        -3.5313   7.2501   1.1461 H              1 S1                 0.0000
     28 ****        -2.6957   4.1313  -0.8303 H              1 S1                 0.0000
     29 ****        -1.3227   1.6133   1.7671 H              1 S1                 0.0000
     30 ****        -1.7186   1.6510   0.0682 H              1 S1                 0.0000
     31 ****         0.1338   1.9449  -1.6351 H              1 S1                 0.0000
     32 ****         1.7424   2.3855  -1.0621 H              1 S1                 0.0000
     33 ****         0.4328   3.5354  -0.9309 H              1 S1                 0.0000
     34 ****         0.2511   0.0770   1.5121 H              1 S1                 0.0000
     35 ****         0.4853  -0.0355  -0.2106 H              1 S1                 0.0000
     36 ****         2.8608   0.8970   0.1437 H              1 S1                 0.0000
     37 ****         2.1885   0.6086   2.8641 H              1 S1                 0.0000
     38 ****         3.8622  -1.0623   1.2558 H              1 S1                 0.0000
     39 ****         2.3133  -1.5355   1.9140 H              1 S1                 0.0000
     40 ****         4.1828  -1.2972  -1.3445 H              1 S1                 0.0000
     41 ****         0.8839  -4.4461  -3.2376 H              1 S1                 0.0000
     42 ****        -1.4418  -6.3500  -1.5405 H              1 S1                 0.0000
     43 ****        -1.1115  -5.6867  -3.1400 H              1 S1                 0.0000
     44 ****        -2.3924  -4.9881  -2.1523 H              1 S1                 0.0000
     45 ****        -1.8182  -3.8893   1.6117 H              1 S1                 0.0000
     46 ****        -1.8362  -5.4437   0.7806 H              1 S1                 0.0000
     47 ****        -2.7395  -4.0716   0.1207 H              1 S1                 0.0000
     48 ****         0.1855  -2.6730   1.3707 H              1 S1                 0.0000
     49 ****         0.8515   2.4836   1.1664 H              1 S1                 0.0000
     50 ****         2.2502   2.0121   2.1186 LP             1 S1                 0.0000
     51 ****         3.5890   1.0922   2.2861 LP             1 S1                 0.0000
     52 ****         3.2425  -2.8072  -3.1372 LP             1 S1                 0.0000
     53 ****        -0.4749   3.9032   2.7887 LP             1 S1                 0.0000
     54 ****        -2.1121   5.7872   2.6491 LP             1 S1                 0.0000
     55 ****        -0.7542   6.1983   1.8405 LP             1 S1                 0.0000
@<TRIPOS>BOND
    1    1    2 1     
    2    1   25 1     
    3    1   26 1     
    4    1   27 1     
    5    2   24 1     
    6    2    3 2     
    7    3    4 1     
    8    3   28 1     
    9    4    5 1     
   10    4   23 2     
   11    5    6 1     
   12    5   29 1     
   13    5   30 1     
   14    6    7 1     
   15    6    8 1     
   16    6   49 1     
   17    7   31 1     
   18    7   32 1     
   19    7   33 1     
   20    8    9 1     
   21    8   34 1     
   22    8   35 1     
   23    9   10 1     
   24    9   11 1     
   25    9   36 1     
   26   10   37 1     
   27   11   12 1     
   28   11   38 1     
   29   11   39 1     
   30   12   22 1     
   31   12   13 1     
   32   13   14 2     
   33   13   40 1     
   34   14   15 1     
   35   15   22 ar    
   36   15   16 ar    
   37   16   17 ar    
   38   16   41 1     
   39   17   18 1     
   40   17   19 ar    
   41   18   42 1     
   42   18   43 1     
   43   18   44 1     
   44   19   20 1     
   45   19   21 ar    
   46   20   45 1     
   47   20   46 1     
   48   20   47 1     
   49   21   22 ar    
   50   21   48 1     
   51   23   24 1     
   52   10   50 1     
   53   10   51 1     
   54   14   52 1     
   55   23   53 1     
   56   24   54 1     
   57   24   55 1     
@<TRIPOS>SUBSTRUCTURE
      1 S1             1
@<TRIPOS>SET
LONE_PAIRS      STATIC     ATOMS    <user>   **** ""
6 50 51 52 53 54 55
DONOR_HYDROGENS      STATIC     ATOMS    <user>   **** ""
2 49 37
ATOM$BLUE        STATIC     ATOMS    COLORGROUP SYSTEM
6 50 51 52 53 54 55
ATOM$RED        STATIC     ATOMS    COLORGROUP SYSTEM
2 49 37
