AV-unprocessed.smi:163|AV-procd|sdf|1381|dock1
  -GOLD-   2262019113D 1   1.00000     0.00000
 Structure written by MMmdl.
 48 51  0  0  0  0  0  0  0  0  1 V2000
  151.2943  142.4867  157.6154 N   0  0  0  0  0  0  0  0  0  0  0  0
  151.5135  141.3503  157.6101 C   0  0  0  0  0  0  0  0  0  0  0  0
  151.7947  139.9049  157.6062 C   0  0  0  0  0  0  0  0  0  0  0  0
  151.6797  139.2603  156.2185 C   0  0  0  0  0  0  0  0  0  0  0  0
  152.4938  139.5709  155.3479 O   0  0  0  0  0  0  0  0  0  0  0  0
  150.6856  138.3687  155.9973 N   0  0  0  0  0  0  0  0  0  0  0  0
  150.4813  137.6193  154.7520 C   0  0  0  0  0  0  0  0  0  0  0  0
  150.7379  136.1249  155.0196 C   0  0  0  0  0  0  0  0  0  0  0  0
  149.9151  135.6495  156.1340 N   0  0  0  0  0  0  0  0  0  0  0  0
  149.8301  134.3006  156.2661 C   0  0  0  0  0  0  0  0  0  0  0  0
  150.0771  133.7232  157.4728 N   0  0  0  0  0  0  0  0  0  0  0  0
  150.0030  132.3967  157.6165 C   0  0  0  0  0  0  0  0  0  0  0  0
  149.6993  131.4741  156.7019 N   0  0  0  0  0  0  0  0  0  0  0  0
  149.4392  132.0457  155.4913 C   0  0  0  0  0  0  0  0  0  0  0  0
  149.4824  133.4366  155.1884 C   0  0  0  0  0  0  0  0  0  0  0  0
  149.1465  133.6378  153.8546 N   0  0  0  0  0  0  0  0  0  0  0  0
  148.9307  132.4366  153.3935 C   0  0  0  0  0  0  0  0  0  0  0  0
  149.0750  131.4207  154.3111 N   0  0  0  0  0  0  0  0  0  0  0  0
  148.8964  129.9967  154.0705 C   0  0  0  0  0  0  0  0  0  0  0  0
  147.4320  129.5832  153.7764 C   0  0  2  0  0  0  0  0  0  0  0  0
  146.6535  129.7656  154.9451 O   0  0  0  0  0  0  0  0  0  0  0  0
  147.2748  128.1417  153.2885 C   0  0  0  0  0  0  0  0  0  0  0  0
  147.2064  128.3027  151.7774 C   0  0  0  0  0  0  0  0  0  0  0  0
  146.4148  129.4688  151.6343 O   0  0  0  0  0  0  0  0  0  0  0  0
  146.8327  130.4078  152.6183 C   0  0  0  0  0  0  0  0  0  0  0  0
  149.9745  136.4578  157.3553 C   0  0  0  0  0  0  0  0  0  0  0  0
  149.7399  137.9465  157.0376 C   0  0  0  0  0  0  0  0  0  0  0  0
  152.8034  139.7699  157.9974 H   0  0  0  0  0  0  0  0  0  0  0  0
  151.0927  139.4359  158.2963 H   0  0  0  0  0  0  0  0  0  0  0  0
  149.4537  137.7641  154.4156 H   0  0  0  0  0  0  0  0  0  0  0  0
  151.1087  137.9568  153.9289 H   0  0  0  0  0  0  0  0  0  0  0  0
  150.5453  135.5610  154.1085 H   0  0  0  0  0  0  0  0  0  0  0  0
  151.7882  135.9667  155.2679 H   0  0  0  0  0  0  0  0  0  0  0  0
  150.2183  132.0213  158.6061 H   0  0  0  0  0  0  0  0  0  0  0  0
  148.6516  132.2569  152.3652 H   0  0  0  0  0  0  0  0  0  0  0  0
  149.5408  129.7121  153.2376 H   0  0  0  0  0  0  0  0  0  0  0  0
  149.2699  129.4549  154.9404 H   0  0  0  0  0  0  0  0  0  0  0  0
  145.8607  129.2585  154.8582 H   0  0  0  0  0  0  0  0  0  0  0  0
  148.0680  127.4657  153.6045 H   0  0  0  0  0  0  0  0  0  0  0  0
  146.3311  127.7173  153.6355 H   0  0  0  0  0  0  0  0  0  0  0  0
  148.1978  128.4699  151.3531 H   0  0  0  0  0  0  0  0  0  0  0  0
  146.7545  127.4442  151.2800 H   0  0  0  0  0  0  0  0  0  0  0  0
  145.9892  131.0287  152.9235 H   0  0  0  0  0  0  0  0  0  0  0  0
  147.5776  131.0690  152.1734 H   0  0  0  0  0  0  0  0  0  0  0  0
  149.2220  136.1156  158.0671 H   0  0  0  0  0  0  0  0  0  0  0  0
  150.9499  136.3282  157.8272 H   0  0  0  0  0  0  0  0  0  0  0  0
  149.8209  138.5357  157.9519 H   0  0  0  0  0  0  0  0  0  0  0  0
  148.7216  138.0953  156.6753 H   0  0  0  0  0  0  0  0  0  0  0  0
  1  2  3  0  0  0  0
  2  3  1  0  0  0  0
  3  4  1  0  0  0  0
  3 28  1  0  0  0  0
  3 29  1  0  0  0  0
  4  5  2  0  0  0  0
  4  6  1  0  0  0  0
  6 27  1  0  0  0  0
  6  7  1  0  0  0  0
  7  8  1  0  0  0  0
  7 30  1  0  0  0  0
  7 31  1  0  0  0  0
  8  9  1  0  0  0  0
  8 32  1  0  0  0  0
  8 33  1  0  0  0  0
  9 10  1  0  0  0  0
  9 26  1  0  0  0  0
 10 15  1  0  0  0  0
 10 11  2  0  0  0  0
 11 12  1  0  0  0  0
 12 13  2  0  0  0  0
 12 34  1  0  0  0  0
 13 14  1  0  0  0  0
 14 18  1  0  0  0  0
 14 15  2  0  0  0  0
 15 16  1  0  0  0  0
 16 17  2  0  0  0  0
 17 18  1  0  0  0  0
 17 35  1  0  0  0  0
 18 19  1  0  0  0  0
 19 20  1  0  0  0  0
 19 36  1  0  0  0  0
 19 37  1  0  0  0  0
 20 25  1  0  0  0  0
 20 21  1  0  0  0  0
 20 22  1  0  0  0  0
 21 38  1  0  0  0  0
 22 23  1  0  0  0  0
 22 39  1  0  0  0  0
 22 40  1  0  0  0  0
 23 24  1  0  0  0  0
 23 41  1  0  0  0  0
 23 42  1  0  0  0  0
 24 25  1  0  0  0  0
 25 43  1  0  0  0  0
 25 44  1  0  0  0  0
 26 27  1  0  0  0  0
 26 45  1  0  0  0  0
 26 46  1  0  0  0  0
 27 47  1  0  0  0  0
 27 48  1  0  0  0  0
M  END
> <s_m_source_file>
AV-unprocessed.smi

> <i_m_source_file_index>
163

> <i_lp_mmshare_version>
43012

> <i_f3d_flags>
0

> <s_epik_input>
TiNDW0NIMl1DKD1PKU4xW0NIMl1bQ0gyXU4oW0NIMl1bQ0gyXTEpYyhuW2NIXW4yKWMoYzIzKW5bY0hdbjNbQ0gyXVtDQEBdNChbT0hdKVtDSDJdW0NIMl1PW0NIMl00

> <s_epik_cmdline>
J2VwaWtfcHl0aG9uJywgJy1waCcsICc3LjAnLCAnLXRuJywgJzgnLCAnLW1hJywgJzIwMCcsICctbWV0YWxfYmluZGluZycsICctaW1hZScsICc8aW5maWxlLm1hZT4nLCAnLW9tYWUnLCAnPG91dGZpbGUubWFlPic=

> <r_lp_tautomer_probability>
1

> <r_epik_Ionization_Penalty>
0.000981096

> <r_epik_Ionization_Penalty_Charging>
0

> <r_epik_Ionization_Penalty_Neutral>
0.000981096

> <r_epik_State_Penalty>
0.000482875

> <r_epik_Charging_Adjusted_Penalty>
0.000482875

> <i_epik_Tot_Q>
0

> <i_epik_Tot_abs_Q>
0

> <r_epik_Metal_State_Penalty>
-0

> <b_epik_Metal_Only>
0

> <s_lp_Force_Field>
OPLS_2005

> <r_lp_Energy>
51.4692

> <b_lp_Chiralities_Consistent>
1

> <s_lp_Variant>
AV-unprocessed.smi:163-2

> <Gold.Version>
5.8.1

> <Gold.Id.Protein>
6NUR|6NUR_protein|mol2

> <Gold.PLP.Fitness>
44.1772

> <Gold.PLP.PLP>
-37.2186

> <Gold.PLP.part.hbond>
-2.3996

> <Gold.PLP.part.metal>
0.0000

> <Gold.PLP.part.buried>
-5.7154

> <Gold.PLP.part.nonpolar>
-29.2335

> <Gold.PLP.part.repulsive>
0.8319

> <Gold.PLP.ligand.clash>
0.0000

> <Gold.PLP.ligand.torsion>
0.4000

> <Gold.PLP.Chemscore.Hbond>
1.4237

> <Gold.PLP.Chemscore.CHOScore>
0.9884

> <Gold.PLP.Chemscore.Metal>
0.0000

> <Gold.Chemscore.Hbonds>
donor molecule, donor type, donor heavy atom, donor atom, acceptor molecule, acceptor atom, score
      P1  H  6896  6909       L1    11  0.20
      P1  H  7989  7998       L1     5  0.06
      P1  H  7997  8009       L1     5  0.83
      L1  C    17    35       P1 10747  1.00

> <Gold.PLP.Chemscore.Internal.Correction>
0.5226

> <Gold.Rescore>
     Score         DG    S(hbond)    S(metal)    S(lipo)     H(rot)  DE(clash)    DE(int)     intcor
     10.01     -10.72       1.50        0.00      61.47       2.72       0.36       0.35       ----

> <Gold.Chemscore.Fitness>
10.0074

> <Gold.Chemscore.DG>
-10.7150

> <Gold.Chemscore.ZeroCoef>
-5.4800

> <Gold.Chemscore.Hbond>
1.5012

> <Gold.Chemscore.Metal>
0.0000

> <Gold.Chemscore.Lipo>
61.4707

> <Gold.Chemscore.Internal_Hbond>
0.0000

> <Gold.Chemscore.DEClash>
0.3553

> <Gold.Chemscore.DEInternal>
0.3524

> <Gold.Chemscore.Rot>
2.7230

> <Gold.Chemscore.Internal.Correction>
   9.000000E+99

> <Gold.Chemscore.Hbonds>
donor molecule, donor type, donor heavy atom, donor atom, acceptor molecule, acceptor atom, score
      P1  H  7989  7998       L1     5  0.08
      P1  H  7997  8009       L1     5  0.75

> <Gold.Chemscore.Hbond.Weighted>
-5.0138

> <Gold.Chemscore.Metal.Weighted>
-0.0000

> <Gold.Chemscore.Lipo.Weighted>
-7.1921

> <Gold.Chemscore.Internal_Hbond.Weighted>
0.0000

> <Gold.Chemscore.DEClash.Weighted>
0.3553

> <Gold.Chemscore.DEInternal.Weighted>
0.3524

> <Gold.Chemscore.Rot.Weighted>
6.9709

> <Gold.Chemscore.Internal.Correction.Weighted>
   9.000000E+99

> <Gold.Protein.RotatedTorsions>
[ 6907 6896 6895 6894 ] final  -10.35 input  -60.11 | X-H torsion
[ 7974 7965 7964 7962 ] final  121.45 input  175.53 | X-H torsion
[ 8008 7997 7996 7995 ] final -145.40 input   59.86 | X-H torsion
[ 10167 10162 10161 10158 ] final  -16.91 input  -65.29 | X-H torsion
[ 10718 10713 10712 10709 ] final -118.47 input   66.30 | X-H torsion
[ 10763 10752 10751 10750 ] final -158.03 input  -60.55 | X-H torsion
[ 11005 11000 10999 10996 ] final   22.83 input  -57.11 | X-H torsion

> <Gold.Protein.ActiveResidues>
 VAL166  LYS551  ARG553  GLY616  TRP617  ASP618  TYR619  PRO620  LYS621  CYS622 
 ASP623  PHE694  ASN695  SER759  ASP760  ASP761  ALA762  ILE779  LEU786  VAL792 
 PHE793  MET794  SER795  GLU796  ALA797  LYS798  CYS799  TRP800  GLU811  SER814 

> <Gold.Protein.RotatedAtoms>
  151.4033  135.0974  159.9562 H   0  0  0  0  0  0  0  0  0  0  0  0  # atno 6907 bound_to 6896
  152.5043  133.8867  159.7384 H   0  0  0  0  0  0  0  0  0  0  0  0  # atno 6908 bound_to 6896
  150.9346  133.6670  159.2832 H   0  0  0  0  0  0  0  0  0  0  0  0  # atno 6909 bound_to 6896
  145.1192  139.3400  143.4723 H   0  0  0  0  0  0  0  0  0  0  0  0  # atno 7974 bound_to 7965
  155.5425  140.0609  157.2867 H   0  0  0  0  0  0  0  0  0  0  0  0  # atno 8008 bound_to 7997
  154.4447  140.1916  156.0649 H   0  0  0  0  0  0  0  0  0  0  0  0  # atno 8009 bound_to 7997
  156.0574  140.3276  155.7425 H   0  0  0  0  0  0  0  0  0  0  0  0  # atno 8010 bound_to 7997
  140.7240  143.5068  150.9799 H   0  0  0  0  0  0  0  0  0  0  0  0  # atno 10167 bound_to 10162
  156.1109  130.6247  150.9295 H   0  0  0  0  0  0  0  0  0  0  0  0  # atno 10718 bound_to 10713
  154.7589  135.3112  154.8417 H   0  0  0  0  0  0  0  0  0  0  0  0  # atno 10763 bound_to 10752
  153.9183  135.6798  153.4753 H   0  0  0  0  0  0  0  0  0  0  0  0  # atno 10764 bound_to 10752
  153.1188  135.4832  154.9091 H   0  0  0  0  0  0  0  0  0  0  0  0  # atno 10765 bound_to 10752
  140.3763  134.1969  155.7665 H   0  0  0  0  0  0  0  0  0  0  0  0  # atno 11005 bound_to 11000
  146.3522  140.1144  142.8602 LP  0  0  0  0  0  0  0  0  0  0  0  0  # atno 17320 bound_to 7965
  145.0759  140.9188  143.4854 LP  0  0  0  0  0  0  0  0  0  0  0  0  # atno 17321 bound_to 7965
  139.8780  143.7108  152.3160 LP  0  0  0  0  0  0  0  0  0  0  0  0  # atno 17342 bound_to 10162
  139.7380  144.7566  151.0697 LP  0  0  0  0  0  0  0  0  0  0  0  0  # atno 17343 bound_to 10162
  157.6290  131.0923  150.8479 LP  0  0  0  0  0  0  0  0  0  0  0  0  # atno 17370 bound_to 10713
  156.8590  130.5106  149.5305 LP  0  0  0  0  0  0  0  0  0  0  0  0  # atno 17371 bound_to 10713
  141.1938  133.8142  157.0783 LP  0  0  0  0  0  0  0  0  0  0  0  0  # atno 17394 bound_to 11000
  140.0513  134.9804  157.1141 LP  0  0  0  0  0  0  0  0  0  0  0  0  # atno 17395 bound_to 11000

$$$$
