AV-unprocessed.smi:1216|AV-procd|sdf|5098|dock4
  -GOLD-   22720 4153D 1   1.00000     0.00000
 Structure written by MMmdl.
 43 44  0  0  0  0  0  0  0  0  2 V2000
  146.4543  134.9399  155.9413 C   0  0  0  0  0  0  0  0  0  0  0  0
  146.0673  135.4131  154.5340 C   0  0  2  0  0  0  0  0  0  0  0  0
  146.0140  134.2328  153.5400 C   0  0  0  0  0  0  0  0  0  0  0  0
  145.2577  134.5454  152.3221 N   0  0  0  0  0  0  0  0  0  0  0  0
  145.6328  135.3814  151.3019 C   0  0  0  0  0  0  0  0  0  0  0  0
  144.6239  135.3432  150.3741 C   0  0  0  0  0  0  0  0  0  0  0  0
  143.6737  134.4912  150.8695 N   0  3  0  0  0  0  0  0  0  0  0  0
  144.0578  134.0125  152.0569 C   0  0  0  0  0  0  0  0  0  0  0  0
  147.0276  136.4235  154.0915 N   0  0  0  0  0  0  0  0  0  0  0  0
  147.2595  137.5998  154.6953 C   0  0  0  0  0  0  0  0  0  0  0  0
  146.7011  137.9471  155.7370 O   0  0  0  0  0  0  0  0  0  0  0  0
  148.2733  138.5223  154.0067 C   0  0  0  0  0  0  0  0  0  0  0  0
  149.4264  138.8422  154.8623 N   0  0  0  0  0  0  0  0  0  0  0  0
  149.8853  137.7849  155.7773 C   0  0  0  0  0  0  0  0  0  0  0  0
  151.2587  137.1850  155.3972 C   0  0  0  0  0  0  0  0  0  0  0  0
  152.2442  138.1362  154.6898 C   0  0  0  0  0  0  0  0  0  0  0  0
  152.4817  139.4817  155.4067 C   0  0  0  0  0  0  0  0  0  0  0  0
  151.2239  140.3178  155.7436 C   0  0  0  0  0  0  0  0  0  0  0  0
  150.0219  140.0610  154.8199 C   0  0  0  0  0  0  0  0  0  0  0  0
  149.6402  140.9687  154.0799 O   0  0  0  0  0  0  0  0  0  0  0  0
  145.7451  134.2011  156.3158 H   0  0  0  0  0  0  0  0  0  0  0  0
  146.4633  135.7717  156.6466 H   0  0  0  0  0  0  0  0  0  0  0  0
  147.4451  134.4841  155.9503 H   0  0  0  0  0  0  0  0  0  0  0  0
  145.0719  135.8552  154.6064 H   0  0  0  0  0  0  0  0  0  0  0  0
  147.0195  133.9184  153.2554 H   0  0  0  0  0  0  0  0  0  0  0  0
  145.5330  133.3701  154.0028 H   0  0  0  0  0  0  0  0  0  0  0  0
  146.5696  135.9191  151.3073 H   0  0  0  0  0  0  0  0  0  0  0  0
  144.5151  135.8436  149.4229 H   0  0  0  0  0  0  0  0  0  0  0  0
  143.5128  133.3171  152.6702 H   0  0  0  0  0  0  0  0  0  0  0  0
  147.5420  136.2201  153.2465 H   0  0  0  0  0  0  0  0  0  0  0  0
  148.6021  138.0448  153.0830 H   0  0  0  0  0  0  0  0  0  0  0  0
  147.7789  139.4443  153.6948 H   0  0  0  0  0  0  0  0  0  0  0  0
  149.9226  138.1802  156.7923 H   0  0  0  0  0  0  0  0  0  0  0  0
  149.1508  136.9811  155.8387 H   0  0  0  0  0  0  0  0  0  0  0  0
  151.7248  136.7771  156.2947 H   0  0  0  0  0  0  0  0  0  0  0  0
  151.0932  136.3312  154.7392 H   0  0  0  0  0  0  0  0  0  0  0  0
  153.2009  137.6260  154.5727 H   0  0  0  0  0  0  0  0  0  0  0  0
  151.8990  138.3230  153.6720 H   0  0  0  0  0  0  0  0  0  0  0  0
  153.0318  139.2971  156.3300 H   0  0  0  0  0  0  0  0  0  0  0  0
  153.1468  140.0841  154.7869 H   0  0  0  0  0  0  0  0  0  0  0  0
  150.9208  140.1398  156.7752 H   0  0  0  0  0  0  0  0  0  0  0  0
  151.4804  141.3773  155.7100 H   0  0  0  0  0  0  0  0  0  0  0  0
  142.8068  134.2517  150.4050 H   0  0  0  0  0  0  0  0  0  0  0  0
  1  2  1  0  0  0  0
  1 21  1  0  0  0  0
  1 22  1  0  0  0  0
  1 23  1  0  0  0  0
  2  3  1  0  0  0  0
  2  9  1  0  0  0  0
  2 24  1  0  0  0  0
  3  4  1  0  0  0  0
  3 25  1  0  0  0  0
  3 26  1  0  0  0  0
  4  8  1  0  0  0  0
  4  5  1  0  0  0  0
  5  6  2  0  0  0  0
  5 27  1  0  0  0  0
  6  7  1  0  0  0  0
  6 28  1  0  0  0  0
  7  8  2  0  0  0  0
  7 43  1  0  0  0  0
  8 29  1  0  0  0  0
  9 10  1  0  0  0  0
  9 30  1  0  0  0  0
 10 11  2  0  0  0  0
 10 12  1  0  0  0  0
 12 13  1  0  0  0  0
 12 31  1  0  0  0  0
 12 32  1  0  0  0  0
 13 19  1  0  0  0  0
 13 14  1  0  0  0  0
 14 15  1  0  0  0  0
 14 33  1  0  0  0  0
 14 34  1  0  0  0  0
 15 16  1  0  0  0  0
 15 35  1  0  0  0  0
 15 36  1  0  0  0  0
 16 17  1  0  0  0  0
 16 37  1  0  0  0  0
 16 38  1  0  0  0  0
 17 18  1  0  0  0  0
 17 39  1  0  0  0  0
 17 40  1  0  0  0  0
 18 19  1  0  0  0  0
 18 41  1  0  0  0  0
 18 42  1  0  0  0  0
 19 20  2  0  0  0  0
M  CHG  1   7   1
M  END
> <s_m_source_file>
AV-unprocessed.smi

> <i_m_source_file_index>
1216

> <i_lp_mmshare_version>
43012

> <i_f3d_flags>
0

> <s_epik_input>
W2NIXTFuW2NIXVtjSF1uMVtDSDJdW0NAQEhdKFtDSDNdKVtOSF1DKD1PKVtDSDJdTjJbQ0gyXVtDSDJdW0NIMl1bQ0gyXVtDSDJdQzI9Tw==

> <s_epik_cmdline>
J2VwaWtfcHl0aG9uJywgJy1waCcsICc3LjAnLCAnLXRuJywgJzgnLCAnLW1hJywgJzIwMCcsICctbWV0YWxfYmluZGluZycsICctaW1hZScsICc8aW5maWxlLm1hZT4nLCAnLW9tYWUnLCAnPG91dGZpbGUubWFlPic=

> <r_lp_tautomer_probability>
1

> <r_epik_Ionization_Penalty>
0.254232

> <r_epik_Ionization_Penalty_Charging>
0

> <r_epik_Ionization_Penalty_Neutral>
0.254232

> <r_epik_State_Penalty>
0.245698

> <r_epik_Charging_Adjusted_Penalty>
0.245698

> <i_epik_Tot_Q>
1

> <i_epik_Tot_abs_Q>
1

> <r_epik_Metal_State_Penalty>
0.535799

> <b_epik_Metal_Only>
0

> <s_lp_Force_Field>
OPLS_2005

> <r_lp_Energy>
19.3608

> <b_lp_Chiralities_Consistent>
1

> <s_lp_Variant>
AV-unprocessed.smi:1216-1

> <Gold.Version>
5.8.1

> <Gold.Id.Protein>
6NUR|6NUR_protein|mol2

> <Gold.PLP.Fitness>
43.5063

> <Gold.PLP.PLP>
-28.7843

> <Gold.PLP.part.hbond>
-3.7165

> <Gold.PLP.part.metal>
0.0000

> <Gold.PLP.part.buried>
-0.6086

> <Gold.PLP.part.nonpolar>
-25.5690

> <Gold.PLP.part.repulsive>
0.9739

> <Gold.PLP.ligand.clash>
0.0000

> <Gold.PLP.ligand.torsion>
0.6209

> <Gold.PLP.Chemscore.Hbond>
3.4368

> <Gold.PLP.Chemscore.CHOScore>
1.8539

> <Gold.PLP.Chemscore.Metal>
0.0000

> <Gold.Chemscore.Hbonds>
donor molecule, donor type, donor heavy atom, donor atom, acceptor molecule, acceptor atom, score
      L1  H     7    43       P1 10186  2.00
      L1  H     9    30       P1  7948  1.00
      P1  H  7989  7998       L1    20  0.05
      P1  H  8011  8017       L1    20  0.35
      L1  C     5    27       P1  7948  1.00
      L1  C     8    29       P1 10957  0.47

> <Gold.PLP.Chemscore.Internal.Correction>
0.0918

> <Gold.Rescore>
     Score         DG    S(hbond)    S(metal)    S(lipo)     H(rot)  DE(clash)    DE(int)     intcor
     11.52     -14.02       2.33        0.00      54.82       2.22       1.22       1.28       ----

> <Gold.Chemscore.Fitness>
11.5180

> <Gold.Chemscore.DG>
-14.0153

> <Gold.Chemscore.ZeroCoef>
-5.4800

> <Gold.Chemscore.Hbond>
2.3336

> <Gold.Chemscore.Metal>
0.0000

> <Gold.Chemscore.Lipo>
54.8240

> <Gold.Chemscore.Internal_Hbond>
0.0000

> <Gold.Chemscore.DEClash>
1.2164

> <Gold.Chemscore.DEInternal>
1.2809

> <Gold.Chemscore.Rot>
2.2161

> <Gold.Chemscore.Internal.Correction>
   9.000000E+99

> <Gold.Chemscore.Hbonds>
donor molecule, donor type, donor heavy atom, donor atom, acceptor molecule, acceptor atom, score
      L1  H     7    43       P1 10186  0.76
      L1  H     9    30       P1  7948  0.98
      P1  H  8011  8017       L1    20  0.33

> <Gold.Chemscore.Hbond.Weighted>
-7.7941

> <Gold.Chemscore.Metal.Weighted>
-0.0000

> <Gold.Chemscore.Lipo.Weighted>
-6.4144

> <Gold.Chemscore.Internal_Hbond.Weighted>
0.0000

> <Gold.Chemscore.DEClash.Weighted>
1.2164

> <Gold.Chemscore.DEInternal.Weighted>
1.2809

> <Gold.Chemscore.Rot.Weighted>
5.6733

> <Gold.Chemscore.Internal.Correction.Weighted>
   9.000000E+99

> <Gold.Protein.RotatedTorsions>
[ 6907 6896 6895 6894 ] final  -98.58 input  -60.11 | X-H torsion
[ 7974 7965 7964 7962 ] final   44.54 input  175.53 | X-H torsion
[ 8008 7997 7996 7995 ] final  -27.01 input   59.86 | X-H torsion
[ 10167 10162 10161 10158 ] final  132.93 input  -65.29 | X-H torsion
[ 10718 10713 10712 10709 ] final  -70.20 input   66.30 | X-H torsion
[ 10763 10752 10751 10750 ] final  -11.00 input  -60.55 | X-H torsion
[ 11005 11000 10999 10996 ] final   68.66 input  -57.11 | X-H torsion

> <Gold.Protein.ActiveResidues>
 VAL166  LYS551  ARG553  GLY616  TRP617  ASP618  TYR619  PRO620  LYS621  CYS622 
 ASP623  PHE694  ASN695  SER759  ASP760  ASP761  ALA762  ILE779  LEU786  VAL792 
 PHE793  MET794  SER795  GLU796  ALA797  LYS798  CYS799  TRP800  GLU811  SER814 

> <Gold.Protein.RotatedAtoms>
  150.7051  134.1172  159.4021 H   0  0  0  0  0  0  0  0  0  0  0  0  # atno 6907 bound_to 6896
  151.9159  135.0317  160.0527 H   0  0  0  0  0  0  0  0  0  0  0  0  # atno 6908 bound_to 6896
  152.2297  133.5013  159.5245 H   0  0  0  0  0  0  0  0  0  0  0  0  # atno 6909 bound_to 6896
  146.0559  139.5063  142.9689 H   0  0  0  0  0  0  0  0  0  0  0  0  # atno 7974 bound_to 7965
  154.4397  140.1884  156.0865 H   0  0  0  0  0  0  0  0  0  0  0  0  # atno 8008 bound_to 7997
  156.0399  140.3321  155.7205 H   0  0  0  0  0  0  0  0  0  0  0  0  # atno 8009 bound_to 7997
  155.5715  140.0613  157.2796 H   0  0  0  0  0  0  0  0  0  0  0  0  # atno 8010 bound_to 7997
  139.5318  144.6639  151.4923 H   0  0  0  0  0  0  0  0  0  0  0  0  # atno 10167 bound_to 10162
  156.0419  130.4327  150.2260 H   0  0  0  0  0  0  0  0  0  0  0  0  # atno 10718 bound_to 10713
  153.4774  135.7017  153.5958 H   0  0  0  0  0  0  0  0  0  0  0  0  # atno 10763 bound_to 10752
  153.4185  135.3831  155.2096 H   0  0  0  0  0  0  0  0  0  0  0  0  # atno 10764 bound_to 10752
  154.8723  135.3922  154.4220 H   0  0  0  0  0  0  0  0  0  0  0  0  # atno 10765 bound_to 10752
  139.9698  134.6919  156.0469 H   0  0  0  0  0  0  0  0  0  0  0  0  # atno 11005 bound_to 11000
  145.6644  141.0232  143.1691 LP  0  0  0  0  0  0  0  0  0  0  0  0  # atno 17320 bound_to 7965
  144.7148  139.8238  143.7402 LP  0  0  0  0  0  0  0  0  0  0  0  0  # atno 17321 bound_to 7965
  140.6501  143.8714  150.6777 LP  0  0  0  0  0  0  0  0  0  0  0  0  # atno 17342 bound_to 10162
  140.2076  143.3909  152.1743 LP  0  0  0  0  0  0  0  0  0  0  0  0  # atno 17343 bound_to 10162
  157.0354  131.0019  151.3300 LP  0  0  0  0  0  0  0  0  0  0  0  0  # atno 17370 bound_to 10713
  157.5248  130.8020  149.7849 LP  0  0  0  0  0  0  0  0  0  0  0  0  # atno 17371 bound_to 10713
  141.1378  133.6571  156.3643 LP  0  0  0  0  0  0  0  0  0  0  0  0  # atno 17394 bound_to 11000
  140.5317  134.6206  157.5352 LP  0  0  0  0  0  0  0  0  0  0  0  0  # atno 17395 bound_to 11000

$$$$
