#       Name:                AV-unprocessed.smi:1503
#       Creating user name   scv26
#       Creation time:       Fri Mar 27 06:18:41 2020


#       File generated by GOLD software.
#

@<TRIPOS>MOLECULE
AV-unprocessed.smi:1503
    51    52     1
SMALL
NO_CHARGES


@<TRIPOS>ATOM
      1 ****        -2.4481   7.0521   2.1228 C.2            1 S1                 0.0000
      2 ****        -2.2614   6.2520   1.0624 C.2            1 S1                 0.0000
      3 ****        -3.2936   5.2777   0.5291 C.3            1 S1                 0.0000
      4 ****        -2.7621   3.9220   0.4566 N.am           1 S1                 0.0000
      5 ****        -1.9659   3.4528  -0.5168 C.2            1 S1                 0.0000
      6 ****        -1.6016   4.1325  -1.4768 O.2            1 S1                 0.0000
      7 ****        -1.5196   1.9943  -0.3800 C.3            1 S1                 0.0000
      8 ****        -0.1007   1.7443  -0.9253 C.3            1 S1                 0.0000
      9 ****         0.3478   0.3003  -0.7173 C.2            1 S1                 0.0000
     10 ****         1.1271  -0.0957   0.3276 C.2            1 S1                 0.0000
     11 ****         1.6119   0.8588   1.4047 C.3            1 S1                 0.0000
     12 ****         1.5274  -1.4296   0.4753 N.2            1 S1                 0.0000
     13 ****         1.1586  -2.3227  -0.3887 C.2            1 S1                 0.0000
     14 ****         1.4940  -3.6782  -0.3585 N.pl3          1 S1                 0.0000
     15 ****         0.5249  -4.7190  -0.7114 C.3            1 S1                 0.0000
     16 ****         1.2296  -6.0169  -1.1399 C.3            1 S1                 0.0000
     17 ****         2.1140  -6.4437  -0.1128 O.3            1 S1                 0.0000
     18 ****         3.1269  -5.4780   0.1331 C.3            1 S1                 0.0000
     19 ****         2.4854  -4.1614   0.6025 C.3            1 S1                 0.0000
     20 ****         0.3655  -1.9561  -1.4815 N.am           1 S1                 0.0000
     21 ****        -0.0738  -0.6991  -1.7120 C.2            1 S1                 0.0000
     22 ****        -0.7760  -0.4544  -2.6919 O.2            1 S1                 0.0000
     23 ****         0.0994  -2.6695  -2.1441 H              1 S1                 0.0000
     24 ****        -3.3755   7.0433   2.6767 H              1 S1                 0.0000
     25 ****        -1.6724   7.7285   2.4505 H              1 S1                 0.0000
     26 ****        -1.3211   6.2934   0.5315 H              1 S1                 0.0000
     27 ****        -4.1732   5.2745   1.1736 H              1 S1                 0.0000
     28 ****        -3.6250   5.6084  -0.4563 H              1 S1                 0.0000
     29 ****        -3.0139   3.2939   1.2061 H              1 S1                 0.0000
     30 ****        -1.5619   1.7026   0.6706 H              1 S1                 0.0000
     31 ****        -2.2395   1.3672  -0.9069 H              1 S1                 0.0000
     32 ****        -0.0536   1.9833  -1.9891 H              1 S1                 0.0000
     33 ****         0.6024   2.4281  -0.4496 H              1 S1                 0.0000
     34 ****         0.7775   1.4189   1.8275 H              1 S1                 0.0000
     35 ****         2.3313   1.5653   0.9903 H              1 S1                 0.0000
     36 ****         2.0991   0.3217   2.2195 H              1 S1                 0.0000
     37 ****        -0.1077  -4.9120   0.1559 H              1 S1                 0.0000
     38 ****        -0.1386  -4.4006  -1.5155 H              1 S1                 0.0000
     39 ****         0.4935  -6.8002  -1.3209 H              1 S1                 0.0000
     40 ****         1.7763  -5.8724  -2.0733 H              1 S1                 0.0000
     41 ****         3.8018  -5.8601   0.8989 H              1 S1                 0.0000
     42 ****         3.7235  -5.3205  -0.7668 H              1 S1                 0.0000
     43 ****         3.2701  -3.4179   0.7502 H              1 S1                 0.0000
     44 ****         1.9991  -4.3066   1.5681 H              1 S1                 0.0000
     45 ****        -1.9000   5.0835  -1.5580 LP             1 S1                 0.0000
     46 ****        -1.0074   3.7335  -2.1751 LP             1 S1                 0.0000
     47 ****         2.1004  -1.6943   1.2510 LP             1 S1                 0.0000
     48 ****         2.5439  -7.3030  -0.3898 LP             1 S1                 0.0000
     49 ****         1.5913  -6.5883   0.7274 LP             1 S1                 0.0000
     50 ****        -1.1005   0.4774  -2.8543 LP             1 S1                 0.0000
     51 ****        -1.0225  -1.1874  -3.3260 LP             1 S1                 0.0000
@<TRIPOS>BOND
    1    1    2 2     
    2    1   24 1     
    3    1   25 1     
    4    2    3 1     
    5    2   26 1     
    6    3    4 1     
    7    3   27 1     
    8    3   28 1     
    9    4    5 am    
   10    4   29 1     
   11    5    6 2     
   12    5    7 1     
   13    7    8 1     
   14    7   30 1     
   15    7   31 1     
   16    8    9 1     
   17    8   32 1     
   18    8   33 1     
   19    9   21 1     
   20    9   10 2     
   21   10   11 1     
   22   10   12 1     
   23   11   34 1     
   24   11   35 1     
   25   11   36 1     
   26   12   13 2     
   27   13   14 1     
   28   13   20 1     
   29   14   19 1     
   30   14   15 1     
   31   15   16 1     
   32   15   37 1     
   33   15   38 1     
   34   16   17 1     
   35   16   39 1     
   36   16   40 1     
   37   17   18 1     
   38   18   19 1     
   39   18   41 1     
   40   18   42 1     
   41   19   43 1     
   42   19   44 1     
   43   20   23 1     
   44   20   21 am    
   45   21   22 2     
   46    6   45 1     
   47    6   46 1     
   48   12   47 1     
   49   17   48 1     
   50   17   49 1     
   51   22   50 1     
   52   22   51 1     
@<TRIPOS>SUBSTRUCTURE
      1 S1             1
@<TRIPOS>SET
LONE_PAIRS      STATIC     ATOMS    <user>   **** ""
7 45 46 47 48 49 50 51
DONOR_HYDROGENS      STATIC     ATOMS    <user>   **** ""
2 29 23
ATOM$BLUE        STATIC     ATOMS    COLORGROUP SYSTEM
7 45 46 47 48 49 50 51
ATOM$RED        STATIC     ATOMS    COLORGROUP SYSTEM
2 29 23
