AV-unprocessed.smi:2858|AV-procd|sdf|11000|dock10
  -GOLD-   2272015453D 1   1.00000     0.00000
 Structure written by MMmdl.
 40 41  0  0  0  0  0  0  0  0  2 V2000
  145.0960  135.7343  150.8642 O   0  0  0  0  0  0  0  0  0  0  0  0
  145.6315  136.2270  151.8536 C   0  0  0  0  0  0  0  0  0  0  0  0
  145.9873  137.7216  151.8589 C   0  0  0  0  0  0  0  0  0  0  0  0
  146.9476  138.1093  152.9245 N   0  3  1  0  0  0  0  0  0  0  0  0
  147.1793  139.5748  152.9632 C   0  0  0  0  0  0  0  0  0  0  0  0
  148.1708  139.9831  154.0656 C   0  0  0  0  0  0  0  0  0  0  0  0
  147.5466  140.9556  155.0805 C   0  0  0  0  0  0  0  0  0  0  0  0
  148.5312  141.8973  155.6018 N   0  0  0  0  0  0  0  0  0  0  0  0
  149.3703  141.6434  156.6169 C   0  0  0  0  0  0  0  0  0  0  0  0
  149.4005  140.5669  157.2144 O   0  0  0  0  0  0  0  0  0  0  0  0
  150.1569  142.7023  156.8786 N   0  0  0  0  0  0  0  0  0  0  0  0
  151.1712  142.8185  157.8665 C   0  0  0  0  0  0  0  0  0  0  0  0
  151.6554  144.1296  158.0769 C   0  0  0  0  0  0  0  0  0  0  0  0
  152.6639  144.3501  159.0352 C   0  0  0  0  0  0  0  0  0  0  0  0
  153.1613  143.2530  159.7605 C   0  0  0  0  0  0  0  0  0  0  0  0
  152.6244  141.9809  159.4899 C   0  0  0  0  0  0  0  0  0  0  0  0
  151.6592  141.7668  158.5710 N   0  0  0  0  0  0  0  0  0  0  0  0
  146.5741  137.5311  154.2381 C   0  0  0  0  0  0  0  0  0  0  0  0
  146.5563  135.9947  154.1563 C   0  0  0  0  0  0  0  0  0  0  0  0
  145.9144  135.4944  152.9430 N   0  0  0  0  0  0  0  0  0  0  0  0
  146.4000  137.9885  150.8850 H   0  0  0  0  0  0  0  0  0  0  0  0
  145.0621  138.2872  151.9809 H   0  0  0  0  0  0  0  0  0  0  0  0
  147.5908  139.8948  152.0047 H   0  0  0  0  0  0  0  0  0  0  0  0
  146.2288  140.0975  153.0811 H   0  0  0  0  0  0  0  0  0  0  0  0
  148.5273  139.0989  154.5928 H   0  0  0  0  0  0  0  0  0  0  0  0
  149.0486  140.4465  153.6130 H   0  0  0  0  0  0  0  0  0  0  0  0
  146.7481  141.5274  154.6069 H   0  0  0  0  0  0  0  0  0  0  0  0
  147.0885  140.4063  155.9048 H   0  0  0  0  0  0  0  0  0  0  0  0
  148.5700  142.8071  155.1656 H   0  0  0  0  0  0  0  0  0  0  0  0
  150.0162  143.5201  156.3042 H   0  0  0  0  0  0  0  0  0  0  0  0
  151.2615  144.9617  157.5116 H   0  0  0  0  0  0  0  0  0  0  0  0
  153.0477  145.3442  159.2106 H   0  0  0  0  0  0  0  0  0  0  0  0
  153.9334  143.3823  160.5044 H   0  0  0  0  0  0  0  0  0  0  0  0
  152.9783  141.1121  160.0250 H   0  0  0  0  0  0  0  0  0  0  0  0
  147.2669  137.8387  155.0206 H   0  0  0  0  0  0  0  0  0  0  0  0
  145.5893  137.9035  154.5255 H   0  0  0  0  0  0  0  0  0  0  0  0
  147.5791  135.6162  154.1667 H   0  0  0  0  0  0  0  0  0  0  0  0
  146.0578  135.5737  155.0296 H   0  0  0  0  0  0  0  0  0  0  0  0
  145.6711  134.5140  152.9268 H   0  0  0  0  0  0  0  0  0  0  0  0
  147.8284  137.6874  152.6672 H   0  0  0  0  0  0  0  0  0  0  0  0
  1  2  2  0  0  0  0
  2 20  1  0  0  0  0
  2  3  1  0  0  0  0
  3  4  1  0  0  0  0
  3 21  1  0  0  0  0
  3 22  1  0  0  0  0
  4  5  1  0  0  0  0
  4 18  1  0  0  0  0
  4 40  1  0  0  0  0
  5  6  1  0  0  0  0
  5 23  1  0  0  0  0
  5 24  1  0  0  0  0
  6  7  1  0  0  0  0
  6 25  1  0  0  0  0
  6 26  1  0  0  0  0
  7  8  1  0  0  0  0
  7 27  1  0  0  0  0
  7 28  1  0  0  0  0
  8  9  1  0  0  0  0
  8 29  1  0  0  0  0
  9 10  2  0  0  0  0
  9 11  1  0  0  0  0
 11 12  1  0  0  0  0
 11 30  1  0  0  0  0
 12 17  1  0  0  0  0
 12 13  2  0  0  0  0
 13 14  1  0  0  0  0
 13 31  1  0  0  0  0
 14 15  2  0  0  0  0
 14 32  1  0  0  0  0
 15 16  1  0  0  0  0
 15 33  1  0  0  0  0
 16 17  2  0  0  0  0
 16 34  1  0  0  0  0
 18 19  1  0  0  0  0
 18 35  1  0  0  0  0
 18 36  1  0  0  0  0
 19 20  1  0  0  0  0
 19 37  1  0  0  0  0
 19 38  1  0  0  0  0
 20 39  1  0  0  0  0
M  CHG  1   4   1
M  END
> <s_m_source_file>
AV-unprocessed.smi

> <i_m_source_file_index>
2858

> <i_lp_mmshare_version>
43012

> <i_f3d_flags>
0

> <s_epik_input>
Tz1DMVtDSDJdTihbQ0gyXVtDSDJdW05IXTEpW0NIMl1bQ0gyXVtDSDJdW05IXUMoPU8pW05IXWMyW2NIXVtjSF1bY0hdW2NIXW4y

> <s_epik_cmdline>
J2VwaWtfcHl0aG9uJywgJy1waCcsICc3LjAnLCAnLXRuJywgJzgnLCAnLW1hJywgJzIwMCcsICctbWV0YWxfYmluZGluZycsICctaW1hZScsICc8aW5maWxlLm1hZT4nLCAnLW9tYWUnLCAnPG91dGZpbGUubWFlPic=

> <r_epik_Ionization_Penalty>
0.11034

> <r_epik_Ionization_Penalty_Charging>
0.110189

> <r_epik_Ionization_Penalty_Neutral>
0.000150894

> <r_epik_State_Penalty>
0.0999426

> <r_epik_Charging_Adjusted_Penalty>
0.210132

> <i_epik_Tot_Q>
1

> <i_epik_Tot_abs_Q>
1

> <r_epik_Metal_State_Penalty>
0.172915

> <b_epik_Metal_Only>
0

> <s_lp_Force_Field>
OPLS_2005

> <r_lp_Energy>
20.0709

> <b_lp_Chiralities_Consistent>
1

> <s_lp_Variant>
AV-unprocessed.smi:2858-2

> <Gold.Version>
5.8.1

> <Gold.Id.Protein>
6NUR|6NUR_protein|mol2

> <Gold.PLP.Fitness>
44.0660

> <Gold.PLP.PLP>
-34.0920

> <Gold.PLP.part.hbond>
-3.4122

> <Gold.PLP.part.metal>
0.0000

> <Gold.PLP.part.buried>
-2.2411

> <Gold.PLP.part.nonpolar>
-28.9435

> <Gold.PLP.part.repulsive>
0.4428

> <Gold.PLP.ligand.clash>
0.0000

> <Gold.PLP.ligand.torsion>
0.8024

> <Gold.PLP.Chemscore.Hbond>
3.8480

> <Gold.PLP.Chemscore.CHOScore>
0.0000

> <Gold.PLP.Chemscore.Metal>
0.0000

> <Gold.Chemscore.Hbonds>
donor molecule, donor type, donor heavy atom, donor atom, acceptor molecule, acceptor atom, score
      L1  H     4    40       P1  7948  2.00
      L1  H     8    29       P1  8028  0.82
      L1  H    11    30       P1  8028  0.96

> <Gold.PLP.Chemscore.Internal.Correction>
0.0347

> <Gold.Rescore>
     Score         DG    S(hbond)    S(metal)    S(lipo)     H(rot)  DE(clash)    DE(int)     intcor
     16.85     -18.87       2.84        0.00      78.79       2.08       0.05       1.97       ----

> <Gold.Chemscore.Fitness>
16.8467

> <Gold.Chemscore.DG>
-18.8687

> <Gold.Chemscore.ZeroCoef>
-5.4800

> <Gold.Chemscore.Hbond>
2.8411

> <Gold.Chemscore.Metal>
0.0000

> <Gold.Chemscore.Lipo>
78.7871

> <Gold.Chemscore.Internal_Hbond>
0.0000

> <Gold.Chemscore.DEClash>
0.0530

> <Gold.Chemscore.DEInternal>
1.9690

> <Gold.Chemscore.Rot>
2.0777

> <Gold.Chemscore.Internal.Correction>
   9.000000E+99

> <Gold.Chemscore.Hbonds>
donor molecule, donor type, donor heavy atom, donor atom, acceptor molecule, acceptor atom, score
      L1  H     4    40       P1  7948  0.94
      L1  H     8    29       P1  8028  0.79
      L1  H    11    30       P1  8028  0.92

> <Gold.Chemscore.Hbond.Weighted>
-9.4894

> <Gold.Chemscore.Metal.Weighted>
-0.0000

> <Gold.Chemscore.Lipo.Weighted>
-9.2181

> <Gold.Chemscore.Internal_Hbond.Weighted>
0.0000

> <Gold.Chemscore.DEClash.Weighted>
0.0530

> <Gold.Chemscore.DEInternal.Weighted>
1.9690

> <Gold.Chemscore.Rot.Weighted>
5.3188

> <Gold.Chemscore.Internal.Correction.Weighted>
   9.000000E+99

> <Gold.Protein.RotatedTorsions>
[ 6907 6896 6895 6894 ] final  -96.18 input  -60.11 | X-H torsion
[ 7974 7965 7964 7962 ] final  122.79 input  175.53 | X-H torsion
[ 8008 7997 7996 7995 ] final  154.84 input   59.86 | X-H torsion
[ 10167 10162 10161 10158 ] final  -84.59 input  -65.29 | X-H torsion
[ 10718 10713 10712 10709 ] final -101.96 input   66.30 | X-H torsion
[ 10763 10752 10751 10750 ] final  -90.48 input  -60.55 | X-H torsion
[ 11005 11000 10999 10996 ] final   32.00 input  -57.11 | X-H torsion

> <Gold.Protein.ActiveResidues>
 VAL166  LYS551  ARG553  GLY616  TRP617  ASP618  TYR619  PRO620  LYS621  CYS622 
 ASP623  PHE694  ASN695  SER759  ASP760  ASP761  ALA762  ILE779  LEU786  VAL792 
 PHE793  MET794  SER795  GLU796  ALA797  LYS798  CYS799  TRP800  GLU811  SER814 

> <Gold.Protein.RotatedAtoms>
  150.6982  134.1543  159.4152 H   0  0  0  0  0  0  0  0  0  0  0  0  # atno 6907 bound_to 6896
  151.9525  135.0160  160.0552 H   0  0  0  0  0  0  0  0  0  0  0  0  # atno 6908 bound_to 6896
  152.1998  133.4797  159.5089 H   0  0  0  0  0  0  0  0  0  0  0  0  # atno 6909 bound_to 6896
  145.1034  139.3502  143.4800 H   0  0  0  0  0  0  0  0  0  0  0  0  # atno 7974 bound_to 7965
  156.2510  140.1956  156.6708 H   0  0  0  0  0  0  0  0  0  0  0  0  # atno 8008 bound_to 7997
  154.6394  140.0585  156.9853 H   0  0  0  0  0  0  0  0  0  0  0  0  # atno 8009 bound_to 7997
  155.1586  140.3258  155.4419 H   0  0  0  0  0  0  0  0  0  0  0  0  # atno 8010 bound_to 7997
  140.4118  143.2619  151.9007 H   0  0  0  0  0  0  0  0  0  0  0  0  # atno 10167 bound_to 10162
  156.0212  130.5398  150.7039 H   0  0  0  0  0  0  0  0  0  0  0  0  # atno 10718 bound_to 10713
  154.6662  135.5303  153.8080 H   0  0  0  0  0  0  0  0  0  0  0  0  # atno 10763 bound_to 10752
  153.0472  135.6518  154.0796 H   0  0  0  0  0  0  0  0  0  0  0  0  # atno 10764 bound_to 10752
  154.0699  135.2955  155.3290 H   0  0  0  0  0  0  0  0  0  0  0  0  # atno 10765 bound_to 10752
  140.2780  134.3005  155.7808 H   0  0  0  0  0  0  0  0  0  0  0  0  # atno 11005 bound_to 11000
  146.3529  140.0922  142.8612 LP  0  0  0  0  0  0  0  0  0  0  0  0  # atno 17320 bound_to 7965
  145.0929  140.9296  143.4758 LP  0  0  0  0  0  0  0  0  0  0  0  0  # atno 17321 bound_to 7965
  139.4782  144.5529  151.8359 LP  0  0  0  0  0  0  0  0  0  0  0  0  # atno 17342 bound_to 10162
  140.4629  144.1696  150.5908 LP  0  0  0  0  0  0  0  0  0  0  0  0  # atno 17343 bound_to 10162
  157.4692  131.0891  151.0660 LP  0  0  0  0  0  0  0  0  0  0  0  0  # atno 17370 bound_to 10713
  157.1126  130.6028  149.5485 LP  0  0  0  0  0  0  0  0  0  0  0  0  # atno 17371 bound_to 10713
  141.2167  133.7508  156.9437 LP  0  0  0  0  0  0  0  0  0  0  0  0  # atno 17394 bound_to 11000
  140.1310  134.9356  157.2337 LP  0  0  0  0  0  0  0  0  0  0  0  0  # atno 17395 bound_to 11000

$$$$
