AV-unprocessed.smi:1978|AV-procd|sdf|8010|dock4
  -GOLD-   2272010203D 1   1.00000     0.00000
 Structure written by MMmdl.
 44 45  0  0  0  0  0  0  0  0  3 V2000
  152.1487  142.7129  161.3499 C   0  0  0  0  0  0  0  0  0  0  0  0
  152.1307  141.8987  160.1021 C   0  0  0  0  0  0  0  0  0  0  0  0
  151.3969  141.9744  158.9518 C   0  0  0  0  0  0  0  0  0  0  0  0
  151.8871  140.8833  158.1859 C   0  0  0  0  0  0  0  0  0  0  0  0
  151.3627  140.6123  156.8945 N   0  0  0  0  0  0  0  0  0  0  0  0
  151.8331  139.7737  155.9537 C   0  0  0  0  0  0  0  0  0  0  0  0
  152.8525  139.1062  156.1650 O   0  0  0  0  0  0  0  0  0  0  0  0
  151.0705  139.7836  154.8255 N   0  5  0  0  0  0  0  0  0  0  0  0
  150.1476  138.7183  154.4310 C   0  0  0  0  0  0  0  0  0  0  0  0
  148.7233  139.2912  154.1200 C   0  0  2  0  0  0  0  0  0  0  0  0
  148.1246  140.1002  155.2970 C   0  0  0  0  0  0  0  0  0  0  0  0
  147.7193  138.2888  153.6033 N   0  3  2  0  0  0  0  0  0  0  0  0
  146.6724  138.8426  152.6866 C   0  0  0  0  0  0  0  0  0  0  0  0
  145.9424  137.7258  151.9288 C   0  0  0  0  0  0  0  0  0  0  0  0
  145.3046  136.7420  152.9111 C   0  0  0  0  0  0  0  0  0  0  0  0
  146.3771  136.1913  153.8554 C   0  0  0  0  0  0  0  0  0  0  0  0
  147.1369  137.3152  154.5941 C   0  0  1  0  0  0  0  0  0  0  0  0
  148.1844  136.6684  155.5241 C   0  0  0  0  0  0  0  0  0  0  0  0
  152.8402  140.2075  158.8108 N   0  0  0  0  0  0  0  0  0  0  0  0
  153.0004  140.8544  160.0417 O   0  0  0  0  0  0  0  0  0  0  0  0
  151.3389  143.4425  161.3514 H   0  0  0  0  0  0  0  0  0  0  0  0
  153.0910  143.2523  161.4452 H   0  0  0  0  0  0  0  0  0  0  0  0
  152.0316  142.0768  162.2274 H   0  0  0  0  0  0  0  0  0  0  0  0
  150.6302  142.6923  158.7014 H   0  0  0  0  0  0  0  0  0  0  0  0
  150.5218  141.1145  156.6514 H   0  0  0  0  0  0  0  0  0  0  0  0
  150.5153  138.1809  153.5561 H   0  0  0  0  0  0  0  0  0  0  0  0
  150.0607  137.9612  155.2102 H   0  0  0  0  0  0  0  0  0  0  0  0
  148.8367  140.0368  153.3359 H   0  0  0  0  0  0  0  0  0  0  0  0
  148.7143  140.9922  155.5163 H   0  0  0  0  0  0  0  0  0  0  0  0
  148.0573  139.5277  156.2231 H   0  0  0  0  0  0  0  0  0  0  0  0
  147.1197  140.4467  155.0542 H   0  0  0  0  0  0  0  0  0  0  0  0
  145.9453  139.4267  153.2527 H   0  0  0  0  0  0  0  0  0  0  0  0
  147.1119  139.5167  151.9534 H   0  0  0  0  0  0  0  0  0  0  0  0
  145.1767  138.1537  151.2811 H   0  0  0  0  0  0  0  0  0  0  0  0
  146.6429  137.2009  151.2781 H   0  0  0  0  0  0  0  0  0  0  0  0
  144.5241  137.2424  153.4858 H   0  0  0  0  0  0  0  0  0  0  0  0
  144.8232  135.9271  152.3701 H   0  0  0  0  0  0  0  0  0  0  0  0
  145.9087  135.5200  154.5762 H   0  0  0  0  0  0  0  0  0  0  0  0
  147.0823  135.5848  153.2851 H   0  0  0  0  0  0  0  0  0  0  0  0
  146.4173  137.8466  155.2187 H   0  0  0  0  0  0  0  0  0  0  0  0
  147.7365  135.8743  156.1222 H   0  0  0  0  0  0  0  0  0  0  0  0
  148.6013  137.3819  156.2339 H   0  0  0  0  0  0  0  0  0  0  0  0
  149.0059  136.2292  154.9569 H   0  0  0  0  0  0  0  0  0  0  0  0
  148.2830  137.7029  153.0049 H   0  0  0  0  0  0  0  0  0  0  0  0
  1  2  1  0  0  0  0
  1 21  1  0  0  0  0
  1 22  1  0  0  0  0
  1 23  1  0  0  0  0
  2 20  1  0  0  0  0
  2  3  2  0  0  0  0
  3  4  1  0  0  0  0
  3 24  1  0  0  0  0
  4  5  1  0  0  0  0
  4 19  2  0  0  0  0
  5  6  1  0  0  0  0
  5 25  1  0  0  0  0
  6  7  2  0  0  0  0
  6  8  1  0  0  0  0
  8  9  1  0  0  0  0
  9 10  1  0  0  0  0
  9 26  1  0  0  0  0
  9 27  1  0  0  0  0
 10 11  1  0  0  0  0
 10 12  1  0  0  0  0
 10 28  1  0  0  0  0
 11 29  1  0  0  0  0
 11 30  1  0  0  0  0
 11 31  1  0  0  0  0
 12 17  1  0  0  0  0
 12 13  1  0  0  0  0
 12 44  1  0  0  0  0
 13 14  1  0  0  0  0
 13 32  1  0  0  0  0
 13 33  1  0  0  0  0
 14 15  1  0  0  0  0
 14 34  1  0  0  0  0
 14 35  1  0  0  0  0
 15 16  1  0  0  0  0
 15 36  1  0  0  0  0
 15 37  1  0  0  0  0
 16 17  1  0  0  0  0
 16 38  1  0  0  0  0
 16 39  1  0  0  0  0
 17 18  1  0  0  0  0
 17 40  1  0  0  0  0
 18 41  1  0  0  0  0
 18 42  1  0  0  0  0
 18 43  1  0  0  0  0
 19 20  1  0  0  0  0
M  CHG  1   8  -1
M  CHG  1  12   1
M  END
> <s_m_source_file>
AV-unprocessed.smi

> <i_m_source_file_index>
1978

> <i_lp_mmshare_version>
43012

> <i_f3d_flags>
0

> <s_epik_input>
W0NIM11jMVtjSF1jKG5vMSlbTkhdQyg9TylbTkhdW0NIMl1bQ0BIXShbQ0gzXSlOMltDSDJdW0NIMl1bQ0gyXVtDSDJdW0NASF0yW0NIM10=

> <s_epik_cmdline>
J2VwaWtfcHl0aG9uJywgJy1waCcsICc3LjAnLCAnLXRuJywgJzgnLCAnLW1hJywgJzIwMCcsICctbWV0YWxfYmluZGluZycsICctaW1hZScsICc8aW5maWxlLm1hZT4nLCAnLW9tYWUnLCAnPG91dGZpbGUubWFlPic=

> <r_epik_Ionization_Penalty>
6.7666

> <r_epik_Ionization_Penalty_Charging>
6.7666

> <r_epik_Ionization_Penalty_Neutral>
5.77131e-06

> <r_epik_State_Penalty>
6.79217

> <r_epik_Charging_Adjusted_Penalty>
13.5588

> <i_epik_Tot_Q>
0

> <i_epik_Tot_abs_Q>
2

> <r_epik_Metal_State_Penalty>
2.72569

> <b_epik_Metal_Only>
1

> <s_lp_Force_Field>
OPLS_2005

> <r_lp_Energy>
22.3249

> <b_lp_Chiralities_Consistent>
1

> <s_lp_Variant>
AV-unprocessed.smi:1978-19

> <Gold.Version>
5.8.1

> <Gold.Id.Protein>
6NUR|6NUR_protein|mol2

> <Gold.PLP.Fitness>
42.1352

> <Gold.PLP.PLP>
-32.0370

> <Gold.PLP.part.hbond>
-4.0000

> <Gold.PLP.part.metal>
0.0000

> <Gold.PLP.part.buried>
-2.7014

> <Gold.PLP.part.nonpolar>
-24.8701

> <Gold.PLP.part.repulsive>
0.2166

> <Gold.PLP.ligand.clash>
0.0000

> <Gold.PLP.ligand.torsion>
1.0985

> <Gold.PLP.Chemscore.Hbond>
4.0000

> <Gold.PLP.Chemscore.CHOScore>
0.0000

> <Gold.PLP.Chemscore.Metal>
0.0000

> <Gold.Chemscore.Hbonds>
donor molecule, donor type, donor heavy atom, donor atom, acceptor molecule, acceptor atom, score
      L1  H    12    44       P1  7948  2.00
      P1  H  7989  7998       L1     8  1.00
      P1  H  7997  8010       L1     7  1.00

> <Gold.PLP.Chemscore.Internal.Correction>
0.2951

> <Gold.Rescore>
     Score         DG    S(hbond)    S(metal)    S(lipo)     H(rot)  DE(clash)    DE(int)     intcor
     16.28     -18.88       2.81        0.00      67.60       1.52       0.02       2.58       ----

> <Gold.Chemscore.Fitness>
16.2849

> <Gold.Chemscore.DG>
-18.8829

> <Gold.Chemscore.ZeroCoef>
-5.4800

> <Gold.Chemscore.Hbond>
2.8091

> <Gold.Chemscore.Metal>
0.0000

> <Gold.Chemscore.Lipo>
67.5991

> <Gold.Chemscore.Internal_Hbond>
0.0000

> <Gold.Chemscore.DEClash>
0.0164

> <Gold.Chemscore.DEInternal>
2.5816

> <Gold.Chemscore.Rot>
1.5190

> <Gold.Chemscore.Internal.Correction>
   9.000000E+99

> <Gold.Chemscore.Hbonds>
donor molecule, donor type, donor heavy atom, donor atom, acceptor molecule, acceptor atom, score
      L1  H    12    44       P1  7948  0.98
      P1  H  7989  7998       L1     8  0.86
      P1  H  7997  8010       L1     7  0.81

> <Gold.Chemscore.Hbond.Weighted>
-9.3825

> <Gold.Chemscore.Metal.Weighted>
-0.0000

> <Gold.Chemscore.Lipo.Weighted>
-7.9091

> <Gold.Chemscore.Internal_Hbond.Weighted>
0.0000

> <Gold.Chemscore.DEClash.Weighted>
0.0164

> <Gold.Chemscore.DEInternal.Weighted>
2.5816

> <Gold.Chemscore.Rot.Weighted>
3.8886

> <Gold.Chemscore.Internal.Correction.Weighted>
   9.000000E+99

> <Gold.Protein.RotatedTorsions>
[ 6907 6896 6895 6894 ] final  100.23 input  -60.11 | X-H torsion
[ 7974 7965 7964 7962 ] final  -34.29 input  175.53 | X-H torsion
[ 8008 7997 7996 7995 ] final   92.30 input   59.86 | X-H torsion
[ 10167 10162 10161 10158 ] final  103.30 input  -65.29 | X-H torsion
[ 10718 10713 10712 10709 ] final -136.66 input   66.30 | X-H torsion
[ 10763 10752 10751 10750 ] final  -30.74 input  -60.55 | X-H torsion
[ 11005 11000 10999 10996 ] final -115.35 input  -57.11 | X-H torsion

> <Gold.Protein.ActiveResidues>
 VAL166  LYS551  ARG553  GLY616  TRP617  ASP618  TYR619  PRO620  LYS621  CYS622 
 ASP623  PHE694  ASN695  SER759  ASP760  ASP761  ALA762  ILE779  LEU786  VAL792 
 PHE793  MET794  SER795  GLU796  ALA797  LYS798  CYS799  TRP800  GLU811  SER814 

> <Gold.Protein.RotatedAtoms>
  152.5376  134.0308  159.8023 H   0  0  0  0  0  0  0  0  0  0  0  0  # atno 6907 bound_to 6896
  151.0479  133.5642  159.2652 H   0  0  0  0  0  0  0  0  0  0  0  0  # atno 6908 bound_to 6896
  151.2587  135.0654  159.9143 H   0  0  0  0  0  0  0  0  0  0  0  0  # atno 6909 bound_to 6896
  146.0842  140.6020  142.8894 H   0  0  0  0  0  0  0  0  0  0  0  0  # atno 7974 bound_to 7965
  156.0337  140.3327  155.7168 H   0  0  0  0  0  0  0  0  0  0  0  0  # atno 8008 bound_to 7997
  155.5846  140.0640  157.2792 H   0  0  0  0  0  0  0  0  0  0  0  0  # atno 8009 bound_to 7997
  154.4364  140.1838  156.1000 H   0  0  0  0  0  0  0  0  0  0  0  0  # atno 8010 bound_to 7997
  139.7275  144.7044  151.0775 H   0  0  0  0  0  0  0  0  0  0  0  0  # atno 10167 bound_to 10162
  156.2795  130.7312  151.1305 H   0  0  0  0  0  0  0  0  0  0  0  0  # atno 10718 bound_to 10713
  153.7860  135.6901  153.4880 H   0  0  0  0  0  0  0  0  0  0  0  0  # atno 10763 bound_to 10752
  153.1780  135.4517  154.9990 H   0  0  0  0  0  0  0  0  0  0  0  0  # atno 10764 bound_to 10752
  154.8063  135.3358  154.7359 H   0  0  0  0  0  0  0  0  0  0  0  0  # atno 10765 bound_to 10752
  141.0493  133.9713  157.2864 H   0  0  0  0  0  0  0  0  0  0  0  0  # atno 11005 bound_to 11000
  144.7314  140.4682  143.6935 LP  0  0  0  0  0  0  0  0  0  0  0  0  # atno 17320 bound_to 7965
  145.6162  139.1519  143.3048 LP  0  0  0  0  0  0  0  0  0  0  0  0  # atno 17321 bound_to 7965
  140.7765  143.5086  150.9681 LP  0  0  0  0  0  0  0  0  0  0  0  0  # atno 17342 bound_to 10162
  139.8774  143.7115  152.3160 LP  0  0  0  0  0  0  0  0  0  0  0  0  # atno 17343 bound_to 10162
  157.7310  131.0612  150.5700 LP  0  0  0  0  0  0  0  0  0  0  0  0  # atno 17370 bound_to 10713
  156.5804  130.4303  149.5979 LP  0  0  0  0  0  0  0  0  0  0  0  0  # atno 17371 bound_to 10713
  139.9337  135.0198  156.8486 LP  0  0  0  0  0  0  0  0  0  0  0  0  # atno 17394 bound_to 11000
  140.6086  134.0104  155.7567 LP  0  0  0  0  0  0  0  0  0  0  0  0  # atno 17395 bound_to 11000

$$$$
