AV-unprocessed.smi:1848|AV-procd|sdf|7519|dock7
  -GOLD-   22720 9223D 1   1.00000     0.00000
 Structure written by MMmdl.
 31 31  0  0  0  0  0  0  0  0  1 V2000
  150.5214  132.5140  155.3718 C   0  0  0  0  0  0  0  0  0  0  0  0
  149.8696  133.4922  155.0409 C   0  0  0  0  0  0  0  0  0  0  0  0
  149.0912  134.6720  154.6267 C   0  0  0  0  0  0  0  0  0  0  0  0
  149.9350  135.8073  154.2707 N   0  0  0  0  0  0  0  0  0  0  0  0
  150.5899  136.5920  155.1409 C   0  0  0  0  0  0  0  0  0  0  0  0
  150.5346  136.4379  156.3618 O   0  0  0  0  0  0  0  0  0  0  0  0
  151.4106  137.7357  154.5277 C   0  0  0  0  0  0  0  0  0  0  0  0
  150.8799  139.0711  154.8510 N   0  0  0  0  0  0  0  0  0  0  0  0
  149.7005  139.4689  154.1899 C   0  0  0  0  0  0  0  0  0  0  0  0
  149.1200  140.6692  154.4116 C   0  0  0  0  0  0  0  0  0  0  0  0
  147.8895  141.1098  153.7479 C   0  0  0  0  0  0  0  0  0  0  0  0
  147.1019  140.3529  153.1787 O   0  0  0  0  0  0  0  0  0  0  0  0
  147.6746  142.4357  153.8042 N   0  0  0  0  0  0  0  0  0  0  0  0
  146.5269  143.1111  153.2178 C   0  0  0  0  0  0  0  0  0  0  0  0
  149.7631  141.5515  155.3662 C   0  0  0  0  0  0  0  0  0  0  0  0
  150.8875  141.1746  156.0058 C   0  0  0  0  0  0  0  0  0  0  0  0
  151.5085  139.8691  155.7667 C   0  0  0  0  0  0  0  0  0  0  0  0
  152.5312  139.5146  156.3534 O   0  0  0  0  0  0  0  0  0  0  0  0
  151.0898  131.6574  155.6569 H   0  0  0  0  0  0  0  0  0  0  0  0
  148.4381  134.3882  153.8000 H   0  0  0  0  0  0  0  0  0  0  0  0
  148.4480  134.9586  155.4588 H   0  0  0  0  0  0  0  0  0  0  0  0
  150.0304  136.0102  153.2862 H   0  0  0  0  0  0  0  0  0  0  0  0
  152.4487  137.6526  154.8554 H   0  0  0  0  0  0  0  0  0  0  0  0
  151.4430  137.5886  153.4474 H   0  0  0  0  0  0  0  0  0  0  0  0
  149.3126  138.7245  153.5094 H   0  0  0  0  0  0  0  0  0  0  0  0
  148.3540  143.0102  154.2815 H   0  0  0  0  0  0  0  0  0  0  0  0
  146.5944  144.1836  153.3993 H   0  0  0  0  0  0  0  0  0  0  0  0
  145.5967  142.7484  153.6570 H   0  0  0  0  0  0  0  0  0  0  0  0
  146.4904  142.9497  152.1397 H   0  0  0  0  0  0  0  0  0  0  0  0
  149.3452  142.5252  155.5789 H   0  0  0  0  0  0  0  0  0  0  0  0
  151.3442  141.8507  156.7135 H   0  0  0  0  0  0  0  0  0  0  0  0
  1  2  3  0  0  0  0
  1 19  1  0  0  0  0
  2  3  1  0  0  0  0
  3  4  1  0  0  0  0
  3 20  1  0  0  0  0
  3 21  1  0  0  0  0
  4  5  1  0  0  0  0
  4 22  1  0  0  0  0
  5  6  2  0  0  0  0
  5  7  1  0  0  0  0
  7  8  1  0  0  0  0
  7 23  1  0  0  0  0
  7 24  1  0  0  0  0
  8 17  1  0  0  0  0
  8  9  1  0  0  0  0
  9 10  2  0  0  0  0
  9 25  1  0  0  0  0
 10 11  1  0  0  0  0
 10 15  1  0  0  0  0
 11 12  2  0  0  0  0
 11 13  1  0  0  0  0
 13 14  1  0  0  0  0
 13 26  1  0  0  0  0
 14 27  1  0  0  0  0
 14 28  1  0  0  0  0
 14 29  1  0  0  0  0
 15 16  2  0  0  0  0
 15 30  1  0  0  0  0
 16 17  1  0  0  0  0
 16 31  1  0  0  0  0
 17 18  2  0  0  0  0
M  END
> <s_m_source_file>
AV-unprocessed.smi

> <i_m_source_file_index>
1848

> <i_lp_mmshare_version>
43012

> <i_f3d_flags>
0

> <s_epik_input>
W0NIXSNDW0NIMl1bTkhdQyg9TylbQ0gyXW4xW2NIXWMoQyg9TylbTkhdW0NIM10pW2NIXVtjSF1jMT1P

> <s_epik_cmdline>
J2VwaWtfcHl0aG9uJywgJy1waCcsICc3LjAnLCAnLXRuJywgJzgnLCAnLW1hJywgJzIwMCcsICctbWV0YWxfYmluZGluZycsICctaW1hZScsICc8aW5maWxlLm1hZT4nLCAnLW9tYWUnLCAnPG91dGZpbGUubWFlPic=

> <r_lp_tautomer_probability>
1

> <r_epik_Ionization_Penalty>
5.04952e-07

> <r_epik_Ionization_Penalty_Charging>
3.86163e-08

> <r_epik_Ionization_Penalty_Neutral>
4.66336e-07

> <r_epik_State_Penalty>
-0

> <r_epik_Charging_Adjusted_Penalty>
3.86163e-08

> <i_epik_Tot_Q>
0

> <i_epik_Tot_abs_Q>
0

> <r_epik_Metal_State_Penalty>
-0

> <b_epik_Metal_Only>
0

> <s_lp_Force_Field>
OPLS_2005

> <r_lp_Energy>
14.316

> <b_lp_Chiralities_Consistent>
1

> <s_lp_Variant>
AV-unprocessed.smi:1848-1

> <Gold.Version>
5.8.1

> <Gold.Id.Protein>
6NUR|6NUR_protein|mol2

> <Gold.PLP.Fitness>
45.0575

> <Gold.PLP.PLP>
-37.1348

> <Gold.PLP.part.hbond>
-3.3285

> <Gold.PLP.part.metal>
0.0000

> <Gold.PLP.part.buried>
-4.0509

> <Gold.PLP.part.nonpolar>
-30.5627

> <Gold.PLP.part.repulsive>
0.3621

> <Gold.PLP.ligand.clash>
0.0000

> <Gold.PLP.ligand.torsion>
0.4404

> <Gold.PLP.Chemscore.Hbond>
2.9260

> <Gold.PLP.Chemscore.CHOScore>
0.0000

> <Gold.PLP.Chemscore.Metal>
0.0000

> <Gold.Chemscore.Hbonds>
donor molecule, donor type, donor heavy atom, donor atom, acceptor molecule, acceptor atom, score
      L1  H     4    22       P1  7948  0.28
      L1  H    13    26       P1  8028  0.52
      P1  H  7997  8010       L1    18  1.00
      L1  C     9    25       P1  7957  0.24

> <Gold.PLP.Chemscore.Internal.Correction>
0.0255

> <Gold.Rescore>
     Score         DG    S(hbond)    S(metal)    S(lipo)     H(rot)  DE(clash)    DE(int)     intcor
     14.38     -14.76       1.93        0.00      59.67       1.62       0.08       0.30       ----

> <Gold.Chemscore.Fitness>
14.3767

> <Gold.Chemscore.DG>
-14.7575

> <Gold.Chemscore.ZeroCoef>
-5.4800

> <Gold.Chemscore.Hbond>
1.9316

> <Gold.Chemscore.Metal>
0.0000

> <Gold.Chemscore.Lipo>
59.6725

> <Gold.Chemscore.Internal_Hbond>
0.0000

> <Gold.Chemscore.DEClash>
0.0785

> <Gold.Chemscore.DEInternal>
0.3023

> <Gold.Chemscore.Rot>
1.6233

> <Gold.Chemscore.Internal.Correction>
   9.000000E+99

> <Gold.Chemscore.Hbonds>
donor molecule, donor type, donor heavy atom, donor atom, acceptor molecule, acceptor atom, score
      L1  H     4    22       P1  7948  0.01
      L1  H    13    26       P1  8028  0.49
      P1  H  7997  8010       L1    18  0.99

> <Gold.Chemscore.Hbond.Weighted>
-6.4514

> <Gold.Chemscore.Metal.Weighted>
-0.0000

> <Gold.Chemscore.Lipo.Weighted>
-6.9817

> <Gold.Chemscore.Internal_Hbond.Weighted>
0.0000

> <Gold.Chemscore.DEClash.Weighted>
0.0785

> <Gold.Chemscore.DEInternal.Weighted>
0.3023

> <Gold.Chemscore.Rot.Weighted>
4.1557

> <Gold.Chemscore.Internal.Correction.Weighted>
   9.000000E+99

> <Gold.Protein.RotatedTorsions>
[ 6907 6896 6895 6894 ] final -174.95 input  -60.11 | X-H torsion
[ 7974 7965 7964 7962 ] final  133.94 input  175.53 | X-H torsion
[ 8008 7997 7996 7995 ] final   59.97 input   59.86 | X-H torsion
[ 10167 10162 10161 10158 ] final -162.23 input  -65.29 | X-H torsion
[ 10718 10713 10712 10709 ] final -153.15 input   66.30 | X-H torsion
[ 10763 10752 10751 10750 ] final   93.45 input  -60.55 | X-H torsion
[ 11005 11000 10999 10996 ] final -123.17 input  -57.11 | X-H torsion

> <Gold.Protein.ActiveResidues>
 VAL166  LYS551  ARG553  GLY616  TRP617  ASP618  TYR619  PRO620  LYS621  CYS622 
 ASP623  PHE694  ASN695  SER759  ASP760  ASP761  ALA762  ILE779  LEU786  VAL792 
 PHE793  MET794  SER795  GLU796  ALA797  LYS798  CYS799  TRP800  GLU811  SER814 

> <Gold.Protein.RotatedAtoms>
  151.5806  133.3378  159.3007 H   0  0  0  0  0  0  0  0  0  0  0  0  # atno 6907 bound_to 6896
  150.8315  134.7574  159.6869 H   0  0  0  0  0  0  0  0  0  0  0  0  # atno 6908 bound_to 6896
  152.4398  134.5620  159.9948 H   0  0  0  0  0  0  0  0  0  0  0  0  # atno 6909 bound_to 6896
  144.9814  139.4501  143.5384 H   0  0  0  0  0  0  0  0  0  0  0  0  # atno 7974 bound_to 7965
  155.5748  140.3490  155.4525 H   0  0  0  0  0  0  0  0  0  0  0  0  # atno 8008 bound_to 7997
  156.0417  140.1297  157.0173 H   0  0  0  0  0  0  0  0  0  0  0  0  # atno 8009 bound_to 7997
  154.4395  140.1023  156.6232 H   0  0  0  0  0  0  0  0  0  0  0  0  # atno 8010 bound_to 7997
  139.6407  144.0265  152.2089 H   0  0  0  0  0  0  0  0  0  0  0  0  # atno 10167 bound_to 10162
  156.4820  130.8307  151.2534 H   0  0  0  0  0  0  0  0  0  0  0  0  # atno 10718 bound_to 10713
  153.2305  135.4325  155.0590 H   0  0  0  0  0  0  0  0  0  0  0  0  # atno 10763 bound_to 10752
  154.8294  135.3378  154.6794 H   0  0  0  0  0  0  0  0  0  0  0  0  # atno 10764 bound_to 10752
  153.7222  135.7016  153.5066 H   0  0  0  0  0  0  0  0  0  0  0  0  # atno 10765 bound_to 10752
  140.9939  134.0499  157.3621 H   0  0  0  0  0  0  0  0  0  0  0  0  # atno 11005 bound_to 11000
  146.3409  139.9089  142.8783 LP  0  0  0  0  0  0  0  0  0  0  0  0  # atno 17320 bound_to 7965
  145.2416  141.0011  143.3933 LP  0  0  0  0  0  0  0  0  0  0  0  0  # atno 17321 bound_to 7965
  139.9954  144.6332  150.7777 LP  0  0  0  0  0  0  0  0  0  0  0  0  # atno 17342 bound_to 10162
  140.7489  143.2930  151.3279 LP  0  0  0  0  0  0  0  0  0  0  0  0  # atno 17343 bound_to 10162
  157.7482  131.0042  150.3066 LP  0  0  0  0  0  0  0  0  0  0  0  0  # atno 17370 bound_to 10713
  156.3512  130.3831  149.7327 LP  0  0  0  0  0  0  0  0  0  0  0  0  # atno 17371 bound_to 10713
  139.9005  135.0163  156.7246 LP  0  0  0  0  0  0  0  0  0  0  0  0  # atno 17394 bound_to 11000
  140.6996  133.9318  155.8016 LP  0  0  0  0  0  0  0  0  0  0  0  0  # atno 17395 bound_to 11000

$$$$
