AV-unprocessed.smi:36|AV-procd|sdf|294|dock7
  -GOLD-   2262016 83D 1   1.00000     0.00000
 Structure written by MMmdl.
 64 67  0  0  0  0  0  0  0  0  1 V2000
  151.0152  130.4440  162.8343 C   0  0  0  0  0  0  0  0  0  0  0  0
  151.7094  129.1770  163.3608 C   0  0  0  0  0  0  0  0  0  0  0  0
  151.7198  129.1865  164.8984 C   0  0  0  0  0  0  0  0  0  0  0  0
  150.9705  127.9249  162.8561 C   0  0  0  0  0  0  0  0  0  0  0  0
  153.5096  129.1269  162.7230 Si  0  0  0  0  0  0  0  0  0  0  0  0
  154.4149  127.5978  163.4029 C   0  0  0  0  0  0  0  0  0  0  0  0
  153.5671  129.1024  160.8248 C   0  0  0  0  0  0  0  0  0  0  0  0
  154.2704  130.5481  163.2466 O   0  0  0  0  0  0  0  0  0  0  0  0
  155.4214  131.1182  162.6566 C   0  0  0  0  0  0  0  0  0  0  0  0
  155.6591  132.4949  163.2896 C   0  0  1  0  0  0  0  0  0  0  0  0
  154.5008  133.3106  163.1300 O   0  0  0  0  0  0  0  0  0  0  0  0
  154.3305  134.1365  164.2407 C   0  0  2  0  0  0  0  0  0  0  0  0
  154.2697  135.5567  163.7777 N   0  0  0  0  0  0  0  0  0  0  0  0
  153.8928  136.6153  164.5180 C   0  0  0  0  0  0  0  0  0  0  0  0
  153.9022  137.7865  163.8873 N   0  0  0  0  0  0  0  0  0  0  0  0
  154.3267  137.4395  162.6090 C   0  0  0  0  0  0  0  0  0  0  0  0
  154.5447  138.2837  161.4141 C   0  0  0  0  0  0  0  0  0  0  0  0
  154.3254  139.5583  161.5292 N   0  0  0  0  0  0  0  0  0  0  0  0
  154.5250  140.4022  160.4440 C   0  0  0  0  0  0  0  0  0  0  0  0
  155.2042  140.2104  159.4315 O   0  0  0  0  0  0  0  0  0  0  0  0
  153.7400  141.6717  160.5298 C   0  0  0  0  0  0  0  0  0  0  0  0
  153.4033  142.3795  159.3560 C   0  0  0  0  0  0  0  0  0  0  0  0
  152.6673  143.5776  159.4396 C   0  0  0  0  0  0  0  0  0  0  0  0
  152.2644  144.0713  160.6954 C   0  0  0  0  0  0  0  0  0  0  0  0
  152.5984  143.3675  161.8684 C   0  0  0  0  0  0  0  0  0  0  0  0
  153.3364  142.1704  161.7868 C   0  0  0  0  0  0  0  0  0  0  0  0
  154.9697  137.4897  160.3413 N   0  0  0  0  0  0  0  0  0  0  0  0
  155.1705  136.1015  160.3743 C   0  0  0  0  0  0  0  0  0  0  0  0
  154.9881  135.3464  161.4241 N   0  0  0  0  0  0  0  0  0  0  0  0
  154.5592  136.0836  162.5193 C   0  0  0  0  0  0  0  0  0  0  0  0
  155.5234  133.9029  165.1655 C   0  0  0  0  0  0  0  0  0  0  0  0
  155.8846  132.4773  164.8029 C   0  0  2  0  0  0  0  0  0  0  0  0
  157.2246  132.1924  165.1467 O   0  0  0  0  0  0  0  0  0  0  0  0
  149.9829  130.5027  163.1807 H   0  0  0  0  0  0  0  0  0  0  0  0
  150.9965  130.4631  161.7443 H   0  0  0  0  0  0  0  0  0  0  0  0
  151.5269  131.3460  163.1711 H   0  0  0  0  0  0  0  0  0  0  0  0
  152.2286  130.0688  165.2876 H   0  0  0  0  0  0  0  0  0  0  0  0
  152.2315  128.3096  165.2962 H   0  0  0  0  0  0  0  0  0  0  0  0
  150.7068  129.1882  165.3019 H   0  0  0  0  0  0  0  0  0  0  0  0
  149.9393  127.9021  163.2096 H   0  0  0  0  0  0  0  0  0  0  0  0
  151.4572  127.0123  163.2021 H   0  0  0  0  0  0  0  0  0  0  0  0
  150.9439  127.8873  161.7669 H   0  0  0  0  0  0  0  0  0  0  0  0
  153.9917  126.6766  163.0035 H   0  0  0  0  0  0  0  0  0  0  0  0
  154.3458  127.5357  164.4883 H   0  0  0  0  0  0  0  0  0  0  0  0
  155.4729  127.6044  163.1427 H   0  0  0  0  0  0  0  0  0  0  0  0
  153.0591  128.2277  160.4195 H   0  0  0  0  0  0  0  0  0  0  0  0
  154.5930  129.0812  160.4580 H   0  0  0  0  0  0  0  0  0  0  0  0
  153.0896  129.9839  160.3978 H   0  0  0  0  0  0  0  0  0  0  0  0
  156.2921  130.4706  162.7631 H   0  0  0  0  0  0  0  0  0  0  0  0
  155.2278  131.2244  161.5890 H   0  0  0  0  0  0  0  0  0  0  0  0
  156.5035  132.9880  162.8053 H   0  0  0  0  0  0  0  0  0  0  0  0
  153.3670  133.9365  164.7119 H   0  0  0  0  0  0  0  0  0  0  0  0
  153.5999  136.5241  165.5536 H   0  0  0  0  0  0  0  0  0  0  0  0
  153.7094  142.0081  158.3885 H   0  0  0  0  0  0  0  0  0  0  0  0
  152.4119  144.1181  158.5402 H   0  0  0  0  0  0  0  0  0  0  0  0
  151.6993  144.9895  160.7583 H   0  0  0  0  0  0  0  0  0  0  0  0
  152.2898  143.7464  162.8316 H   0  0  0  0  0  0  0  0  0  0  0  0
  153.5896  141.6373  162.6918 H   0  0  0  0  0  0  0  0  0  0  0  0
  155.5026  135.6781  159.4252 H   0  0  0  0  0  0  0  0  0  0  0  0
  156.3320  134.5905  164.9100 H   0  0  0  0  0  0  0  0  0  0  0  0
  155.2498  134.0414  166.2118 H   0  0  0  0  0  0  0  0  0  0  0  0
  155.2069  131.7754  165.2913 H   0  0  0  0  0  0  0  0  0  0  0  0
  157.6687  131.8675  164.3782 H   0  0  0  0  0  0  0  0  0  0  0  0
  155.1472  137.9605  159.4655 H   0  0  0  0  0  0  0  0  0  0  0  0
  1  2  1  0  0  0  0
  1 34  1  0  0  0  0
  1 35  1  0  0  0  0
  1 36  1  0  0  0  0
  2  3  1  0  0  0  0
  2  4  1  0  0  0  0
  2  5  1  0  0  0  0
  3 37  1  0  0  0  0
  3 38  1  0  0  0  0
  3 39  1  0  0  0  0
  4 40  1  0  0  0  0
  4 41  1  0  0  0  0
  4 42  1  0  0  0  0
  5  6  1  0  0  0  0
  5  7  1  0  0  0  0
  5  8  1  0  0  0  0
  6 43  1  0  0  0  0
  6 44  1  0  0  0  0
  6 45  1  0  0  0  0
  7 46  1  0  0  0  0
  7 47  1  0  0  0  0
  7 48  1  0  0  0  0
  8  9  1  0  0  0  0
  9 10  1  0  0  0  0
  9 49  1  0  0  0  0
  9 50  1  0  0  0  0
 10 32  1  0  0  0  0
 10 11  1  0  0  0  0
 10 51  1  0  0  0  0
 11 12  1  0  0  0  0
 12 13  1  0  0  0  0
 12 31  1  0  0  0  0
 12 52  1  0  0  0  0
 13 30  1  0  0  0  0
 13 14  1  0  0  0  0
 14 15  2  0  0  0  0
 14 53  1  0  0  0  0
 15 16  1  0  0  0  0
 16 30  2  0  0  0  0
 16 17  1  0  0  0  0
 17 18  2  0  0  0  0
 17 27  1  0  0  0  0
 18 19  1  0  0  0  0
 19 20  2  0  0  0  0
 19 21  1  0  0  0  0
 21 26  1  0  0  0  0
 21 22  2  0  0  0  0
 22 23  1  0  0  0  0
 22 54  1  0  0  0  0
 23 24  2  0  0  0  0
 23 55  1  0  0  0  0
 24 25  1  0  0  0  0
 24 56  1  0  0  0  0
 25 26  2  0  0  0  0
 25 57  1  0  0  0  0
 26 58  1  0  0  0  0
 27 28  1  0  0  0  0
 27 64  1  0  0  0  0
 28 29  2  0  0  0  0
 28 59  1  0  0  0  0
 29 30  1  0  0  0  0
 31 32  1  0  0  0  0
 31 60  1  0  0  0  0
 31 61  1  0  0  0  0
 32 33  1  0  0  0  0
 32 62  1  0  0  0  0
 33 63  1  0  0  0  0
M  END
> <s_m_source_file>
AV-unprocessed.smi

> <i_m_source_file_index>
36

> <i_lp_mmshare_version>
43012

> <i_f3d_flags>
0

> <s_epik_input>
W0NIM11DKFtDSDNdKShbQ0gzXSlbU2ldKFtDSDNdKShbQ0gzXSlPW0NIMl1bQ0BASF0xT1tDQEhdKFtDSDJdW0NASF0xW09IXSluKFtjSF1uMiljKGMyMyluW2NIXW5jM1tOSF1DKD1PKWM0W2NIXVtjSF1bY0hdW2NIXVtjSF00

> <s_epik_cmdline>
J2VwaWtfcHl0aG9uJywgJy1waCcsICc3LjAnLCAnLXRuJywgJzgnLCAnLW1hJywgJzIwMCcsICctbWV0YWxfYmluZGluZycsICctaW1hZScsICc8aW5maWxlLm1hZT4nLCAnLW9tYWUnLCAnPG91dGZpbGUubWFlPic=

> <r_epik_Ionization_Penalty>
0.0850405

> <r_epik_Ionization_Penalty_Charging>
0.0850403

> <r_epik_Ionization_Penalty_Neutral>
1.47497e-07

> <r_epik_State_Penalty>
2.6133

> <r_epik_Charging_Adjusted_Penalty>
2.69834

> <i_epik_Tot_Q>
0

> <i_epik_Tot_abs_Q>
0

> <r_epik_Metal_State_Penalty>
2.92945

> <b_epik_Metal_Only>
0

> <s_epik_Chemistry_Notes>
This compound contains an acetal/aminal-like group ( X-CH(R)-Y where X, Y are N, S, or O) that may be acid/base labile, releasing an aldehyde.

> <s_lp_Force_Field>
OPLS_2005

> <r_lp_Energy>
45.0835

> <b_lp_Chiralities_Consistent>
1

> <s_lp_Variant>
AV-unprocessed.smi:36-16

> <Gold.Version>
5.8.1

> <Gold.Id.Protein>
6NUR|6NUR_protein|mol2

> <Gold.PLP.Fitness>
52.5154

> <Gold.PLP.PLP>
-51.5199

> <Gold.PLP.part.hbond>
-1.0000

> <Gold.PLP.part.metal>
0.0000

> <Gold.PLP.part.buried>
-2.5535

> <Gold.PLP.part.nonpolar>
-47.5138

> <Gold.PLP.part.repulsive>
0.0633

> <Gold.PLP.ligand.clash>
0.0000

> <Gold.PLP.ligand.torsion>
0.9733

> <Gold.PLP.Chemscore.Hbond>
0.8800

> <Gold.PLP.Chemscore.CHOScore>
0.0000

> <Gold.PLP.Chemscore.Metal>
0.0000

> <Gold.Chemscore.Hbonds>
donor molecule, donor type, donor heavy atom, donor atom, acceptor molecule, acceptor atom, score
      P1  H  7997  8008       L1    20  0.86

> <Gold.PLP.Chemscore.Internal.Correction>
0.3022

> <Gold.Rescore>
     Score         DG    S(hbond)    S(metal)    S(lipo)     H(rot)  DE(clash)    DE(int)     intcor
     11.95     -16.15       0.96        0.00     122.94       2.70       1.50       2.70       ----

> <Gold.Chemscore.Fitness>
11.9536

> <Gold.Chemscore.DG>
-16.1512

> <Gold.Chemscore.ZeroCoef>
-5.4800

> <Gold.Chemscore.Hbond>
0.9609

> <Gold.Chemscore.Metal>
0.0000

> <Gold.Chemscore.Lipo>
122.9414

> <Gold.Chemscore.Internal_Hbond>
0.0000

> <Gold.Chemscore.DEClash>
1.4987

> <Gold.Chemscore.DEInternal>
2.6988

> <Gold.Chemscore.Rot>
2.7041

> <Gold.Chemscore.Internal.Correction>
   9.000000E+99

> <Gold.Chemscore.Hbonds>
donor molecule, donor type, donor heavy atom, donor atom, acceptor molecule, acceptor atom, score
      P1  H  7997  8008       L1    20  0.79

> <Gold.Chemscore.Hbond.Weighted>
-3.2095

> <Gold.Chemscore.Metal.Weighted>
-0.0000

> <Gold.Chemscore.Lipo.Weighted>
-14.3841

> <Gold.Chemscore.Internal_Hbond.Weighted>
0.0000

> <Gold.Chemscore.DEClash.Weighted>
1.4987

> <Gold.Chemscore.DEInternal.Weighted>
2.6988

> <Gold.Chemscore.Rot.Weighted>
6.9225

> <Gold.Chemscore.Internal.Correction.Weighted>
   9.000000E+99

> <Gold.Protein.RotatedTorsions>
[ 6907 6896 6895 6894 ] final   24.16 input  -60.11 | X-H torsion
[ 7974 7965 7964 7962 ] final   28.49 input  175.53 | X-H torsion
[ 8008 7997 7996 7995 ] final -134.25 input   59.86 | X-H torsion
[ 10167 10162 10161 10158 ] final -112.83 input  -65.29 | X-H torsion
[ 10718 10713 10712 10709 ] final   40.23 input   66.30 | X-H torsion
[ 10763 10752 10751 10750 ] final   67.74 input  -60.55 | X-H torsion
[ 11005 11000 10999 10996 ] final  -69.11 input  -57.11 | X-H torsion

> <Gold.Protein.ActiveResidues>
 VAL166  LYS551  ARG553  GLY616  TRP617  ASP618  TYR619  PRO620  LYS621  CYS622 
 ASP623  PHE694  ASN695  SER759  ASP760  ASP761  ALA762  ILE779  LEU786  VAL792 
 PHE793  MET794  SER795  GLU796  ALA797  LYS798  CYS799  TRP800  GLU811  SER814 

> <Gold.Protein.RotatedAtoms>
  151.9534  135.0158  160.0543 H   0  0  0  0  0  0  0  0  0  0  0  0  # atno 6907 bound_to 6896
  152.1933  133.4784  159.5028 H   0  0  0  0  0  0  0  0  0  0  0  0  # atno 6908 bound_to 6896
  150.6939  134.1601  159.4216 H   0  0  0  0  0  0  0  0  0  0  0  0  # atno 6909 bound_to 6896
  146.1726  139.7049  142.8957 H   0  0  0  0  0  0  0  0  0  0  0  0  # atno 7974 bound_to 7965
  155.3589  140.0481  157.3046 H   0  0  0  0  0  0  0  0  0  0  0  0  # atno 8008 bound_to 7997
  154.5188  140.2218  155.8978 H   0  0  0  0  0  0  0  0  0  0  0  0  # atno 8009 bound_to 7997
  156.1666  140.3105  155.8906 H   0  0  0  0  0  0  0  0  0  0  0  0  # atno 8010 bound_to 7997
  140.1185  143.4464  152.1706 H   0  0  0  0  0  0  0  0  0  0  0  0  # atno 10167 bound_to 10162
  157.3798  130.7747  149.7184 H   0  0  0  0  0  0  0  0  0  0  0  0  # atno 10718 bound_to 10713
  153.0201  135.5273  154.7026 H   0  0  0  0  0  0  0  0  0  0  0  0  # atno 10763 bound_to 10752
  154.6131  135.2880  155.0412 H   0  0  0  0  0  0  0  0  0  0  0  0  # atno 10764 bound_to 10752
  154.1427  135.6575  153.4998 H   0  0  0  0  0  0  0  0  0  0  0  0  # atno 10765 bound_to 10752
  141.1547  133.6756  156.6549 H   0  0  0  0  0  0  0  0  0  0  0  0  # atno 11005 bound_to 11000
  145.4299  141.0414  143.2916 LP  0  0  0  0  0  0  0  0  0  0  0  0  # atno 17320 bound_to 7965
  144.8186  139.5832  143.6997 LP  0  0  0  0  0  0  0  0  0  0  0  0  # atno 17321 bound_to 7965
  139.5581  144.7387  151.4234 LP  0  0  0  0  0  0  0  0  0  0  0  0  # atno 17342 bound_to 10162
  140.6886  143.7916  150.7221 LP  0  0  0  0  0  0  0  0  0  0  0  0  # atno 17343 bound_to 10162
  155.9773  130.4064  150.3720 LP  0  0  0  0  0  0  0  0  0  0  0  0  # atno 17370 bound_to 10713
  157.1822  131.0395  151.2742 LP  0  0  0  0  0  0  0  0  0  0  0  0  # atno 17371 bound_to 10713
  140.3292  134.7943  157.4313 LP  0  0  0  0  0  0  0  0  0  0  0  0  # atno 17394 bound_to 11000
  140.1031  134.5445  155.8334 LP  0  0  0  0  0  0  0  0  0  0  0  0  # atno 17395 bound_to 11000

$$$$
