AV-unprocessed.smi:3025|AV-procd|sdf|11506|dock1
  -GOLD-   2272016443D 1   1.00000     0.00000
 Structure written by MMmdl.
 42 43  0  0  0  0  0  0  0  0  2 V2000
  153.3670  142.5738  159.9682 C   0  0  0  0  0  0  0  0  0  0  0  0
  152.7610  143.6982  159.1216 C   0  0  0  0  0  0  0  0  0  0  0  0
  151.2312  143.5873  159.0053 C   0  0  0  0  0  0  0  0  0  0  0  0
  150.7452  142.3736  158.1861 C   0  0  2  0  0  0  0  0  0  0  0  0
  151.1653  142.4509  156.7023 C   0  0  0  0  0  0  0  0  0  0  0  0
  150.6504  141.2444  155.8984 C   0  0  0  0  0  0  0  0  0  0  0  0
  149.1205  141.0736  156.0086 C   0  0  2  0  0  0  0  0  0  0  0  0
  148.3789  142.1430  155.2997 N   0  3  0  0  0  0  0  0  0  0  0  0
  146.9061  142.0262  155.3351 C   0  0  0  0  0  0  0  0  0  0  0  0
  146.3050  142.2353  153.9390 C   0  0  0  0  0  0  0  0  0  0  0  0
  145.4149  143.4330  153.8758 C   0  0  0  0  0  0  0  0  0  0  0  0
  144.4765  143.6782  154.7926 N   0  0  0  0  0  0  0  0  0  0  0  0
  143.8241  144.8141  154.4684 N   0  0  0  0  0  0  0  0  0  0  0  0
  144.4375  145.1776  153.3436 C   0  0  0  0  0  0  0  0  0  0  0  0
  145.4413  144.3528  152.9177 N   0  0  0  0  0  0  0  0  0  0  0  0
  148.6961  141.0176  157.4878 C   0  0  0  0  0  0  0  0  0  0  0  0
  149.2142  142.2238  158.2910 C   0  0  0  0  0  0  0  0  0  0  0  0
  144.2563  143.1321  155.6135 H   0  0  0  0  0  0  0  0  0  0  0  0
  154.4497  142.6815  160.0388 H   0  0  0  0  0  0  0  0  0  0  0  0
  153.1586  141.5961  159.5334 H   0  0  0  0  0  0  0  0  0  0  0  0
  152.9654  142.5837  160.9817 H   0  0  0  0  0  0  0  0  0  0  0  0
  153.0372  144.6548  159.5640 H   0  0  0  0  0  0  0  0  0  0  0  0
  153.2073  143.6760  158.1267 H   0  0  0  0  0  0  0  0  0  0  0  0
  150.8191  143.5180  160.0129 H   0  0  0  0  0  0  0  0  0  0  0  0
  150.8272  144.5065  158.5787 H   0  0  0  0  0  0  0  0  0  0  0  0
  151.1925  141.4778  158.6198 H   0  0  0  0  0  0  0  0  0  0  0  0
  150.7937  143.3753  156.2585 H   0  0  0  0  0  0  0  0  0  0  0  0
  152.2511  142.4865  156.6170 H   0  0  0  0  0  0  0  0  0  0  0  0
  150.9656  141.3248  154.8584 H   0  0  0  0  0  0  0  0  0  0  0  0
  151.1318  140.3426  156.2795 H   0  0  0  0  0  0  0  0  0  0  0  0
  148.8396  140.1244  155.5496 H   0  0  0  0  0  0  0  0  0  0  0  0
  148.6207  143.0203  155.7379 H   0  0  0  0  0  0  0  0  0  0  0  0
  146.6232  141.0430  155.7110 H   0  0  0  0  0  0  0  0  0  0  0  0
  146.4994  142.7670  156.0250 H   0  0  0  0  0  0  0  0  0  0  0  0
  147.1003  142.3456  153.2003 H   0  0  0  0  0  0  0  0  0  0  0  0
  145.7256  141.3594  153.6439 H   0  0  0  0  0  0  0  0  0  0  0  0
  144.1506  146.0703  152.8074 H   0  0  0  0  0  0  0  0  0  0  0  0
  147.6102  140.9539  157.5680 H   0  0  0  0  0  0  0  0  0  0  0  0
  149.0844  140.1020  157.9361 H   0  0  0  0  0  0  0  0  0  0  0  0
  148.9234  142.1093  159.3361 H   0  0  0  0  0  0  0  0  0  0  0  0
  148.7295  143.1355  157.9392 H   0  0  0  0  0  0  0  0  0  0  0  0
  148.6881  142.1710  154.3385 H   0  0  0  0  0  0  0  0  0  0  0  0
  1  2  1  0  0  0  0
  1 19  1  0  0  0  0
  1 20  1  0  0  0  0
  1 21  1  0  0  0  0
  2  3  1  0  0  0  0
  2 22  1  0  0  0  0
  2 23  1  0  0  0  0
  3  4  1  0  0  0  0
  3 24  1  0  0  0  0
  3 25  1  0  0  0  0
  4 17  1  0  0  0  0
  4  5  1  0  0  0  0
  4 26  1  0  0  0  0
  5  6  1  0  0  0  0
  5 27  1  0  0  0  0
  5 28  1  0  0  0  0
  6  7  1  0  0  0  0
  6 29  1  0  0  0  0
  6 30  1  0  0  0  0
  7  8  1  0  0  0  0
  7 16  1  0  0  0  0
  7 31  1  0  0  0  0
  8  9  1  0  0  0  0
  8 32  1  0  0  0  0
  8 42  1  0  0  0  0
  9 10  1  0  0  0  0
  9 33  1  0  0  0  0
  9 34  1  0  0  0  0
 10 35  1  0  0  0  0
 10 36  1  0  0  0  0
 10 11  1  0  0  0  0
 11 15  2  0  0  0  0
 11 12  1  0  0  0  0
 12 18  1  0  0  0  0
 12 13  1  0  0  0  0
 13 14  2  0  0  0  0
 14 15  1  0  0  0  0
 14 37  1  0  0  0  0
 16 17  1  0  0  0  0
 16 38  1  0  0  0  0
 16 39  1  0  0  0  0
 17 40  1  0  0  0  0
 17 41  1  0  0  0  0
M  CHG  1   8   1
M  END
> <s_m_source_file>
AV-unprocessed.smi

> <i_m_source_file_index>
3025

> <i_lp_mmshare_version>
43012

> <i_f3d_flags>
0

> <s_epik_input>
W0NIM11bQ0gyXVtDSDJdW0NAQEhdMVtDSDJdW0NIMl1bQ0BIXShbQ0gyXVtDSDJdMSlbTkhdW0NIMl1bQ0gyXWMybm5bY0hdW25IXTI=

> <s_epik_cmdline>
J2VwaWtfcHl0aG9uJywgJy1waCcsICc3LjAnLCAnLXRuJywgJzgnLCAnLW1hJywgJzIwMCcsICctbWV0YWxfYmluZGluZycsICctaW1hZScsICc8aW5maWxlLm1hZT4nLCAnLW9tYWUnLCAnPG91dGZpbGUubWFlPic=

> <r_lp_tautomer_probability>
0.948284

> <r_epik_Ionization_Penalty>
0.0093758

> <r_epik_Ionization_Penalty_Charging>
0.000546397

> <r_epik_Ionization_Penalty_Neutral>
0.00882941

> <r_epik_State_Penalty>
0.401098

> <r_epik_Charging_Adjusted_Penalty>
0.401645

> <i_epik_Tot_Q>
1

> <i_epik_Tot_abs_Q>
1

> <r_epik_Metal_State_Penalty>
0.634803

> <b_epik_Metal_Only>
0

> <s_lp_Force_Field>
OPLS_2005

> <r_lp_Energy>
16.9982

> <b_lp_Chiralities_Consistent>
1

> <s_lp_Variant>
AV-unprocessed.smi:3025-2

> <Gold.Version>
5.8.1

> <Gold.Id.Protein>
6NUR|6NUR_protein|mol2

> <Gold.PLP.Fitness>
40.7114

> <Gold.PLP.PLP>
-36.3113

> <Gold.PLP.part.hbond>
-2.0000

> <Gold.PLP.part.metal>
0.0000

> <Gold.PLP.part.buried>
-5.3401

> <Gold.PLP.part.nonpolar>
-29.9340

> <Gold.PLP.part.repulsive>
0.4686

> <Gold.PLP.ligand.clash>
0.0000

> <Gold.PLP.ligand.torsion>
0.8992

> <Gold.PLP.Chemscore.Hbond>
2.0000

> <Gold.PLP.Chemscore.CHOScore>
0.0000

> <Gold.PLP.Chemscore.Metal>
0.0000

> <Gold.Chemscore.Hbonds>
donor molecule, donor type, donor heavy atom, donor atom, acceptor molecule, acceptor atom, score
      L1  H     8    32       P1  8028  2.00

> <Gold.PLP.Chemscore.Internal.Correction>
0.1985

> <Gold.Rescore>
     Score         DG    S(hbond)    S(metal)    S(lipo)     H(rot)  DE(clash)    DE(int)     intcor
     10.83     -11.64       1.00        0.00      80.14       2.56       0.01       0.80       ----

> <Gold.Chemscore.Fitness>
10.8307

> <Gold.Chemscore.DG>
-11.6385

> <Gold.Chemscore.ZeroCoef>
-5.4800

> <Gold.Chemscore.Hbond>
0.9990

> <Gold.Chemscore.Metal>
0.0000

> <Gold.Chemscore.Lipo>
80.1378

> <Gold.Chemscore.Internal_Hbond>
0.0000

> <Gold.Chemscore.DEClash>
0.0112

> <Gold.Chemscore.DEInternal>
0.7966

> <Gold.Chemscore.Rot>
2.5602

> <Gold.Chemscore.Internal.Correction>
   9.000000E+99

> <Gold.Chemscore.Hbonds>
donor molecule, donor type, donor heavy atom, donor atom, acceptor molecule, acceptor atom, score
      L1  H     8    32       P1  8028  0.94

> <Gold.Chemscore.Hbond.Weighted>
-3.3366

> <Gold.Chemscore.Metal.Weighted>
-0.0000

> <Gold.Chemscore.Lipo.Weighted>
-9.3761

> <Gold.Chemscore.Internal_Hbond.Weighted>
0.0000

> <Gold.Chemscore.DEClash.Weighted>
0.0112

> <Gold.Chemscore.DEInternal.Weighted>
0.7966

> <Gold.Chemscore.Rot.Weighted>
6.5542

> <Gold.Chemscore.Internal.Correction.Weighted>
   9.000000E+99

> <Gold.Protein.RotatedTorsions>
[ 6907 6896 6895 6894 ] final -148.41 input  -60.11 | X-H torsion
[ 7974 7965 7964 7962 ] final  142.73 input  175.53 | X-H torsion
[ 8008 7997 7996 7995 ] final   18.36 input   59.86 | X-H torsion
[ 10167 10162 10161 10158 ] final  -15.58 input  -65.29 | X-H torsion
[ 10718 10713 10712 10709 ] final   -7.92 input   66.30 | X-H torsion
[ 10763 10752 10751 10750 ] final  130.82 input  -60.55 | X-H torsion
[ 11005 11000 10999 10996 ] final   11.41 input  -57.11 | X-H torsion

> <Gold.Protein.ActiveResidues>
 VAL166  LYS551  ARG553  GLY616  TRP617  ASP618  TYR619  PRO620  LYS621  CYS622 
 ASP623  PHE694  ASN695  SER759  ASP760  ASP761  ALA762  ILE779  LEU786  VAL792 
 PHE793  MET794  SER795  GLU796  ALA797  LYS798  CYS799  TRP800  GLU811  SER814 

> <Gold.Protein.RotatedAtoms>
  151.1695  133.4793  159.2593 H   0  0  0  0  0  0  0  0  0  0  0  0  # atno 6907 bound_to 6896
  151.1371  135.0160  159.8619 H   0  0  0  0  0  0  0  0  0  0  0  0  # atno 6908 bound_to 6896
  152.5461  134.1592  159.8604 H   0  0  0  0  0  0  0  0  0  0  0  0  # atno 6909 bound_to 6896
  144.8982  139.5461  143.5766 H   0  0  0  0  0  0  0  0  0  0  0  0  # atno 7974 bound_to 7965
  154.9049  140.3006  155.5297 H   0  0  0  0  0  0  0  0  0  0  0  0  # atno 8008 bound_to 7997
  156.3017  140.2400  156.4016 H   0  0  0  0  0  0  0  0  0  0  0  0  # atno 8009 bound_to 7997
  154.8484  140.0410  157.1576 H   0  0  0  0  0  0  0  0  0  0  0  0  # atno 8010 bound_to 7997
  140.7220  143.5204  150.9641 H   0  0  0  0  0  0  0  0  0  0  0  0  # atno 10167 bound_to 10162
  156.7102  130.5120  149.5894 H   0  0  0  0  0  0  0  0  0  0  0  0  # atno 10718 bound_to 10713
  153.7642  135.3191  155.3342 H   0  0  0  0  0  0  0  0  0  0  0  0  # atno 10763 bound_to 10752
  154.8219  135.4597  154.0807 H   0  0  0  0  0  0  0  0  0  0  0  0  # atno 10764 bound_to 10752
  153.2048  135.6927  153.8271 H   0  0  0  0  0  0  0  0  0  0  0  0  # atno 10765 bound_to 10752
  140.5035  134.0722  155.7799 H   0  0  0  0  0  0  0  0  0  0  0  0  # atno 11005 bound_to 11000
  146.3093  139.7690  142.9032 LP  0  0  0  0  0  0  0  0  0  0  0  0  # atno 17320 bound_to 7965
  145.3663  141.0335  143.3256 LP  0  0  0  0  0  0  0  0  0  0  0  0  # atno 17321 bound_to 7965
  139.8921  143.6940  152.3144 LP  0  0  0  0  0  0  0  0  0  0  0  0  # atno 17342 bound_to 10162
  139.7260  144.7593  151.0878 LP  0  0  0  0  0  0  0  0  0  0  0  0  # atno 17343 bound_to 10162
  156.1666  130.6409  151.0786 LP  0  0  0  0  0  0  0  0  0  0  0  0  # atno 17370 bound_to 10713
  157.6939  131.0801  150.7027 LP  0  0  0  0  0  0  0  0  0  0  0  0  # atno 17371 bound_to 10713
  141.1423  133.9116  157.2297 LP  0  0  0  0  0  0  0  0  0  0  0  0  # atno 17394 bound_to 11000
  139.9699  135.0131  156.9486 LP  0  0  0  0  0  0  0  0  0  0  0  0  # atno 17395 bound_to 11000

$$$$
