AV-unprocessed.smi:24|AV-procd|sdf|176|dock4
  -GOLD-   2262015433D 1   1.00000     0.00000
 Structure written by MMmdl.
 61 65  0  0  0  0  0  0  0  0  1 V2000
  138.0866  140.3616  153.3862 C   0  0  0  0  0  0  0  0  0  0  0  0
  139.3542  140.0556  152.8238 O   0  0  0  0  0  0  0  0  0  0  0  0
  139.9086  138.8256  153.1058 C   0  0  0  0  0  0  0  0  0  0  0  0
  141.2962  138.6851  152.9009 C   0  0  0  0  0  0  0  0  0  0  0  0
  141.9450  137.4637  153.1643 C   0  0  0  0  0  0  0  0  0  0  0  0
  141.2120  136.3554  153.6343 C   0  0  0  0  0  0  0  0  0  0  0  0
  141.9342  135.0409  153.9246 C   0  0  1  0  0  0  0  0  0  0  0  0
  142.1147  134.1943  152.6616 C   0  0  0  0  0  0  0  0  0  0  0  0
  143.5980  134.0431  152.6097 C   0  0  0  0  0  0  0  0  0  0  0  0
  144.2664  133.3065  151.5138 C   0  0  0  0  0  0  0  0  0  0  0  0
  145.6771  133.3222  151.4254 C   0  0  0  0  0  0  0  0  0  0  0  0
  146.3140  132.6218  150.3822 C   0  0  0  0  0  0  0  0  0  0  0  0
  145.5486  131.9117  149.4362 C   0  0  0  0  0  0  0  0  0  0  0  0
  144.1426  131.8982  149.5290 C   0  0  0  0  0  0  0  0  0  0  0  0
  143.4942  132.5949  150.5677 C   0  0  0  0  0  0  0  0  0  0  0  0
  144.2104  134.6056  153.5850 N   0  0  0  0  0  0  0  0  0  0  0  0
  143.3108  135.1926  154.4140 N   0  0  0  0  0  0  0  0  0  0  0  0
  143.6484  135.7561  155.5951 C   0  0  0  0  0  0  0  0  0  0  0  0
  142.7984  136.1859  156.3774 O   0  0  0  0  0  0  0  0  0  0  0  0
  145.1458  135.8491  155.9584 C   0  0  0  0  0  0  0  0  0  0  0  0
  145.3884  136.2749  157.3542 N   0  0  0  0  0  0  0  0  0  0  0  0
  144.8143  137.4899  157.8033 C   0  0  0  0  0  0  0  0  0  0  0  0
  144.1333  138.1905  157.0528 O   0  0  0  0  0  0  0  0  0  0  0  0
  145.0805  137.8352  159.1952 C   0  0  0  0  0  0  0  0  0  0  0  0
  144.5888  138.9782  159.7027 F   0  0  0  0  0  0  0  0  0  0  0  0
  145.8149  137.0246  159.9848 C   0  0  0  0  0  0  0  0  0  0  0  0
  146.3529  135.8305  159.5381 N   0  0  0  0  0  0  0  0  0  0  0  0
  147.1697  134.9270  160.4385 C   0  0  2  0  0  0  0  0  0  0  0  0
  146.2815  133.8304  161.0578 C   0  0  0  0  0  0  0  0  0  0  0  0
  146.5863  133.9474  162.5380 C   0  0  0  0  0  0  0  0  0  0  0  0
  146.9363  135.4218  162.6712 C   0  0  0  0  0  0  0  0  0  0  0  0
  147.7029  135.6675  161.4998 O   0  0  0  0  0  0  0  0  0  0  0  0
  146.1523  135.4341  158.1980 C   0  0  0  0  0  0  0  0  0  0  0  0
  146.6260  134.3750  157.7800 O   0  0  0  0  0  0  0  0  0  0  0  0
  139.8226  136.4899  153.8474 C   0  0  0  0  0  0  0  0  0  0  0  0
  139.1743  137.7118  153.5844 C   0  0  0  0  0  0  0  0  0  0  0  0
  137.7879  141.3631  153.0767 H   0  0  0  0  0  0  0  0  0  0  0  0
  138.1217  140.3503  154.4764 H   0  0  0  0  0  0  0  0  0  0  0  0
  137.3188  139.6673  153.0418 H   0  0  0  0  0  0  0  0  0  0  0  0
  141.8708  139.5247  152.5383 H   0  0  0  0  0  0  0  0  0  0  0  0
  143.0096  137.3810  153.0018 H   0  0  0  0  0  0  0  0  0  0  0  0
  141.3660  134.4744  154.6652 H   0  0  0  0  0  0  0  0  0  0  0  0
  141.6201  133.2269  152.7542 H   0  0  0  0  0  0  0  0  0  0  0  0
  141.7406  134.6956  151.7677 H   0  0  0  0  0  0  0  0  0  0  0  0
  146.2812  133.8616  152.1407 H   0  0  0  0  0  0  0  0  0  0  0  0
  147.3913  132.6295  150.3074 H   0  0  0  0  0  0  0  0  0  0  0  0
  146.0407  131.3762  148.6377 H   0  0  0  0  0  0  0  0  0  0  0  0
  143.5600  131.3521  148.8016 H   0  0  0  0  0  0  0  0  0  0  0  0
  142.4158  132.5684  150.6171 H   0  0  0  0  0  0  0  0  0  0  0  0
  145.6158  134.8841  155.7616 H   0  0  0  0  0  0  0  0  0  0  0  0
  145.6340  136.5303  155.2595 H   0  0  0  0  0  0  0  0  0  0  0  0
  145.9766  137.3406  161.0040 H   0  0  0  0  0  0  0  0  0  0  0  0
  147.9816  134.5471  159.8158 H   0  0  0  0  0  0  0  0  0  0  0  0
  145.2283  134.0436  160.8680 H   0  0  0  0  0  0  0  0  0  0  0  0
  146.5245  132.8509  160.6454 H   0  0  0  0  0  0  0  0  0  0  0  0
  145.7519  133.6469  163.1721 H   0  0  0  0  0  0  0  0  0  0  0  0
  147.4509  133.3333  162.7930 H   0  0  0  0  0  0  0  0  0  0  0  0
  146.0352  136.0367  162.6689 H   0  0  0  0  0  0  0  0  0  0  0  0
  147.5026  135.6420  163.5763 H   0  0  0  0  0  0  0  0  0  0  0  0
  139.2445  135.6557  154.2171 H   0  0  0  0  0  0  0  0  0  0  0  0
  138.1108  137.7685  153.7597 H   0  0  0  0  0  0  0  0  0  0  0  0
  1  2  1  0  0  0  0
  1 37  1  0  0  0  0
  1 38  1  0  0  0  0
  1 39  1  0  0  0  0
  2  3  1  0  0  0  0
  3 36  1  0  0  0  0
  3  4  2  0  0  0  0
  4  5  1  0  0  0  0
  4 40  1  0  0  0  0
  5  6  2  0  0  0  0
  5 41  1  0  0  0  0
  6  7  1  0  0  0  0
  6 35  1  0  0  0  0
  7 17  1  0  0  0  0
  7  8  1  0  0  0  0
  7 42  1  0  0  0  0
  8  9  1  0  0  0  0
  8 43  1  0  0  0  0
  8 44  1  0  0  0  0
  9 10  1  0  0  0  0
  9 16  2  0  0  0  0
 10 15  1  0  0  0  0
 10 11  2  0  0  0  0
 11 12  1  0  0  0  0
 11 45  1  0  0  0  0
 12 13  2  0  0  0  0
 12 46  1  0  0  0  0
 13 14  1  0  0  0  0
 13 47  1  0  0  0  0
 14 15  2  0  0  0  0
 14 48  1  0  0  0  0
 15 49  1  0  0  0  0
 16 17  1  0  0  0  0
 17 18  1  0  0  0  0
 18 19  2  0  0  0  0
 18 20  1  0  0  0  0
 20 21  1  0  0  0  0
 20 50  1  0  0  0  0
 20 51  1  0  0  0  0
 21 33  1  0  0  0  0
 21 22  1  0  0  0  0
 22 23  2  0  0  0  0
 22 24  1  0  0  0  0
 24 25  1  0  0  0  0
 24 26  2  0  0  0  0
 26 27  1  0  0  0  0
 26 52  1  0  0  0  0
 27 28  1  0  0  0  0
 27 33  1  0  0  0  0
 28 32  1  0  0  0  0
 28 29  1  0  0  0  0
 28 53  1  0  0  0  0
 29 30  1  0  0  0  0
 29 54  1  0  0  0  0
 29 55  1  0  0  0  0
 30 31  1  0  0  0  0
 30 56  1  0  0  0  0
 30 57  1  0  0  0  0
 31 32  1  0  0  0  0
 31 58  1  0  0  0  0
 31 59  1  0  0  0  0
 33 34  2  0  0  0  0
 35 36  2  0  0  0  0
 35 60  1  0  0  0  0
 36 61  1  0  0  0  0
M  END
> <s_m_source_file>
AV-unprocessed.smi

> <i_m_source_file_index>
24

> <i_lp_mmshare_version>
43012

> <i_f3d_flags>
0

> <s_epik_input>
W0NIM11PYzFbY0hdW2NIXWMoW2NIXVtjSF0xKVtDQEBIXTJbQ0gyXUMoYzNbY0hdW2NIXVtjSF1bY0hdW2NIXTMpPU5OMkMoPU8pW0NIMl1uNGMoPU8pYyhGKVtjSF1uKGM0PU8pW0NAQEhdNVtDSDJdW0NIMl1bQ0gyXU81

> <s_epik_cmdline>
J2VwaWtfcHl0aG9uJywgJy1waCcsICc3LjAnLCAnLXRuJywgJzgnLCAnLW1hJywgJzIwMCcsICctbWV0YWxfYmluZGluZycsICctaW1hZScsICc8aW5maWxlLm1hZT4nLCAnLW9tYWUnLCAnPG91dGZpbGUubWFlPic=

> <r_lp_tautomer_probability>
1

> <r_epik_Ionization_Penalty>
1.46326e-08

> <r_epik_Ionization_Penalty_Charging>
4.53232e-09

> <r_epik_Ionization_Penalty_Neutral>
1.01002e-08

> <r_epik_State_Penalty>
-0

> <r_epik_Charging_Adjusted_Penalty>
4.53232e-09

> <i_epik_Tot_Q>
0

> <i_epik_Tot_abs_Q>
0

> <r_epik_Metal_State_Penalty>
-0

> <b_epik_Metal_Only>
0

> <s_epik_Chemistry_Notes>
This compound has an imine and may undergo hydrolysis. This compound contains an acetal/aminal-like group ( X-CH(R)-Y where X, Y are N, S, or O) that may be acid/base labile, releasing an aldehyde.

> <s_lp_Force_Field>
OPLS_2005

> <r_lp_Energy>
50.3667

> <b_lp_Chiralities_Consistent>
1

> <s_lp_Variant>
AV-unprocessed.smi:24-2

> <Gold.Version>
5.8.1

> <Gold.Id.Protein>
6NUR|6NUR_protein|mol2

> <Gold.PLP.Fitness>
54.4658

> <Gold.PLP.PLP>
-52.2853

> <Gold.PLP.part.hbond>
-2.0000

> <Gold.PLP.part.metal>
0.0000

> <Gold.PLP.part.buried>
0.5517

> <Gold.PLP.part.nonpolar>
-50.1594

> <Gold.PLP.part.repulsive>
1.3466

> <Gold.PLP.ligand.clash>
0.0000

> <Gold.PLP.ligand.torsion>
1.7581

> <Gold.PLP.Chemscore.Hbond>
1.8640

> <Gold.PLP.Chemscore.CHOScore>
0.0000

> <Gold.PLP.Chemscore.Metal>
0.0000

> <Gold.PLP.Chemscore.Internal.Correction>
0.1046

> <Gold.Rescore>
     Score         DG    S(hbond)    S(metal)    S(lipo)     H(rot)  DE(clash)    DE(int)     intcor
     13.85     -21.19       1.23        0.00     142.32       1.98       1.22       6.12       ----

> <Gold.Chemscore.Fitness>
13.8516

> <Gold.Chemscore.DG>
-21.1938

> <Gold.Chemscore.ZeroCoef>
-5.4800

> <Gold.Chemscore.Hbond>
1.2331

> <Gold.Chemscore.Metal>
0.0000

> <Gold.Chemscore.Lipo>
142.3191

> <Gold.Chemscore.Internal_Hbond>
0.0000

> <Gold.Chemscore.DEClash>
1.2179

> <Gold.Chemscore.DEInternal>
6.1242

> <Gold.Chemscore.Rot>
1.9750

> <Gold.Chemscore.Internal.Correction>
   9.000000E+99

> <Gold.Chemscore.Hbond.Weighted>
-4.1185

> <Gold.Chemscore.Metal.Weighted>
-0.0000

> <Gold.Chemscore.Lipo.Weighted>
-16.6513

> <Gold.Chemscore.Internal_Hbond.Weighted>
0.0000

> <Gold.Chemscore.DEClash.Weighted>
1.2179

> <Gold.Chemscore.DEInternal.Weighted>
6.1242

> <Gold.Chemscore.Rot.Weighted>
5.0561

> <Gold.Chemscore.Internal.Correction.Weighted>
   9.000000E+99

> <Gold.Protein.RotatedTorsions>
[ 6907 6896 6895 6894 ] final  127.36 input  -60.11 | X-H torsion
[ 7974 7965 7964 7962 ] final  143.13 input  175.53 | X-H torsion
[ 8008 7997 7996 7995 ] final  163.98 input   59.86 | X-H torsion
[ 10167 10162 10161 10158 ] final   72.66 input  -65.29 | X-H torsion
[ 10718 10713 10712 10709 ] final  113.77 input   66.30 | X-H torsion
[ 10763 10752 10751 10750 ] final  -96.62 input  -60.55 | X-H torsion
[ 11005 11000 10999 10996 ] final   54.46 input  -57.11 | X-H torsion

> <Gold.Protein.ActiveResidues>
 VAL166  LYS551  ARG553  GLY616  TRP617  ASP618  TYR619  PRO620  LYS621  CYS622 
 ASP623  PHE694  ASN695  SER759  ASP760  ASP761  ALA762  ILE779  LEU786  VAL792 
 PHE793  MET794  SER795  GLU796  ALA797  LYS798  CYS799  TRP800  GLU811  SER814 

> <Gold.Protein.RotatedAtoms>
  152.3820  133.6559  159.6168 H   0  0  0  0  0  0  0  0  0  0  0  0  # atno 6907 bound_to 6896
  150.7748  133.9098  159.3375 H   0  0  0  0  0  0  0  0  0  0  0  0  # atno 6908 bound_to 6896
  151.6902  135.0949  160.0283 H   0  0  0  0  0  0  0  0  0  0  0  0  # atno 6909 bound_to 6896
  144.8947  139.5507  143.5782 H   0  0  0  0  0  0  0  0  0  0  0  0  # atno 7974 bound_to 7965
  156.1915  140.1709  156.8082 H   0  0  0  0  0  0  0  0  0  0  0  0  # atno 8008 bound_to 7997
  154.5477  140.0724  156.8649 H   0  0  0  0  0  0  0  0  0  0  0  0  # atno 8009 bound_to 7997
  155.3089  140.3366  155.4247 H   0  0  0  0  0  0  0  0  0  0  0  0  # atno 8010 bound_to 7997
  140.0328  144.5452  150.7493 H   0  0  0  0  0  0  0  0  0  0  0  0  # atno 10167 bound_to 10162
  157.6320  131.0988  150.7088 H   0  0  0  0  0  0  0  0  0  0  0  0  # atno 10718 bound_to 10713
  154.7255  135.5077  153.8880 H   0  0  0  0  0  0  0  0  0  0  0  0  # atno 10763 bound_to 10752
  153.0901  135.6657  153.9879 H   0  0  0  0  0  0  0  0  0  0  0  0  # atno 10764 bound_to 10752
  153.9692  135.3040  155.3408 H   0  0  0  0  0  0  0  0  0  0  0  0  # atno 10765 bound_to 10752
  140.0684  134.5504  155.9073 H   0  0  0  0  0  0  0  0  0  0  0  0  # atno 11005 bound_to 11000
  146.3074  139.7628  142.9045 LP  0  0  0  0  0  0  0  0  0  0  0  0  # atno 17320 bound_to 7965
  145.3721  141.0344  143.3225 LP  0  0  0  0  0  0  0  0  0  0  0  0  # atno 17321 bound_to 7965
  140.7294  143.2672  151.4005 LP  0  0  0  0  0  0  0  0  0  0  0  0  # atno 17342 bound_to 10162
  139.6064  144.1187  152.2254 LP  0  0  0  0  0  0  0  0  0  0  0  0  # atno 17343 bound_to 10162
  156.7426  130.4744  149.5474 LP  0  0  0  0  0  0  0  0  0  0  0  0  # atno 17370 bound_to 10713
  156.1530  130.6322  151.0620 LP  0  0  0  0  0  0  0  0  0  0  0  0  # atno 17371 bound_to 10713
  141.2002  133.6611  156.5885 LP  0  0  0  0  0  0  0  0  0  0  0  0  # atno 17394 bound_to 11000
  140.3664  134.7644  157.4569 LP  0  0  0  0  0  0  0  0  0  0  0  0  # atno 17395 bound_to 11000

$$$$
