AV-unprocessed.smi:3219|AV-procd|sdf|12296|dock5
  -GOLD-   2272018133D 1   1.00000     0.00000
 Structure written by MMmdl.
 41 42  0  0  0  0  0  0  0  0  2 V2000
  152.1198  144.5518  161.0747 C   0  0  0  0  0  0  0  0  0  0  0  0
  152.6459  143.2091  160.6800 C   0  0  0  0  0  0  0  0  0  0  0  0
  152.7132  142.5956  159.4570 C   0  0  0  0  0  0  0  0  0  0  0  0
  152.2746  143.1050  158.1082 C   0  0  0  0  0  0  0  0  0  0  0  0
  150.7447  143.1848  157.9949 C   0  0  0  0  0  0  0  0  0  0  0  0
  150.3046  143.0798  156.5897 N   0  3  0  0  0  0  0  0  0  0  0  0
  149.9383  141.7152  156.1652 C   0  0  0  0  0  0  0  0  0  0  0  0
  149.0259  141.7427  154.9257 C   0  0  1  0  0  0  0  0  0  0  0  0
  148.8550  140.3361  154.3033 C   0  0  0  0  0  0  0  0  0  0  0  0
  147.7458  140.2844  153.2677 C   0  0  0  0  0  0  0  0  0  0  0  0
  146.8157  141.2439  153.1309 C   0  0  0  0  0  0  0  0  0  0  0  0
  146.7652  142.4852  154.0019 C   0  0  0  0  0  0  0  0  0  0  0  0
  147.6502  142.3534  155.2554 C   0  0  0  0  0  0  0  0  0  0  0  0
  153.3160  141.3383  159.7440 C   0  0  0  0  0  0  0  0  0  0  0  0
  153.6036  141.1874  161.0240 N   0  0  0  0  0  0  0  0  0  0  0  0
  153.1904  142.3342  161.6010 N   0  0  0  0  0  0  0  0  0  0  0  0
  153.3566  142.5111  163.0307 C   0  0  0  0  0  0  0  0  0  0  0  0
  151.8741  145.1551  160.2012 H   0  0  0  0  0  0  0  0  0  0  0  0
  152.8562  145.1021  161.6608 H   0  0  0  0  0  0  0  0  0  0  0  0
  151.2162  144.4501  161.6759 H   0  0  0  0  0  0  0  0  0  0  0  0
  152.6901  144.0969  157.9275 H   0  0  0  0  0  0  0  0  0  0  0  0
  152.6661  142.4784  157.3061 H   0  0  0  0  0  0  0  0  0  0  0  0
  150.2886  142.3847  158.5802 H   0  0  0  0  0  0  0  0  0  0  0  0
  150.3891  144.1285  158.4101 H   0  0  0  0  0  0  0  0  0  0  0  0
  149.5102  143.6878  156.4510 H   0  0  0  0  0  0  0  0  0  0  0  0
  150.8421  141.1410  155.9558 H   0  0  0  0  0  0  0  0  0  0  0  0
  149.4297  141.2203  156.9937 H   0  0  0  0  0  0  0  0  0  0  0  0
  149.4918  142.3891  154.1797 H   0  0  0  0  0  0  0  0  0  0  0  0
  149.7858  140.0179  153.8323 H   0  0  0  0  0  0  0  0  0  0  0  0
  148.6229  139.6005  155.0745 H   0  0  0  0  0  0  0  0  0  0  0  0
  147.7172  139.4150  152.6271 H   0  0  0  0  0  0  0  0  0  0  0  0
  146.0596  141.1549  152.3646 H   0  0  0  0  0  0  0  0  0  0  0  0
  147.0875  143.3347  153.3987 H   0  0  0  0  0  0  0  0  0  0  0  0
  145.7327  142.6777  154.2950 H   0  0  0  0  0  0  0  0  0  0  0  0
  147.1446  141.7238  155.9892 H   0  0  0  0  0  0  0  0  0  0  0  0
  147.7661  143.3330  155.7206 H   0  0  0  0  0  0  0  0  0  0  0  0
  153.5575  140.5374  159.0606 H   0  0  0  0  0  0  0  0  0  0  0  0
  152.3904  142.7238  163.4888 H   0  0  0  0  0  0  0  0  0  0  0  0
  154.0328  143.3451  163.2203 H   0  0  0  0  0  0  0  0  0  0  0  0
  153.7715  141.6103  163.4855 H   0  0  0  0  0  0  0  0  0  0  0  0
  151.0613  143.3990  156.0012 H   0  0  0  0  0  0  0  0  0  0  0  0
  1  2  1  0  0  0  0
  1 18  1  0  0  0  0
  1 19  1  0  0  0  0
  1 20  1  0  0  0  0
  2 16  1  0  0  0  0
  2  3  2  0  0  0  0
  3  4  1  0  0  0  0
  3 14  1  0  0  0  0
  4  5  1  0  0  0  0
  4 21  1  0  0  0  0
  4 22  1  0  0  0  0
  5  6  1  0  0  0  0
  5 23  1  0  0  0  0
  5 24  1  0  0  0  0
  6  7  1  0  0  0  0
  6 25  1  0  0  0  0
  6 41  1  0  0  0  0
  7  8  1  0  0  0  0
  7 26  1  0  0  0  0
  7 27  1  0  0  0  0
  8 13  1  0  0  0  0
  8  9  1  0  0  0  0
  8 28  1  0  0  0  0
  9 10  1  0  0  0  0
  9 29  1  0  0  0  0
  9 30  1  0  0  0  0
 10 11  2  0  0  0  0
 10 31  1  0  0  0  0
 11 12  1  0  0  0  0
 11 32  1  0  0  0  0
 12 13  1  0  0  0  0
 12 33  1  0  0  0  0
 12 34  1  0  0  0  0
 13 35  1  0  0  0  0
 13 36  1  0  0  0  0
 14 15  2  0  0  0  0
 14 37  1  0  0  0  0
 15 16  1  0  0  0  0
 16 17  1  0  0  0  0
 17 38  1  0  0  0  0
 17 39  1  0  0  0  0
 17 40  1  0  0  0  0
M  CHG  1   6   1
M  END
> <s_m_source_file>
AV-unprocessed.smi

> <i_m_source_file_index>
3219

> <i_lp_mmshare_version>
43012

> <i_f3d_flags>
0

> <s_epik_input>
W0NIM11uMW5bY0hdYyhjMVtDSDNdKVtDSDJdW0NIMl1bTkhdW0NIMl1bQ0BASF0yW0NIMl1bQ0hdPVtDSF1bQ0gyXVtDSDJdMg==

> <s_epik_cmdline>
J2VwaWtfcHl0aG9uJywgJy1waCcsICc3LjAnLCAnLXRuJywgJzgnLCAnLW1hJywgJzIwMCcsICctbWV0YWxfYmluZGluZycsICctaW1hZScsICc8aW5maWxlLm1hZT4nLCAnLW9tYWUnLCAnPG91dGZpbGUubWFlPic=

> <r_lp_tautomer_probability>
1

> <r_epik_Ionization_Penalty>
0.000661401

> <r_epik_Ionization_Penalty_Charging>
0.00057791

> <r_epik_Ionization_Penalty_Neutral>
8.34914e-05

> <r_epik_State_Penalty>
-0

> <r_epik_Charging_Adjusted_Penalty>
0.00057791

> <i_epik_Tot_Q>
1

> <i_epik_Tot_abs_Q>
1

> <r_epik_Metal_State_Penalty>
-0

> <b_epik_Metal_Only>
0

> <s_lp_Force_Field>
OPLS_2005

> <r_lp_Energy>
9.67125

> <b_lp_Chiralities_Consistent>
1

> <s_lp_Variant>
AV-unprocessed.smi:3219-2

> <Gold.Version>
5.8.1

> <Gold.Id.Protein>
6NUR|6NUR_protein|mol2

> <Gold.PLP.Fitness>
48.5208

> <Gold.PLP.PLP>
-43.7719

> <Gold.PLP.part.hbond>
-1.0000

> <Gold.PLP.part.metal>
0.0000

> <Gold.PLP.part.buried>
-0.7791

> <Gold.PLP.part.nonpolar>
-41.7451

> <Gold.PLP.part.repulsive>
0.0643

> <Gold.PLP.ligand.clash>
0.0000

> <Gold.PLP.ligand.torsion>
0.6177

> <Gold.PLP.Chemscore.Hbond>
1.9840

> <Gold.PLP.Chemscore.CHOScore>
0.0000

> <Gold.PLP.Chemscore.Metal>
0.0000

> <Gold.Chemscore.Hbonds>
donor molecule, donor type, donor heavy atom, donor atom, acceptor molecule, acceptor atom, score
      L1  H     6    25       P1  8028  1.47

> <Gold.PLP.Chemscore.Internal.Correction>
0.0323

> <Gold.Rescore>
     Score         DG    S(hbond)    S(metal)    S(lipo)     H(rot)  DE(clash)    DE(int)     intcor
     17.66     -18.58       1.00        0.00     115.33       1.46       0.05       0.87       ----

> <Gold.Chemscore.Fitness>
17.6604

> <Gold.Chemscore.DG>
-18.5768

> <Gold.Chemscore.ZeroCoef>
-5.4800

> <Gold.Chemscore.Hbond>
1.0000

> <Gold.Chemscore.Metal>
0.0000

> <Gold.Chemscore.Lipo>
115.3296

> <Gold.Chemscore.Internal_Hbond>
0.0000

> <Gold.Chemscore.DEClash>
0.0473

> <Gold.Chemscore.DEInternal>
0.8691

> <Gold.Chemscore.Rot>
1.4597

> <Gold.Chemscore.Internal.Correction>
   9.000000E+99

> <Gold.Chemscore.Hbonds>
donor molecule, donor type, donor heavy atom, donor atom, acceptor molecule, acceptor atom, score
      L1  H     6    25       P1  8028  0.71

> <Gold.Chemscore.Hbond.Weighted>
-3.3400

> <Gold.Chemscore.Metal.Weighted>
-0.0000

> <Gold.Chemscore.Lipo.Weighted>
-13.4936

> <Gold.Chemscore.Internal_Hbond.Weighted>
0.0000

> <Gold.Chemscore.DEClash.Weighted>
0.0473

> <Gold.Chemscore.DEInternal.Weighted>
0.8691

> <Gold.Chemscore.Rot.Weighted>
3.7368

> <Gold.Chemscore.Internal.Correction.Weighted>
   9.000000E+99

> <Gold.Protein.RotatedTorsions>
[ 6907 6896 6895 6894 ] final   23.56 input  -60.11 | X-H torsion
[ 7974 7965 7964 7962 ] final -128.71 input  175.53 | X-H torsion
[ 8008 7997 7996 7995 ] final  -29.59 input   59.86 | X-H torsion
[ 10167 10162 10161 10158 ] final  -29.12 input  -65.29 | X-H torsion
[ 10718 10713 10712 10709 ] final -127.46 input   66.30 | X-H torsion
[ 10763 10752 10751 10750 ] final   73.96 input  -60.55 | X-H torsion
[ 11005 11000 10999 10996 ] final  -51.42 input  -57.11 | X-H torsion

> <Gold.Protein.ActiveResidues>
 VAL166  LYS551  ARG553  GLY616  TRP617  ASP618  TYR619  PRO620  LYS621  CYS622 
 ASP623  PHE694  ASN695  SER759  ASP760  ASP761  ALA762  ILE779  LEU786  VAL792 
 PHE793  MET794  SER795  GLU796  ALA797  LYS798  CYS799  TRP800  GLU811  SER814 

> <Gold.Protein.RotatedAtoms>
  151.9442  135.0199  160.0537 H   0  0  0  0  0  0  0  0  0  0  0  0  # atno 6907 bound_to 6896
  152.2009  133.4836  159.5066 H   0  0  0  0  0  0  0  0  0  0  0  0  # atno 6908 bound_to 6896
  150.6954  134.1508  159.4182 H   0  0  0  0  0  0  0  0  0  0  0  0  # atno 6909 bound_to 6896
  144.9644  140.7480  143.4709 H   0  0  0  0  0  0  0  0  0  0  0  0  # atno 7974 bound_to 7965
  154.4284  140.1814  156.1272 H   0  0  0  0  0  0  0  0  0  0  0  0  # atno 8008 bound_to 7997
  156.0096  140.3352  155.6902 H   0  0  0  0  0  0  0  0  0  0  0  0  # atno 8009 bound_to 7997
  155.6129  140.0652  157.2691 H   0  0  0  0  0  0  0  0  0  0  0  0  # atno 8010 bound_to 7997
  140.7263  143.3954  151.1356 H   0  0  0  0  0  0  0  0  0  0  0  0  # atno 10167 bound_to 10162
  156.1859  130.6763  151.0364 H   0  0  0  0  0  0  0  0  0  0  0  0  # atno 10718 bound_to 10713
  153.0555  135.5043  154.7971 H   0  0  0  0  0  0  0  0  0  0  0  0  # atno 10763 bound_to 10752
  154.6800  135.2966  154.9628 H   0  0  0  0  0  0  0  0  0  0  0  0  # atno 10764 bound_to 10752
  154.0418  135.6716  153.4843 H   0  0  0  0  0  0  0  0  0  0  0  0  # atno 10765 bound_to 10752
  141.0870  133.6640  156.3875 H   0  0  0  0  0  0  0  0  0  0  0  0  # atno 11005 bound_to 11000
  145.2652  139.1976  143.4871 LP  0  0  0  0  0  0  0  0  0  0  0  0  # atno 17320 bound_to 7965
  146.3363  140.2589  142.8601 LP  0  0  0  0  0  0  0  0  0  0  0  0  # atno 17321 bound_to 7965
  139.7566  143.8698  152.3090 LP  0  0  0  0  0  0  0  0  0  0  0  0  # atno 17342 bound_to 10162
  139.8570  144.7136  150.9145 LP  0  0  0  0  0  0  0  0  0  0  0  0  # atno 17343 bound_to 10162
  157.6898  131.0813  150.7139 LP  0  0  0  0  0  0  0  0  0  0  0  0  # atno 17370 bound_to 10713
  156.7195  130.4676  149.5526 LP  0  0  0  0  0  0  0  0  0  0  0  0  # atno 17371 bound_to 10713
  140.5340  134.6185  157.5359 LP  0  0  0  0  0  0  0  0  0  0  0  0  # atno 17394 bound_to 11000
  139.9690  134.7325  156.0080 LP  0  0  0  0  0  0  0  0  0  0  0  0  # atno 17395 bound_to 11000

$$$$
