AV-unprocessed.smi:1047|AV-procd|sdf|4560|dock1
  -GOLD-   22720 3 03D 1   1.00000     0.00000
 Structure written by MMmdl.
 57 59  0  0  0  0  0  0  0  0  3 V2000
  146.9501  128.3386  151.3011 C   0  0  0  0  0  0  0  0  0  0  0  0
  147.0031  129.2706  152.5203 C   0  0  0  0  0  0  0  0  0  0  0  0
  146.9637  130.7059  152.1435 N   0  3  1  0  0  0  0  0  0  0  0  0
  145.7274  131.0601  151.4061 C   0  0  0  0  0  0  0  0  0  0  0  0
  145.7574  132.5371  150.9790 C   0  0  0  0  0  0  0  0  0  0  0  0
  145.9236  133.3644  152.1243 O   0  0  0  0  0  0  0  0  0  0  0  0
  147.1411  133.0972  152.8119 C   0  0  1  0  0  0  0  0  0  0  0  0
  147.3002  134.1167  153.9533 C   0  0  0  0  0  0  0  0  0  0  0  0
  148.7039  134.5462  154.1231 N   0  3  0  0  0  0  0  0  0  0  0  0
  148.9339  135.4217  155.2895 C   0  0  0  0  0  0  0  0  0  0  0  0
  149.8644  136.5906  154.9275 C   0  0  2  0  0  0  0  0  0  0  0  0
  151.0313  136.0689  154.3208 O   0  0  0  0  0  0  0  0  0  0  0  0
  150.2596  137.4225  156.1628 C   0  0  0  0  0  0  0  0  0  0  0  0
  150.3797  138.8375  155.8595 N   0  0  0  0  0  0  0  0  0  0  0  0
  150.0494  139.4550  154.7087 C   0  0  0  0  0  0  0  0  0  0  0  0
  150.2349  140.7704  154.6492 N   0  0  0  0  0  0  0  0  0  0  0  0
  150.7536  141.0369  155.9047 C   0  0  0  0  0  0  0  0  0  0  0  0
  151.1657  142.2552  156.4877 C   0  0  0  0  0  0  0  0  0  0  0  0
  151.6736  142.2927  157.8058 C   0  0  0  0  0  0  0  0  0  0  0  0
  152.1046  143.6249  158.3934 C   0  0  0  0  0  0  0  0  0  0  0  0
  151.7768  141.0974  158.5622 C   0  0  0  0  0  0  0  0  0  0  0  0
  152.3242  141.1132  159.9785 C   0  0  0  0  0  0  0  0  0  0  0  0
  151.3669  139.8722  157.9960 C   0  0  0  0  0  0  0  0  0  0  0  0
  150.8616  139.8482  156.6842 C   0  0  0  0  0  0  0  0  0  0  0  0
  147.1624  131.6291  153.2891 C   0  0  0  0  0  0  0  0  0  0  0  0
  146.8831  127.2977  151.6185 H   0  0  0  0  0  0  0  0  0  0  0  0
  147.8395  128.4275  150.6781 H   0  0  0  0  0  0  0  0  0  0  0  0
  146.0790  128.5496  150.6801 H   0  0  0  0  0  0  0  0  0  0  0  0
  146.1407  129.0455  153.1498 H   0  0  0  0  0  0  0  0  0  0  0  0
  147.8884  129.0638  153.1236 H   0  0  0  0  0  0  0  0  0  0  0  0
  145.6271  130.4272  150.5234 H   0  0  0  0  0  0  0  0  0  0  0  0
  144.8570  130.8706  152.0366 H   0  0  0  0  0  0  0  0  0  0  0  0
  146.5592  132.7206  150.2618 H   0  0  0  0  0  0  0  0  0  0  0  0
  144.8228  132.8035  150.4852 H   0  0  0  0  0  0  0  0  0  0  0  0
  147.9692  133.2506  152.1172 H   0  0  0  0  0  0  0  0  0  0  0  0
  146.6756  134.9901  153.7613 H   0  0  0  0  0  0  0  0  0  0  0  0
  146.9503  133.6756  154.8878 H   0  0  0  0  0  0  0  0  0  0  0  0
  149.2799  133.7231  154.2338 H   0  0  0  0  0  0  0  0  0  0  0  0
  147.9704  135.8066  155.6263 H   0  0  0  0  0  0  0  0  0  0  0  0
  149.3523  134.8418  156.1137 H   0  0  0  0  0  0  0  0  0  0  0  0
  149.3655  137.2398  154.2064 H   0  0  0  0  0  0  0  0  0  0  0  0
  151.0393  136.3295  153.4117 H   0  0  0  0  0  0  0  0  0  0  0  0
  149.5148  137.3074  156.9514 H   0  0  0  0  0  0  0  0  0  0  0  0
  151.2072  137.0704  156.5741 H   0  0  0  0  0  0  0  0  0  0  0  0
  149.6430  138.9095  153.8693 H   0  0  0  0  0  0  0  0  0  0  0  0
  151.0881  143.1653  155.9109 H   0  0  0  0  0  0  0  0  0  0  0  0
  153.1637  143.6034  158.6511 H   0  0  0  0  0  0  0  0  0  0  0  0
  151.5327  143.8484  159.2942 H   0  0  0  0  0  0  0  0  0  0  0  0
  151.9485  144.4416  157.6879 H   0  0  0  0  0  0  0  0  0  0  0  0
  152.3511  140.1106  160.4065 H   0  0  0  0  0  0  0  0  0  0  0  0
  151.7016  141.7356  160.6217 H   0  0  0  0  0  0  0  0  0  0  0  0
  153.3401  141.5090  159.9918 H   0  0  0  0  0  0  0  0  0  0  0  0
  151.4397  138.9552  158.5616 H   0  0  0  0  0  0  0  0  0  0  0  0
  146.3788  131.4551  154.0280 H   0  0  0  0  0  0  0  0  0  0  0  0
  148.1145  131.4254  153.7782 H   0  0  0  0  0  0  0  0  0  0  0  0
  149.0003  135.0371  153.2920 H   0  0  0  0  0  0  0  0  0  0  0  0
  147.7297  130.8560  151.5017 H   0  0  0  0  0  0  0  0  0  0  0  0
  1  2  1  0  0  0  0
  1 26  1  0  0  0  0
  1 27  1  0  0  0  0
  1 28  1  0  0  0  0
  2  3  1  0  0  0  0
  2 29  1  0  0  0  0
  2 30  1  0  0  0  0
  3 25  1  0  0  0  0
  3  4  1  0  0  0  0
  3 57  1  0  0  0  0
  4  5  1  0  0  0  0
  4 31  1  0  0  0  0
  4 32  1  0  0  0  0
  5  6  1  0  0  0  0
  5 33  1  0  0  0  0
  5 34  1  0  0  0  0
  6  7  1  0  0  0  0
  7  8  1  0  0  0  0
  7 25  1  0  0  0  0
  7 35  1  0  0  0  0
  8  9  1  0  0  0  0
  8 36  1  0  0  0  0
  8 37  1  0  0  0  0
  9 10  1  0  0  0  0
  9 38  1  0  0  0  0
  9 56  1  0  0  0  0
 10 11  1  0  0  0  0
 10 39  1  0  0  0  0
 10 40  1  0  0  0  0
 11 12  1  0  0  0  0
 11 13  1  0  0  0  0
 11 41  1  0  0  0  0
 12 42  1  0  0  0  0
 13 14  1  0  0  0  0
 13 43  1  0  0  0  0
 13 44  1  0  0  0  0
 14 24  1  0  0  0  0
 14 15  1  0  0  0  0
 15 16  2  0  0  0  0
 15 45  1  0  0  0  0
 16 17  1  0  0  0  0
 17 24  2  0  0  0  0
 17 18  1  0  0  0  0
 18 19  2  0  0  0  0
 18 46  1  0  0  0  0
 19 20  1  0  0  0  0
 19 21  1  0  0  0  0
 20 47  1  0  0  0  0
 20 48  1  0  0  0  0
 20 49  1  0  0  0  0
 21 22  1  0  0  0  0
 21 23  2  0  0  0  0
 22 50  1  0  0  0  0
 22 51  1  0  0  0  0
 22 52  1  0  0  0  0
 23 24  1  0  0  0  0
 23 53  1  0  0  0  0
 25 54  1  0  0  0  0
 25 55  1  0  0  0  0
M  CHG  1   3   1
M  CHG  1   9   1
M  END
> <s_m_source_file>
AV-unprocessed.smi

> <i_m_source_file_index>
1047

> <i_lp_mmshare_version>
43012

> <i_f3d_flags>
0

> <s_epik_input>
W0NIM11bQ0gyXU4xW0NIMl1bQ0gyXU9bQ0BIXShbQ0gyXTEpW0NIMl1bTkhdW0NIMl1bQ0BIXShbT0hdKVtDSDJdbihbY0hdbjIpYyhjMjMpW2NIXWMoW0NIM10pYyhbY0hdMylbQ0gzXQ==

> <s_epik_cmdline>
J2VwaWtfcHl0aG9uJywgJy1waCcsICc3LjAnLCAnLXRuJywgJzgnLCAnLW1hJywgJzIwMCcsICctbWV0YWxfYmluZGluZycsICctaW1hZScsICc8aW5maWxlLm1hZT4nLCAnLW9tYWUnLCAnPG91dGZpbGUubWFlPic=

> <r_epik_Ionization_Penalty>
0.528991

> <r_epik_Ionization_Penalty_Charging>
0.438567

> <r_epik_Ionization_Penalty_Neutral>
0.0904237

> <r_epik_State_Penalty>
0.533036

> <r_epik_Charging_Adjusted_Penalty>
0.971603

> <i_epik_Tot_Q>
2

> <i_epik_Tot_abs_Q>
2

> <r_epik_Metal_State_Penalty>
0.448985

> <b_epik_Metal_Only>
0

> <s_lp_Force_Field>
OPLS_2005

> <r_lp_Energy>
32.0872

> <b_lp_Chiralities_Consistent>
1

> <s_lp_Variant>
AV-unprocessed.smi:1047-1

> <Gold.Version>
5.8.1

> <Gold.Id.Protein>
6NUR|6NUR_protein|mol2

> <Gold.PLP.Fitness>
59.7568

> <Gold.PLP.PLP>
-44.6334

> <Gold.PLP.part.hbond>
-5.7175

> <Gold.PLP.part.metal>
0.0000

> <Gold.PLP.part.buried>
-5.0554

> <Gold.PLP.part.nonpolar>
-34.2841

> <Gold.PLP.part.repulsive>
0.2472

> <Gold.PLP.ligand.clash>
0.0000

> <Gold.PLP.ligand.torsion>
1.3889

> <Gold.PLP.Chemscore.Hbond>
5.7360

> <Gold.PLP.Chemscore.CHOScore>
0.1510

> <Gold.PLP.Chemscore.Metal>
0.0000

> <Gold.Chemscore.Hbonds>
donor molecule, donor type, donor heavy atom, donor atom, acceptor molecule, acceptor atom, score
      L1  H     3    57       P1 10747  1.00
      L1  H     9    56       P1  7948  2.00
      L1  H    12    42       P1  7949  1.00
      P1  H  7989  7998       L1    16  0.80
      P1  H 10752 10765       L1    12  0.85

> <Gold.PLP.Chemscore.Internal.Correction>
0.2400

> <Gold.Rescore>
     Score         DG    S(hbond)    S(metal)    S(lipo)     H(rot)  DE(clash)    DE(int)     intcor
     18.56     -20.29       2.17        0.00     123.53       2.70       0.30       1.42       ----

> <Gold.Chemscore.Fitness>
18.5619

> <Gold.Chemscore.DG>
-20.2861

> <Gold.Chemscore.ZeroCoef>
-5.4800

> <Gold.Chemscore.Hbond>
2.1740

> <Gold.Chemscore.Metal>
0.0000

> <Gold.Chemscore.Lipo>
123.5300

> <Gold.Chemscore.Internal_Hbond>
0.0000

> <Gold.Chemscore.DEClash>
0.3007

> <Gold.Chemscore.DEInternal>
1.4235

> <Gold.Chemscore.Rot>
2.6985

> <Gold.Chemscore.Internal.Correction>
   9.000000E+99

> <Gold.Chemscore.Hbonds>
donor molecule, donor type, donor heavy atom, donor atom, acceptor molecule, acceptor atom, score
      L1  H     3    57       P1 10747  1.00
      L1  H     9    56       P1  7948  0.26
      L1  H    12    42       P1  7949  0.25
      P1  H  7989  7998       L1    16  0.15
      P1  H 10752 10765       L1    12  0.15

> <Gold.Chemscore.Hbond.Weighted>
-7.2613

> <Gold.Chemscore.Metal.Weighted>
-0.0000

> <Gold.Chemscore.Lipo.Weighted>
-14.4530

> <Gold.Chemscore.Internal_Hbond.Weighted>
0.0000

> <Gold.Chemscore.DEClash.Weighted>
0.3007

> <Gold.Chemscore.DEInternal.Weighted>
1.4235

> <Gold.Chemscore.Rot.Weighted>
6.9081

> <Gold.Chemscore.Internal.Correction.Weighted>
   9.000000E+99

> <Gold.Protein.RotatedTorsions>
[ 6907 6896 6895 6894 ] final   66.30 input  -60.11 | X-H torsion
[ 7974 7965 7964 7962 ] final   47.75 input  175.53 | X-H torsion
[ 8008 7997 7996 7995 ] final -110.15 input   59.86 | X-H torsion
[ 10167 10162 10161 10158 ] final -161.72 input  -65.29 | X-H torsion
[ 10718 10713 10712 10709 ] final  -88.60 input   66.30 | X-H torsion
[ 10763 10752 10751 10750 ] final  171.95 input  -60.55 | X-H torsion
[ 11005 11000 10999 10996 ] final   98.20 input  -57.11 | X-H torsion

> <Gold.Protein.ActiveResidues>
 VAL166  LYS551  ARG553  GLY616  TRP617  ASP618  TYR619  PRO620  LYS621  CYS622 
 ASP623  PHE694  ASN695  SER759  ASP760  ASP761  ALA762  ILE779  LEU786  VAL792 
 PHE793  MET794  SER795  GLU796  ALA797  LYS798  CYS799  TRP800  GLU811  SER814 

> <Gold.Protein.RotatedAtoms>
  152.4471  134.5472  159.9856 H   0  0  0  0  0  0  0  0  0  0  0  0  # atno 6907 bound_to 6896
  151.5555  133.3405  159.2969 H   0  0  0  0  0  0  0  0  0  0  0  0  # atno 6908 bound_to 6896
  150.8390  134.7706  159.6980 H   0  0  0  0  0  0  0  0  0  0  0  0  # atno 6909 bound_to 6896
  146.0268  139.4716  142.9862 H   0  0  0  0  0  0  0  0  0  0  0  0  # atno 7974 bound_to 7965
  154.9701  140.0397  157.2230 H   0  0  0  0  0  0  0  0  0  0  0  0  # atno 8008 bound_to 7997
  154.7809  140.2818  155.6042 H   0  0  0  0  0  0  0  0  0  0  0  0  # atno 8009 bound_to 7997
  156.2936  140.2592  156.2634 H   0  0  0  0  0  0  0  0  0  0  0  0  # atno 8010 bound_to 7997
  139.6444  144.0199  152.2116 H   0  0  0  0  0  0  0  0  0  0  0  0  # atno 10167 bound_to 10162
  155.9983  130.4842  150.5044 H   0  0  0  0  0  0  0  0  0  0  0  0  # atno 10718 bound_to 10713
  154.4191  135.2757  155.1987 H   0  0  0  0  0  0  0  0  0  0  0  0  # atno 10763 bound_to 10752
  154.3940  135.6059  153.5863 H   0  0  0  0  0  0  0  0  0  0  0  0  # atno 10764 bound_to 10752
  152.9832  135.5910  154.4485 H   0  0  0  0  0  0  0  0  0  0  0  0  # atno 10765 bound_to 10752
  139.8773  134.9038  156.4421 H   0  0  0  0  0  0  0  0  0  0  0  0  # atno 11005 bound_to 11000
  145.7104  141.0108  143.1456 LP  0  0  0  0  0  0  0  0  0  0  0  0  # atno 17320 bound_to 7965
  144.7013  139.8751  143.7443 LP  0  0  0  0  0  0  0  0  0  0  0  0  # atno 17321 bound_to 7965
  139.9897  144.6370  150.7825 LP  0  0  0  0  0  0  0  0  0  0  0  0  # atno 17342 bound_to 10162
  140.7507  143.2960  151.3203 LP  0  0  0  0  0  0  0  0  0  0  0  0  # atno 17343 bound_to 10162
  157.3025  131.0648  151.2058 LP  0  0  0  0  0  0  0  0  0  0  0  0  # atno 17370 bound_to 10713
  157.3033  130.6853  149.6175 LP  0  0  0  0  0  0  0  0  0  0  0  0  # atno 17371 bound_to 10713
  140.8992  133.7792  155.9660 LP  0  0  0  0  0  0  0  0  0  0  0  0  # atno 17394 bound_to 11000
  140.8670  134.2772  157.5208 LP  0  0  0  0  0  0  0  0  0  0  0  0  # atno 17395 bound_to 11000

$$$$
