AV-unprocessed.smi:1198|AV-procd|sdf|5010|dock1
  -GOLD-   22720 4 23D 1   1.00000     0.00000
 Structure written by MMmdl.
 40 41  0  0  0  0  0  0  0  0  2 V2000
  151.4550  141.6477  158.1993 C   0  0  0  0  0  0  0  0  0  0  0  0
  151.0594  141.6204  156.8323 O   0  0  0  0  0  0  0  0  0  0  0  0
  150.6659  140.4151  156.2877 C   0  0  0  0  0  0  0  0  0  0  0  0
  150.3610  139.3501  157.1582 C   0  0  0  0  0  0  0  0  0  0  0  0
  149.9575  138.1168  156.6117 C   0  0  0  0  0  0  0  0  0  0  0  0
  149.8787  137.9852  155.2045 C   0  0  0  0  0  0  0  0  0  0  0  0
  149.4641  136.8041  154.5315 N   0  0  0  0  0  0  0  0  0  0  0  0
  149.2323  135.5839  155.0449 C   0  0  0  0  0  0  0  0  0  0  0  0
  149.4009  135.2604  156.2203 O   0  0  0  0  0  0  0  0  0  0  0  0
  148.8002  134.7353  154.1012 N   0  0  0  0  0  0  0  0  0  0  0  0
  148.4775  133.3287  154.3191 C   0  0  0  0  0  0  0  0  0  0  0  0
  148.1003  132.6005  153.0136 C   0  0  2  0  0  0  0  0  0  0  0  0
  146.7773  133.0622  152.4058 C   0  0  0  0  0  0  0  0  0  0  0  0
  146.3475  131.8972  151.5056 C   0  0  0  0  0  0  0  0  0  0  0  0
  147.1001  130.7054  151.9627 N   0  3  2  0  0  0  0  0  0  0  0  0
  146.2772  129.4914  152.1430 C   0  0  0  0  0  0  0  0  0  0  0  0
  147.8788  131.0937  153.1565 C   0  0  0  0  0  0  0  0  0  0  0  0
  150.1938  139.1154  154.4219 C   0  0  0  0  0  0  0  0  0  0  0  0
  150.5815  140.3001  154.9392 N   0  0  0  0  0  0  0  0  0  0  0  0
  151.7342  142.6648  158.4738 H   0  0  0  0  0  0  0  0  0  0  0  0
  152.3205  141.0079  158.3774 H   0  0  0  0  0  0  0  0  0  0  0  0
  150.6404  141.3397  158.8561 H   0  0  0  0  0  0  0  0  0  0  0  0
  150.4306  139.4783  158.2284 H   0  0  0  0  0  0  0  0  0  0  0  0
  149.7048  137.3091  157.2806 H   0  0  0  0  0  0  0  0  0  0  0  0
  149.3696  136.8897  153.5300 H   0  0  0  0  0  0  0  0  0  0  0  0
  148.7019  135.0842  153.1588 H   0  0  0  0  0  0  0  0  0  0  0  0
  149.3465  132.8534  154.7749 H   0  0  0  0  0  0  0  0  0  0  0  0
  147.6664  133.2477  155.0445 H   0  0  0  0  0  0  0  0  0  0  0  0
  148.8830  132.7620  152.2702 H   0  0  0  0  0  0  0  0  0  0  0  0
  146.0351  133.2061  153.1925 H   0  0  0  0  0  0  0  0  0  0  0  0
  146.8694  134.0024  151.8611 H   0  0  0  0  0  0  0  0  0  0  0  0
  145.2672  131.7505  151.5489 H   0  0  0  0  0  0  0  0  0  0  0  0
  146.6124  132.0922  150.4660 H   0  0  0  0  0  0  0  0  0  0  0  0
  145.5126  129.6451  152.9056 H   0  0  0  0  0  0  0  0  0  0  0  0
  146.9014  128.6503  152.4462 H   0  0  0  0  0  0  0  0  0  0  0  0
  145.7821  129.2252  151.2086 H   0  0  0  0  0  0  0  0  0  0  0  0
  148.8134  130.5355  153.2202 H   0  0  0  0  0  0  0  0  0  0  0  0
  147.3002  130.8879  154.0589 H   0  0  0  0  0  0  0  0  0  0  0  0
  150.1359  139.0689  153.3442 H   0  0  0  0  0  0  0  0  0  0  0  0
  147.7736  130.5064  151.2363 H   0  0  0  0  0  0  0  0  0  0  0  0
  1  2  1  0  0  0  0
  1 20  1  0  0  0  0
  1 21  1  0  0  0  0
  1 22  1  0  0  0  0
  2  3  1  0  0  0  0
  3 19  1  0  0  0  0
  3  4  2  0  0  0  0
  4  5  1  0  0  0  0
  4 23  1  0  0  0  0
  5  6  2  0  0  0  0
  5 24  1  0  0  0  0
  6  7  1  0  0  0  0
  6 18  1  0  0  0  0
  7  8  1  0  0  0  0
  7 25  1  0  0  0  0
  8  9  2  0  0  0  0
  8 10  1  0  0  0  0
 10 11  1  0  0  0  0
 10 26  1  0  0  0  0
 11 12  1  0  0  0  0
 11 27  1  0  0  0  0
 11 28  1  0  0  0  0
 12 17  1  0  0  0  0
 12 13  1  0  0  0  0
 12 29  1  0  0  0  0
 13 14  1  0  0  0  0
 13 30  1  0  0  0  0
 13 31  1  0  0  0  0
 14 15  1  0  0  0  0
 14 32  1  0  0  0  0
 14 33  1  0  0  0  0
 15 16  1  0  0  0  0
 15 17  1  0  0  0  0
 15 40  1  0  0  0  0
 16 34  1  0  0  0  0
 16 35  1  0  0  0  0
 16 36  1  0  0  0  0
 17 37  1  0  0  0  0
 17 38  1  0  0  0  0
 18 19  2  0  0  0  0
 18 39  1  0  0  0  0
M  CHG  1  15   1
M  END
> <s_m_source_file>
AV-unprocessed.smi

> <i_m_source_file_index>
1198

> <i_lp_mmshare_version>
43012

> <i_f3d_flags>
0

> <s_epik_input>
W0NIM11PYzFbY0hdW2NIXWMoW2NIXW4xKVtOSF1DKD1PKVtOSF1bQ0gyXVtDQEBIXTJbQ0gyXVtDSDJdTihbQ0gzXSlbQ0gyXTI=

> <s_epik_cmdline>
J2VwaWtfcHl0aG9uJywgJy1waCcsICc3LjAnLCAnLXRuJywgJzgnLCAnLW1hJywgJzIwMCcsICctbWV0YWxfYmluZGluZycsICctaW1hZScsICc8aW5maWxlLm1hZT4nLCAnLW9tYWUnLCAnPG91dGZpbGUubWFlPic=

> <r_lp_tautomer_probability>
1

> <r_epik_Ionization_Penalty>
0.00131396

> <r_epik_Ionization_Penalty_Charging>
0.0012301

> <r_epik_Ionization_Penalty_Neutral>
8.38549e-05

> <r_epik_State_Penalty>
0.00081314

> <r_epik_Charging_Adjusted_Penalty>
0.00204324

> <i_epik_Tot_Q>
1

> <i_epik_Tot_abs_Q>
1

> <r_epik_Metal_State_Penalty>
-0

> <b_epik_Metal_Only>
0

> <s_lp_Force_Field>
OPLS_2005

> <r_lp_Energy>
30.1161

> <b_lp_Chiralities_Consistent>
1

> <s_lp_Variant>
AV-unprocessed.smi:1198-1

> <Gold.Version>
5.8.1

> <Gold.Id.Protein>
6NUR|6NUR_protein|mol2

> <Gold.PLP.Fitness>
43.3918

> <Gold.PLP.PLP>
-28.8654

> <Gold.PLP.part.hbond>
-4.0000

> <Gold.PLP.part.metal>
0.0000

> <Gold.PLP.part.buried>
-2.8163

> <Gold.PLP.part.nonpolar>
-21.4600

> <Gold.PLP.part.repulsive>
0.1541

> <Gold.PLP.ligand.clash>
0.0191

> <Gold.PLP.ligand.torsion>
0.2350

> <Gold.PLP.Chemscore.Hbond>
4.0000

> <Gold.PLP.Chemscore.CHOScore>
1.0000

> <Gold.PLP.Chemscore.Metal>
0.0000

> <Gold.Chemscore.Hbonds>
donor molecule, donor type, donor heavy atom, donor atom, acceptor molecule, acceptor atom, score
      L1  H     7    25       P1  7948  1.00
      L1  H    10    26       P1  7948  1.00
      L1  H    15    40       P1 10747  1.00
      P1  H  7989  7998       L1    19  0.90
      L1  C    18    39       P1  7957  1.00

> <Gold.PLP.Chemscore.Internal.Correction>
0.0156

> <Gold.Rescore>
     Score         DG    S(hbond)    S(metal)    S(lipo)     H(rot)  DE(clash)    DE(int)     intcor
     18.41     -19.92       3.23        0.00      64.34       1.51       0.06       1.46       ----

> <Gold.Chemscore.Fitness>
18.4050

> <Gold.Chemscore.DG>
-19.9174

> <Gold.Chemscore.ZeroCoef>
-5.4800

> <Gold.Chemscore.Hbond>
3.2300

> <Gold.Chemscore.Metal>
0.0000

> <Gold.Chemscore.Lipo>
64.3370

> <Gold.Chemscore.Internal_Hbond>
0.0000

> <Gold.Chemscore.DEClash>
0.0573

> <Gold.Chemscore.DEInternal>
1.4551

> <Gold.Chemscore.Rot>
1.5149

> <Gold.Chemscore.Internal.Correction>
   9.000000E+99

> <Gold.Chemscore.Hbonds>
donor molecule, donor type, donor heavy atom, donor atom, acceptor molecule, acceptor atom, score
      L1  H     7    25       P1  7948  0.91
      L1  H    10    26       P1  7948  0.59
      L1  H    15    40       P1 10747  0.95
      P1  H  7989  7998       L1    19  0.18

> <Gold.Chemscore.Hbond.Weighted>
-10.7881

> <Gold.Chemscore.Metal.Weighted>
-0.0000

> <Gold.Chemscore.Lipo.Weighted>
-7.5274

> <Gold.Chemscore.Internal_Hbond.Weighted>
0.0000

> <Gold.Chemscore.DEClash.Weighted>
0.0573

> <Gold.Chemscore.DEInternal.Weighted>
1.4551

> <Gold.Chemscore.Rot.Weighted>
3.8781

> <Gold.Chemscore.Internal.Correction.Weighted>
   9.000000E+99

> <Gold.Protein.RotatedTorsions>
[ 6907 6896 6895 6894 ] final -132.61 input  -60.11 | X-H torsion
[ 7974 7965 7964 7962 ] final  -26.03 input  175.53 | X-H torsion
[ 8008 7997 7996 7995 ] final  -46.64 input   59.86 | X-H torsion
[ 10167 10162 10161 10158 ] final   -9.57 input  -65.29 | X-H torsion
[ 10718 10713 10712 10709 ] final  142.14 input   66.30 | X-H torsion
[ 10763 10752 10751 10750 ] final  171.60 input  -60.55 | X-H torsion
[ 11005 11000 10999 10996 ] final   10.50 input  -57.11 | X-H torsion

> <Gold.Protein.ActiveResidues>
 VAL166  LYS551  ARG553  GLY616  TRP617  ASP618  TYR619  PRO620  LYS621  CYS622 
 ASP623  PHE694  ASN695  SER759  ASP760  ASP761  ALA762  ILE779  LEU786  VAL792 
 PHE793  MET794  SER795  GLU796  ALA797  LYS798  CYS799  TRP800  GLU811  SER814 

> <Gold.Protein.RotatedAtoms>
  150.9643  133.6411  159.2748 H   0  0  0  0  0  0  0  0  0  0  0  0  # atno 6907 bound_to 6896
  151.3722  135.0923  159.9479 H   0  0  0  0  0  0  0  0  0  0  0  0  # atno 6908 bound_to 6896
  152.5159  133.9195  159.7582 H   0  0  0  0  0  0  0  0  0  0  0  0  # atno 6909 bound_to 6896
  146.1452  140.4965  142.8634 H   0  0  0  0  0  0  0  0  0  0  0  0  # atno 7974 bound_to 7965
  154.4009  140.1366  156.4044 H   0  0  0  0  0  0  0  0  0  0  0  0  # atno 8008 bound_to 7997
  155.7794  140.3482  155.5269 H   0  0  0  0  0  0  0  0  0  0  0  0  # atno 8009 bound_to 7997
  155.8689  140.0968  157.1554 H   0  0  0  0  0  0  0  0  0  0  0  0  # atno 8010 bound_to 7997
  140.7091  143.5844  150.8959 H   0  0  0  0  0  0  0  0  0  0  0  0  # atno 10167 bound_to 10162
  157.3840  131.0996  151.0711 H   0  0  0  0  0  0  0  0  0  0  0  0  # atno 10718 bound_to 10713
  154.4142  135.2757  155.2017 H   0  0  0  0  0  0  0  0  0  0  0  0  # atno 10763 bound_to 10752
  154.3990  135.6049  153.5889 H   0  0  0  0  0  0  0  0  0  0  0  0  # atno 10764 bound_to 10752
  152.9832  135.5921  154.4429 H   0  0  0  0  0  0  0  0  0  0  0  0  # atno 10765 bound_to 10752
  140.5138  134.0626  155.7825 H   0  0  0  0  0  0  0  0  0  0  0  0  # atno 11005 bound_to 11000
  144.7838  140.5896  143.6587 LP  0  0  0  0  0  0  0  0  0  0  0  0  # atno 17320 bound_to 7965
  145.4953  139.1486  143.3687 LP  0  0  0  0  0  0  0  0  0  0  0  0  # atno 17321 bound_to 7965
  139.9570  143.6207  152.3013 LP  0  0  0  0  0  0  0  0  0  0  0  0  # atno 17342 bound_to 10162
  139.6746  144.7659  151.1719 LP  0  0  0  0  0  0  0  0  0  0  0  0  # atno 17343 bound_to 10162
  157.1769  130.6292  149.5659 LP  0  0  0  0  0  0  0  0  0  0  0  0  # atno 17370 bound_to 10713
  155.9782  130.4766  150.6643 LP  0  0  0  0  0  0  0  0  0  0  0  0  # atno 17371 bound_to 10713
  141.1371  133.9202  157.2409 LP  0  0  0  0  0  0  0  0  0  0  0  0  # atno 17394 bound_to 11000
  139.9644  135.0146  156.9347 LP  0  0  0  0  0  0  0  0  0  0  0  0  # atno 17395 bound_to 11000

$$$$
