#       Name:                AV-unprocessed.smi:1528
#       Creating user name   scv26
#       Creation time:       Fri Mar 27 06:29:58 2020


#       File generated by GOLD software.
#

@<TRIPOS>MOLECULE
AV-unprocessed.smi:1528
    40    41     1
SMALL
NO_CHARGES


@<TRIPOS>ATOM
      1 ****        -5.8005   1.4257  -0.0740 C.3            1 S1                 0.0000
      2 ****        -5.2580   0.1293   0.5425 C.3            1 S1                 0.0000
      3 ****        -3.8006   0.0918   0.5157 N.am           1 S1                 0.0000
      4 ****        -3.0566  -0.2647  -0.5441 C.2            1 S1                 0.0000
      5 ****        -3.5345  -0.6265  -1.6194 O.2            1 S1                 0.0000
      6 ****        -1.5711  -0.2623  -0.3252 C.ar           1 S1                 0.0000
      7 ****        -0.9499   0.6518   0.5536 C.ar           1 S1                 0.0000
      8 ****         0.4502   0.6197   0.6997 C.ar           1 S1                 0.0000
      9 ****         1.2019  -0.3201  -0.0446 C.ar           1 S1                 0.0000
     10 ****         2.6069  -0.3703   0.0863 N.3            1 S1                 0.0000
     11 ****         3.3069   0.8990  -0.0963 C.3            1 S1                 0.0000
     12 ****         4.7674   0.7773   0.3720 C.3            1 S1                 0.0000
     13 ****         5.4014  -0.3062  -0.2997 O.3            1 S1                 0.0000
     14 ****         4.7679  -1.5487  -0.0149 C.3            1 S1                 0.0000
     15 ****         3.3099  -1.5091  -0.5020 C.3            1 S1                 0.0000
     16 ****         0.6036  -1.1931  -0.8918 N.ar           1 S1                 0.0000
     17 ****        -0.7387  -1.1576  -1.0303 C.ar           1 S1                 0.0000
     18 ****        -6.8888   1.4543  -0.0195 H              1 S1                 0.0000
     19 ****        -5.5202   1.5141  -1.1241 H              1 S1                 0.0000
     20 ****        -5.4185   2.3020   0.4506 H              1 S1                 0.0000
     21 ****        -5.5806   0.0527   1.5812 H              1 S1                 0.0000
     22 ****        -5.6695  -0.7389   0.0249 H              1 S1                 0.0000
     23 ****        -3.3219   0.3515   1.3658 H              1 S1                 0.0000
     24 ****        -1.5277   1.3721   1.1143 H              1 S1                 0.0000
     25 ****         0.9261   1.3039   1.3859 H              1 S1                 0.0000
     26 ****         3.2756   1.1682  -1.1529 H              1 S1                 0.0000
     27 ****         2.8266   1.7086   0.4509 H              1 S1                 0.0000
     28 ****         5.3101   1.6969   0.1524 H              1 S1                 0.0000
     29 ****         4.8177   0.6287   1.4520 H              1 S1                 0.0000
     30 ****         5.3103  -2.3480  -0.5195 H              1 S1                 0.0000
     31 ****         4.8152  -1.7575   1.0551 H              1 S1                 0.0000
     32 ****         2.8135  -2.4415  -0.2305 H              1 S1                 0.0000
     33 ****         3.2821  -1.4284  -1.5895 H              1 S1                 0.0000
     34 ****        -1.1550  -1.8740  -1.7236 H              1 S1                 0.0000
     35 ****        -4.5267  -0.6663  -1.7375 LP             1 S1                 0.0000
     36 ****        -2.9305  -0.8806  -2.3748 LP             1 S1                 0.0000
     37 ****         2.6622  -0.5682   1.0649 LP             1 S1                 0.0000
     38 ****         6.3560  -0.3549  -0.0060 LP             1 S1                 0.0000
     39 ****         5.3638  -0.1423  -1.2855 LP             1 S1                 0.0000
     40 ****         1.1490  -1.8542  -1.4070 LP             1 S1                 0.0000
@<TRIPOS>BOND
    1    1    2 1     
    2    1   18 1     
    3    1   19 1     
    4    1   20 1     
    5    2    3 1     
    6    2   21 1     
    7    2   22 1     
    8    3    4 am    
    9    3   23 1     
   10    4    5 2     
   11    4    6 1     
   12    6   17 ar    
   13    6    7 ar    
   14    7    8 ar    
   15    7   24 1     
   16    8    9 ar    
   17    8   25 1     
   18    9   10 1     
   19    9   16 ar    
   20   10   15 1     
   21   10   11 1     
   22   11   12 1     
   23   11   26 1     
   24   11   27 1     
   25   12   13 1     
   26   12   28 1     
   27   12   29 1     
   28   13   14 1     
   29   14   15 1     
   30   14   30 1     
   31   14   31 1     
   32   15   32 1     
   33   15   33 1     
   34   16   17 ar    
   35   17   34 1     
   36    5   35 1     
   37    5   36 1     
   38   10   37 1     
   39   13   38 1     
   40   13   39 1     
   41   16   40 1     
@<TRIPOS>SUBSTRUCTURE
      1 S1             1
@<TRIPOS>SET
LONE_PAIRS      STATIC     ATOMS    <user>   **** ""
6 35 36 37 38 39 40
DONOR_HYDROGENS      STATIC     ATOMS    <user>   **** ""
1 23
ATOM$BLUE        STATIC     ATOMS    COLORGROUP SYSTEM
6 35 36 37 38 39 40
ATOM$RED        STATIC     ATOMS    COLORGROUP SYSTEM
1 23
