AV-unprocessed.smi:287|AV-procd|sdf|2193|dock8
  -GOLD-   2262021593D 1   1.00000     0.00000
 Structure written by MMmdl.
 55 58  0  0  0  0  0  0  0  0  1 V2000
  151.4025  140.4043  156.4221 C   0  0  0  0  0  0  0  0  0  0  0  0
  149.9587  140.7521  156.2996 C   0  0  0  0  0  0  0  0  0  0  0  0
  149.0474  140.6584  155.2885 C   0  0  0  0  0  0  0  0  0  0  0  0
  147.8091  141.1681  155.7819 C   0  0  0  0  0  0  0  0  0  0  0  0
  146.5033  141.2597  155.0037 C   0  0  1  0  0  0  0  0  0  0  0  0
  146.1723  142.7335  154.7163 C   0  0  0  0  0  0  0  0  0  0  0  0
  146.5751  140.6361  153.7362 O   0  0  0  0  0  0  0  0  0  0  0  0
  145.3238  140.5845  155.7403 C   0  0  0  0  0  0  0  0  0  0  0  0
  145.4496  139.1340  155.8035 N   0  0  0  0  0  0  0  0  0  0  0  0
  144.6821  138.3385  155.0302 C   0  0  0  0  0  0  0  0  0  0  0  0
  143.3536  138.6016  155.0613 N   0  0  0  0  0  0  0  0  0  0  0  0
  142.5068  137.8777  154.3239 C   0  0  0  0  0  0  0  0  0  0  0  0
  142.7754  136.8618  153.5018 N   0  0  0  0  0  0  0  0  0  0  0  0
  144.1110  136.5866  153.4718 C   0  0  0  0  0  0  0  0  0  0  0  0
  145.1283  137.2695  154.1973 C   0  0  0  0  0  0  0  0  0  0  0  0
  146.3620  136.6977  153.8995 N   0  0  0  0  0  0  0  0  0  0  0  0
  146.0846  135.7454  153.0502 C   0  0  0  0  0  0  0  0  0  0  0  0
  144.7502  135.6135  152.7381 N   0  0  0  0  0  0  0  0  0  0  0  0
  144.0893  134.6524  151.8051 C   0  0  2  0  0  0  0  0  0  0  0  0
  144.6435  133.3945  151.9862 O   0  0  0  0  0  0  0  0  0  0  0  0
  144.3236  132.6222  150.8380 C   0  0  2  0  0  0  0  0  0  0  0  0
  145.3260  131.4663  150.7029 C   0  0  0  0  0  0  0  0  0  0  0  0
  146.6465  131.9647  150.6673 O   0  0  0  0  0  0  0  0  0  0  0  0
  144.3404  133.6247  149.6647 C   0  0  1  0  0  0  0  0  0  0  0  0
  143.1813  133.4472  148.8742 O   0  0  0  0  0  0  0  0  0  0  0  0
  144.3178  135.0028  150.3285 C   0  0  2  0  0  0  0  0  0  0  0  0
  145.5348  135.6916  150.1015 O   0  0  0  0  0  0  0  0  0  0  0  0
  148.0699  141.5219  157.0840 C   0  0  0  0  0  0  0  0  0  0  0  0
  147.2446  142.0969  158.1876 C   0  0  0  0  0  0  0  0  0  0  0  0
  149.3715  141.2773  157.4040 O   0  0  0  0  0  0  0  0  0  0  0  0
  143.0355  134.6427  152.0893 H   0  0  0  0  0  0  0  0  0  0  0  0
  143.3171  132.2284  150.9972 H   0  0  0  0  0  0  0  0  0  0  0  0
  145.2245  133.4997  149.0372 H   0  0  0  0  0  0  0  0  0  0  0  0
  143.4974  135.6340  149.9834 H   0  0  0  0  0  0  0  0  0  0  0  0
  151.8322  140.1780  155.4461 H   0  0  0  0  0  0  0  0  0  0  0  0
  151.5370  139.5320  157.0620 H   0  0  0  0  0  0  0  0  0  0  0  0
  151.9652  141.2321  156.8543 H   0  0  0  0  0  0  0  0  0  0  0  0
  149.2473  140.2725  154.2999 H   0  0  0  0  0  0  0  0  0  0  0  0
  146.0595  143.3004  155.6414 H   0  0  0  0  0  0  0  0  0  0  0  0
  145.2414  142.8336  154.1566 H   0  0  0  0  0  0  0  0  0  0  0  0
  146.9613  143.2111  154.1337 H   0  0  0  0  0  0  0  0  0  0  0  0
  145.7881  140.8435  153.2559 H   0  0  0  0  0  0  0  0  0  0  0  0
  145.3025  140.9508  156.7675 H   0  0  0  0  0  0  0  0  0  0  0  0
  144.3733  140.8641  155.2842 H   0  0  0  0  0  0  0  0  0  0  0  0
  146.0531  138.7808  156.5322 H   0  0  0  0  0  0  0  0  0  0  0  0
  141.4654  138.1532  154.4033 H   0  0  0  0  0  0  0  0  0  0  0  0
  146.8516  135.1159  152.6223 H   0  0  0  0  0  0  0  0  0  0  0  0
  145.2201  130.7558  151.5234 H   0  0  0  0  0  0  0  0  0  0  0  0
  145.1444  130.9192  149.7774 H   0  0  0  0  0  0  0  0  0  0  0  0
  147.2176  131.2814  150.3509 H   0  0  0  0  0  0  0  0  0  0  0  0
  142.4820  133.9614  149.2485 H   0  0  0  0  0  0  0  0  0  0  0  0
  145.9959  135.2560  149.4005 H   0  0  0  0  0  0  0  0  0  0  0  0
  146.3580  141.4878  158.3632 H   0  0  0  0  0  0  0  0  0  0  0  0
  146.9192  143.1073  157.9402 H   0  0  0  0  0  0  0  0  0  0  0  0
  147.8080  142.1447  159.1198 H   0  0  0  0  0  0  0  0  0  0  0  0
  1  2  1  0  0  0  0
  1 35  1  0  0  0  0
  1 36  1  0  0  0  0
  1 37  1  0  0  0  0
  2 30  1  0  0  0  0
  2  3  2  0  0  0  0
  3  4  1  0  0  0  0
  3 38  1  0  0  0  0
  4  5  1  0  0  0  0
  4 28  2  0  0  0  0
  5  6  1  0  0  0  0
  5  7  1  0  0  0  0
  5  8  1  0  0  0  0
  6 39  1  0  0  0  0
  6 40  1  0  0  0  0
  6 41  1  0  0  0  0
  7 42  1  0  0  0  0
  8  9  1  0  0  0  0
  8 43  1  0  0  0  0
  8 44  1  0  0  0  0
  9 10  1  0  0  0  0
  9 45  1  0  0  0  0
 10 15  1  0  0  0  0
 10 11  2  0  0  0  0
 11 12  1  0  0  0  0
 12 13  2  0  0  0  0
 12 46  1  0  0  0  0
 13 14  1  0  0  0  0
 14 18  1  0  0  0  0
 14 15  2  0  0  0  0
 15 16  1  0  0  0  0
 16 17  2  0  0  0  0
 17 18  1  0  0  0  0
 17 47  1  0  0  0  0
 18 19  1  0  0  0  0
 19 31  1  0  0  0  0
 19 26  1  0  0  0  0
 19 20  1  0  0  0  0
 20 21  1  0  0  0  0
 21 32  1  0  0  0  0
 21 22  1  0  0  0  0
 21 24  1  0  0  0  0
 22 23  1  0  0  0  0
 22 48  1  0  0  0  0
 22 49  1  0  0  0  0
 23 50  1  0  0  0  0
 24 33  1  0  0  0  0
 24 25  1  0  0  0  0
 24 26  1  0  0  0  0
 25 51  1  0  0  0  0
 26 34  1  0  0  0  0
 26 27  1  0  0  0  0
 27 52  1  0  0  0  0
 28 29  1  0  0  0  0
 28 30  1  0  0  0  0
 29 53  1  0  0  0  0
 29 54  1  0  0  0  0
 29 55  1  0  0  0  0
M  END
> <s_m_source_file>
AV-unprocessed.smi

> <i_m_source_file_index>
287

> <i_lp_mmshare_version>
43012

> <i_f3d_flags>
0

> <s_epik_input>
W0NIM11jMVtjSF1jKGMobzEpW0NIM10pW0NAQF0oW0NIM10pKFtPSF0pW0NIMl1bTkhdYyhuW2NIXW4yKWMoYzIzKW5bY0hdbjNbQ0BASF00T1tDQEhdKFtDSDJdW09IXSlbQ0BASF0oW09IXSlbQ0BIXTRbT0hd

> <s_epik_cmdline>
J2VwaWtfcHl0aG9uJywgJy1waCcsICc3LjAnLCAnLXRuJywgJzgnLCAnLW1hJywgJzIwMCcsICctbWV0YWxfYmluZGluZycsICctaW1hZScsICc8aW5maWxlLm1hZT4nLCAnLW9tYWUnLCAnPG91dGZpbGUubWFlPic=

> <r_lp_tautomer_probability>
1

> <r_epik_Ionization_Penalty>
0.000992612

> <r_epik_Ionization_Penalty_Charging>
0

> <r_epik_Ionization_Penalty_Neutral>
0.000992612

> <r_epik_State_Penalty>
-0

> <r_epik_Charging_Adjusted_Penalty>
0

> <i_epik_Tot_Q>
0

> <i_epik_Tot_abs_Q>
0

> <r_epik_Metal_State_Penalty>
-0

> <b_epik_Metal_Only>
0

> <s_epik_Chemistry_Notes>
This compound contains an acetal/aminal-like group ( X-CH(R)-Y where X, Y are N, S, or O) that may be acid/base labile, releasing an aldehyde.

> <s_lp_Force_Field>
OPLS_2005

> <r_lp_Energy>
41.001

> <b_lp_Chiralities_Consistent>
1

> <s_lp_Variant>
AV-unprocessed.smi:287-17

> <Gold.Version>
5.8.1

> <Gold.Id.Protein>
6NUR|6NUR_protein|mol2

> <Gold.PLP.Fitness>
50.4961

> <Gold.PLP.PLP>
-38.0659

> <Gold.PLP.part.hbond>
-4.3881

> <Gold.PLP.part.metal>
0.0000

> <Gold.PLP.part.buried>
-6.0099

> <Gold.PLP.part.nonpolar>
-28.9843

> <Gold.PLP.part.repulsive>
0.8894

> <Gold.PLP.ligand.clash>
0.0000

> <Gold.PLP.ligand.torsion>
1.2074

> <Gold.PLP.Chemscore.Hbond>
4.0000

> <Gold.PLP.Chemscore.CHOScore>
0.9330

> <Gold.PLP.Chemscore.Metal>
0.0000

> <Gold.Chemscore.Hbonds>
donor molecule, donor type, donor heavy atom, donor atom, acceptor molecule, acceptor atom, score
      L1  H     7    42       P1 10175  0.41
      L1  H    23    50       P1 10747  0.82
      L1  H    25    51       P1 10186  1.00
      L1  H    27    52       P1  7921  1.00
      L1  C    17    47       P1  7948  0.76

> <Gold.PLP.Chemscore.Internal.Correction>
0.0458

> <Gold.Rescore>
     Score         DG    S(hbond)    S(metal)    S(lipo)     H(rot)  DE(clash)    DE(int)     intcor
     10.69     -13.02       3.82        0.00      70.64       5.27       0.01       2.32       ----

> <Gold.Chemscore.Fitness>
10.6936

> <Gold.Chemscore.DG>
-13.0200

> <Gold.Chemscore.ZeroCoef>
-5.4800

> <Gold.Chemscore.Hbond>
3.8199

> <Gold.Chemscore.Metal>
0.0000

> <Gold.Chemscore.Lipo>
70.6439

> <Gold.Chemscore.Internal_Hbond>
0.0000

> <Gold.Chemscore.DEClash>
0.0106

> <Gold.Chemscore.DEInternal>
2.3158

> <Gold.Chemscore.Rot>
5.2672

> <Gold.Chemscore.Internal.Correction>
   9.000000E+99

> <Gold.Chemscore.Hbonds>
donor molecule, donor type, donor heavy atom, donor atom, acceptor molecule, acceptor atom, score
      L1  H     7    42       P1 10175  0.27
      L1  H    23    50       P1 10747  0.81
      L1  H    25    51       P1 10186  0.96
      L1  H    27    52       P1  7921  0.86

> <Gold.Chemscore.Hbond.Weighted>
-12.7586

> <Gold.Chemscore.Metal.Weighted>
-0.0000

> <Gold.Chemscore.Lipo.Weighted>
-8.2653

> <Gold.Chemscore.Internal_Hbond.Weighted>
0.0000

> <Gold.Chemscore.DEClash.Weighted>
0.0106

> <Gold.Chemscore.DEInternal.Weighted>
2.3158

> <Gold.Chemscore.Rot.Weighted>
13.4839

> <Gold.Chemscore.Internal.Correction.Weighted>
   9.000000E+99

> <Gold.Protein.RotatedTorsions>
[ 6907 6896 6895 6894 ] final -145.70 input  -60.11 | X-H torsion
[ 7974 7965 7964 7962 ] final -144.70 input  175.53 | X-H torsion
[ 8008 7997 7996 7995 ] final -157.45 input   59.86 | X-H torsion
[ 10167 10162 10161 10158 ] final -163.53 input  -65.29 | X-H torsion
[ 10718 10713 10712 10709 ] final    3.81 input   66.30 | X-H torsion
[ 10763 10752 10751 10750 ] final  -25.71 input  -60.55 | X-H torsion
[ 11005 11000 10999 10996 ] final -126.72 input  -57.11 | X-H torsion

> <Gold.Protein.ActiveResidues>
 VAL166  LYS551  ARG553  GLY616  TRP617  ASP618  TYR619  PRO620  LYS621  CYS622 
 ASP623  PHE694  ASN695  SER759  ASP760  ASP761  ALA762  ILE779  LEU786  VAL792 
 PHE793  MET794  SER795  GLU796  ALA797  LYS798  CYS799  TRP800  GLU811  SER814 

> <Gold.Protein.RotatedAtoms>
  151.1314  133.5034  159.2598 H   0  0  0  0  0  0  0  0  0  0  0  0  # atno 6907 bound_to 6896
  151.1753  135.0336  159.8779 H   0  0  0  0  0  0  0  0  0  0  0  0  # atno 6908 bound_to 6896
  152.5460  134.1173  159.8437 H   0  0  0  0  0  0  0  0  0  0  0  0  # atno 6909 bound_to 6896
  144.8279  140.5676  143.5535 H   0  0  0  0  0  0  0  0  0  0  0  0  # atno 7974 bound_to 7965
  155.7327  140.0804  157.2282 H   0  0  0  0  0  0  0  0  0  0  0  0  # atno 8008 bound_to 7997
  154.4031  140.1592  156.2581 H   0  0  0  0  0  0  0  0  0  0  0  0  # atno 8009 bound_to 7997
  155.9094  140.3405  155.6090 H   0  0  0  0  0  0  0  0  0  0  0  0  # atno 8010 bound_to 7997
  139.6314  144.0433  152.2019 H   0  0  0  0  0  0  0  0  0  0  0  0  # atno 10167 bound_to 10162
  156.8834  130.5662  149.5652 H   0  0  0  0  0  0  0  0  0  0  0  0  # atno 10718 bound_to 10713
  153.7042  135.6954  153.5055 H   0  0  0  0  0  0  0  0  0  0  0  0  # atno 10763 bound_to 10752
  153.2320  135.4334  155.0604 H   0  0  0  0  0  0  0  0  0  0  0  0  # atno 10764 bound_to 10752
  154.8335  135.3486  154.6580 H   0  0  0  0  0  0  0  0  0  0  0  0  # atno 10765 bound_to 10752
  140.9658  134.0873  157.3921 H   0  0  0  0  0  0  0  0  0  0  0  0  # atno 11005 bound_to 11000
  145.4961  139.1486  143.3683 LP  0  0  0  0  0  0  0  0  0  0  0  0  # atno 17320 bound_to 7965
  146.2583  140.5100  142.8864 LP  0  0  0  0  0  0  0  0  0  0  0  0  # atno 17321 bound_to 7965
  140.0099  144.6231  150.7656 LP  0  0  0  0  0  0  0  0  0  0  0  0  # atno 17342 bound_to 10162
  140.7441  143.2856  151.3474 LP  0  0  0  0  0  0  0  0  0  0  0  0  # atno 17343 bound_to 10162
  156.0665  130.5707  150.9300 LP  0  0  0  0  0  0  0  0  0  0  0  0  # atno 17370 bound_to 10713
  157.6127  131.0935  150.8766 LP  0  0  0  0  0  0  0  0  0  0  0  0  # atno 17371 bound_to 10713
  139.8894  135.0105  156.6677 LP  0  0  0  0  0  0  0  0  0  0  0  0  # atno 17394 bound_to 11000
  140.7401  133.8985  155.8272 LP  0  0  0  0  0  0  0  0  0  0  0  0  # atno 17395 bound_to 11000

$$$$
