AV-unprocessed.smi:1493|AV-procd|sdf|6048|dock5
  -GOLD-   22720 6163D 1   1.00000     0.00000
 Structure written by MMmdl.
 33 33  0  0  0  0  0  0  0  0  2 V2000
  151.2908  145.2756  159.2329 C   0  0  0  0  0  0  0  0  0  0  0  0
  151.9521  144.2824  158.2710 C   0  0  0  0  0  0  0  0  0  0  0  0
  152.9506  143.3519  158.9811 C   0  0  0  0  0  0  0  0  0  0  0  0
  152.2943  142.3790  159.9792 C   0  0  2  0  0  0  0  0  0  0  0  0
  153.3488  141.6386  160.8173 C   0  0  0  0  0  0  0  0  0  0  0  0
  151.4532  141.4170  159.2710 N   0  0  0  0  0  0  0  0  0  0  0  0
  151.8971  140.4216  158.4876 C   0  0  0  0  0  0  0  0  0  0  0  0
  153.0932  140.2015  158.2903 O   0  0  0  0  0  0  0  0  0  0  0  0
  150.8132  139.5398  157.8478 C   0  0  0  0  0  0  0  0  0  0  0  0
  149.9608  140.2500  156.8828 N   0  0  0  0  0  0  0  0  0  0  0  0
  148.6566  140.6339  157.4165 N   0  5  0  0  0  0  0  0  0  0  0  0
  147.7736  141.2784  156.6083 C   0  0  0  0  0  0  0  0  0  0  0  0
  146.6525  141.6160  156.9813 O   0  0  0  0  0  0  0  0  0  0  0  0
  148.1861  141.5808  155.2478 C   0  0  0  0  0  0  0  0  0  0  0  0
  149.4068  141.2393  154.7903 C   0  0  0  0  0  0  0  0  0  0  0  0
  150.3838  140.5449  155.6201 C   0  0  0  0  0  0  0  0  0  0  0  0
  151.5061  140.2434  155.2131 O   0  0  0  0  0  0  0  0  0  0  0  0
  150.5891  145.9199  158.7028 H   0  0  0  0  0  0  0  0  0  0  0  0
  152.0330  145.9148  159.7117 H   0  0  0  0  0  0  0  0  0  0  0  0
  150.7390  144.7561  160.0167 H   0  0  0  0  0  0  0  0  0  0  0  0
  151.1797  143.6861  157.7844 H   0  0  0  0  0  0  0  0  0  0  0  0
  152.4556  144.8382  157.4794 H   0  0  0  0  0  0  0  0  0  0  0  0
  153.5146  142.7884  158.2364 H   0  0  0  0  0  0  0  0  0  0  0  0
  153.6808  143.9624  159.5138 H   0  0  0  0  0  0  0  0  0  0  0  0
  151.6710  142.9660  160.6565 H   0  0  0  0  0  0  0  0  0  0  0  0
  153.9764  142.3408  161.3667 H   0  0  0  0  0  0  0  0  0  0  0  0
  154.0004  141.0310  160.1882 H   0  0  0  0  0  0  0  0  0  0  0  0
  152.8812  140.9777  161.5481 H   0  0  0  0  0  0  0  0  0  0  0  0
  150.4547  141.5186  159.3810 H   0  0  0  0  0  0  0  0  0  0  0  0
  151.3093  138.6927  157.3711 H   0  0  0  0  0  0  0  0  0  0  0  0
  150.1866  139.1095  158.6312 H   0  0  0  0  0  0  0  0  0  0  0  0
  147.4996  142.0928  154.5898 H   0  0  0  0  0  0  0  0  0  0  0  0
  149.6711  141.4857  153.7730 H   0  0  0  0  0  0  0  0  0  0  0  0
  1  2  1  0  0  0  0
  1 18  1  0  0  0  0
  1 19  1  0  0  0  0
  1 20  1  0  0  0  0
  2  3  1  0  0  0  0
  2 21  1  0  0  0  0
  2 22  1  0  0  0  0
  3  4  1  0  0  0  0
  3 23  1  0  0  0  0
  3 24  1  0  0  0  0
  4  5  1  0  0  0  0
  4  6  1  0  0  0  0
  4 25  1  0  0  0  0
  5 26  1  0  0  0  0
  5 27  1  0  0  0  0
  5 28  1  0  0  0  0
  6  7  1  0  0  0  0
  6 29  1  0  0  0  0
  7  8  2  0  0  0  0
  7  9  1  0  0  0  0
  9 30  1  0  0  0  0
  9 31  1  0  0  0  0
  9 10  1  0  0  0  0
 10 11  1  0  0  0  0
 10 16  1  0  0  0  0
 11 12  1  0  0  0  0
 12 13  2  0  0  0  0
 12 14  1  0  0  0  0
 14 32  1  0  0  0  0
 14 15  2  0  0  0  0
 15 33  1  0  0  0  0
 15 16  1  0  0  0  0
 16 17  2  0  0  0  0
M  CHG  1  11  -1
M  END
> <s_m_source_file>
AV-unprocessed.smi

> <i_m_source_file_index>
1493

> <i_lp_mmshare_version>
43012

> <i_f3d_flags>
0

> <s_epik_input>
W0NIM11bQ0gyXVtDSDJdW0NASF0oW0NIM10pW05IXUMoPU8pW0NIMl1uMVtuSF1jKD1PKVtjSF1bY0hdYzE9Tw==

> <s_epik_cmdline>
J2VwaWtfcHl0aG9uJywgJy1waCcsICc3LjAnLCAnLXRuJywgJzgnLCAnLW1hJywgJzIwMCcsICctbWV0YWxfYmluZGluZycsICctaW1hZScsICc8aW5maWxlLm1hZT4nLCAnLW9tYWUnLCAnPG91dGZpbGUubWFlPic=

> <r_lp_tautomer_probability>
1

> <r_epik_Ionization_Penalty>
0.0986298

> <r_epik_Ionization_Penalty_Charging>
0.0986298

> <r_epik_Ionization_Penalty_Neutral>
1.93017e-08

> <r_epik_State_Penalty>
0.0347731

> <r_epik_Charging_Adjusted_Penalty>
0.133403

> <i_epik_Tot_Q>
-1

> <i_epik_Tot_abs_Q>
1

> <r_epik_Metal_State_Penalty>
0.0347731

> <b_epik_Metal_Only>
0

> <s_lp_Force_Field>
OPLS_2005

> <r_lp_Energy>
18.8288

> <b_lp_Chiralities_Consistent>
1

> <s_lp_Variant>
AV-unprocessed.smi:1493-1

> <Gold.Version>
5.8.1

> <Gold.Id.Protein>
6NUR|6NUR_protein|mol2

> <Gold.PLP.Fitness>
41.3982

> <Gold.PLP.PLP>
-36.1543

> <Gold.PLP.part.hbond>
-2.0000

> <Gold.PLP.part.metal>
0.0000

> <Gold.PLP.part.buried>
-2.8432

> <Gold.PLP.part.nonpolar>
-30.9768

> <Gold.PLP.part.repulsive>
0.3207

> <Gold.PLP.ligand.clash>
0.0000

> <Gold.PLP.ligand.torsion>
0.3912

> <Gold.PLP.Chemscore.Hbond>
1.9920

> <Gold.PLP.Chemscore.CHOScore>
0.0000

> <Gold.PLP.Chemscore.Metal>
0.0000

> <Gold.Chemscore.Hbonds>
donor molecule, donor type, donor heavy atom, donor atom, acceptor molecule, acceptor atom, score
      P1  H  7989  7998       L1    17  0.98
      P1  H  7997  8009       L1     8  0.96

> <Gold.PLP.Chemscore.Internal.Correction>
0.0503

> <Gold.Rescore>
     Score         DG    S(hbond)    S(metal)    S(lipo)     H(rot)  DE(clash)    DE(int)     intcor
     13.42     -15.29       1.98        0.00      74.12       2.14       0.00       1.87       ----

> <Gold.Chemscore.Fitness>
13.4203

> <Gold.Chemscore.DG>
-15.2938

> <Gold.Chemscore.ZeroCoef>
-5.4800

> <Gold.Chemscore.Hbond>
1.9799

> <Gold.Chemscore.Metal>
0.0000

> <Gold.Chemscore.Lipo>
74.1217

> <Gold.Chemscore.Internal_Hbond>
0.0000

> <Gold.Chemscore.DEClash>
0.0009

> <Gold.Chemscore.DEInternal>
1.8726

> <Gold.Chemscore.Rot>
2.1372

> <Gold.Chemscore.Internal.Correction>
   9.000000E+99

> <Gold.Chemscore.Hbonds>
donor molecule, donor type, donor heavy atom, donor atom, acceptor molecule, acceptor atom, score
      P1  H  7989  7998       L1    17  0.56
      P1  H  7997  8009       L1     8  0.91

> <Gold.Chemscore.Hbond.Weighted>
-6.6129

> <Gold.Chemscore.Metal.Weighted>
-0.0000

> <Gold.Chemscore.Lipo.Weighted>
-8.6722

> <Gold.Chemscore.Internal_Hbond.Weighted>
0.0000

> <Gold.Chemscore.DEClash.Weighted>
0.0009

> <Gold.Chemscore.DEInternal.Weighted>
1.8726

> <Gold.Chemscore.Rot.Weighted>
5.4713

> <Gold.Chemscore.Internal.Correction.Weighted>
   9.000000E+99

> <Gold.Protein.RotatedTorsions>
[ 6907 6896 6895 6894 ] final -155.26 input  -60.11 | X-H torsion
[ 7974 7965 7964 7962 ] final  116.39 input  175.53 | X-H torsion
[ 8008 7997 7996 7995 ] final  157.70 input   59.86 | X-H torsion
[ 10167 10162 10161 10158 ] final  -87.84 input  -65.29 | X-H torsion
[ 10718 10713 10712 10709 ] final -167.34 input   66.30 | X-H torsion
[ 10763 10752 10751 10750 ] final -145.14 input  -60.55 | X-H torsion
[ 11005 11000 10999 10996 ] final  -99.83 input  -57.11 | X-H torsion

> <Gold.Protein.ActiveResidues>
 VAL166  LYS551  ARG553  GLY616  TRP617  ASP618  TYR619  PRO620  LYS621  CYS622 
 ASP623  PHE694  ASN695  SER759  ASP760  ASP761  ALA762  ILE779  LEU786  VAL792 
 PHE793  MET794  SER795  GLU796  ALA797  LYS798  CYS799  TRP800  GLU811  SER814 

> <Gold.Protein.RotatedAtoms>
  151.2699  133.4260  159.2620 H   0  0  0  0  0  0  0  0  0  0  0  0  # atno 6907 bound_to 6896
  151.0454  134.9637  159.8194 H   0  0  0  0  0  0  0  0  0  0  0  0  # atno 6908 bound_to 6896
  152.5373  134.2655  159.9004 H   0  0  0  0  0  0  0  0  0  0  0  0  # atno 6909 bound_to 6896
  145.1802  139.3054  143.4422 H   0  0  0  0  0  0  0  0  0  0  0  0  # atno 7974 bound_to 7965
  156.2348  140.1878  156.7148 H   0  0  0  0  0  0  0  0  0  0  0  0  # atno 8008 bound_to 7997
  154.6087  140.0625  156.9492 H   0  0  0  0  0  0  0  0  0  0  0  0  # atno 8009 bound_to 7997
  155.2053  140.3295  155.4339 H   0  0  0  0  0  0  0  0  0  0  0  0  # atno 8010 bound_to 7997
  140.3805  143.2751  151.9389 H   0  0  0  0  0  0  0  0  0  0  0  0  # atno 10167 bound_to 10162
  156.6810  130.9121  151.3057 H   0  0  0  0  0  0  0  0  0  0  0  0  # atno 10718 bound_to 10713
  154.8397  135.3421  154.6458 H   0  0  0  0  0  0  0  0  0  0  0  0  # atno 10763 bound_to 10752
  153.7070  135.6966  153.5052 H   0  0  0  0  0  0  0  0  0  0  0  0  # atno 10764 bound_to 10752
  153.2480  135.4362  155.0722 H   0  0  0  0  0  0  0  0  0  0  0  0  # atno 10765 bound_to 10752
  141.1294  133.8352  157.1023 H   0  0  0  0  0  0  0  0  0  0  0  0  # atno 11005 bound_to 11000
  146.3454  140.1979  142.8589 LP  0  0  0  0  0  0  0  0  0  0  0  0  # atno 17320 bound_to 7965
  145.0144  140.8741  143.5205 LP  0  0  0  0  0  0  0  0  0  0  0  0  # atno 17321 bound_to 7965
  139.4796  144.5823  151.7912 LP  0  0  0  0  0  0  0  0  0  0  0  0  # atno 17342 bound_to 10162
  140.4942  144.1265  150.5956 LP  0  0  0  0  0  0  0  0  0  0  0  0  # atno 17343 bound_to 10162
  157.7044  130.9368  150.0883 LP  0  0  0  0  0  0  0  0  0  0  0  0  # atno 17370 bound_to 10713
  156.1868  130.3652  149.8962 LP  0  0  0  0  0  0  0  0  0  0  0  0  # atno 17371 bound_to 10713
  140.0326  134.9894  157.0809 LP  0  0  0  0  0  0  0  0  0  0  0  0  # atno 17394 bound_to 11000
  140.4262  134.1829  155.7166 LP  0  0  0  0  0  0  0  0  0  0  0  0  # atno 17395 bound_to 11000

$$$$
