AV-unprocessed.smi:104|AV-procd|sdf|1002|dock5
  -GOLD-   2262017593D 1   1.00000     0.00000
 Structure written by MMmdl.
 47 49  0  0  0  0  0  0  0  0  1 V2000
  147.1551  134.3219  161.9506 C   0  0  0  0  0  0  0  0  0  0  0  0
  148.1120  135.4867  161.7358 C   0  0  0  0  0  0  0  0  0  0  0  0
  148.4886  136.1926  162.6714 O   0  0  0  0  0  0  0  0  0  0  0  0
  148.4668  135.6240  160.4514 O   0  0  0  0  0  0  0  0  0  0  0  0
  149.4790  136.5516  160.0949 C   0  0  0  0  0  0  0  0  0  0  0  0
  149.2944  137.0099  158.6416 C   0  0  1  0  0  0  0  0  0  0  0  0
  149.2054  138.4227  158.5611 O   0  0  0  0  0  0  0  0  0  0  0  0
  149.5029  138.8199  157.2595 C   0  0  1  0  0  0  0  0  0  0  0  0
  150.2982  140.0880  157.3430 N   0  0  0  0  0  0  0  0  0  0  0  0
  150.1703  141.2448  156.6082 C   0  0  0  0  0  0  0  0  0  0  0  0
  148.8641  141.4443  155.2367 Br  0  0  0  0  0  0  0  0  0  0  0  0
  150.9998  142.2147  156.8747 N   0  0  0  0  0  0  0  0  0  0  0  0
  151.7832  141.6775  157.8886 C   0  0  0  0  0  0  0  0  0  0  0  0
  152.8789  142.1600  158.6480 C   0  0  0  0  0  0  0  0  0  0  0  0
  153.3982  143.3847  158.4857 N   0  0  0  0  0  0  0  0  0  0  0  0
  153.4299  141.3461  159.5787 N   0  0  0  0  0  0  0  0  0  0  0  0
  152.9325  140.1183  159.7584 C   0  0  0  0  0  0  0  0  0  0  0  0
  151.9130  139.5297  159.1281 N   0  0  0  0  0  0  0  0  0  0  0  0
  151.3562  140.3516  158.1908 C   0  0  0  0  0  0  0  0  0  0  0  0
  150.2740  137.6700  156.5695 C   0  0  1  0  0  0  0  0  0  0  0  0
  151.5411  138.0867  156.0690 O   0  0  0  0  0  0  0  0  0  0  0  0
  151.6286  138.7690  154.9169 C   0  0  0  0  0  0  0  0  0  0  0  0
  152.9378  138.5022  154.1873 C   0  0  0  0  0  0  0  0  0  0  0  0
  150.7783  139.5317  154.4582 O   0  0  0  0  0  0  0  0  0  0  0  0
  150.4310  136.6444  157.6848 C   0  0  2  0  0  0  0  0  0  0  0  0
  150.2663  135.3356  157.1554 O   0  0  0  0  0  0  0  0  0  0  0  0
  150.9527  134.9551  156.0648 C   0  0  0  0  0  0  0  0  0  0  0  0
  150.6382  133.5232  155.6539 C   0  0  0  0  0  0  0  0  0  0  0  0
  151.7571  135.6429  155.4358 O   0  0  0  0  0  0  0  0  0  0  0  0
  146.2662  134.4425  161.3313 H   0  0  0  0  0  0  0  0  0  0  0  0
  146.8450  134.2673  162.9942 H   0  0  0  0  0  0  0  0  0  0  0  0
  147.6394  133.3825  161.6846 H   0  0  0  0  0  0  0  0  0  0  0  0
  149.4303  137.4166  160.7578 H   0  0  0  0  0  0  0  0  0  0  0  0
  150.4614  136.0961  160.2254 H   0  0  0  0  0  0  0  0  0  0  0  0
  148.3544  136.6100  158.2569 H   0  0  0  0  0  0  0  0  0  0  0  0
  148.5862  139.0838  156.7336 H   0  0  0  0  0  0  0  0  0  0  0  0
  153.0065  144.0100  157.7958 H   0  0  0  0  0  0  0  0  0  0  0  0
  154.1785  143.6813  159.0539 H   0  0  0  0  0  0  0  0  0  0  0  0
  153.4227  139.5215  160.5131 H   0  0  0  0  0  0  0  0  0  0  0  0
  149.6331  137.2881  155.7731 H   0  0  0  0  0  0  0  0  0  0  0  0
  153.7744  138.9194  154.7480 H   0  0  0  0  0  0  0  0  0  0  0  0
  152.9242  138.9560  153.1962 H   0  0  0  0  0  0  0  0  0  0  0  0
  153.0967  137.4296  154.0739 H   0  0  0  0  0  0  0  0  0  0  0  0
  151.4012  136.7854  158.1639 H   0  0  0  0  0  0  0  0  0  0  0  0
  151.0047  132.8248  156.4062 H   0  0  0  0  0  0  0  0  0  0  0  0
  151.1117  133.2853  154.7012 H   0  0  0  0  0  0  0  0  0  0  0  0
  149.5618  133.3865  155.5483 H   0  0  0  0  0  0  0  0  0  0  0  0
  1  2  1  0  0  0  0
  1 30  1  0  0  0  0
  1 31  1  0  0  0  0
  1 32  1  0  0  0  0
  2  3  2  0  0  0  0
  2  4  1  0  0  0  0
  4  5  1  0  0  0  0
  5  6  1  0  0  0  0
  5 33  1  0  0  0  0
  5 34  1  0  0  0  0
  6 25  1  0  0  0  0
  6  7  1  0  0  0  0
  6 35  1  0  0  0  0
  7  8  1  0  0  0  0
  8  9  1  0  0  0  0
  8 20  1  0  0  0  0
  8 36  1  0  0  0  0
  9 19  1  0  0  0  0
  9 10  1  0  0  0  0
 10 11  1  0  0  0  0
 10 12  2  0  0  0  0
 12 13  1  0  0  0  0
 13 19  2  0  0  0  0
 13 14  1  0  0  0  0
 14 15  1  0  0  0  0
 14 16  2  0  0  0  0
 15 37  1  0  0  0  0
 15 38  1  0  0  0  0
 16 17  1  0  0  0  0
 17 18  2  0  0  0  0
 17 39  1  0  0  0  0
 18 19  1  0  0  0  0
 20 21  1  0  0  0  0
 20 25  1  0  0  0  0
 20 40  1  0  0  0  0
 21 22  1  0  0  0  0
 22 23  1  0  0  0  0
 22 24  2  0  0  0  0
 23 41  1  0  0  0  0
 23 42  1  0  0  0  0
 23 43  1  0  0  0  0
 25 26  1  0  0  0  0
 25 44  1  0  0  0  0
 26 27  1  0  0  0  0
 27 28  1  0  0  0  0
 27 29  2  0  0  0  0
 28 45  1  0  0  0  0
 28 46  1  0  0  0  0
 28 47  1  0  0  0  0
M  END
> <s_m_source_file>
AV-unprocessed.smi

> <i_m_source_file_index>
104

> <i_lp_mmshare_version>
43012

> <i_f3d_flags>
0

> <s_epik_input>
W0NIM11DKD1PKU9bQ0gyXVtDQEBIXTFPW0NASF0oW0NAQEhdKE9DKD1PKVtDSDNdKVtDQEhdMU9DKD1PKVtDSDNdKW4oYyhCciluMiljKGMyMyluW2NIXW5jM1tOSDJd

> <s_epik_cmdline>
J2VwaWtfcHl0aG9uJywgJy1waCcsICc3LjAnLCAnLXRuJywgJzgnLCAnLW1hJywgJzIwMCcsICctbWV0YWxfYmluZGluZycsICctaW1hZScsICc8aW5maWxlLm1hZT4nLCAnLW9tYWUnLCAnPG91dGZpbGUubWFlPic=

> <r_lp_tautomer_probability>
1

> <r_epik_Ionization_Penalty>
7.36622e-05

> <r_epik_Ionization_Penalty_Charging>
0

> <r_epik_Ionization_Penalty_Neutral>
7.36622e-05

> <r_epik_State_Penalty>
-0

> <r_epik_Charging_Adjusted_Penalty>
0

> <i_epik_Tot_Q>
0

> <i_epik_Tot_abs_Q>
0

> <r_epik_Metal_State_Penalty>
-0

> <b_epik_Metal_Only>
0

> <s_epik_Chemistry_Notes>
This compound has an ester and may undergo hydrolysis at high or low pH. This compound contains an acetal/aminal-like group ( X-CH(R)-Y where X, Y are N, S, or O) that may be acid/base labile, releasing an aldehyde.

> <s_lp_Force_Field>
OPLS_2005

> <r_lp_Energy>
14.3188

> <b_lp_Chiralities_Consistent>
1

> <s_lp_Variant>
AV-unprocessed.smi:104-10

> <Gold.Version>
5.8.1

> <Gold.Id.Protein>
6NUR|6NUR_protein|mol2

> <Gold.PLP.Fitness>
45.4795

> <Gold.PLP.PLP>
-40.3868

> <Gold.PLP.part.hbond>
-4.3695

> <Gold.PLP.part.metal>
0.0000

> <Gold.PLP.part.buried>
-6.8141

> <Gold.PLP.part.nonpolar>
-30.6061

> <Gold.PLP.part.repulsive>
1.0486

> <Gold.PLP.ligand.clash>
0.0000

> <Gold.PLP.ligand.torsion>
1.9118

> <Gold.PLP.Chemscore.Hbond>
2.9350

> <Gold.PLP.Chemscore.CHOScore>
0.0000

> <Gold.PLP.Chemscore.Metal>
0.0000

> <Gold.Chemscore.Hbonds>
donor molecule, donor type, donor heavy atom, donor atom, acceptor molecule, acceptor atom, score
      P1  H  6931  6943       L1     3  0.47
      P1  H  7989  7998       L1    24  1.00
      P1  H 10752 10764       L1    29  0.63

> <Gold.PLP.Chemscore.Internal.Correction>
0.1112

> <Gold.Rescore>
     Score         DG    S(hbond)    S(metal)    S(lipo)     H(rot)  DE(clash)    DE(int)     intcor
      0.56      -7.68       2.16        0.00      51.36       4.31       1.58       5.54       ----

> <Gold.Chemscore.Fitness>
0.5583

> <Gold.Chemscore.DG>
-7.6761

> <Gold.Chemscore.ZeroCoef>
-5.4800

> <Gold.Chemscore.Hbond>
2.1596

> <Gold.Chemscore.Metal>
0.0000

> <Gold.Chemscore.Lipo>
51.3577

> <Gold.Chemscore.Internal_Hbond>
0.0000

> <Gold.Chemscore.DEClash>
1.5802

> <Gold.Chemscore.DEInternal>
5.5376

> <Gold.Chemscore.Rot>
4.3070

> <Gold.Chemscore.Internal.Correction>
   9.000000E+99

> <Gold.Chemscore.Hbonds>
donor molecule, donor type, donor heavy atom, donor atom, acceptor molecule, acceptor atom, score
      P1  H  6931  6943       L1     3  0.37
      P1  H  7989  7998       L1    24  0.70
      P1  H 10752 10764       L1    29  0.63

> <Gold.Chemscore.Hbond.Weighted>
-7.2131

> <Gold.Chemscore.Metal.Weighted>
-0.0000

> <Gold.Chemscore.Lipo.Weighted>
-6.0089

> <Gold.Chemscore.Internal_Hbond.Weighted>
0.0000

> <Gold.Chemscore.DEClash.Weighted>
1.5802

> <Gold.Chemscore.DEInternal.Weighted>
5.5376

> <Gold.Chemscore.Rot.Weighted>
11.0259

> <Gold.Chemscore.Internal.Correction.Weighted>
   9.000000E+99

> <Gold.Protein.RotatedTorsions>
[ 6907 6896 6895 6894 ] final   84.50 input  -60.11 | X-H torsion
[ 7974 7965 7964 7962 ] final   -2.37 input  175.53 | X-H torsion
[ 8008 7997 7996 7995 ] final -107.89 input   59.86 | X-H torsion
[ 10167 10162 10161 10158 ] final -142.29 input  -65.29 | X-H torsion
[ 10718 10713 10712 10709 ] final   56.60 input   66.30 | X-H torsion
[ 10763 10752 10751 10750 ] final  -43.32 input  -60.55 | X-H torsion
[ 11005 11000 10999 10996 ] final  -71.84 input  -57.11 | X-H torsion

> <Gold.Protein.ActiveResidues>
 VAL166  LYS551  ARG553  GLY616  TRP617  ASP618  TYR619  PRO620  LYS621  CYS622 
 ASP623  PHE694  ASN695  SER759  ASP760  ASP761  ALA762  ILE779  LEU786  VAL792 
 PHE793  MET794  SER795  GLU796  ALA797  LYS798  CYS799  TRP800  GLU811  SER814 

> <Gold.Protein.RotatedAtoms>
  152.5353  134.2732  159.8979 H   0  0  0  0  0  0  0  0  0  0  0  0  # atno 6907 bound_to 6896
  151.2688  133.4259  159.2627 H   0  0  0  0  0  0  0  0  0  0  0  0  # atno 6908 bound_to 6896
  151.0386  134.9606  159.8206 H   0  0  0  0  0  0  0  0  0  0  0  0  # atno 6909 bound_to 6896
  146.2405  140.1560  142.8333 H   0  0  0  0  0  0  0  0  0  0  0  0  # atno 7974 bound_to 7965
  154.9361  140.0404  157.2073 H   0  0  0  0  0  0  0  0  0  0  0  0  # atno 8008 bound_to 7997
  154.8113  140.2868  155.5829 H   0  0  0  0  0  0  0  0  0  0  0  0  # atno 8009 bound_to 7997
  156.2972  140.2536  156.3002 H   0  0  0  0  0  0  0  0  0  0  0  0  # atno 8010 bound_to 7997
  139.8102  143.7712  152.2663 H   0  0  0  0  0  0  0  0  0  0  0  0  # atno 10167 bound_to 10162
  157.5444  130.8720  149.8870 H   0  0  0  0  0  0  0  0  0  0  0  0  # atno 10718 bound_to 10713
  153.9935  135.6702  153.4755 H   0  0  0  0  0  0  0  0  0  0  0  0  # atno 10763 bound_to 10752
  153.0694  135.4983  154.8268 H   0  0  0  0  0  0  0  0  0  0  0  0  # atno 10764 bound_to 10752
  154.7095  135.3094  154.9182 H   0  0  0  0  0  0  0  0  0  0  0  0  # atno 10765 bound_to 10752
  141.1599  133.6829  156.6967 H   0  0  0  0  0  0  0  0  0  0  0  0  # atno 11005 bound_to 11000
  145.0128  140.8729  143.5213 LP  0  0  0  0  0  0  0  0  0  0  0  0  # atno 17320 bound_to 7965
  145.1596  139.2466  143.5398 LP  0  0  0  0  0  0  0  0  0  0  0  0  # atno 17321 bound_to 7965
  139.7859  144.7428  151.0022 LP  0  0  0  0  0  0  0  0  0  0  0  0  # atno 17342 bound_to 10162
  140.7818  143.4493  151.0437 LP  0  0  0  0  0  0  0  0  0  0  0  0  # atno 17343 bound_to 10162
  156.0523  130.3715  150.1171 LP  0  0  0  0  0  0  0  0  0  0  0  0  # atno 17370 bound_to 10713
  156.9349  130.9725  151.3526 LP  0  0  0  0  0  0  0  0  0  0  0  0  # atno 17371 bound_to 10713
  140.2989  134.8179  157.4081 LP  0  0  0  0  0  0  0  0  0  0  0  0  # atno 17394 bound_to 11000
  140.1279  134.5133  155.8129 LP  0  0  0  0  0  0  0  0  0  0  0  0  # atno 17395 bound_to 11000

$$$$
