#       Name:                AV-unprocessed.smi:1904
#       Creating user name   scv26
#       Creation time:       Fri Mar 27 09:46:29 2020


#       File generated by GOLD software.
#

@<TRIPOS>MOLECULE
AV-unprocessed.smi:1904
    53    54     1
SMALL
NO_CHARGES


@<TRIPOS>ATOM
      1 ****        -3.7840   0.3677   0.5700 C.3            1 S1                 0.0000
      2 ****        -3.3101   1.1026   1.7911 C.2            1 S1                 0.0000
      3 ****        -3.5852   2.3896   1.9189 N.2            1 S1                 0.0000
      4 ****        -3.0255   2.7465   3.0921 N.pl3          1 S1                 0.0000
      5 ****        -3.1431   4.1182   3.5476 C.3            1 S1                 0.0000
      6 ****        -2.3877   1.6843   3.7029 C.2            1 S1                 0.0000
      7 ****        -1.6763   1.8281   5.0098 C.3            1 S1                 0.0000
      8 ****        -2.5555   0.5950   2.8900 C.2            1 S1                 0.0000
      9 ****        -2.0575  -0.8142   3.0881 C.3            1 S1                 0.0000
     10 ****        -0.7613  -1.0079   2.3021 C.2            1 S1                 0.0000
     11 ****         0.2914  -0.5251   2.7195 O.2            1 S1                 0.0000
     12 ****        -0.8530  -1.6969   1.1543 N.am           1 S1                 0.0000
     13 ****         0.2509  -1.9316   0.2325 C.3            1 S1                 0.0000
     14 ****         0.4521  -0.7274  -0.7075 C.3            1 S1                 0.0000
     15 ****         1.6139  -0.8982  -1.6162 N.4            1 S1                 1.0000
     16 ****         2.0912   0.3995  -2.1604 C.3            1 S1                 0.0000
     17 ****         3.3793   0.2207  -2.9813 C.3            1 S1                 0.0000
     18 ****         3.1812  -0.7943  -4.1191 C.3            1 S1                 0.0000
     19 ****         4.4725  -1.0064  -4.9219 C.3            1 S1                 0.0000
     20 ****         2.6518  -2.1134  -3.5324 C.3            1 S1                 0.0000
     21 ****         1.3769  -1.8860  -2.7027 C.3            1 S1                 0.0000
     22 ****        -4.2120  -0.5987   0.8358 H              1 S1                 0.0000
     23 ****        -2.9582   0.1881  -0.1184 H              1 S1                 0.0000
     24 ****        -4.5487   0.9293   0.0322 H              1 S1                 0.0000
     25 ****        -3.4644   4.1341   4.5893 H              1 S1                 0.0000
     26 ****        -3.8746   4.6616   2.9479 H              1 S1                 0.0000
     27 ****        -2.1765   4.6154   3.4647 H              1 S1                 0.0000
     28 ****        -1.0889   0.9402   5.2420 H              1 S1                 0.0000
     29 ****        -2.3877   1.9829   5.8209 H              1 S1                 0.0000
     30 ****        -0.9944   2.6785   4.9902 H              1 S1                 0.0000
     31 ****        -1.8647  -1.0301   4.1392 H              1 S1                 0.0000
     32 ****        -2.7997  -1.5457   2.7659 H              1 S1                 0.0000
     33 ****        -1.7575  -2.0604   0.8901 H              1 S1                 0.0000
     34 ****         1.1670  -2.1449   0.7862 H              1 S1                 0.0000
     35 ****         0.0114  -2.8319  -0.3319 H              1 S1                 0.0000
     36 ****        -0.4499  -0.5375  -1.2917 H              1 S1                 0.0000
     37 ****         0.6132   0.1607  -0.0943 H              1 S1                 0.0000
     38 ****         1.3096   0.8463  -2.7771 H              1 S1                 0.0000
     39 ****         2.2854   1.0944  -1.3425 H              1 S1                 0.0000
     40 ****         3.6896   1.1830  -3.3900 H              1 S1                 0.0000
     41 ****         4.1860  -0.1097  -2.3254 H              1 S1                 0.0000
     42 ****         2.4274  -0.3982  -4.8014 H              1 S1                 0.0000
     43 ****         5.2704  -1.4030  -4.2933 H              1 S1                 0.0000
     44 ****         4.8242  -0.0693  -5.3544 H              1 S1                 0.0000
     45 ****         4.3148  -1.7082  -5.7412 H              1 S1                 0.0000
     46 ****         2.4452  -2.8224  -4.3349 H              1 S1                 0.0000
     47 ****         3.4166  -2.5731  -2.9046 H              1 S1                 0.0000
     48 ****         1.0575  -2.8412  -2.2885 H              1 S1                 0.0000
     49 ****         0.5682  -1.5350  -3.3456 H              1 S1                 0.0000
     50 ****         2.3683  -1.2582  -1.0490 H              1 S1                 0.0000
     51 ****        -4.0959   2.9703   1.2849 LP             1 S1                 0.0000
     52 ****         0.2990  -0.0054   3.5739 LP             1 S1                 0.0000
     53 ****         1.1389  -0.6525   2.2043 LP             1 S1                 0.0000
@<TRIPOS>BOND
    1    1    2 1     
    2    1   22 1     
    3    1   23 1     
    4    1   24 1     
    5    2    8 1     
    6    2    3 2     
    7    3    4 1     
    8    4    5 1     
    9    4    6 1     
   10    5   25 1     
   11    5   26 1     
   12    5   27 1     
   13    6    7 1     
   14    6    8 2     
   15    7   28 1     
   16    7   29 1     
   17    7   30 1     
   18    8    9 1     
   19    9   10 1     
   20    9   31 1     
   21    9   32 1     
   22   10   11 2     
   23   10   12 am    
   24   12   13 1     
   25   12   33 1     
   26   13   14 1     
   27   13   34 1     
   28   13   35 1     
   29   14   15 1     
   30   14   36 1     
   31   14   37 1     
   32   15   21 1     
   33   15   16 1     
   34   15   50 1     
   35   16   17 1     
   36   16   38 1     
   37   16   39 1     
   38   17   18 1     
   39   17   40 1     
   40   17   41 1     
   41   18   19 1     
   42   18   20 1     
   43   18   42 1     
   44   19   43 1     
   45   19   44 1     
   46   19   45 1     
   47   20   21 1     
   48   20   46 1     
   49   20   47 1     
   50   21   48 1     
   51   21   49 1     
   52    3   51 1     
   53   11   52 1     
   54   11   53 1     
@<TRIPOS>SUBSTRUCTURE
      1 S1             1
@<TRIPOS>SET
LONE_PAIRS      STATIC     ATOMS    <user>   **** ""
3 51 52 53
DONOR_HYDROGENS      STATIC     ATOMS    <user>   **** ""
2 33 50
ATOM$BLUE        STATIC     ATOMS    COLORGROUP SYSTEM
3 51 52 53
ATOM$RED        STATIC     ATOMS    COLORGROUP SYSTEM
2 33 50
