AV-unprocessed.smi:3338|AV-procd|sdf|12876|dock2
  -GOLD-   2272019283D 1   1.00000     0.00000
 Structure written by MMmdl.
 44 45  0  0  0  0  0  0  0  0  2 V2000
  149.3083  140.9201  154.3563 C   0  0  0  0  0  0  0  0  0  0  0  0
  149.8258  139.4844  154.1900 C   0  0  1  0  0  0  0  0  0  0  0  0
  151.2336  139.3219  154.7870 C   0  0  0  0  0  0  0  0  0  0  0  0
  151.7132  137.8733  154.6310 C   0  0  0  0  0  0  0  0  0  0  0  0
  150.7015  136.8896  155.2401 C   0  0  0  0  0  0  0  0  0  0  0  0
  149.3531  137.0669  154.6412 N   0  3  1  0  0  0  0  0  0  0  0  0
  148.3915  136.0384  155.1140 C   0  0  0  0  0  0  0  0  0  0  0  0
  148.9759  134.6175  155.0581 C   0  0  0  0  0  0  0  0  0  0  0  0
  148.4295  133.8828  153.9261 N   0  0  0  0  0  0  0  0  0  0  0  0
  147.1459  133.5068  153.8191 C   0  0  0  0  0  0  0  0  0  0  0  0
  146.3106  133.7362  154.6947 O   0  0  0  0  0  0  0  0  0  0  0  0
  146.7580  132.7561  152.5328 C   0  0  1  0  0  0  0  0  0  0  0  0
  146.2554  131.3226  152.7983 C   0  0  0  0  0  0  0  0  0  0  0  0
  145.7969  133.5277  151.7525 N   0  0  0  0  0  0  0  0  0  0  0  0
  145.9092  134.8324  151.3168 C   0  0  0  0  0  0  0  0  0  0  0  0
  144.7615  135.1412  150.6449 C   0  0  0  0  0  0  0  0  0  0  0  0
  143.9913  133.9481  150.7249 C   0  0  0  0  0  0  0  0  0  0  0  0
  144.6091  132.9877  151.3925 N   0  0  0  0  0  0  0  0  0  0  0  0
  148.8585  138.4595  154.8156 C   0  0  0  0  0  0  0  0  0  0  0  0
  149.2203  141.1906  155.4091 H   0  0  0  0  0  0  0  0  0  0  0  0
  148.3259  141.0397  153.8988 H   0  0  0  0  0  0  0  0  0  0  0  0
  149.9799  141.6374  153.8836 H   0  0  0  0  0  0  0  0  0  0  0  0
  149.8866  139.2802  153.1196 H   0  0  0  0  0  0  0  0  0  0  0  0
  151.9341  139.9992  154.2968 H   0  0  0  0  0  0  0  0  0  0  0  0
  151.2245  139.5939  155.8435 H   0  0  0  0  0  0  0  0  0  0  0  0
  151.8563  137.6457  153.5738 H   0  0  0  0  0  0  0  0  0  0  0  0
  152.6860  137.7503  155.1081 H   0  0  0  0  0  0  0  0  0  0  0  0
  151.0512  135.8705  155.0702 H   0  0  0  0  0  0  0  0  0  0  0  0
  150.6426  137.0300  156.3207 H   0  0  0  0  0  0  0  0  0  0  0  0
  148.1224  136.2493  156.1502 H   0  0  0  0  0  0  0  0  0  0  0  0
  147.4677  136.1028  154.5365 H   0  0  0  0  0  0  0  0  0  0  0  0
  150.0613  134.6416  154.9616 H   0  0  0  0  0  0  0  0  0  0  0  0
  148.7445  134.0820  155.9803 H   0  0  0  0  0  0  0  0  0  0  0  0
  149.0586  133.6585  153.1686 H   0  0  0  0  0  0  0  0  0  0  0  0
  147.6656  132.6728  151.9328 H   0  0  0  0  0  0  0  0  0  0  0  0
  147.0065  130.7315  153.3237 H   0  0  0  0  0  0  0  0  0  0  0  0
  146.0347  130.8095  151.8619 H   0  0  0  0  0  0  0  0  0  0  0  0
  145.3461  131.3136  153.4006 H   0  0  0  0  0  0  0  0  0  0  0  0
  146.7883  135.4268  151.5183 H   0  0  0  0  0  0  0  0  0  0  0  0
  144.5100  136.0770  150.1680 H   0  0  0  0  0  0  0  0  0  0  0  0
  143.0079  133.7536  150.3228 H   0  0  0  0  0  0  0  0  0  0  0  0
  148.7249  138.6665  155.8789 H   0  0  0  0  0  0  0  0  0  0  0  0
  147.8803  138.5716  154.3495 H   0  0  0  0  0  0  0  0  0  0  0  0
  149.4662  136.9163  153.6488 H   0  0  0  0  0  0  0  0  0  0  0  0
  1  2  1  0  0  0  0
  1 20  1  0  0  0  0
  1 21  1  0  0  0  0
  1 22  1  0  0  0  0
  2 19  1  0  0  0  0
  2  3  1  0  0  0  0
  2 23  1  0  0  0  0
  3  4  1  0  0  0  0
  3 24  1  0  0  0  0
  3 25  1  0  0  0  0
  4  5  1  0  0  0  0
  4 26  1  0  0  0  0
  4 27  1  0  0  0  0
  5  6  1  0  0  0  0
  5 28  1  0  0  0  0
  5 29  1  0  0  0  0
  6  7  1  0  0  0  0
  6 19  1  0  0  0  0
  6 44  1  0  0  0  0
  7  8  1  0  0  0  0
  7 30  1  0  0  0  0
  7 31  1  0  0  0  0
  8  9  1  0  0  0  0
  8 32  1  0  0  0  0
  8 33  1  0  0  0  0
  9 10  1  0  0  0  0
  9 34  1  0  0  0  0
 10 11  2  0  0  0  0
 10 12  1  0  0  0  0
 12 13  1  0  0  0  0
 12 14  1  0  0  0  0
 12 35  1  0  0  0  0
 13 36  1  0  0  0  0
 13 37  1  0  0  0  0
 13 38  1  0  0  0  0
 14 18  1  0  0  0  0
 14 15  1  0  0  0  0
 15 16  2  0  0  0  0
 15 39  1  0  0  0  0
 16 17  1  0  0  0  0
 16 40  1  0  0  0  0
 17 18  2  0  0  0  0
 17 41  1  0  0  0  0
 19 42  1  0  0  0  0
 19 43  1  0  0  0  0
M  CHG  1   6   1
M  END
> <s_m_source_file>
AV-unprocessed.smi

> <i_m_source_file_index>
3338

> <i_lp_mmshare_version>
43012

> <i_f3d_flags>
0

> <s_epik_input>
W0NIM11bQ0BASF0xW0NIMl1bQ0gyXVtDSDJdTihbQ0gyXTEpW0NIMl1bQ0gyXVtOSF1DKD1PKVtDQEhdKFtDSDNdKW4yW2NIXVtjSF1bY0hdbjI=

> <s_epik_cmdline>
J2VwaWtfcHl0aG9uJywgJy1waCcsICc3LjAnLCAnLXRuJywgJzgnLCAnLW1hJywgJzIwMCcsICctbWV0YWxfYmluZGluZycsICctaW1hZScsICc8aW5maWxlLm1hZT4nLCAnLW9tYWUnLCAnPG91dGZpbGUubWFlPic=

> <r_lp_tautomer_probability>
1

> <r_epik_Ionization_Penalty>
0.00225707

> <r_epik_Ionization_Penalty_Charging>
0.00223709

> <r_epik_Ionization_Penalty_Neutral>
1.99775e-05

> <r_epik_State_Penalty>
0.00153978

> <r_epik_Charging_Adjusted_Penalty>
0.00377687

> <i_epik_Tot_Q>
1

> <i_epik_Tot_abs_Q>
1

> <r_epik_Metal_State_Penalty>
-0

> <b_epik_Metal_Only>
0

> <s_lp_Force_Field>
OPLS_2005

> <r_lp_Energy>
20.7823

> <b_lp_Chiralities_Consistent>
1

> <s_lp_Variant>
AV-unprocessed.smi:3338-8

> <Gold.Version>
5.8.1

> <Gold.Id.Protein>
6NUR|6NUR_protein|mol2

> <Gold.PLP.Fitness>
44.7441

> <Gold.PLP.PLP>
-33.4277

> <Gold.PLP.part.hbond>
-2.0000

> <Gold.PLP.part.metal>
0.0000

> <Gold.PLP.part.buried>
-2.6094

> <Gold.PLP.part.nonpolar>
-29.5916

> <Gold.PLP.part.repulsive>
0.1908

> <Gold.PLP.ligand.clash>
0.0000

> <Gold.PLP.ligand.torsion>
0.4458

> <Gold.PLP.Chemscore.Hbond>
2.0000

> <Gold.PLP.Chemscore.CHOScore>
2.0000

> <Gold.PLP.Chemscore.Metal>
0.0000

> <Gold.Chemscore.Hbonds>
donor molecule, donor type, donor heavy atom, donor atom, acceptor molecule, acceptor atom, score
      L1  H     6    44       P1  7948  2.00
      L1  C    15    39       P1  7948  1.00
      L1  C    17    41       P1 10186  1.00

> <Gold.PLP.Chemscore.Internal.Correction>
0.2080

> <Gold.Rescore>
     Score         DG    S(hbond)    S(metal)    S(lipo)     H(rot)  DE(clash)    DE(int)     intcor
     12.61     -13.04       0.90        0.00      77.28       1.76       0.02       0.41       ----

> <Gold.Chemscore.Fitness>
12.6146

> <Gold.Chemscore.DG>
-13.0411

> <Gold.Chemscore.ZeroCoef>
-5.4800

> <Gold.Chemscore.Hbond>
0.9032

> <Gold.Chemscore.Metal>
0.0000

> <Gold.Chemscore.Lipo>
77.2845

> <Gold.Chemscore.Internal_Hbond>
0.0000

> <Gold.Chemscore.DEClash>
0.0156

> <Gold.Chemscore.DEInternal>
0.4109

> <Gold.Chemscore.Rot>
1.7570

> <Gold.Chemscore.Internal.Correction>
   9.000000E+99

> <Gold.Chemscore.Hbonds>
donor molecule, donor type, donor heavy atom, donor atom, acceptor molecule, acceptor atom, score
      L1  H     6    44       P1  7948  0.89

> <Gold.Chemscore.Hbond.Weighted>
-3.0167

> <Gold.Chemscore.Metal.Weighted>
-0.0000

> <Gold.Chemscore.Lipo.Weighted>
-9.0423

> <Gold.Chemscore.Internal_Hbond.Weighted>
0.0000

> <Gold.Chemscore.DEClash.Weighted>
0.0156

> <Gold.Chemscore.DEInternal.Weighted>
0.4109

> <Gold.Chemscore.Rot.Weighted>
4.4979

> <Gold.Chemscore.Internal.Correction.Weighted>
   9.000000E+99

> <Gold.Protein.RotatedTorsions>
[ 6907 6896 6895 6894 ] final  112.40 input  -60.11 | X-H torsion
[ 7974 7965 7964 7962 ] final -144.31 input  175.53 | X-H torsion
[ 8008 7997 7996 7995 ] final -123.19 input   59.86 | X-H torsion
[ 10167 10162 10161 10158 ] final  175.49 input  -65.29 | X-H torsion
[ 10718 10713 10712 10709 ] final    4.10 input   66.30 | X-H torsion
[ 10763 10752 10751 10750 ] final   -7.01 input  -60.55 | X-H torsion
[ 11005 11000 10999 10996 ] final  -11.15 input  -57.11 | X-H torsion

> <Gold.Protein.ActiveResidues>
 VAL166  LYS551  ARG553  GLY616  TRP617  ASP618  TYR619  PRO620  LYS621  CYS622 
 ASP623  PHE694  ASN695  SER759  ASP760  ASP761  ALA762  ILE779  LEU786  VAL792 
 PHE793  MET794  SER795  GLU796  ALA797  LYS798  CYS799  TRP800  GLU811  SER814 

> <Gold.Protein.RotatedAtoms>
  152.4918  133.8522  159.7206 H   0  0  0  0  0  0  0  0  0  0  0  0  # atno 6907 bound_to 6896
  150.9056  133.7053  159.2874 H   0  0  0  0  0  0  0  0  0  0  0  0  # atno 6908 bound_to 6896
  151.4480  135.1031  159.9742 H   0  0  0  0  0  0  0  0  0  0  0  0  # atno 6909 bound_to 6896
  144.8307  140.5726  143.5517 H   0  0  0  0  0  0  0  0  0  0  0  0  # atno 7974 bound_to 7965
  155.1765  140.0409  157.2873 H   0  0  0  0  0  0  0  0  0  0  0  0  # atno 8008 bound_to 7997
  154.6233  140.2506  155.7495 H   0  0  0  0  0  0  0  0  0  0  0  0  # atno 8009 bound_to 7997
  156.2445  140.2890  156.0551 H   0  0  0  0  0  0  0  0  0  0  0  0  # atno 8010 bound_to 7997
  139.5179  144.3025  152.0366 H   0  0  0  0  0  0  0  0  0  0  0  0  # atno 10167 bound_to 10162
  156.8876  130.5676  149.5651 H   0  0  0  0  0  0  0  0  0  0  0  0  # atno 10718 bound_to 10713
  153.4203  135.7010  153.6299 H   0  0  0  0  0  0  0  0  0  0  0  0  # atno 10763 bound_to 10752
  153.4756  135.3705  155.2415 H   0  0  0  0  0  0  0  0  0  0  0  0  # atno 10764 bound_to 10752
  154.8721  135.4053  154.3570 H   0  0  0  0  0  0  0  0  0  0  0  0  # atno 10765 bound_to 10752
  140.7522  133.8582  155.9055 H   0  0  0  0  0  0  0  0  0  0  0  0  # atno 11005 bound_to 11000
  145.4903  139.1489  143.3713 LP  0  0  0  0  0  0  0  0  0  0  0  0  # atno 17320 bound_to 7965
  146.2610  140.5040  142.8853 LP  0  0  0  0  0  0  0  0  0  0  0  0  # atno 17321 bound_to 7965
  140.2472  144.4207  150.6236 LP  0  0  0  0  0  0  0  0  0  0  0  0  # atno 17342 bound_to 10162
  140.6250  143.2180  151.6616 LP  0  0  0  0  0  0  0  0  0  0  0  0  # atno 17343 bound_to 10162
  156.0645  130.5691  150.9261 LP  0  0  0  0  0  0  0  0  0  0  0  0  # atno 17370 bound_to 10713
  157.6103  131.0936  150.8807 LP  0  0  0  0  0  0  0  0  0  0  0  0  # atno 17371 bound_to 10713
  140.9740  134.1494  157.4552 LP  0  0  0  0  0  0  0  0  0  0  0  0  # atno 17394 bound_to 11000
  139.8785  134.9988  156.5920 LP  0  0  0  0  0  0  0  0  0  0  0  0  # atno 17395 bound_to 11000

$$$$
