AV-unprocessed.smi:895|AV-procd|sdf|4076|dock5
  -GOLD-   22720 1563D 1   1.00000     0.00000
 Structure written by MMmdl.
 44 45  0  0  0  0  0  0  0  0  1 V2000
  146.7447  139.4214  154.5367 C   0  0  0  0  0  0  0  0  0  0  0  0
  147.3577  139.9498  153.2250 C   0  0  0  0  0  0  0  0  0  0  0  0
  147.1975  141.4767  153.1352 C   0  0  0  0  0  0  0  0  0  0  0  0
  148.7504  139.7062  153.2559 O   0  0  0  0  0  0  0  0  0  0  0  0
  146.7732  139.2819  151.9560 C   0  0  0  0  0  0  0  0  0  0  0  0
  147.0020  137.8407  151.9073 N   0  0  0  0  0  0  0  0  0  0  0  0
  146.0464  136.9065  151.9993 C   0  0  0  0  0  0  0  0  0  0  0  0
  144.8541  137.1550  152.1774 O   0  0  0  0  0  0  0  0  0  0  0  0
  146.5523  135.6721  151.8709 N   0  0  0  0  0  0  0  0  0  0  0  0
  145.7903  134.4256  151.9363 C   0  0  1  0  0  0  0  0  0  0  0  0
  144.7812  134.3959  150.7716 C   0  0  0  0  0  0  0  0  0  0  0  0
  144.0093  133.0688  150.7210 C   0  0  0  0  0  0  0  0  0  0  0  0
  144.9695  131.8738  150.6369 C   0  0  0  0  0  0  0  0  0  0  0  0
  145.9596  131.8818  151.8107 C   0  0  0  0  0  0  0  0  0  0  0  0
  146.7472  133.2072  151.8773 C   0  0  2  0  0  0  0  0  0  0  0  0
  147.6918  133.1966  152.9877 N   0  0  0  0  0  0  0  0  0  0  0  0
  148.6312  132.2340  153.2935 C   0  0  0  0  0  0  0  0  0  0  0  0
  149.2957  132.6504  154.4112 C   0  0  0  0  0  0  0  0  0  0  0  0
  148.6845  133.8968  154.7221 C   0  0  0  0  0  0  0  0  0  0  0  0
  147.7240  134.2194  153.8720 N   0  0  0  0  0  0  0  0  0  0  0  0
  145.6625  139.5536  154.5453 H   0  0  0  0  0  0  0  0  0  0  0  0
  147.1473  139.9499  155.4014 H   0  0  0  0  0  0  0  0  0  0  0  0
  146.9508  138.3611  154.6857 H   0  0  0  0  0  0  0  0  0  0  0  0
  146.1448  141.7608  153.1141 H   0  0  0  0  0  0  0  0  0  0  0  0
  147.6629  141.8744  152.2325 H   0  0  0  0  0  0  0  0  0  0  0  0
  147.6549  141.9778  153.9893 H   0  0  0  0  0  0  0  0  0  0  0  0
  149.0479  139.5464  152.3731 H   0  0  0  0  0  0  0  0  0  0  0  0
  145.6911  139.4157  151.9488 H   0  0  0  0  0  0  0  0  0  0  0  0
  147.1373  139.7724  151.0509 H   0  0  0  0  0  0  0  0  0  0  0  0
  147.9535  137.5364  151.7631 H   0  0  0  0  0  0  0  0  0  0  0  0
  147.5468  135.5847  151.7230 H   0  0  0  0  0  0  0  0  0  0  0  0
  145.2210  134.3752  152.8664 H   0  0  0  0  0  0  0  0  0  0  0  0
  144.0783  135.2246  150.8670 H   0  0  0  0  0  0  0  0  0  0  0  0
  145.3036  134.5425  149.8250 H   0  0  0  0  0  0  0  0  0  0  0  0
  143.3840  132.9750  151.6098 H   0  0  0  0  0  0  0  0  0  0  0  0
  143.3340  133.0643  149.8651 H   0  0  0  0  0  0  0  0  0  0  0  0
  144.4043  130.9414  150.6338 H   0  0  0  0  0  0  0  0  0  0  0  0
  145.5168  131.9082  149.6942 H   0  0  0  0  0  0  0  0  0  0  0  0
  145.4115  131.7239  152.7406 H   0  0  0  0  0  0  0  0  0  0  0  0
  146.6496  131.0431  151.7139 H   0  0  0  0  0  0  0  0  0  0  0  0
  147.3351  133.2849  150.9608 H   0  0  0  0  0  0  0  0  0  0  0  0
  148.7493  131.3431  152.6946 H   0  0  0  0  0  0  0  0  0  0  0  0
  150.0970  132.1426  154.9269 H   0  0  0  0  0  0  0  0  0  0  0  0
  148.9081  134.5717  155.5350 H   0  0  0  0  0  0  0  0  0  0  0  0
  1  2  1  0  0  0  0
  1 21  1  0  0  0  0
  1 22  1  0  0  0  0
  1 23  1  0  0  0  0
  2  3  1  0  0  0  0
  2  4  1  0  0  0  0
  2  5  1  0  0  0  0
  3 24  1  0  0  0  0
  3 25  1  0  0  0  0
  3 26  1  0  0  0  0
  4 27  1  0  0  0  0
  5  6  1  0  0  0  0
  5 28  1  0  0  0  0
  5 29  1  0  0  0  0
  6  7  1  0  0  0  0
  6 30  1  0  0  0  0
  7  8  2  0  0  0  0
  7  9  1  0  0  0  0
  9 10  1  0  0  0  0
  9 31  1  0  0  0  0
 10 15  1  0  0  0  0
 10 11  1  0  0  0  0
 10 32  1  0  0  0  0
 11 12  1  0  0  0  0
 11 33  1  0  0  0  0
 11 34  1  0  0  0  0
 12 13  1  0  0  0  0
 12 35  1  0  0  0  0
 12 36  1  0  0  0  0
 13 14  1  0  0  0  0
 13 37  1  0  0  0  0
 13 38  1  0  0  0  0
 14 15  1  0  0  0  0
 14 39  1  0  0  0  0
 14 40  1  0  0  0  0
 15 16  1  0  0  0  0
 15 41  1  0  0  0  0
 16 20  1  0  0  0  0
 16 17  1  0  0  0  0
 17 18  2  0  0  0  0
 17 42  1  0  0  0  0
 18 19  1  0  0  0  0
 18 43  1  0  0  0  0
 19 20  2  0  0  0  0
 19 44  1  0  0  0  0
M  END
> <s_m_source_file>
AV-unprocessed.smi

> <i_m_source_file_index>
895

> <i_lp_mmshare_version>
43012

> <i_f3d_flags>
0

> <s_epik_input>
W0NIM11DKFtDSDNdKShbT0hdKVtDSDJdW05IXUMoPU8pW05IXVtDQEBIXTFbQ0gyXVtDSDJdW0NIMl1bQ0gyXVtDQEhdMW4yW2NIXVtjSF1bY0hdbjI=

> <s_epik_cmdline>
J2VwaWtfcHl0aG9uJywgJy1waCcsICc3LjAnLCAnLXRuJywgJzgnLCAnLW1hJywgJzIwMCcsICctbWV0YWxfYmluZGluZycsICctaW1hZScsICc8aW5maWxlLm1hZT4nLCAnLW9tYWUnLCAnPG91dGZpbGUubWFlPic=

> <r_lp_tautomer_probability>
1

> <r_epik_Ionization_Penalty>
0.000440451

> <r_epik_Ionization_Penalty_Charging>
0

> <r_epik_Ionization_Penalty_Neutral>
0.000440451

> <r_epik_State_Penalty>
-0

> <r_epik_Charging_Adjusted_Penalty>
0

> <i_epik_Tot_Q>
0

> <i_epik_Tot_abs_Q>
0

> <r_epik_Metal_State_Penalty>
-0

> <b_epik_Metal_Only>
0

> <s_lp_Force_Field>
OPLS_2005

> <r_lp_Energy>
11.0588

> <b_lp_Chiralities_Consistent>
1

> <s_lp_Variant>
AV-unprocessed.smi:895-4

> <Gold.Version>
5.8.1

> <Gold.Id.Protein>
6NUR|6NUR_protein|mol2

> <Gold.PLP.Fitness>
49.3329

> <Gold.PLP.PLP>
-37.7503

> <Gold.PLP.part.hbond>
-2.9800

> <Gold.PLP.part.metal>
0.0000

> <Gold.PLP.part.buried>
-5.0271

> <Gold.PLP.part.nonpolar>
-31.3452

> <Gold.PLP.part.repulsive>
0.7948

> <Gold.PLP.ligand.clash>
0.0000

> <Gold.PLP.ligand.torsion>
0.1501

> <Gold.PLP.Chemscore.Hbond>
2.9440

> <Gold.PLP.Chemscore.CHOScore>
1.0000

> <Gold.PLP.Chemscore.Metal>
0.0000

> <Gold.Chemscore.Hbonds>
donor molecule, donor type, donor heavy atom, donor atom, acceptor molecule, acceptor atom, score
      L1  H     4    27       P1  7957  0.71
      L1  H     6    30       P1  7948  0.90
      L1  H     9    31       P1  7948  0.95
      L1  C    17    42       P1 10747  1.00

> <Gold.PLP.Chemscore.Internal.Correction>
0.0509

> <Gold.Rescore>
     Score         DG    S(hbond)    S(metal)    S(lipo)     H(rot)  DE(clash)    DE(int)     intcor
     17.52     -19.07       2.91        0.00      80.92       2.19       0.01       1.53       ----

> <Gold.Chemscore.Fitness>
17.5169

> <Gold.Chemscore.DG>
-19.0659

> <Gold.Chemscore.ZeroCoef>
-5.4800

> <Gold.Chemscore.Hbond>
2.9129

> <Gold.Chemscore.Metal>
0.0000

> <Gold.Chemscore.Lipo>
80.9230

> <Gold.Chemscore.Internal_Hbond>
0.0000

> <Gold.Chemscore.DEClash>
0.0141

> <Gold.Chemscore.DEInternal>
1.5349

> <Gold.Chemscore.Rot>
2.1919

> <Gold.Chemscore.Internal.Correction>
   9.000000E+99

> <Gold.Chemscore.Hbonds>
donor molecule, donor type, donor heavy atom, donor atom, acceptor molecule, acceptor atom, score
      L1  H     4    27       P1  7957  0.69
      L1  H     6    30       P1  7948  0.87
      L1  H     9    31       P1  7948  0.84

> <Gold.Chemscore.Hbond.Weighted>
-9.7292

> <Gold.Chemscore.Metal.Weighted>
-0.0000

> <Gold.Chemscore.Lipo.Weighted>
-9.4680

> <Gold.Chemscore.Internal_Hbond.Weighted>
0.0000

> <Gold.Chemscore.DEClash.Weighted>
0.0141

> <Gold.Chemscore.DEInternal.Weighted>
1.5349

> <Gold.Chemscore.Rot.Weighted>
5.6113

> <Gold.Chemscore.Internal.Correction.Weighted>
   9.000000E+99

> <Gold.Protein.RotatedTorsions>
[ 6907 6896 6895 6894 ] final  -89.57 input  -60.11 | X-H torsion
[ 7974 7965 7964 7962 ] final -132.29 input  175.53 | X-H torsion
[ 8008 7997 7996 7995 ] final   27.44 input   59.86 | X-H torsion
[ 10167 10162 10161 10158 ] final  168.83 input  -65.29 | X-H torsion
[ 10718 10713 10712 10709 ] final  -69.74 input   66.30 | X-H torsion
[ 10763 10752 10751 10750 ] final   16.21 input  -60.55 | X-H torsion
[ 11005 11000 10999 10996 ] final  -14.28 input  -57.11 | X-H torsion

> <Gold.Protein.ActiveResidues>
 VAL166  LYS551  ARG553  GLY616  TRP617  ASP618  TYR619  PRO620  LYS621  CYS622 
 ASP623  PHE694  ASN695  SER759  ASP760  ASP761  ALA762  ILE779  LEU786  VAL792 
 PHE793  MET794  SER795  GLU796  ALA797  LYS798  CYS799  TRP800  GLU811  SER814 

> <Gold.Protein.RotatedAtoms>
  150.6875  134.2566  159.4532 H   0  0  0  0  0  0  0  0  0  0  0  0  # atno 6907 bound_to 6896
  152.0499  134.9657  160.0584 H   0  0  0  0  0  0  0  0  0  0  0  0  # atno 6908 bound_to 6896
  152.1125  133.4274  159.4675 H   0  0  0  0  0  0  0  0  0  0  0  0  # atno 6909 bound_to 6896
  144.9299  140.7116  143.4912 H   0  0  0  0  0  0  0  0  0  0  0  0  # atno 7974 bound_to 7965
  155.0429  140.3171  155.4718 H   0  0  0  0  0  0  0  0  0  0  0  0  # atno 8008 bound_to 7997
  156.2851  140.2160  156.5497 H   0  0  0  0  0  0  0  0  0  0  0  0  # atno 8009 bound_to 7997
  154.7274  140.0484  157.0683 H   0  0  0  0  0  0  0  0  0  0  0  0  # atno 8010 bound_to 7997
  139.4977  144.3772  151.9661 H   0  0  0  0  0  0  0  0  0  0  0  0  # atno 10167 bound_to 10162
  156.0441  130.4318  150.2192 H   0  0  0  0  0  0  0  0  0  0  0  0  # atno 10718 bound_to 10713
  153.1452  135.6768  153.8965 H   0  0  0  0  0  0  0  0  0  0  0  0  # atno 10763 bound_to 10752
  153.8409  135.3105  155.3427 H   0  0  0  0  0  0  0  0  0  0  0  0  # atno 10764 bound_to 10752
  154.7820  135.4883  153.9949 H   0  0  0  0  0  0  0  0  0  0  0  0  # atno 10765 bound_to 10752
  140.7848  133.8334  155.9325 H   0  0  0  0  0  0  0  0  0  0  0  0  # atno 11005 bound_to 11000
  145.3159  139.1803  143.4614 LP  0  0  0  0  0  0  0  0  0  0  0  0  # atno 17320 bound_to 7965
  146.3242  140.3170  142.8630 LP  0  0  0  0  0  0  0  0  0  0  0  0  # atno 17321 bound_to 7965
  140.3208  144.3430  150.6010 LP  0  0  0  0  0  0  0  0  0  0  0  0  # atno 17342 bound_to 10162
  140.5724  143.2179  151.7575 LP  0  0  0  0  0  0  0  0  0  0  0  0  # atno 17343 bound_to 10162
  157.0284  131.0000  151.3319 LP  0  0  0  0  0  0  0  0  0  0  0  0  # atno 17370 bound_to 10713
  157.5295  130.8049  149.7900 LP  0  0  0  0  0  0  0  0  0  0  0  0  # atno 17371 bound_to 10713
  140.9447  134.1855  157.4772 LP  0  0  0  0  0  0  0  0  0  0  0  0  # atno 17394 bound_to 11000
  139.8738  134.9886  156.5419 LP  0  0  0  0  0  0  0  0  0  0  0  0  # atno 17395 bound_to 11000

$$$$
