AV-unprocessed.smi:3113|AV-procd|sdf|11852|dock4
  -GOLD-   2272017233D 1   1.00000     0.00000
 Structure written by MMmdl.
 35 36  0  0  0  0  0  0  0  0  2 V2000
  151.7612  145.6403  159.8112 C   0  0  0  0  0  0  0  0  0  0  0  0
  151.9904  144.4461  160.5504 C   0  0  0  0  0  0  0  0  0  0  0  0
  151.1756  143.4643  160.1987 N   0  0  0  0  0  0  0  0  0  0  0  0
  150.4059  143.9956  159.2243 N   0  0  0  0  0  0  0  0  0  0  0  0
  149.3779  143.1863  158.5985 C   0  0  0  0  0  0  0  0  0  0  0  0
  149.9706  141.9667  157.8773 C   0  0  0  0  0  0  0  0  0  0  0  0
  150.5067  142.3418  156.5550 N   0  3  0  0  0  0  0  0  0  0  0  0
  150.4964  141.2429  155.5691 C   0  0  0  0  0  0  0  0  0  0  0  0
  149.0644  140.9134  155.1236 C   0  0  2  0  0  0  0  0  0  0  0  0
  148.9839  139.5485  154.4121 C   0  0  0  0  0  0  0  0  0  0  0  0
  147.5655  139.2938  153.8892 C   0  0  0  0  0  0  0  0  0  0  0  0
  147.1130  140.4771  153.0277 C   0  0  0  0  0  0  0  0  0  0  0  0
  147.2877  141.7947  153.7987 C   0  0  0  0  0  0  0  0  0  0  0  0
  148.6412  141.9340  154.2210 O   0  0  0  0  0  0  0  0  0  0  0  0
  150.7349  145.3113  158.9727 C   0  0  0  0  0  0  0  0  0  0  0  0
  152.2700  146.5900  159.8865 H   0  0  0  0  0  0  0  0  0  0  0  0
  152.7188  144.2655  161.3273 H   0  0  0  0  0  0  0  0  0  0  0  0
  148.6709  142.8709  159.3672 H   0  0  0  0  0  0  0  0  0  0  0  0
  148.8251  143.8115  157.8960 H   0  0  0  0  0  0  0  0  0  0  0  0
  150.7707  141.5313  158.4776 H   0  0  0  0  0  0  0  0  0  0  0  0
  149.2079  141.1975  157.7483 H   0  0  0  0  0  0  0  0  0  0  0  0
  149.9591  143.1074  156.1889 H   0  0  0  0  0  0  0  0  0  0  0  0
  151.1067  141.5138  154.7062 H   0  0  0  0  0  0  0  0  0  0  0  0
  150.9554  140.3647  156.0253 H   0  0  0  0  0  0  0  0  0  0  0  0
  148.4098  140.9050  155.9976 H   0  0  0  0  0  0  0  0  0  0  0  0
  149.6883  139.5246  153.5793 H   0  0  0  0  0  0  0  0  0  0  0  0
  149.2773  138.7485  155.0928 H   0  0  0  0  0  0  0  0  0  0  0  0
  147.5315  138.3684  153.3134 H   0  0  0  0  0  0  0  0  0  0  0  0
  146.8806  139.1672  154.7286 H   0  0  0  0  0  0  0  0  0  0  0  0
  147.7027  140.5105  152.1107 H   0  0  0  0  0  0  0  0  0  0  0  0
  146.0726  140.3500  152.7267 H   0  0  0  0  0  0  0  0  0  0  0  0
  147.0298  142.6393  153.1594 H   0  0  0  0  0  0  0  0  0  0  0  0
  146.6202  141.8331  154.6610 H   0  0  0  0  0  0  0  0  0  0  0  0
  150.2190  145.8980  158.2266 H   0  0  0  0  0  0  0  0  0  0  0  0
  151.4605  142.6535  156.6726 H   0  0  0  0  0  0  0  0  0  0  0  0
  1 15  2  0  0  0  0
  1  2  1  0  0  0  0
  1 16  1  0  0  0  0
  2  3  2  0  0  0  0
  2 17  1  0  0  0  0
  3  4  1  0  0  0  0
  4  5  1  0  0  0  0
  4 15  1  0  0  0  0
  5  6  1  0  0  0  0
  5 18  1  0  0  0  0
  5 19  1  0  0  0  0
  6  7  1  0  0  0  0
  6 20  1  0  0  0  0
  6 21  1  0  0  0  0
  7  8  1  0  0  0  0
  7 22  1  0  0  0  0
  7 35  1  0  0  0  0
  8  9  1  0  0  0  0
  8 23  1  0  0  0  0
  8 24  1  0  0  0  0
  9 14  1  0  0  0  0
  9 10  1  0  0  0  0
  9 25  1  0  0  0  0
 10 11  1  0  0  0  0
 10 26  1  0  0  0  0
 10 27  1  0  0  0  0
 11 12  1  0  0  0  0
 11 28  1  0  0  0  0
 11 29  1  0  0  0  0
 12 13  1  0  0  0  0
 12 30  1  0  0  0  0
 12 31  1  0  0  0  0
 13 14  1  0  0  0  0
 13 32  1  0  0  0  0
 13 33  1  0  0  0  0
 15 34  1  0  0  0  0
M  CHG  1   7   1
M  END
> <s_m_source_file>
AV-unprocessed.smi

> <i_m_source_file_index>
3113

> <i_lp_mmshare_version>
43012

> <i_f3d_flags>
0

> <s_epik_input>
W2NIXTFbY0hdW2NIXW5uMVtDSDJdW0NIMl1bTkhdW0NIMl1bQ0BASF0yW0NIMl1bQ0gyXVtDSDJdW0NIMl1PMg==

> <s_epik_cmdline>
J2VwaWtfcHl0aG9uJywgJy1waCcsICc3LjAnLCAnLXRuJywgJzgnLCAnLW1hJywgJzIwMCcsICctbWV0YWxfYmluZGluZycsICctaW1hZScsICc8aW5maWxlLm1hZT4nLCAnLW9tYWUnLCAnPG91dGZpbGUubWFlPic=

> <r_lp_tautomer_probability>
1

> <r_epik_Ionization_Penalty>
0.00849054

> <r_epik_Ionization_Penalty_Charging>
0.00848754

> <r_epik_Ionization_Penalty_Neutral>
3.00382e-06

> <r_epik_State_Penalty>
0.00639836

> <r_epik_Charging_Adjusted_Penalty>
0.0148859

> <i_epik_Tot_Q>
1

> <i_epik_Tot_abs_Q>
1

> <r_epik_Metal_State_Penalty>
0.00641155

> <b_epik_Metal_Only>
0

> <s_lp_Force_Field>
OPLS_2005

> <r_lp_Energy>
10.9258

> <b_lp_Chiralities_Consistent>
1

> <s_lp_Variant>
AV-unprocessed.smi:3113-1

> <Gold.Version>
5.8.1

> <Gold.Id.Protein>
6NUR|6NUR_protein|mol2

> <Gold.PLP.Fitness>
42.1200

> <Gold.PLP.PLP>
-33.2889

> <Gold.PLP.part.hbond>
-2.8040

> <Gold.PLP.part.metal>
0.0000

> <Gold.PLP.part.buried>
-4.7322

> <Gold.PLP.part.nonpolar>
-25.7587

> <Gold.PLP.part.repulsive>
0.6532

> <Gold.PLP.ligand.clash>
0.0000

> <Gold.PLP.ligand.torsion>
0.4112

> <Gold.PLP.Chemscore.Hbond>
2.2145

> <Gold.PLP.Chemscore.CHOScore>
1.0000

> <Gold.PLP.Chemscore.Metal>
0.0000

> <Gold.Chemscore.Hbonds>
donor molecule, donor type, donor heavy atom, donor atom, acceptor molecule, acceptor atom, score
      L1  H     7    22       P1  8028  2.00
      P1  H  8011  8017       L1    14  0.18
      L1  C    15    34       P1  8029  1.00

> <Gold.PLP.Chemscore.Internal.Correction>
0.0099

> <Gold.Rescore>
     Score         DG    S(hbond)    S(metal)    S(lipo)     H(rot)  DE(clash)    DE(int)     intcor
     14.55     -15.05       1.14        0.00      86.38       1.70       0.03       0.47       ----

> <Gold.Chemscore.Fitness>
14.5476

> <Gold.Chemscore.DG>
-15.0516

> <Gold.Chemscore.ZeroCoef>
-5.4800

> <Gold.Chemscore.Hbond>
1.1418

> <Gold.Chemscore.Metal>
0.0000

> <Gold.Chemscore.Lipo>
86.3772

> <Gold.Chemscore.Internal_Hbond>
0.0000

> <Gold.Chemscore.DEClash>
0.0349

> <Gold.Chemscore.DEInternal>
0.4692

> <Gold.Chemscore.Rot>
1.6985

> <Gold.Chemscore.Internal.Correction>
   9.000000E+99

> <Gold.Chemscore.Hbonds>
donor molecule, donor type, donor heavy atom, donor atom, acceptor molecule, acceptor atom, score
      L1  H     7    22       P1  8028  0.95
      P1  H  8011  8017       L1    14  0.09

> <Gold.Chemscore.Hbond.Weighted>
-3.8137

> <Gold.Chemscore.Metal.Weighted>
-0.0000

> <Gold.Chemscore.Lipo.Weighted>
-10.1061

> <Gold.Chemscore.Internal_Hbond.Weighted>
0.0000

> <Gold.Chemscore.DEClash.Weighted>
0.0349

> <Gold.Chemscore.DEInternal.Weighted>
0.4692

> <Gold.Chemscore.Rot.Weighted>
4.3482

> <Gold.Chemscore.Internal.Correction.Weighted>
   9.000000E+99

> <Gold.Protein.RotatedTorsions>
[ 6907 6896 6895 6894 ] final  -58.71 input  -60.11 | X-H torsion
[ 7974 7965 7964 7962 ] final  133.45 input  175.53 | X-H torsion
[ 8008 7997 7996 7995 ] final  123.97 input   59.86 | X-H torsion
[ 10167 10162 10161 10158 ] final   22.73 input  -65.29 | X-H torsion
[ 10718 10713 10712 10709 ] final  -62.29 input   66.30 | X-H torsion
[ 10763 10752 10751 10750 ] final   -7.25 input  -60.55 | X-H torsion
[ 11005 11000 10999 10996 ] final   -8.89 input  -57.11 | X-H torsion

> <Gold.Protein.ActiveResidues>
 VAL166  LYS551  ARG553  GLY616  TRP617  ASP618  TYR619  PRO620  LYS621  CYS622 
 ASP623  PHE694  ASN695  SER759  ASP760  ASP761  ALA762  ILE779  LEU786  VAL792 
 PHE793  MET794  SER795  GLU796  ALA797  LYS798  CYS799  TRP800  GLU811  SER814 

> <Gold.Protein.RotatedAtoms>
  150.7986  134.7063  159.6578 H   0  0  0  0  0  0  0  0  0  0  0  0  # atno 6907 bound_to 6896
  152.4100  134.6137  160.0042 H   0  0  0  0  0  0  0  0  0  0  0  0  # atno 6908 bound_to 6896
  151.6382  133.3290  159.3160 H   0  0  0  0  0  0  0  0  0  0  0  0  # atno 6909 bound_to 6896
  144.9864  139.4451  143.5361 H   0  0  0  0  0  0  0  0  0  0  0  0  # atno 7974 bound_to 7965
  156.2785  140.2750  156.1713 H   0  0  0  0  0  0  0  0  0  0  0  0  # atno 8008 bound_to 7997
  155.0652  140.0387  157.2608 H   0  0  0  0  0  0  0  0  0  0  0  0  # atno 8009 bound_to 7997
  154.7085  140.2663  155.6657 H   0  0  0  0  0  0  0  0  0  0  0  0  # atno 8010 bound_to 7997
  140.5325  143.9816  150.6473 H   0  0  0  0  0  0  0  0  0  0  0  0  # atno 10167 bound_to 10162
  156.0865  130.4207  150.1115 H   0  0  0  0  0  0  0  0  0  0  0  0  # atno 10718 bound_to 10713
  153.4237  135.7010  153.6277 H   0  0  0  0  0  0  0  0  0  0  0  0  # atno 10763 bound_to 10752
  153.4720  135.3712  155.2396 H   0  0  0  0  0  0  0  0  0  0  0  0  # atno 10764 bound_to 10752
  154.8723  135.4045  154.3610 H   0  0  0  0  0  0  0  0  0  0  0  0  # atno 10765 bound_to 10752
  140.7283  133.8770  155.8873 H   0  0  0  0  0  0  0  0  0  0  0  0  # atno 11005 bound_to 11000
  146.3421  139.9169  142.8772 LP  0  0  0  0  0  0  0  0  0  0  0  0  # atno 17320 bound_to 7965
  145.2347  140.9986  143.3970 LP  0  0  0  0  0  0  0  0  0  0  0  0  # atno 17321 bound_to 7965
  140.3195  143.3146  152.0798 LP  0  0  0  0  0  0  0  0  0  0  0  0  # atno 17342 bound_to 10162
  139.4959  144.6583  151.6522 LP  0  0  0  0  0  0  0  0  0  0  0  0  # atno 17343 bound_to 10162
  156.9134  130.9659  151.3559 LP  0  0  0  0  0  0  0  0  0  0  0  0  # atno 17370 bound_to 10713
  157.6001  130.8506  149.8788 LP  0  0  0  0  0  0  0  0  0  0  0  0  # atno 17371 bound_to 10713
  140.9943  134.1236  157.4378 LP  0  0  0  0  0  0  0  0  0  0  0  0  # atno 17394 bound_to 11000
  139.8832  135.0050  156.6283 LP  0  0  0  0  0  0  0  0  0  0  0  0  # atno 17395 bound_to 11000

$$$$
