#       Name:                AV-unprocessed.smi:3249
#       Creating user name   scv26
#       Creation time:       Fri Mar 27 18:30:06 2020


#       File generated by GOLD software.
#

@<TRIPOS>MOLECULE
AV-unprocessed.smi:3249
    47    48     1
SMALL
NO_CHARGES


@<TRIPOS>ATOM
      1 ****        -3.1759  -2.8617  -5.0082 C.3            1 S1                 0.0000
      2 ****        -2.9110  -2.6127  -3.5512 C.2            1 S1                 0.0000
      3 ****        -3.0849  -3.5149  -2.4638 C.2            1 S1                 0.0000
      4 ****        -2.7548  -2.9842  -1.2979 N.2            1 S1                 0.0000
      5 ****        -2.3613  -1.7271  -1.5947 N.pl3          1 S1                 0.0000
      6 ****        -1.9055  -0.8424  -0.5294 C.3            1 S1                 0.0000
      7 ****        -2.7759   0.4278  -0.4967 C.3            1 S1                 0.0000
      8 ****        -0.3914  -0.5250  -0.6437 C.3            1 S1                 0.0000
      9 ****         0.4728  -1.7838  -0.8694 C.3            1 S1                 0.0000
     10 ****         0.0608   0.1880   0.5729 N.4            1 S1                 1.0000
     11 ****         1.2611   1.0334   0.4011 C.3            1 S1                 0.0000
     12 ****         1.6642   1.6908   1.7284 C.3            1 S1                 0.0000
     13 ****         2.8075   2.7074   1.5415 C.3            1 S1                 0.0000
     14 ****         3.2566   3.2701   2.8948 C.3            1 S1                 0.0000
     15 ****         3.5932   2.1174   3.8462 C.3            1 S1                 0.0000
     16 ****         2.4215   1.1258   3.9179 C.3            1 S1                 0.0000
     17 ****         2.1006   0.6587   2.6109 O.3            1 S1                 0.0000
     18 ****        -2.4446  -1.4781  -2.9503 C.2            1 S1                 0.0000
     19 ****        -3.8231  -3.7257  -5.1604 H              1 S1                 0.0000
     20 ****        -2.2532  -3.0508  -5.5569 H              1 S1                 0.0000
     21 ****        -3.6634  -2.0091  -5.4815 H              1 S1                 0.0000
     22 ****        -3.4376  -4.5356  -2.4876 H              1 S1                 0.0000
     23 ****        -2.0642  -1.3679   0.4148 H              1 S1                 0.0000
     24 ****        -2.5320   1.0599   0.3571 H              1 S1                 0.0000
     25 ****        -3.8334   0.1733  -0.4180 H              1 S1                 0.0000
     26 ****        -2.6458   1.0260  -1.3991 H              1 S1                 0.0000
     27 ****        -0.2546   0.1384  -1.4994 H              1 S1                 0.0000
     28 ****         0.2239  -2.2837  -1.8056 H              1 S1                 0.0000
     29 ****         0.3354  -2.5046  -0.0629 H              1 S1                 0.0000
     30 ****         1.5345  -1.5450  -0.9203 H              1 S1                 0.0000
     31 ****        -0.6907   0.7927   0.8724 H              1 S1                 0.0000
     32 ****         2.0923   0.4449   0.0130 H              1 S1                 0.0000
     33 ****         1.0393   1.8027  -0.3397 H              1 S1                 0.0000
     34 ****         0.7965   2.1957   2.1575 H              1 S1                 0.0000
     35 ****         3.6536   2.2244   1.0507 H              1 S1                 0.0000
     36 ****         2.4899   3.5203   0.8879 H              1 S1                 0.0000
     37 ****         4.1200   3.9236   2.7685 H              1 S1                 0.0000
     38 ****         2.4602   3.8802   3.3231 H              1 S1                 0.0000
     39 ****         4.4864   1.6000   3.4936 H              1 S1                 0.0000
     40 ****         3.8259   2.5016   4.8397 H              1 S1                 0.0000
     41 ****         2.6914   0.2724   4.5400 H              1 S1                 0.0000
     42 ****         1.5461   1.5889   4.3757 H              1 S1                 0.0000
     43 ****        -2.1647  -0.5241  -3.3726 H              1 S1                 0.0000
     44 ****         0.2332  -0.4900   1.3018 H              1 S1                 0.0000
     45 ****        -2.7890  -3.4175  -0.3973 LP             1 S1                 0.0000
     46 ****         2.9150   0.2307   2.2190 LP             1 S1                 0.0000
     47 ****         1.3712  -0.0210   2.6880 LP             1 S1                 0.0000
@<TRIPOS>BOND
    1    1    2 1     
    2    1   19 1     
    3    1   20 1     
    4    1   21 1     
    5    2   18 2     
    6    2    3 1     
    7    3    4 2     
    8    3   22 1     
    9    4    5 1     
   10    5    6 1     
   11    5   18 1     
   12    6    7 1     
   13    6    8 1     
   14    6   23 1     
   15    7   24 1     
   16    7   25 1     
   17    7   26 1     
   18    8    9 1     
   19    8   10 1     
   20    8   27 1     
   21    9   28 1     
   22    9   29 1     
   23    9   30 1     
   24   10   11 1     
   25   10   31 1     
   26   10   44 1     
   27   11   12 1     
   28   11   32 1     
   29   11   33 1     
   30   12   17 1     
   31   12   13 1     
   32   12   34 1     
   33   13   14 1     
   34   13   35 1     
   35   13   36 1     
   36   14   15 1     
   37   14   37 1     
   38   14   38 1     
   39   15   16 1     
   40   15   39 1     
   41   15   40 1     
   42   16   17 1     
   43   16   41 1     
   44   16   42 1     
   45   18   43 1     
   46    4   45 1     
   47   17   46 1     
   48   17   47 1     
@<TRIPOS>SUBSTRUCTURE
      1 S1             1
@<TRIPOS>SET
LONE_PAIRS      STATIC     ATOMS    <user>   **** ""
3 45 46 47
DONOR_HYDROGENS      STATIC     ATOMS    <user>   **** ""
2 31 44
ATOM$BLUE        STATIC     ATOMS    COLORGROUP SYSTEM
3 45 46 47
ATOM$RED        STATIC     ATOMS    COLORGROUP SYSTEM
2 31 44
