#       Name:                AV-unprocessed.smi:308
#       Creating user name   scv26
#       Creation time:       Thu Mar 26 22:19:03 2020


#       File generated by GOLD software.
#

@<TRIPOS>MOLECULE
AV-unprocessed.smi:308
    53    54     1
SMALL
NO_CHARGES


@<TRIPOS>ATOM
      1 ****        -2.1756   2.1516   5.4500 C.3            1 S1                 0.0000
      2 ****        -2.8401   1.4375   4.2644 C.3            1 S1                 0.0000
      3 ****        -2.8712  -0.0874   4.4642 C.3            1 S1                 0.0000
      4 ****        -3.5088  -0.7952   3.2575 C.3            1 S1                 0.0000
      5 ****        -2.7938  -0.4510   1.9987 N.4            1 S1                 1.0000
      6 ****        -3.2509  -1.2309   0.8169 C.3            1 S1                 0.0000
      7 ****        -2.3603  -2.4651   0.5592 C.3            1 S1                 0.0000
      8 ****        -0.9663  -2.0602   0.3551 N.pl3          1 S1                -1.0000
      9 ****        -0.4508  -1.6037  -0.8181 C.2            1 S1                 0.0000
     10 ****        -1.0504  -1.4276  -1.8843 O.2            1 S1                 0.0000
     11 ****         0.8664  -1.3483  -0.7238 N.am           1 S1                 0.0000
     12 ****         1.7670  -0.8700  -1.7140 C.ar           1 S1                 0.0000
     13 ****         3.1402  -1.1293  -1.5285 C.ar           1 S1                 0.0000
     14 ****         4.0770  -0.6617  -2.4722 C.ar           1 S1                 0.0000
     15 ****         3.6349   0.0754  -3.5981 C.ar           1 S1                 0.0000
     16 ****         4.5104   0.5763  -4.5858 N.pl3          1 S1                 0.0000
     17 ****         3.9671   1.2633  -5.7521 C.3            1 S1                 0.0000
     18 ****         5.9366   0.2908  -4.5002 C.3            1 S1                 0.0000
     19 ****         2.3063   0.3132  -3.7250 N.pl3          1 S1                 1.0000
     20 ****         1.3755  -0.1168  -2.8459 C.ar           1 S1                 0.0000
     21 ****        -2.7827   1.0146   1.7582 C.3            1 S1                 0.0000
     22 ****        -2.1353   1.7625   2.9360 C.3            1 S1                 0.0000
     23 ****        -1.1357   1.8447   5.5671 H              1 S1                 0.0000
     24 ****        -2.6949   1.9299   6.3830 H              1 S1                 0.0000
     25 ****        -2.1900   3.2334   5.3146 H              1 S1                 0.0000
     26 ****        -3.8699   1.7920   4.1988 H              1 S1                 0.0000
     27 ****        -1.8578  -0.4639   4.6115 H              1 S1                 0.0000
     28 ****        -3.4270  -0.3347   5.3694 H              1 S1                 0.0000
     29 ****        -3.4823  -1.8732   3.4196 H              1 S1                 0.0000
     30 ****        -4.5596  -0.5148   3.1693 H              1 S1                 0.0000
     31 ****        -4.2906  -1.5345   0.9465 H              1 S1                 0.0000
     32 ****        -3.2397  -0.6055  -0.0772 H              1 S1                 0.0000
     33 ****        -2.4470  -3.1411   1.4099 H              1 S1                 0.0000
     34 ****        -2.7567  -3.0203  -0.2914 H              1 S1                 0.0000
     35 ****         1.2872  -1.5980   0.1593 H              1 S1                 0.0000
     36 ****         3.4781  -1.6899  -0.6690 H              1 S1                 0.0000
     37 ****         5.1227  -0.8777  -2.3138 H              1 S1                 0.0000
     38 ****         3.3954   2.1409  -5.4491 H              1 S1                 0.0000
     39 ****         3.3119   0.5991  -6.3162 H              1 S1                 0.0000
     40 ****         4.7605   1.5982  -6.4204 H              1 S1                 0.0000
     41 ****         6.1145  -0.7848  -4.5276 H              1 S1                 0.0000
     42 ****         6.3527   0.6905  -3.5750 H              1 S1                 0.0000
     43 ****         6.4819   0.7414  -5.3295 H              1 S1                 0.0000
     44 ****         0.3622   0.1720  -3.0815 H              1 S1                 0.0000
     45 ****        -2.2215   1.2319   0.8481 H              1 S1                 0.0000
     46 ****        -3.8027   1.3670   1.5972 H              1 S1                 0.0000
     47 ****        -2.1659   2.8364   2.7487 H              1 S1                 0.0000
     48 ****        -1.0806   1.4905   3.0003 H              1 S1                 0.0000
     49 ****        -1.8269  -0.7174   2.1255 H              1 S1                 0.0000
     50 ****         1.9885   0.8514  -4.5310 H              1 S1                 0.0000
     51 ****        -0.3473  -2.1245   1.1378 LP             1 S1                 0.0000
     52 ****        -2.0282  -1.6279  -1.9471 LP             1 S1                 0.0000
     53 ****        -0.5579  -1.0848  -2.6842 LP             1 S1                 0.0000
@<TRIPOS>BOND
    1    1    2 1     
    2    1   23 1     
    3    1   24 1     
    4    1   25 1     
    5    2   22 1     
    6    2    3 1     
    7    2   26 1     
    8    3    4 1     
    9    3   27 1     
   10    3   28 1     
   11    4    5 1     
   12    4   29 1     
   13    4   30 1     
   14    5    6 1     
   15    5   21 1     
   16    5   49 1     
   17    6    7 1     
   18    6   31 1     
   19    6   32 1     
   20    7    8 1     
   21    7   33 1     
   22    7   34 1     
   23    8    9 1     
   24    9   10 2     
   25    9   11 am    
   26   11   12 1     
   27   11   35 1     
   28   12   20 ar    
   29   12   13 ar    
   30   13   14 ar    
   31   13   36 1     
   32   14   15 ar    
   33   14   37 1     
   34   15   16 1     
   35   15   19 ar    
   36   16   17 1     
   37   16   18 1     
   38   17   38 1     
   39   17   39 1     
   40   17   40 1     
   41   18   41 1     
   42   18   42 1     
   43   18   43 1     
   44   19   20 ar    
   45   19   50 1     
   46   20   44 1     
   47   21   22 1     
   48   21   45 1     
   49   21   46 1     
   50   22   47 1     
   51   22   48 1     
   52    8   51 1     
   53   10   52 1     
   54   10   53 1     
@<TRIPOS>SUBSTRUCTURE
      1 S1             1
@<TRIPOS>SET
LONE_PAIRS      STATIC     ATOMS    <user>   **** ""
3 51 52 53
DONOR_HYDROGENS      STATIC     ATOMS    <user>   **** ""
3 49 35 50
ATOM$BLUE        STATIC     ATOMS    COLORGROUP SYSTEM
3 51 52 53
ATOM$RED        STATIC     ATOMS    COLORGROUP SYSTEM
3 49 35 50
