AV-unprocessed.smi:670|AV-procd|sdf|3272|dock4
  -GOLD-   22720 0233D 1   1.00000     0.00000
 Structure written by MMmdl.
 45 46  0  0  0  0  0  0  0  0  1 V2000
  153.7417  140.6405  161.0995 C   0  0  0  0  0  0  0  0  0  0  0  0
  152.6491  141.5187  160.4673 C   0  0  1  0  0  0  0  0  0  0  0  0
  152.8775  143.0040  160.8126 C   0  0  0  0  0  0  0  0  0  0  0  0
  151.8067  143.9077  160.1828 C   0  0  0  0  0  0  0  0  0  0  0  0
  151.7448  143.7105  158.6618 C   0  0  0  0  0  0  0  0  0  0  0  0
  151.5028  142.2360  158.3070 C   0  0  0  0  0  0  0  0  0  0  0  0
  152.5724  141.3192  158.9367 C   0  0  2  0  0  0  0  0  0  0  0  0
  152.2384  139.9582  158.6957 O   0  0  0  0  0  0  0  0  0  0  0  0
  150.8776  139.6303  158.9357 C   0  0  0  0  0  0  0  0  0  0  0  0
  150.2571  139.1211  157.6268 C   0  0  0  0  0  0  0  0  0  0  0  0
  149.1991  138.1491  157.8797 N   0  0  0  0  0  0  0  0  0  0  0  0
  149.2703  137.1408  158.7612 C   0  0  0  0  0  0  0  0  0  0  0  0
  150.2759  136.9010  159.4314 O   0  0  0  0  0  0  0  0  0  0  0  0
  148.0132  136.2679  158.8875 C   0  0  0  0  0  0  0  0  0  0  0  0
  147.6929  135.9056  160.2757 N   0  0  0  0  0  0  0  0  0  0  0  0
  147.4930  136.9923  161.1136 N   0  0  0  0  0  0  0  0  0  0  0  0
  147.1910  136.8036  162.3537 C   0  0  0  0  0  0  0  0  0  0  0  0
  146.9991  137.9078  163.1477 O   0  0  0  0  0  0  0  0  0  0  0  0
  147.0584  135.4696  162.8972 C   0  0  0  0  0  0  0  0  0  0  0  0
  147.2612  134.4172  162.0747 C   0  0  0  0  0  0  0  0  0  0  0  0
  147.6060  134.5958  160.6630 C   0  0  0  0  0  0  0  0  0  0  0  0
  147.7999  133.6556  159.8930 O   0  0  0  0  0  0  0  0  0  0  0  0
  146.9351  137.5759  164.0300 H   0  0  0  0  0  0  0  0  0  0  0  0
  154.7266  140.8864  160.7010 H   0  0  0  0  0  0  0  0  0  0  0  0
  153.5630  139.5816  160.9097 H   0  0  0  0  0  0  0  0  0  0  0  0
  153.7774  140.7754  162.1806 H   0  0  0  0  0  0  0  0  0  0  0  0
  151.6921  141.2189  160.8971 H   0  0  0  0  0  0  0  0  0  0  0  0
  152.8763  143.1399  161.8946 H   0  0  0  0  0  0  0  0  0  0  0  0
  153.8635  143.3156  160.4649 H   0  0  0  0  0  0  0  0  0  0  0  0
  150.8336  143.6840  160.6220 H   0  0  0  0  0  0  0  0  0  0  0  0
  152.0181  144.9520  160.4142 H   0  0  0  0  0  0  0  0  0  0  0  0
  150.9544  144.3301  158.2373 H   0  0  0  0  0  0  0  0  0  0  0  0
  152.6788  144.0471  158.2103 H   0  0  0  0  0  0  0  0  0  0  0  0
  150.5136  141.9369  158.6561 H   0  0  0  0  0  0  0  0  0  0  0  0
  151.4934  142.1254  157.2228 H   0  0  0  0  0  0  0  0  0  0  0  0
  153.5510  141.5510  158.5114 H   0  0  0  0  0  0  0  0  0  0  0  0
  150.8036  138.8590  159.7022 H   0  0  0  0  0  0  0  0  0  0  0  0
  150.3299  140.5017  159.2976 H   0  0  0  0  0  0  0  0  0  0  0  0
  149.8333  139.9555  157.0676 H   0  0  0  0  0  0  0  0  0  0  0  0
  151.0256  138.6786  156.9910 H   0  0  0  0  0  0  0  0  0  0  0  0
  148.3370  138.2731  157.3689 H   0  0  0  0  0  0  0  0  0  0  0  0
  147.1636  136.7831  158.4348 H   0  0  0  0  0  0  0  0  0  0  0  0
  148.1645  135.3689  158.2872 H   0  0  0  0  0  0  0  0  0  0  0  0
  146.8040  135.3269  163.9373 H   0  0  0  0  0  0  0  0  0  0  0  0
  147.1661  133.4154  162.4672 H   0  0  0  0  0  0  0  0  0  0  0  0
  1  2  1  0  0  0  0
  1 24  1  0  0  0  0
  1 25  1  0  0  0  0
  1 26  1  0  0  0  0
  2  7  1  0  0  0  0
  2  3  1  0  0  0  0
  2 27  1  0  0  0  0
  3  4  1  0  0  0  0
  3 28  1  0  0  0  0
  3 29  1  0  0  0  0
  4  5  1  0  0  0  0
  4 30  1  0  0  0  0
  4 31  1  0  0  0  0
  5  6  1  0  0  0  0
  5 32  1  0  0  0  0
  5 33  1  0  0  0  0
  6  7  1  0  0  0  0
  6 34  1  0  0  0  0
  6 35  1  0  0  0  0
  7  8  1  0  0  0  0
  7 36  1  0  0  0  0
  8  9  1  0  0  0  0
  9 10  1  0  0  0  0
  9 37  1  0  0  0  0
  9 38  1  0  0  0  0
 10 11  1  0  0  0  0
 10 39  1  0  0  0  0
 10 40  1  0  0  0  0
 11 12  1  0  0  0  0
 11 41  1  0  0  0  0
 12 13  2  0  0  0  0
 12 14  1  0  0  0  0
 14 42  1  0  0  0  0
 14 43  1  0  0  0  0
 14 15  1  0  0  0  0
 15 16  1  0  0  0  0
 15 21  1  0  0  0  0
 16 17  2  0  0  0  0
 17 18  1  0  0  0  0
 17 19  1  0  0  0  0
 18 23  1  0  0  0  0
 19 44  1  0  0  0  0
 19 20  2  0  0  0  0
 20 45  1  0  0  0  0
 20 21  1  0  0  0  0
 21 22  2  0  0  0  0
M  END
> <s_m_source_file>
AV-unprocessed.smi

> <i_m_source_file_index>
670

> <i_lp_mmshare_version>
43012

> <i_f3d_flags>
0

> <s_epik_input>
W0NIM11bQ0BASF0xW0NIMl1bQ0gyXVtDSDJdW0NIMl1bQ0BIXTFPW0NIMl1bQ0gyXVtOSF1DKD1PKVtDSDJdbjJbbkhdYyg9TylbY0hdW2NIXWMyPU8=

> <s_epik_cmdline>
J2VwaWtfcHl0aG9uJywgJy1waCcsICc3LjAnLCAnLXRuJywgJzgnLCAnLW1hJywgJzIwMCcsICctbWV0YWxfYmluZGluZycsICctaW1hZScsICc8aW5maWxlLm1hZT4nLCAnLW9tYWUnLCAnPG91dGZpbGUubWFlPic=

> <r_lp_tautomer_probability>
0.9996

> <r_epik_Ionization_Penalty>
2.12726

> <r_epik_Ionization_Penalty_Charging>
3.83395e-08

> <r_epik_Ionization_Penalty_Neutral>
2.12726

> <r_epik_State_Penalty>
1.70432

> <r_epik_Charging_Adjusted_Penalty>
1.70432

> <i_epik_Tot_Q>
0

> <i_epik_Tot_abs_Q>
0

> <r_epik_Metal_State_Penalty>
1.70432

> <b_epik_Metal_Only>
0

> <s_lp_Force_Field>
OPLS_2005

> <r_lp_Energy>
20.1935

> <b_lp_Chiralities_Consistent>
1

> <s_lp_Variant>
AV-unprocessed.smi:670-8

> <Gold.Version>
5.8.1

> <Gold.Id.Protein>
6NUR|6NUR_protein|mol2

> <Gold.PLP.Fitness>
50.3449

> <Gold.PLP.PLP>
-46.2617

> <Gold.PLP.part.hbond>
-5.0000

> <Gold.PLP.part.metal>
0.0000

> <Gold.PLP.part.buried>
-3.6932

> <Gold.PLP.part.nonpolar>
-37.9330

> <Gold.PLP.part.repulsive>
0.0895

> <Gold.PLP.ligand.clash>
0.0000

> <Gold.PLP.ligand.torsion>
1.0326

> <Gold.PLP.Chemscore.Hbond>
2.0288

> <Gold.PLP.Chemscore.CHOScore>
0.0000

> <Gold.PLP.Chemscore.Metal>
0.0000

> <Gold.Chemscore.Hbonds>
donor molecule, donor type, donor heavy atom, donor atom, acceptor molecule, acceptor atom, score
      P1  H  6896  6908       L1    13  0.91
      P1  H  6931  6943       L1    16  0.14
      P1  H  6934  6947       L1    16  0.92

> <Gold.PLP.Chemscore.Internal.Correction>
0.0621

> <Gold.Rescore>
     Score         DG    S(hbond)    S(metal)    S(lipo)     H(rot)  DE(clash)    DE(int)     intcor
     12.61     -14.81       1.62        0.00     101.00       3.09       0.07       2.12       ----

> <Gold.Chemscore.Fitness>
12.6119

> <Gold.Chemscore.DG>
-14.8064

> <Gold.Chemscore.ZeroCoef>
-5.4800

> <Gold.Chemscore.Hbond>
1.6229

> <Gold.Chemscore.Metal>
0.0000

> <Gold.Chemscore.Lipo>
100.9958

> <Gold.Chemscore.Internal_Hbond>
0.0000

> <Gold.Chemscore.DEClash>
0.0709

> <Gold.Chemscore.DEInternal>
2.1236

> <Gold.Chemscore.Rot>
3.0901

> <Gold.Chemscore.Internal.Correction>
   9.000000E+99

> <Gold.Chemscore.Hbonds>
donor molecule, donor type, donor heavy atom, donor atom, acceptor molecule, acceptor atom, score
      P1  H  6896  6908       L1    13  0.88
      P1  H  6934  6947       L1    16  0.25

> <Gold.Chemscore.Hbond.Weighted>
-5.4205

> <Gold.Chemscore.Metal.Weighted>
-0.0000

> <Gold.Chemscore.Lipo.Weighted>
-11.8165

> <Gold.Chemscore.Internal_Hbond.Weighted>
0.0000

> <Gold.Chemscore.DEClash.Weighted>
0.0709

> <Gold.Chemscore.DEInternal.Weighted>
2.1236

> <Gold.Chemscore.Rot.Weighted>
7.9106

> <Gold.Chemscore.Internal.Correction.Weighted>
   9.000000E+99

> <Gold.Protein.RotatedTorsions>
[ 6907 6896 6895 6894 ] final -160.25 input  -60.11 | X-H torsion
[ 7974 7965 7964 7962 ] final -112.50 input  175.53 | X-H torsion
[ 8008 7997 7996 7995 ] final -168.46 input   59.86 | X-H torsion
[ 10167 10162 10161 10158 ] final  159.53 input  -65.29 | X-H torsion
[ 10718 10713 10712 10709 ] final   18.40 input   66.30 | X-H torsion
[ 10763 10752 10751 10750 ] final   44.75 input  -60.55 | X-H torsion
[ 11005 11000 10999 10996 ] final -136.65 input  -57.11 | X-H torsion

> <Gold.Protein.ActiveResidues>
 VAL166  LYS551  ARG553  GLY616  TRP617  ASP618  TYR619  PRO620  LYS621  CYS622 
 ASP623  PHE694  ASN695  SER759  ASP760  ASP761  ALA762  ILE779  LEU786  VAL792 
 PHE793  MET794  SER795  GLU796  ALA797  LYS798  CYS799  TRP800  GLU811  SER814 

> <Gold.Protein.RotatedAtoms>
  151.3462  133.3943  159.2675 H   0  0  0  0  0  0  0  0  0  0  0  0  # atno 6907 bound_to 6896
  150.9838  134.9188  159.7870 H   0  0  0  0  0  0  0  0  0  0  0  0  # atno 6908 bound_to 6896
  152.5225  134.3426  159.9275 H   0  0  0  0  0  0  0  0  0  0  0  0  # atno 6909 bound_to 6896
  145.1432  140.8789  143.3689 H   0  0  0  0  0  0  0  0  0  0  0  0  # atno 7974 bound_to 7965
  155.8917  140.1026  157.1414 H   0  0  0  0  0  0  0  0  0  0  0  0  # atno 8008 bound_to 7997
  154.4015  140.1309  156.4388 H   0  0  0  0  0  0  0  0  0  0  0  0  # atno 8009 bound_to 7997
  155.7526  140.3465  155.5160 H   0  0  0  0  0  0  0  0  0  0  0  0  # atno 8010 bound_to 7997
  139.4833  144.4721  151.8562 H   0  0  0  0  0  0  0  0  0  0  0  0  # atno 10167 bound_to 10162
  157.0958  130.6447  149.5860 H   0  0  0  0  0  0  0  0  0  0  0  0  # atno 10718 bound_to 10713
  152.9836  135.6061  154.3324 H   0  0  0  0  0  0  0  0  0  0  0  0  # atno 10763 bound_to 10752
  154.3027  135.2772  155.2605 H   0  0  0  0  0  0  0  0  0  0  0  0  # atno 10764 bound_to 10752
  154.4851  135.5907  153.6474 H   0  0  0  0  0  0  0  0  0  0  0  0  # atno 10765 bound_to 10752
  140.8786  134.1961  157.4606 H   0  0  0  0  0  0  0  0  0  0  0  0  # atno 11005 bound_to 11000
  145.0509  139.3182  143.5929 LP  0  0  0  0  0  0  0  0  0  0  0  0  # atno 17320 bound_to 7965
  146.3503  139.9917  142.8685 LP  0  0  0  0  0  0  0  0  0  0  0  0  # atno 17321 bound_to 7965
  140.4190  144.2268  150.5887 LP  0  0  0  0  0  0  0  0  0  0  0  0  # atno 17342 bound_to 10162
  140.4892  143.2353  151.8843 LP  0  0  0  0  0  0  0  0  0  0  0  0  # atno 17343 bound_to 10162
  155.9886  130.4930  150.7178 LP  0  0  0  0  0  0  0  0  0  0  0  0  # atno 17370 bound_to 10713
  157.4683  131.0890  151.0670 LP  0  0  0  0  0  0  0  0  0  0  0  0  # atno 17371 bound_to 10713
  139.8717  134.9807  156.5085 LP  0  0  0  0  0  0  0  0  0  0  0  0  # atno 17394 bound_to 11000
  140.8489  133.8147  155.9148 LP  0  0  0  0  0  0  0  0  0  0  0  0  # atno 17395 bound_to 11000

$$$$
