AV-unprocessed.smi:2021|AV-procd|sdf|8179|dock10
  -GOLD-   2272010433D 1   1.00000     0.00000
 Structure written by MMmdl.
 41 42  0  0  0  0  0  0  0  0  1 V2000
  153.4049  143.1327  160.0053 C   0  0  0  0  0  0  0  0  0  0  0  0
  152.2297  142.9603  159.0280 C   0  0  0  0  0  0  0  0  0  0  0  0
  151.2393  144.1366  159.0773 C   0  0  0  0  0  0  0  0  0  0  0  0
  151.5527  141.5694  159.1058 C   0  0  0  0  0  0  0  0  0  0  0  0
  151.0235  140.9992  157.8623 N   0  0  0  0  0  0  0  0  0  0  0  0
  150.3802  141.9888  157.0024 C   0  0  0  0  0  0  0  0  0  0  0  0
  149.8830  141.3729  155.6836 C   0  0  0  0  0  0  0  0  0  0  0  0
  150.9641  140.7344  155.0148 O   0  0  0  0  0  0  0  0  0  0  0  0
  151.5709  139.7104  155.7988 C   0  0  1  0  0  0  0  0  0  0  0  0
  152.7072  139.0762  154.9790 C   0  0  0  0  0  0  0  0  0  0  0  0
  152.2600  137.8773  154.2782 N   0  0  0  0  0  0  0  0  0  0  0  0
  152.7826  136.6532  154.4356 C   0  0  0  0  0  0  0  0  0  0  0  0
  153.7305  136.4118  155.1830 O   0  0  0  0  0  0  0  0  0  0  0  0
  152.1362  135.7490  153.6821 N   0  0  0  0  0  0  0  0  0  0  0  0
  152.3835  134.3567  153.5867 C   0  0  0  0  0  0  0  0  0  0  0  0
  153.2353  133.8083  154.4611 N   0  0  0  0  0  0  0  0  0  0  0  0
  153.3863  132.4424  154.2546 N   0  0  0  0  0  0  0  0  0  0  0  0
  152.6414  132.0137  153.2311 C   0  0  0  0  0  0  0  0  0  0  0  0
  151.6800  133.2355  152.4173 S   0  0  0  0  0  0  0  0  0  0  0  0
  152.0852  140.3381  157.1088 C   0  0  0  0  0  0  0  0  0  0  0  0
  153.0694  143.1556  161.0421 H   0  0  0  0  0  0  0  0  0  0  0  0
  153.9392  144.0636  159.8136 H   0  0  0  0  0  0  0  0  0  0  0  0
  154.1205  142.3163  159.9043 H   0  0  0  0  0  0  0  0  0  0  0  0
  152.6642  143.0083  158.0286 H   0  0  0  0  0  0  0  0  0  0  0  0
  150.7796  144.2593  160.0558 H   0  0  0  0  0  0  0  0  0  0  0  0
  150.4390  144.0067  158.3483 H   0  0  0  0  0  0  0  0  0  0  0  0
  151.7433  145.0740  158.8409 H   0  0  0  0  0  0  0  0  0  0  0  0
  152.2236  140.8564  159.5868 H   0  0  0  0  0  0  0  0  0  0  0  0
  150.7160  141.6804  159.7971 H   0  0  0  0  0  0  0  0  0  0  0  0
  149.5235  142.4271  157.5086 H   0  0  0  0  0  0  0  0  0  0  0  0
  151.0748  142.8018  156.7858 H   0  0  0  0  0  0  0  0  0  0  0  0
  149.0857  140.6520  155.8702 H   0  0  0  0  0  0  0  0  0  0  0  0
  149.4699  142.1463  155.0360 H   0  0  0  0  0  0  0  0  0  0  0  0
  150.8250  138.9491  156.0350 H   0  0  0  0  0  0  0  0  0  0  0  0
  153.0779  139.7873  154.2402 H   0  0  0  0  0  0  0  0  0  0  0  0
  153.5525  138.8332  155.6251 H   0  0  0  0  0  0  0  0  0  0  0  0
  151.4797  137.9860  153.6471 H   0  0  0  0  0  0  0  0  0  0  0  0
  151.3745  136.0937  153.1167 H   0  0  0  0  0  0  0  0  0  0  0  0
  152.6585  130.9703  152.9536 H   0  0  0  0  0  0  0  0  0  0  0  0
  152.8756  141.0551  156.8805 H   0  0  0  0  0  0  0  0  0  0  0  0
  152.5401  139.5597  157.7224 H   0  0  0  0  0  0  0  0  0  0  0  0
  1  2  1  0  0  0  0
  1 21  1  0  0  0  0
  1 22  1  0  0  0  0
  1 23  1  0  0  0  0
  2  3  1  0  0  0  0
  2  4  1  0  0  0  0
  2 24  1  0  0  0  0
  3 25  1  0  0  0  0
  3 26  1  0  0  0  0
  3 27  1  0  0  0  0
  4  5  1  0  0  0  0
  4 28  1  0  0  0  0
  4 29  1  0  0  0  0
  5 20  1  0  0  0  0
  5  6  1  0  0  0  0
  6  7  1  0  0  0  0
  6 30  1  0  0  0  0
  6 31  1  0  0  0  0
  7  8  1  0  0  0  0
  7 32  1  0  0  0  0
  7 33  1  0  0  0  0
  8  9  1  0  0  0  0
  9 10  1  0  0  0  0
  9 20  1  0  0  0  0
  9 34  1  0  0  0  0
 10 11  1  0  0  0  0
 10 35  1  0  0  0  0
 10 36  1  0  0  0  0
 11 12  1  0  0  0  0
 11 37  1  0  0  0  0
 12 13  2  0  0  0  0
 12 14  1  0  0  0  0
 14 15  1  0  0  0  0
 14 38  1  0  0  0  0
 15 19  1  0  0  0  0
 15 16  2  0  0  0  0
 16 17  1  0  0  0  0
 17 18  2  0  0  0  0
 18 19  1  0  0  0  0
 18 39  1  0  0  0  0
 20 40  1  0  0  0  0
 20 41  1  0  0  0  0
M  END
> <s_m_source_file>
AV-unprocessed.smi

> <i_m_source_file_index>
2021

> <i_lp_mmshare_version>
43012

> <i_f3d_flags>
0

> <s_epik_input>
W0NIM11bQ0hdKFtDSDNdKVtDSDJdTjFbQ0gyXVtDSDJdT1tDQEhdKFtDSDJdMSlbQ0gyXVtOSF1DKD1PKVtOSF1jMm5uW2NIXXMy

> <s_epik_cmdline>
J2VwaWtfcHl0aG9uJywgJy1waCcsICc3LjAnLCAnLXRuJywgJzgnLCAnLW1hJywgJzIwMCcsICctbWV0YWxfYmluZGluZycsICctaW1hZScsICc8aW5maWxlLm1hZT4nLCAnLW9tYWUnLCAnPG91dGZpbGUubWFlPic=

> <r_lp_tautomer_probability>
1

> <r_epik_Ionization_Penalty>
1.11451

> <r_epik_Ionization_Penalty_Charging>
0

> <r_epik_Ionization_Penalty_Neutral>
1.11451

> <r_epik_State_Penalty>
1.17021

> <r_epik_Charging_Adjusted_Penalty>
1.17021

> <i_epik_Tot_Q>
0

> <i_epik_Tot_abs_Q>
0

> <r_epik_Metal_State_Penalty>
1.53642

> <b_epik_Metal_Only>
0

> <s_lp_Force_Field>
OPLS_2005

> <r_lp_Energy>
25.242

> <b_lp_Chiralities_Consistent>
1

> <s_lp_Variant>
AV-unprocessed.smi:2021-5

> <Gold.Version>
5.8.1

> <Gold.Id.Protein>
6NUR|6NUR_protein|mol2

> <Gold.PLP.Fitness>
44.2922

> <Gold.PLP.PLP>
-37.4033

> <Gold.PLP.part.hbond>
-3.7177

> <Gold.PLP.part.metal>
0.0000

> <Gold.PLP.part.buried>
-3.0311

> <Gold.PLP.part.nonpolar>
-30.8623

> <Gold.PLP.part.repulsive>
0.2730

> <Gold.PLP.ligand.clash>
0.0000

> <Gold.PLP.ligand.torsion>
1.0666

> <Gold.PLP.Chemscore.Hbond>
2.9920

> <Gold.PLP.Chemscore.CHOScore>
0.0000

> <Gold.PLP.Chemscore.Metal>
0.0000

> <Gold.Chemscore.Hbonds>
donor molecule, donor type, donor heavy atom, donor atom, acceptor molecule, acceptor atom, score
      L1  H    14    38       P1  7949  0.56
      P1  H  7989  7998       L1     8  0.88

> <Gold.PLP.Chemscore.Internal.Correction>
0.0460

> <Gold.Rescore>
     Score         DG    S(hbond)    S(metal)    S(lipo)     H(rot)  DE(clash)    DE(int)     intcor
     15.47     -18.59       2.31        0.00      86.28       1.84       0.05       3.06       ----

> <Gold.Chemscore.Fitness>
15.4728

> <Gold.Chemscore.DG>
-18.5899

> <Gold.Chemscore.ZeroCoef>
-5.4800

> <Gold.Chemscore.Hbond>
2.3140

> <Gold.Chemscore.Metal>
0.0000

> <Gold.Chemscore.Lipo>
86.2802

> <Gold.Chemscore.Internal_Hbond>
0.0000

> <Gold.Chemscore.DEClash>
0.0540

> <Gold.Chemscore.DEInternal>
3.0631

> <Gold.Chemscore.Rot>
1.8413

> <Gold.Chemscore.Internal.Correction>
   9.000000E+99

> <Gold.Chemscore.Hbonds>
donor molecule, donor type, donor heavy atom, donor atom, acceptor molecule, acceptor atom, score
      L1  H    14    38       P1  7949  0.41
      P1  H  7989  7998       L1     8  0.74

> <Gold.Chemscore.Hbond.Weighted>
-7.7289

> <Gold.Chemscore.Metal.Weighted>
-0.0000

> <Gold.Chemscore.Lipo.Weighted>
-10.0948

> <Gold.Chemscore.Internal_Hbond.Weighted>
0.0000

> <Gold.Chemscore.DEClash.Weighted>
0.0540

> <Gold.Chemscore.DEInternal.Weighted>
3.0631

> <Gold.Chemscore.Rot.Weighted>
4.7138

> <Gold.Chemscore.Internal.Correction.Weighted>
   9.000000E+99

> <Gold.Protein.RotatedTorsions>
[ 6907 6896 6895 6894 ] final  -61.19 input  -60.11 | X-H torsion
[ 7974 7965 7964 7962 ] final   88.70 input  175.53 | X-H torsion
[ 8008 7997 7996 7995 ] final  124.53 input   59.86 | X-H torsion
[ 10167 10162 10161 10158 ] final  -15.28 input  -65.29 | X-H torsion
[ 10718 10713 10712 10709 ] final   68.52 input   66.30 | X-H torsion
[ 10763 10752 10751 10750 ] final   91.13 input  -60.55 | X-H torsion
[ 11005 11000 10999 10996 ] final  102.13 input  -57.11 | X-H torsion

> <Gold.Protein.ActiveResidues>
 VAL166  LYS551  ARG553  GLY616  TRP617  ASP618  TYR619  PRO620  LYS621  CYS622 
 ASP623  PHE694  ASN695  SER759  ASP760  ASP761  ALA762  ILE779  LEU786  VAL792 
 PHE793  MET794  SER795  GLU796  ALA797  LYS798  CYS799  TRP800  GLU811  SER814 

> <Gold.Protein.RotatedAtoms>
  150.7802  134.6737  159.6405 H   0  0  0  0  0  0  0  0  0  0  0  0  # atno 6907 bound_to 6896
  152.3884  134.6477  160.0126 H   0  0  0  0  0  0  0  0  0  0  0  0  # atno 6908 bound_to 6896
  151.6785  133.3276  159.3250 H   0  0  0  0  0  0  0  0  0  0  0  0  # atno 6909 bound_to 6896
  145.5422  139.2289  143.2559 H   0  0  0  0  0  0  0  0  0  0  0  0  # atno 7974 bound_to 7965
  156.2804  140.2737  156.1803 H   0  0  0  0  0  0  0  0  0  0  0  0  # atno 8008 bound_to 7997
  155.0563  140.0386  157.2579 H   0  0  0  0  0  0  0  0  0  0  0  0  # atno 8009 bound_to 7997
  154.7154  140.2677  155.6596 H   0  0  0  0  0  0  0  0  0  0  0  0  # atno 8010 bound_to 7997
  140.7216  143.5234  150.9606 H   0  0  0  0  0  0  0  0  0  0  0  0  # atno 10167 bound_to 10162
  157.6294  130.9378  150.0389 H   0  0  0  0  0  0  0  0  0  0  0  0  # atno 10718 bound_to 10713
  153.2049  135.4409  155.0311 H   0  0  0  0  0  0  0  0  0  0  0  0  # atno 10763 bound_to 10752
  154.8168  135.3319  154.7156 H   0  0  0  0  0  0  0  0  0  0  0  0  # atno 10764 bound_to 10752
  153.7598  135.6992  153.4983 H   0  0  0  0  0  0  0  0  0  0  0  0  # atno 10765 bound_to 10752
  139.8776  134.9212  156.5012 H   0  0  0  0  0  0  0  0  0  0  0  0  # atno 11005 bound_to 11000
  146.1974  140.6242  142.9118 LP  0  0  0  0  0  0  0  0  0  0  0  0  # atno 17320 bound_to 7965
  144.7571  140.5334  143.6761 LP  0  0  0  0  0  0  0  0  0  0  0  0  # atno 17321 bound_to 7965
  139.8952  143.6904  152.3139 LP  0  0  0  0  0  0  0  0  0  0  0  0  # atno 17342 bound_to 10162
  139.7234  144.7598  151.0919 LP  0  0  0  0  0  0  0  0  0  0  0  0  # atno 17343 bound_to 10162
  156.1487  130.3642  149.9471 LP  0  0  0  0  0  0  0  0  0  0  0  0  # atno 17370 bound_to 10713
  156.7495  130.9110  151.3636 LP  0  0  0  0  0  0  0  0  0  0  0  0  # atno 17371 bound_to 10713
  140.8588  133.8075  155.9244 LP  0  0  0  0  0  0  0  0  0  0  0  0  # atno 17394 bound_to 11000
  140.9070  134.2307  157.5008 LP  0  0  0  0  0  0  0  0  0  0  0  0  # atno 17395 bound_to 11000

$$$$
