#       Name:                AV-unprocessed.smi:1809
#       Creating user name   scv26
#       Creation time:       Fri Mar 27 08:57:54 2020


#       File generated by GOLD software.
#

@<TRIPOS>MOLECULE
AV-unprocessed.smi:1809
    46    48     1
SMALL
NO_CHARGES


@<TRIPOS>ATOM
      1 ****        -7.5604   2.7745   1.5562 C.3            1 S1                 0.0000
      2 ****        -6.1638   2.6461   1.0522 C.2            1 S1                 0.0000
      3 ****        -5.8687   2.5639  -0.2475 N.2            1 S1                 0.0000
      4 ****        -4.5035   2.4509  -0.4674 N.2            1 S1                 0.0000
      5 ****        -3.7878   2.4382   0.6662 C.2            1 S1                 0.0000
      6 ****        -2.4480   2.3404   0.6712 N.pl3          1 S1                -1.0000
      7 ****        -1.8591   1.1398   0.8671 C.2            1 S1                 0.0000
      8 ****        -2.4317   0.0632   1.0516 O.2            1 S1                 0.0000
      9 ****        -0.5215   1.1874   0.8472 N.am           1 S1                 0.0000
     10 ****         0.3563   0.0381   1.0132 C.3            1 S1                 0.0000
     11 ****         1.8288   0.4395   0.8020 C.3            1 S1                 0.0000
     12 ****         2.8027  -0.7492   0.9854 C.3            1 S1                 0.0000
     13 ****         2.7069  -1.6320  -0.1923 N.4            1 S1                 1.0000
     14 ****         3.5450  -2.8427  -0.2244 C.3            1 S1                 0.0000
     15 ****         3.6902  -3.1842  -1.7207 C.3            1 S1                 0.0000
     16 ****         3.0468  -2.0107  -2.4816 C.3            1 S1                 0.0000
     17 ****         2.9909  -0.9053  -1.4316 C.3            1 S1                 0.0000
     18 ****         1.9501   0.2062  -1.6107 C.3            1 S1                 0.0000
     19 ****         2.0324   1.0692  -0.4733 O.3            1 S1                 0.0000
     20 ****        -4.7728   2.5860   2.1213 S.3            1 S1                 0.0000
     21 ****        -8.0359   1.7943   1.5891 H              1 S1                 0.0000
     22 ****        -8.1407   3.4257   0.9019 H              1 S1                 0.0000
     23 ****        -7.5622   3.1995   2.5601 H              1 S1                 0.0000
     24 ****        -0.0864   2.0854   0.6924 H              1 S1                 0.0000
     25 ****         0.2233  -0.3619   2.0195 H              1 S1                 0.0000
     26 ****         0.0603  -0.7517   0.3218 H              1 S1                 0.0000
     27 ****         2.0715   1.1869   1.5583 H              1 S1                 0.0000
     28 ****         3.8259  -0.3841   1.0850 H              1 S1                 0.0000
     29 ****         2.5705  -1.3073   1.8932 H              1 S1                 0.0000
     30 ****         4.5239  -2.6300   0.2083 H              1 S1                 0.0000
     31 ****         3.0876  -3.6499   0.3482 H              1 S1                 0.0000
     32 ****         4.7441  -3.2865  -1.9826 H              1 S1                 0.0000
     33 ****         3.1977  -4.1248  -1.9692 H              1 S1                 0.0000
     34 ****         3.6107  -1.7207  -3.3688 H              1 S1                 0.0000
     35 ****         2.0383  -2.2823  -2.7972 H              1 S1                 0.0000
     36 ****         3.9833  -0.4555  -1.3532 H              1 S1                 0.0000
     37 ****         2.1625   0.7844  -2.5101 H              1 S1                 0.0000
     38 ****         0.9439  -0.1985  -1.7226 H              1 S1                 0.0000
     39 ****         1.7482  -1.9438  -0.2578 H              1 S1                 0.0000
     40 ****        -6.5521   2.5818  -0.9773 LP             1 S1                 0.0000
     41 ****        -4.0952   2.3857  -1.3779 LP             1 S1                 0.0000
     42 ****        -1.8865   3.1558   0.5300 LP             1 S1                 0.0000
     43 ****        -3.4308   0.0244   1.0661 LP             1 S1                 0.0000
     44 ****        -1.8968  -0.7708   1.1867 LP             1 S1                 0.0000
     45 ****         2.9415   1.4858  -0.4687 LP             1 S1                 0.0000
     46 ****         1.3394   1.7826  -0.5780 LP             1 S1                 0.0000
@<TRIPOS>BOND
    1    1    2 1     
    2    1   21 1     
    3    1   22 1     
    4    1   23 1     
    5    2   20 1     
    6    2    3 2     
    7    3    4 1     
    8    4    5 2     
    9    5    6 1     
   10    5   20 1     
   11    6    7 1     
   12    7    8 2     
   13    7    9 am    
   14    9   10 1     
   15    9   24 1     
   16   10   11 1     
   17   10   25 1     
   18   10   26 1     
   19   11   19 1     
   20   11   12 1     
   21   11   27 1     
   22   12   13 1     
   23   12   28 1     
   24   12   29 1     
   25   13   17 1     
   26   13   14 1     
   27   13   39 1     
   28   14   15 1     
   29   14   30 1     
   30   14   31 1     
   31   15   16 1     
   32   15   32 1     
   33   15   33 1     
   34   16   17 1     
   35   16   34 1     
   36   16   35 1     
   37   17   18 1     
   38   17   36 1     
   39   18   19 1     
   40   18   37 1     
   41   18   38 1     
   42    3   40 1     
   43    4   41 1     
   44    6   42 1     
   45    8   43 1     
   46    8   44 1     
   47   19   45 1     
   48   19   46 1     
@<TRIPOS>SUBSTRUCTURE
      1 S1             1
@<TRIPOS>SET
LONE_PAIRS      STATIC     ATOMS    <user>   **** ""
7 40 41 42 43 44 45 46
DONOR_HYDROGENS      STATIC     ATOMS    <user>   **** ""
2 24 39
ATOM$BLUE        STATIC     ATOMS    COLORGROUP SYSTEM
7 40 41 42 43 44 45 46
ATOM$RED        STATIC     ATOMS    COLORGROUP SYSTEM
2 24 39
