AV-unprocessed.smi:2290|AV-procd|sdf|9210|dock4
  -GOLD-   2272012433D 1   1.00000     0.00000
 Structure written by MMmdl.
 38 39  0  0  0  0  0  0  0  0  1 V2000
  152.3897  143.5853  161.3055 C   0  0  0  0  0  0  0  0  0  0  0  0
  152.0852  142.8994  159.9855 C   0  0  0  0  0  0  0  0  0  0  0  0
  151.1955  143.5750  159.1451 N   0  0  0  0  0  0  0  0  0  0  0  0
  150.8781  143.0664  157.9996 C   0  0  0  0  0  0  0  0  0  0  0  0
  151.4063  141.8398  157.5654 N   0  0  0  0  0  0  0  0  0  0  0  0
  150.9710  141.3762  156.2378 C   0  0  0  0  0  0  0  0  0  0  0  0
  149.4453  141.1399  156.1724 C   0  0  2  0  0  0  0  0  0  0  0  0
  148.9885  140.5118  157.3536 O   0  0  0  0  0  0  0  0  0  0  0  0
  149.0253  140.2637  154.9808 C   0  0  0  0  0  0  0  0  0  0  0  0
  147.6564  140.4904  154.6655 O   0  0  0  0  0  0  0  0  0  0  0  0
  147.4382  141.5853  153.7861 C   0  0  0  0  0  0  0  0  0  0  0  0
  146.2899  142.3986  154.2999 C   0  0  0  0  0  0  0  0  0  0  0  0
  145.7494  143.5228  153.7294 C   0  0  0  0  0  0  0  0  0  0  0  0
  144.6681  144.0709  154.4804 C   0  0  0  0  0  0  0  0  0  0  0  0
  144.4014  143.3627  155.6216 C   0  0  0  0  0  0  0  0  0  0  0  0
  145.4799  142.0060  155.7990 S   0  0  0  0  0  0  0  0  0  0  0  0
  152.2844  141.1181  158.3204 C   0  0  0  0  0  0  0  0  0  0  0  0
  152.7509  140.0483  157.9238 O   0  0  0  0  0  0  0  0  0  0  0  0
  152.6332  141.7073  159.6234 C   0  0  0  0  0  0  0  0  0  0  0  0
  153.6076  140.9266  160.4966 C   0  0  0  0  0  0  0  0  0  0  0  0
  152.1017  142.9493  162.1430 H   0  0  0  0  0  0  0  0  0  0  0  0
  151.8461  144.5265  161.3986 H   0  0  0  0  0  0  0  0  0  0  0  0
  153.4546  143.8061  161.3841 H   0  0  0  0  0  0  0  0  0  0  0  0
  150.1920  143.5548  157.3054 H   0  0  0  0  0  0  0  0  0  0  0  0
  151.2489  142.1343  155.5032 H   0  0  0  0  0  0  0  0  0  0  0  0
  151.5106  140.4830  155.9159 H   0  0  0  0  0  0  0  0  0  0  0  0
  148.9173  142.0903  156.0861 H   0  0  0  0  0  0  0  0  0  0  0  0
  148.0759  140.2927  157.2446 H   0  0  0  0  0  0  0  0  0  0  0  0
  149.6586  140.4562  154.1132 H   0  0  0  0  0  0  0  0  0  0  0  0
  149.1686  139.2168  155.2517 H   0  0  0  0  0  0  0  0  0  0  0  0
  148.3380  142.2003  153.7717 H   0  0  0  0  0  0  0  0  0  0  0  0
  147.2654  141.2465  152.7634 H   0  0  0  0  0  0  0  0  0  0  0  0
  146.0879  143.9660  152.8046 H   0  0  0  0  0  0  0  0  0  0  0  0
  144.1332  144.9538  154.1630 H   0  0  0  0  0  0  0  0  0  0  0  0
  143.6442  143.5559  156.3672 H   0  0  0  0  0  0  0  0  0  0  0  0
  154.5572  140.7968  159.9762 H   0  0  0  0  0  0  0  0  0  0  0  0
  153.2047  139.9375  160.7173 H   0  0  0  0  0  0  0  0  0  0  0  0
  153.8189  141.4137  161.4471 H   0  0  0  0  0  0  0  0  0  0  0  0
  1  2  1  0  0  0  0
  1 21  1  0  0  0  0
  1 22  1  0  0  0  0
  1 23  1  0  0  0  0
  2 19  2  0  0  0  0
  2  3  1  0  0  0  0
  3  4  2  0  0  0  0
  4  5  1  0  0  0  0
  4 24  1  0  0  0  0
  5  6  1  0  0  0  0
  5 17  1  0  0  0  0
  6  7  1  0  0  0  0
  6 25  1  0  0  0  0
  6 26  1  0  0  0  0
  7  8  1  0  0  0  0
  7  9  1  0  0  0  0
  7 27  1  0  0  0  0
  8 28  1  0  0  0  0
  9 10  1  0  0  0  0
  9 29  1  0  0  0  0
  9 30  1  0  0  0  0
 10 11  1  0  0  0  0
 11 12  1  0  0  0  0
 11 31  1  0  0  0  0
 11 32  1  0  0  0  0
 12 16  1  0  0  0  0
 12 13  2  0  0  0  0
 13 14  1  0  0  0  0
 13 33  1  0  0  0  0
 14 15  2  0  0  0  0
 14 34  1  0  0  0  0
 15 16  1  0  0  0  0
 15 35  1  0  0  0  0
 17 18  2  0  0  0  0
 17 19  1  0  0  0  0
 19 20  1  0  0  0  0
 20 36  1  0  0  0  0
 20 37  1  0  0  0  0
 20 38  1  0  0  0  0
M  END
> <s_m_source_file>
AV-unprocessed.smi

> <i_m_source_file_index>
2290

> <i_lp_mmshare_version>
43012

> <i_f3d_flags>
0

> <s_epik_input>
W0NIM11jMW5bY0hdbihjKD1PKWMxW0NIM10pW0NIMl1bQ0BIXShbT0hdKVtDSDJdT1tDSDJdYzJbY0hdW2NIXVtjSF1zMg==

> <s_epik_cmdline>
J2VwaWtfcHl0aG9uJywgJy1waCcsICc3LjAnLCAnLXRuJywgJzgnLCAnLW1hJywgJzIwMCcsICctbWV0YWxfYmluZGluZycsICctaW1hZScsICc8aW5maWxlLm1hZT4nLCAnLW9tYWUnLCAnPG91dGZpbGUubWFlPic=

> <r_lp_tautomer_probability>
1

> <r_epik_Ionization_Penalty>
4.77825e-05

> <r_epik_Ionization_Penalty_Charging>
1.20754e-07

> <r_epik_Ionization_Penalty_Neutral>
4.76618e-05

> <r_epik_State_Penalty>
-0

> <r_epik_Charging_Adjusted_Penalty>
1.20754e-07

> <i_epik_Tot_Q>
0

> <i_epik_Tot_abs_Q>
0

> <r_epik_Metal_State_Penalty>
-0

> <b_epik_Metal_Only>
0

> <s_lp_Force_Field>
OPLS_2005

> <r_lp_Energy>
18.6865

> <b_lp_Chiralities_Consistent>
1

> <s_lp_Variant>
AV-unprocessed.smi:2290-1

> <Gold.Version>
5.8.1

> <Gold.Id.Protein>
6NUR|6NUR_protein|mol2

> <Gold.PLP.Fitness>
47.5622

> <Gold.PLP.PLP>
-43.1622

> <Gold.PLP.part.hbond>
-1.0000

> <Gold.PLP.part.metal>
0.0000

> <Gold.PLP.part.buried>
-7.0576

> <Gold.PLP.part.nonpolar>
-35.1993

> <Gold.PLP.part.repulsive>
0.1636

> <Gold.PLP.ligand.clash>
0.0000

> <Gold.PLP.ligand.torsion>
0.8347

> <Gold.PLP.Chemscore.Hbond>
1.0000

> <Gold.PLP.Chemscore.CHOScore>
1.0000

> <Gold.PLP.Chemscore.Metal>
0.0000

> <Gold.Chemscore.Hbonds>
donor molecule, donor type, donor heavy atom, donor atom, acceptor molecule, acceptor atom, score
      P1  H  7997  8008       L1    18  1.00
      L1  C     4    24       P1  8028  1.00

> <Gold.PLP.Chemscore.Internal.Correction>
0.0694

> <Gold.Rescore>
     Score         DG    S(hbond)    S(metal)    S(lipo)     H(rot)  DE(clash)    DE(int)     intcor
     12.47     -13.51       0.91        0.00      98.43       2.55       0.11       0.93       ----

> <Gold.Chemscore.Fitness>
12.4743

> <Gold.Chemscore.DG>
-13.5127

> <Gold.Chemscore.ZeroCoef>
-5.4800

> <Gold.Chemscore.Hbond>
0.9120

> <Gold.Chemscore.Metal>
0.0000

> <Gold.Chemscore.Lipo>
98.4313

> <Gold.Chemscore.Internal_Hbond>
0.0000

> <Gold.Chemscore.DEClash>
0.1120

> <Gold.Chemscore.DEInternal>
0.9264

> <Gold.Chemscore.Rot>
2.5507

> <Gold.Chemscore.Internal.Correction>
   9.000000E+99

> <Gold.Chemscore.Hbonds>
donor molecule, donor type, donor heavy atom, donor atom, acceptor molecule, acceptor atom, score
      P1  H  7997  8008       L1    18  0.89

> <Gold.Chemscore.Hbond.Weighted>
-3.0461

> <Gold.Chemscore.Metal.Weighted>
-0.0000

> <Gold.Chemscore.Lipo.Weighted>
-11.5165

> <Gold.Chemscore.Internal_Hbond.Weighted>
0.0000

> <Gold.Chemscore.DEClash.Weighted>
0.1120

> <Gold.Chemscore.DEInternal.Weighted>
0.9264

> <Gold.Chemscore.Rot.Weighted>
6.5298

> <Gold.Chemscore.Internal.Correction.Weighted>
   9.000000E+99

> <Gold.Protein.RotatedTorsions>
[ 6907 6896 6895 6894 ] final    5.00 input  -60.11 | X-H torsion
[ 7974 7965 7964 7962 ] final -149.45 input  175.53 | X-H torsion
[ 8008 7997 7996 7995 ] final  -77.32 input   59.86 | X-H torsion
[ 10167 10162 10161 10158 ] final  -73.57 input  -65.29 | X-H torsion
[ 10718 10713 10712 10709 ] final  -21.05 input   66.30 | X-H torsion
[ 10763 10752 10751 10750 ] final  100.35 input  -60.55 | X-H torsion
[ 11005 11000 10999 10996 ] final  -19.47 input  -57.11 | X-H torsion

> <Gold.Protein.ActiveResidues>
 VAL166  LYS551  ARG553  GLY616  TRP617  ASP618  TYR619  PRO620  LYS621  CYS622 
 ASP623  PHE694  ASN695  SER759  ASP760  ASP761  ALA762  ILE779  LEU786  VAL792 
 PHE793  MET794  SER795  GLU796  ALA797  LYS798  CYS799  TRP800  GLU811  SER814 

> <Gold.Protein.RotatedAtoms>
  151.6504  135.1002  160.0159 H   0  0  0  0  0  0  0  0  0  0  0  0  # atno 6907 bound_to 6896
  152.4004  133.6805  159.6320 H   0  0  0  0  0  0  0  0  0  0  0  0  # atno 6908 bound_to 6896
  150.7905  133.8718  159.3302 H   0  0  0  0  0  0  0  0  0  0  0  0  # atno 6909 bound_to 6896
  144.7967  140.5063  143.5735 H   0  0  0  0  0  0  0  0  0  0  0  0  # atno 7974 bound_to 7965
  154.5585  140.0712  156.8782 H   0  0  0  0  0  0  0  0  0  0  0  0  # atno 8008 bound_to 7997
  155.2855  140.3374  155.4237 H   0  0  0  0  0  0  0  0  0  0  0  0  # atno 8009 bound_to 7997
  156.2023  140.1726  156.7860 H   0  0  0  0  0  0  0  0  0  0  0  0  # atno 8010 bound_to 7997
  140.5099  143.2346  151.7611 H   0  0  0  0  0  0  0  0  0  0  0  0  # atno 10167 bound_to 10162
  156.5235  130.4638  149.6584 H   0  0  0  0  0  0  0  0  0  0  0  0  # atno 10718 bound_to 10713
  153.3129  135.4082  155.1351 H   0  0  0  0  0  0  0  0  0  0  0  0  # atno 10763 bound_to 10752
  154.8580  135.3569  154.5700 H   0  0  0  0  0  0  0  0  0  0  0  0  # atno 10764 bound_to 10752
  153.6129  135.7067  153.5398 H   0  0  0  0  0  0  0  0  0  0  0  0  # atno 10765 bound_to 10752
  140.8369  133.7955  155.9819 H   0  0  0  0  0  0  0  0  0  0  0  0  # atno 11005 bound_to 11000
  145.5656  139.1481  143.3317 LP  0  0  0  0  0  0  0  0  0  0  0  0  # atno 17320 bound_to 7965
  146.2237  140.5791  142.9006 LP  0  0  0  0  0  0  0  0  0  0  0  0  # atno 17321 bound_to 7965
  139.4893  144.4405  151.9770 LP  0  0  0  0  0  0  0  0  0  0  0  0  # atno 17342 bound_to 10162
  140.3497  144.3104  150.5951 LP  0  0  0  0  0  0  0  0  0  0  0  0  # atno 17343 bound_to 10162
  156.3127  130.7237  151.2133 LP  0  0  0  0  0  0  0  0  0  0  0  0  # atno 17370 bound_to 10713
  157.7433  131.0477  150.4957 LP  0  0  0  0  0  0  0  0  0  0  0  0  # atno 17371 bound_to 10713
  140.8937  134.2464  157.5080 LP  0  0  0  0  0  0  0  0  0  0  0  0  # atno 17394 bound_to 11000
  139.8704  134.9674  156.4594 LP  0  0  0  0  0  0  0  0  0  0  0  0  # atno 17395 bound_to 11000

$$$$
