#       Name:                AV-unprocessed.smi:1626
#       Creating user name   scv26
#       Creation time:       Fri Mar 27 07:18:02 2020


#       File generated by GOLD software.
#

@<TRIPOS>MOLECULE
AV-unprocessed.smi:1626
    53    55     1
SMALL
NO_CHARGES


@<TRIPOS>ATOM
      1 ****        -2.6537   3.7639  -3.4198 C.3            1 S1                 0.0000
      2 ****        -2.5687   2.5616  -2.4950 C.ar           1 S1                 0.0000
      3 ****        -3.0960   2.6769  -1.1887 C.ar           1 S1                 0.0000
      4 ****        -3.0070   1.5591  -0.3678 C.ar           1 S1                 0.0000
      5 ****        -3.4307   1.3521   0.9469 N.pl3          1 S1                 1.0000
      6 ****        -3.1270   0.0801   1.3277 C.2            1 S1                 0.0000
      7 ****        -2.5039  -0.5240   0.2788 N.pl3          1 S1                 0.0000
      8 ****        -1.9783  -1.8893   0.1489 C.3            1 S1                 0.0000
      9 ****        -0.4398  -1.9645   0.2367 C.3            1 S1                 0.0000
     10 ****        -0.0806  -3.3252   0.1094 O.3            1 S1                 0.0000
     11 ****         0.1263  -1.4133   1.5645 C.3            1 S1                 0.0000
     12 ****         1.6115  -1.3766   1.5855 N.4            1 S1                 1.0000
     13 ****         2.1560  -1.4415   2.9668 C.3            1 S1                 0.0000
     14 ****         3.6901  -1.5483   2.9553 C.3            1 S1                 0.0000
     15 ****         4.3149  -0.3793   2.1798 C.3            1 S1                 0.0000
     16 ****         5.7127  -0.5578   2.0986 O.3            1 S1                 0.0000
     17 ****         3.7163  -0.3118   0.7672 C.3            1 S1                 0.0000
     18 ****         2.1815  -0.2298   0.8271 C.3            1 S1                 0.0000
     19 ****        -2.4170   0.3571  -0.8042 C.ar           1 S1                 0.0000
     20 ****        -1.8945   0.2253  -2.0883 C.ar           1 S1                 0.0000
     21 ****        -1.9743   1.3516  -2.9382 C.ar           1 S1                 0.0000
     22 ****        -1.4100   1.2389  -4.3443 C.3            1 S1                 0.0000
     23 ****        -3.1766   4.5954  -2.9464 H              1 S1                 0.0000
     24 ****        -3.1935   3.5092  -4.3322 H              1 S1                 0.0000
     25 ****        -1.6558   4.1083  -3.6919 H              1 S1                 0.0000
     26 ****        -3.5518   3.5942  -0.8455 H              1 S1                 0.0000
     27 ****        -3.3413  -0.3668   2.2881 H              1 S1                 0.0000
     28 ****        -2.4315  -2.4873   0.9411 H              1 S1                 0.0000
     29 ****        -2.3377  -2.3025  -0.7949 H              1 S1                 0.0000
     30 ****        -0.0164  -1.4288  -0.6116 H              1 S1                 0.0000
     31 ****         0.8542  -3.3891  -0.0123 H              1 S1                 0.0000
     32 ****        -0.2468  -0.4081   1.7640 H              1 S1                 0.0000
     33 ****        -0.2430  -2.0376   2.3798 H              1 S1                 0.0000
     34 ****         1.8429  -0.5581   3.5259 H              1 S1                 0.0000
     35 ****         1.7438  -2.3082   3.4854 H              1 S1                 0.0000
     36 ****         4.0681  -1.5656   3.9783 H              1 S1                 0.0000
     37 ****         3.9830  -2.4960   2.5004 H              1 S1                 0.0000
     38 ****         4.1199   0.5559   2.7066 H              1 S1                 0.0000
     39 ****         6.0897   0.1893   1.6587 H              1 S1                 0.0000
     40 ****         4.1133   0.5517   0.2318 H              1 S1                 0.0000
     41 ****         4.0096  -1.1936   0.1952 H              1 S1                 0.0000
     42 ****         1.7903  -0.2109  -0.1894 H              1 S1                 0.0000
     43 ****         1.8761   0.7062   1.2976 H              1 S1                 0.0000
     44 ****        -1.4482  -0.6977  -2.4280 H              1 S1                 0.0000
     45 ****        -0.9544   0.2631  -4.5143 H              1 S1                 0.0000
     46 ****        -0.6443   1.9964  -4.5132 H              1 S1                 0.0000
     47 ****        -2.1993   1.3717  -5.0845 H              1 S1                 0.0000
     48 ****         1.9232  -2.2203   1.1262 H              1 S1                 0.0000
     49 ****        -3.9014   2.0248   1.5389 H              1 S1                 0.0000
     50 ****        -0.5487  -3.7224  -0.6800 LP             1 S1                 0.0000
     51 ****        -0.3448  -3.8199   0.9373 LP             1 S1                 0.0000
     52 ****         5.9160  -1.3898   1.5824 LP             1 S1                 0.0000
     53 ****         6.0959  -0.6347   3.0191 LP             1 S1                 0.0000
@<TRIPOS>BOND
    1    1    2 1     
    2    1   23 1     
    3    1   24 1     
    4    1   25 1     
    5    2   21 ar    
    6    2    3 ar    
    7    3    4 ar    
    8    3   26 1     
    9    4   19 ar    
   10    4    5 1     
   11    5    6 2     
   12    5   49 1     
   13    6    7 1     
   14    6   27 1     
   15    7    8 1     
   16    7   19 1     
   17    8    9 1     
   18    8   28 1     
   19    8   29 1     
   20    9   10 1     
   21    9   11 1     
   22    9   30 1     
   23   10   31 1     
   24   11   12 1     
   25   11   32 1     
   26   11   33 1     
   27   12   18 1     
   28   12   13 1     
   29   12   48 1     
   30   13   14 1     
   31   13   34 1     
   32   13   35 1     
   33   14   15 1     
   34   14   36 1     
   35   14   37 1     
   36   15   16 1     
   37   15   17 1     
   38   15   38 1     
   39   16   39 1     
   40   17   18 1     
   41   17   40 1     
   42   17   41 1     
   43   18   42 1     
   44   18   43 1     
   45   19   20 ar    
   46   20   21 ar    
   47   20   44 1     
   48   21   22 1     
   49   22   45 1     
   50   22   46 1     
   51   22   47 1     
   52   10   50 1     
   53   10   51 1     
   54   16   52 1     
   55   16   53 1     
@<TRIPOS>SUBSTRUCTURE
      1 S1             1
@<TRIPOS>SET
LONE_PAIRS      STATIC     ATOMS    <user>   **** ""
4 50 51 52 53
DONOR_HYDROGENS      STATIC     ATOMS    <user>   **** ""
4 49 31 48 39
ATOM$BLUE        STATIC     ATOMS    COLORGROUP SYSTEM
4 50 51 52 53
ATOM$RED        STATIC     ATOMS    COLORGROUP SYSTEM
4 49 31 48 39
