AV-unprocessed.smi:634|AV-procd|sdf|3138|dock4
  -GOLD-   22720 0 63D 1   1.00000     0.00000
 Structure written by MMmdl.
 32 33  0  0  0  0  0  0  0  0  2 V2000
  143.8425  132.6841  148.3984 C   0  0  0  0  0  0  0  0  0  0  0  0
  144.5473  132.3107  149.6571 C   0  0  0  0  0  0  0  0  0  0  0  0
  145.8076  131.8507  149.9157 C   0  0  0  0  0  0  0  0  0  0  0  0
  145.8110  131.6989  151.3280 C   0  0  0  0  0  0  0  0  0  0  0  0
  146.9672  131.2243  152.0016 N   0  0  0  0  0  0  0  0  0  0  0  0
  147.1270  130.9455  153.3077 C   0  0  0  0  0  0  0  0  0  0  0  0
  146.1992  131.1262  154.1034 O   0  0  0  0  0  0  0  0  0  0  0  0
  148.3755  130.4733  153.5832 N   0  5  0  0  0  0  0  0  0  0  0  0
  149.3270  130.9674  154.5956 C   0  0  2  0  0  0  0  0  0  0  0  0
  149.6113  132.4446  154.2517 C   0  0  0  0  0  0  0  0  0  0  0  0
  150.6589  130.1683  154.5808 C   0  0  0  0  0  0  0  0  0  0  0  0
  151.4520  130.4719  155.8620 C   0  0  0  0  0  0  0  0  0  0  0  0
  150.2033  130.8297  157.1583 S   0  0  0  0  0  0  0  0  0  0  0  0
  150.0854  129.6734  158.0602 O   0  0  0  0  0  0  0  0  0  0  0  0
  150.4459  132.1784  157.6949 O   0  0  0  0  0  0  0  0  0  0  0  0
  148.7548  130.8639  156.0286 C   0  0  0  0  0  0  0  0  0  0  0  0
  144.6558  132.0392  151.8810 N   0  0  0  0  0  0  0  0  0  0  0  0
  143.8407  132.4332  150.8134 O   0  0  0  0  0  0  0  0  0  0  0  0
  144.3912  132.3302  147.5255 H   0  0  0  0  0  0  0  0  0  0  0  0
  143.7419  133.7666  148.3195 H   0  0  0  0  0  0  0  0  0  0  0  0
  142.8442  132.2474  148.3687 H   0  0  0  0  0  0  0  0  0  0  0  0
  146.5984  131.6522  149.2075 H   0  0  0  0  0  0  0  0  0  0  0  0
  147.7741  131.0575  151.4192 H   0  0  0  0  0  0  0  0  0  0  0  0
  150.2981  132.9058  154.9613 H   0  0  0  0  0  0  0  0  0  0  0  0
  148.6959  133.0377  154.2596 H   0  0  0  0  0  0  0  0  0  0  0  0
  150.0556  132.5437  153.2604 H   0  0  0  0  0  0  0  0  0  0  0  0
  150.4599  129.0971  154.5729 H   0  0  0  0  0  0  0  0  0  0  0  0
  151.2515  130.3748  153.6888 H   0  0  0  0  0  0  0  0  0  0  0  0
  152.0823  129.6381  156.1710 H   0  0  0  0  0  0  0  0  0  0  0  0
  152.0828  131.3533  155.7413 H   0  0  0  0  0  0  0  0  0  0  0  0
  148.0947  131.6908  156.2908 H   0  0  0  0  0  0  0  0  0  0  0  0
  148.2070  129.9364  156.1908 H   0  0  0  0  0  0  0  0  0  0  0  0
  1  2  1  0  0  0  0
  1 19  1  0  0  0  0
  1 20  1  0  0  0  0
  1 21  1  0  0  0  0
  2 18  1  0  0  0  0
  2  3  2  0  0  0  0
  3  4  1  0  0  0  0
  3 22  1  0  0  0  0
  4  5  1  0  0  0  0
  4 17  2  0  0  0  0
  5  6  1  0  0  0  0
  5 23  1  0  0  0  0
  6  7  2  0  0  0  0
  6  8  1  0  0  0  0
  8  9  1  0  0  0  0
  9 16  1  0  0  0  0
  9 10  1  0  0  0  0
  9 11  1  0  0  0  0
 10 24  1  0  0  0  0
 10 25  1  0  0  0  0
 10 26  1  0  0  0  0
 11 12  1  0  0  0  0
 11 27  1  0  0  0  0
 11 28  1  0  0  0  0
 12 13  1  0  0  0  0
 12 29  1  0  0  0  0
 12 30  1  0  0  0  0
 13 14  2  0  0  0  0
 13 15  2  0  0  0  0
 13 16  1  0  0  0  0
 16 31  1  0  0  0  0
 16 32  1  0  0  0  0
 17 18  1  0  0  0  0
M  CHG  1   8  -1
M  END
> <s_m_source_file>
AV-unprocessed.smi

> <i_m_source_file_index>
634

> <i_lp_mmshare_version>
43012

> <i_f3d_flags>
0

> <s_epik_input>
W0NIM11jMVtjSF1jKG5vMSlbTkhdQyg9TylbTkhdW0NAQF0yKFtDSDNdKVtDSDJdW0NIMl1TKD1PKSg9TylbQ0gyXTI=

> <s_epik_cmdline>
J2VwaWtfcHl0aG9uJywgJy1waCcsICc3LjAnLCAnLXRuJywgJzgnLCAnLW1hJywgJzIwMCcsICctbWV0YWxfYmluZGluZycsICctaW1hZScsICc8aW5maWxlLm1hZT4nLCAnLW9tYWUnLCAnPG91dGZpbGUubWFlPic=

> <r_lp_tautomer_probability>
1

> <r_epik_Ionization_Penalty>
6.62388

> <r_epik_Ionization_Penalty_Charging>
6.62387

> <r_epik_Ionization_Penalty_Neutral>
5.45748e-06

> <r_epik_State_Penalty>
6.65157

> <r_epik_Charging_Adjusted_Penalty>
13.2754

> <i_epik_Tot_Q>
-1

> <i_epik_Tot_abs_Q>
1

> <r_epik_Metal_State_Penalty>
2.59195

> <b_epik_Metal_Only>
1

> <s_lp_Force_Field>
OPLS_2005

> <r_lp_Energy>
8.10378

> <b_lp_Chiralities_Consistent>
1

> <s_lp_Variant>
AV-unprocessed.smi:634-6

> <Gold.Version>
5.8.1

> <Gold.Id.Protein>
6NUR|6NUR_protein|mol2

> <Gold.PLP.Fitness>
33.8166

> <Gold.PLP.PLP>
-28.7688

> <Gold.PLP.part.hbond>
-2.0000

> <Gold.PLP.part.metal>
0.0000

> <Gold.PLP.part.buried>
-4.4917

> <Gold.PLP.part.nonpolar>
-22.2985

> <Gold.PLP.part.repulsive>
0.5904

> <Gold.PLP.ligand.clash>
0.0000

> <Gold.PLP.ligand.torsion>
0.4808

> <Gold.PLP.Chemscore.Hbond>
2.0000

> <Gold.PLP.Chemscore.CHOScore>
0.0000

> <Gold.PLP.Chemscore.Metal>
0.0000

> <Gold.Chemscore.Hbonds>
donor molecule, donor type, donor heavy atom, donor atom, acceptor molecule, acceptor atom, score
      L1  H     5    23       P1 10747  1.00
      P1  H  6896  6909       L1    15  0.81

> <Gold.PLP.Chemscore.Internal.Correction>
0.0094

> <Gold.Rescore>
     Score         DG    S(hbond)    S(metal)    S(lipo)     H(rot)  DE(clash)    DE(int)     intcor
     15.31     -17.01       2.00        0.00      63.39       1.00       0.00       1.70       ----

> <Gold.Chemscore.Fitness>
15.3092

> <Gold.Chemscore.DG>
-17.0150

> <Gold.Chemscore.ZeroCoef>
-5.4800

> <Gold.Chemscore.Hbond>
1.9995

> <Gold.Chemscore.Metal>
0.0000

> <Gold.Chemscore.Lipo>
63.3898

> <Gold.Chemscore.Internal_Hbond>
0.0000

> <Gold.Chemscore.DEClash>
0.0038

> <Gold.Chemscore.DEInternal>
1.7019

> <Gold.Chemscore.Rot>
1.0000

> <Gold.Chemscore.Internal.Correction>
   9.000000E+99

> <Gold.Chemscore.Hbonds>
donor molecule, donor type, donor heavy atom, donor atom, acceptor molecule, acceptor atom, score
      L1  H     5    23       P1 10747  1.00
      P1  H  6896  6909       L1    15  0.80

> <Gold.Chemscore.Hbond.Weighted>
-6.6783

> <Gold.Chemscore.Metal.Weighted>
-0.0000

> <Gold.Chemscore.Lipo.Weighted>
-7.4166

> <Gold.Chemscore.Internal_Hbond.Weighted>
0.0000

> <Gold.Chemscore.DEClash.Weighted>
0.0038

> <Gold.Chemscore.DEInternal.Weighted>
1.7019

> <Gold.Chemscore.Rot.Weighted>
2.5600

> <Gold.Chemscore.Internal.Correction.Weighted>
   9.000000E+99

> <Gold.Protein.RotatedTorsions>
[ 6907 6896 6895 6894 ] final  -38.72 input  -60.11 | X-H torsion
[ 7974 7965 7964 7962 ] final  -11.34 input  175.53 | X-H torsion
[ 8008 7997 7996 7995 ] final -111.47 input   59.86 | X-H torsion
[ 10167 10162 10161 10158 ] final -150.27 input  -65.29 | X-H torsion
[ 10718 10713 10712 10709 ] final   62.40 input   66.30 | X-H torsion
[ 10763 10752 10751 10750 ] final -129.63 input  -60.55 | X-H torsion
[ 11005 11000 10999 10996 ] final  -42.01 input  -57.11 | X-H torsion

> <Gold.Protein.ActiveResidues>
 VAL166  LYS551  ARG553  GLY616  TRP617  ASP618  TYR619  PRO620  LYS621  CYS622 
 ASP623  PHE694  ASN695  SER759  ASP760  ASP761  ALA762  ILE779  LEU786  VAL792 
 PHE793  MET794  SER795  GLU796  ALA797  LYS798  CYS799  TRP800  GLU811  SER814 

> <Gold.Protein.RotatedAtoms>
  150.9990  134.9306  159.7942 H   0  0  0  0  0  0  0  0  0  0  0  0  # atno 6907 bound_to 6896
  152.5272  134.3180  159.9148 H   0  0  0  0  0  0  0  0  0  0  0  0  # atno 6908 bound_to 6896
  151.3186  133.4008  159.2687 H   0  0  0  0  0  0  0  0  0  0  0  0  # atno 6909 bound_to 6896
  146.2191  140.2896  142.8367 H   0  0  0  0  0  0  0  0  0  0  0  0  # atno 7974 bound_to 7965
  154.9902  140.0395  157.2316 H   0  0  0  0  0  0  0  0  0  0  0  0  # atno 8008 bound_to 7997
  154.7635  140.2789  155.6172 H   0  0  0  0  0  0  0  0  0  0  0  0  # atno 8009 bound_to 7997
  156.2908  140.2624  156.2419 H   0  0  0  0  0  0  0  0  0  0  0  0  # atno 8010 bound_to 7997
  139.7369  143.8721  152.2551 H   0  0  0  0  0  0  0  0  0  0  0  0  # atno 10167 bound_to 10162
  157.5898  130.9048  149.9583 H   0  0  0  0  0  0  0  0  0  0  0  0  # atno 10718 bound_to 10713
  154.8757  135.3889  154.3952 H   0  0  0  0  0  0  0  0  0  0  0  0  # atno 10763 bound_to 10752
  153.4683  135.7029  153.6014 H   0  0  0  0  0  0  0  0  0  0  0  0  # atno 10764 bound_to 10752
  153.4482  135.3840  155.2236 H   0  0  0  0  0  0  0  0  0  0  0  0  # atno 10765 bound_to 10752
  141.0286  133.6830  156.2536 H   0  0  0  0  0  0  0  0  0  0  0  0  # atno 11005 bound_to 11000
  144.9136  140.7786  143.5792 LP  0  0  0  0  0  0  0  0  0  0  0  0  # atno 17320 bound_to 7965
  145.2828  139.1912  143.4781 LP  0  0  0  0  0  0  0  0  0  0  0  0  # atno 17321 bound_to 7965
  139.8661  144.7092  150.9042 LP  0  0  0  0  0  0  0  0  0  0  0  0  # atno 17342 bound_to 10162
  140.7780  143.3777  151.1533 LP  0  0  0  0  0  0  0  0  0  0  0  0  # atno 17343 bound_to 10162
  156.0951  130.3660  150.0322 LP  0  0  0  0  0  0  0  0  0  0  0  0  # atno 17370 bound_to 10713
  156.8447  130.9438  151.3629 LP  0  0  0  0  0  0  0  0  0  0  0  0  # atno 17371 bound_to 10713
  140.6447  134.5129  157.5572 LP  0  0  0  0  0  0  0  0  0  0  0  0  # atno 17394 bound_to 11000
  139.9192  134.8183  156.1265 LP  0  0  0  0  0  0  0  0  0  0  0  0  # atno 17395 bound_to 11000

$$$$
