AV-unprocessed.smi:290|AV-procd|sdf|2232|dock5
  -GOLD-   2262022 93D 1   1.00000     0.00000
 Structure written by MMmdl.
 59 62  0  0  0  0  0  0  0  0  2 V2000
  153.1927  138.9171  154.4698 C   0  0  0  0  0  0  0  0  0  0  0  0
  151.8494  138.7516  155.2016 C   0  0  1  0  0  0  0  0  0  0  0  0
  151.1558  139.9935  155.0642 O   0  0  0  0  0  0  0  0  0  0  0  0
  149.8618  139.7871  154.5145 C   0  0  0  0  0  0  0  0  0  0  0  0
  149.9970  138.4922  153.7283 C   0  0  0  0  0  0  0  0  0  0  0  0
  150.9047  137.6644  154.6304 C   0  0  1  0  0  0  0  0  0  0  0  0
  151.5838  136.7028  153.8412 O   0  0  0  0  0  0  0  0  0  0  0  0
  150.1588  136.9196  155.7697 C   0  0  0  0  0  0  0  0  0  0  0  0
  148.9275  136.2671  155.3510 N   0  0  0  0  0  0  0  0  0  0  0  0
  147.6563  136.7951  155.3900 C   0  0  0  0  0  0  0  0  0  0  0  0
  146.7119  136.0078  154.9508 N   0  0  0  0  0  0  0  0  0  0  0  0
  147.3854  134.8522  154.5731 C   0  0  0  0  0  0  0  0  0  0  0  0
  146.9854  133.6038  154.0185 C   0  0  0  0  0  0  0  0  0  0  0  0
  145.7119  133.2687  153.7170 N   0  0  0  0  0  0  0  0  0  0  0  0
  144.6955  134.1508  154.2714 C   0  0  0  0  0  0  0  0  0  0  0  0
  143.8117  134.5713  153.1028 C   0  0  0  0  0  0  0  0  0  0  0  0
  143.9746  133.4444  152.0734 C   0  0  1  0  0  0  0  0  0  0  0  0
  143.6238  133.9250  150.7016 N   0  3  1  0  0  0  0  0  0  0  0  0
  144.3172  135.1619  150.2684 C   0  0  0  0  0  0  0  0  0  0  0  0
  143.7330  132.8542  149.6734 C   0  0  0  0  0  0  0  0  0  0  0  0
  142.8922  133.1693  148.4253 C   0  0  0  0  0  0  0  0  0  0  0  0
  142.1592  132.0276  148.0339 O   0  0  0  0  0  0  0  0  0  0  0  0
  145.4522  133.0368  152.2967 C   0  0  2  0  0  0  0  0  0  0  0  0
  145.7880  131.5704  151.9545 C   0  0  0  0  0  0  0  0  0  0  0  0
  147.9451  132.6814  153.7654 N   0  0  0  0  0  0  0  0  0  0  0  0
  149.2244  132.9586  154.0365 C   0  0  0  0  0  0  0  0  0  0  0  0
  149.7462  134.0737  154.5530 N   0  0  0  0  0  0  0  0  0  0  0  0
  148.7801  135.0018  154.8100 C   0  0  0  0  0  0  0  0  0  0  0  0
  143.3302  132.6063  152.3466 H   0  0  0  0  0  0  0  0  0  0  0  0
  146.0929  133.6956  151.7086 H   0  0  0  0  0  0  0  0  0  0  0  0
  153.8087  138.0225  154.5624 H   0  0  0  0  0  0  0  0  0  0  0  0
  153.7609  139.7483  154.8877 H   0  0  0  0  0  0  0  0  0  0  0  0
  153.0455  139.1178  153.4080 H   0  0  0  0  0  0  0  0  0  0  0  0
  152.0491  138.5725  156.2589 H   0  0  0  0  0  0  0  0  0  0  0  0
  149.1377  139.6784  155.3229 H   0  0  0  0  0  0  0  0  0  0  0  0
  149.5532  140.6271  153.8921 H   0  0  0  0  0  0  0  0  0  0  0  0
  149.0398  138.0288  153.4935 H   0  0  0  0  0  0  0  0  0  0  0  0
  150.4952  138.7053  152.7810 H   0  0  0  0  0  0  0  0  0  0  0  0
  151.1492  136.6419  153.0045 H   0  0  0  0  0  0  0  0  0  0  0  0
  150.8100  136.1622  156.2081 H   0  0  0  0  0  0  0  0  0  0  0  0
  149.9178  137.6079  156.5806 H   0  0  0  0  0  0  0  0  0  0  0  0
  147.4505  137.7895  155.7597 H   0  0  0  0  0  0  0  0  0  0  0  0
  144.1145  133.5789  154.9955 H   0  0  0  0  0  0  0  0  0  0  0  0
  145.1073  135.0158  154.7940 H   0  0  0  0  0  0  0  0  0  0  0  0
  142.7804  134.7354  153.4146 H   0  0  0  0  0  0  0  0  0  0  0  0
  144.1879  135.5095  152.6914 H   0  0  0  0  0  0  0  0  0  0  0  0
  145.3996  135.0325  150.2923 H   0  0  0  0  0  0  0  0  0  0  0  0
  144.0438  136.0092  150.8963 H   0  0  0  0  0  0  0  0  0  0  0  0
  144.0398  135.4336  149.2504 H   0  0  0  0  0  0  0  0  0  0  0  0
  144.7806  132.7241  149.3974 H   0  0  0  0  0  0  0  0  0  0  0  0
  143.4170  131.8877  150.0653 H   0  0  0  0  0  0  0  0  0  0  0  0
  142.2091  134.0014  148.5935 H   0  0  0  0  0  0  0  0  0  0  0  0
  143.5435  133.4556  147.5991 H   0  0  0  0  0  0  0  0  0  0  0  0
  141.3660  131.9850  148.5469 H   0  0  0  0  0  0  0  0  0  0  0  0
  145.6430  131.3310  150.9042 H   0  0  0  0  0  0  0  0  0  0  0  0
  145.1732  130.8817  152.5348 H   0  0  0  0  0  0  0  0  0  0  0  0
  146.8305  131.3472  152.1827 H   0  0  0  0  0  0  0  0  0  0  0  0
  149.9314  132.1751  153.8064 H   0  0  0  0  0  0  0  0  0  0  0  0
  142.6425  134.1616  150.7478 H   0  0  0  0  0  0  0  0  0  0  0  0
  1  2  1  0  0  0  0
  1 31  1  0  0  0  0
  1 32  1  0  0  0  0
  1 33  1  0  0  0  0
  2  6  1  0  0  0  0
  2  3  1  0  0  0  0
  2 34  1  0  0  0  0
  3  4  1  0  0  0  0
  4  5  1  0  0  0  0
  4 35  1  0  0  0  0
  4 36  1  0  0  0  0
  5  6  1  0  0  0  0
  5 37  1  0  0  0  0
  5 38  1  0  0  0  0
  6  7  1  0  0  0  0
  6  8  1  0  0  0  0
  7 39  1  0  0  0  0
  8  9  1  0  0  0  0
  8 40  1  0  0  0  0
  8 41  1  0  0  0  0
  9 28  1  0  0  0  0
  9 10  1  0  0  0  0
 10 11  2  0  0  0  0
 10 42  1  0  0  0  0
 11 12  1  0  0  0  0
 12 28  2  0  0  0  0
 12 13  1  0  0  0  0
 13 14  1  0  0  0  0
 13 25  2  0  0  0  0
 14 23  1  0  0  0  0
 14 15  1  0  0  0  0
 15 16  1  0  0  0  0
 15 43  1  0  0  0  0
 15 44  1  0  0  0  0
 16 17  1  0  0  0  0
 16 45  1  0  0  0  0
 16 46  1  0  0  0  0
 17 29  1  0  0  0  0
 17 18  1  0  0  0  0
 17 23  1  0  0  0  0
 18 19  1  0  0  0  0
 18 20  1  0  0  0  0
 18 59  1  0  0  0  0
 19 47  1  0  0  0  0
 19 48  1  0  0  0  0
 19 49  1  0  0  0  0
 20 21  1  0  0  0  0
 20 50  1  0  0  0  0
 20 51  1  0  0  0  0
 21 22  1  0  0  0  0
 21 52  1  0  0  0  0
 21 53  1  0  0  0  0
 22 54  1  0  0  0  0
 23 30  1  0  0  0  0
 23 24  1  0  0  0  0
 24 55  1  0  0  0  0
 24 56  1  0  0  0  0
 24 57  1  0  0  0  0
 25 26  1  0  0  0  0
 26 27  2  0  0  0  0
 26 58  1  0  0  0  0
 27 28  1  0  0  0  0
M  CHG  1  18   1
M  END
> <s_m_source_file>
AV-unprocessed.smi

> <i_m_source_file_index>
290

> <i_lp_mmshare_version>
43012

> <i_f3d_flags>
0

> <s_epik_input>
W0NIMl0xW0NIMl1PW0NAQEhdKFtDSDNdKVtDQEBdMShbT0hdKVtDSDJdbihbY0hdbjIpYyhjMjMpbltjSF1uYzNONFtDSDJdW0NIMl1bQ0BIXShbQ0BIXTRbQ0gzXSlOKFtDSDNdKVtDSDJdW0NIMl1bT0hd

> <s_epik_cmdline>
J2VwaWtfcHl0aG9uJywgJy1waCcsICc3LjAnLCAnLXRuJywgJzgnLCAnLW1hJywgJzIwMCcsICctbWV0YWxfYmluZGluZycsICctaW1hZScsICc8aW5maWxlLm1hZT4nLCAnLW9tYWUnLCAnPG91dGZpbGUubWFlPic=

> <r_lp_tautomer_probability>
1

> <r_epik_Ionization_Penalty>
0.0036983

> <r_epik_Ionization_Penalty_Charging>
0.0032725

> <r_epik_Ionization_Penalty_Neutral>
0.000425798

> <r_epik_State_Penalty>
-0

> <r_epik_Charging_Adjusted_Penalty>
0.0032725

> <i_epik_Tot_Q>
1

> <i_epik_Tot_abs_Q>
1

> <r_epik_Metal_State_Penalty>
-0

> <b_epik_Metal_Only>
0

> <s_lp_Force_Field>
OPLS_2005

> <r_lp_Energy>
64.3392

> <b_lp_Chiralities_Consistent>
1

> <s_lp_Variant>
AV-unprocessed.smi:290-18

> <Gold.Version>
5.8.1

> <Gold.Id.Protein>
6NUR|6NUR_protein|mol2

> <Gold.PLP.Fitness>
54.4682

> <Gold.PLP.PLP>
-40.0242

> <Gold.PLP.part.hbond>
-7.1936

> <Gold.PLP.part.metal>
0.0000

> <Gold.PLP.part.buried>
1.3112

> <Gold.PLP.part.nonpolar>
-36.3156

> <Gold.PLP.part.repulsive>
0.4128

> <Gold.PLP.ligand.clash>
0.0000

> <Gold.PLP.ligand.torsion>
1.2710

> <Gold.PLP.Chemscore.Hbond>
5.5650

> <Gold.PLP.Chemscore.CHOScore>
0.0000

> <Gold.PLP.Chemscore.Metal>
0.0000

> <Gold.Chemscore.Hbonds>
donor molecule, donor type, donor heavy atom, donor atom, acceptor molecule, acceptor atom, score
      L1  H     7    39       P1  7949  0.93
      L1  H    18    59       P1 10186  1.68
      L1  H    22    54       P1 10952  0.48
      P1  H  7989  7998       L1     3  0.45
      P1  H 10752 10765       L1     7  1.00
      P1  H 10785 10796       L1    22  0.34

> <Gold.PLP.Chemscore.Internal.Correction>
0.2912

> <Gold.Rescore>
     Score         DG    S(hbond)    S(metal)    S(lipo)     H(rot)  DE(clash)    DE(int)     intcor
     12.72     -18.65       3.11        0.00     104.12       3.67       2.51       3.43       ----

> <Gold.Chemscore.Fitness>
12.7151

> <Gold.Chemscore.DG>
-18.6539

> <Gold.Chemscore.ZeroCoef>
-5.4800

> <Gold.Chemscore.Hbond>
3.1068

> <Gold.Chemscore.Metal>
0.0000

> <Gold.Chemscore.Lipo>
104.1152

> <Gold.Chemscore.Internal_Hbond>
0.0000

> <Gold.Chemscore.DEClash>
2.5083

> <Gold.Chemscore.DEInternal>
3.4305

> <Gold.Chemscore.Rot>
3.6658

> <Gold.Chemscore.Internal.Correction>
   9.000000E+99

> <Gold.Chemscore.Hbonds>
donor molecule, donor type, donor heavy atom, donor atom, acceptor molecule, acceptor atom, score
      L1  H     7    39       P1  7949  0.40
      L1  H    18    59       P1 10186  0.42
      L1  H    22    54       P1 10952  0.47
      P1  H  7989  7998       L1     3  0.01
      P1  H 10752 10765       L1     7  0.98
      P1  H 10785 10796       L1    22  0.07

> <Gold.Chemscore.Hbond.Weighted>
-10.3768

> <Gold.Chemscore.Metal.Weighted>
-0.0000

> <Gold.Chemscore.Lipo.Weighted>
-12.1815

> <Gold.Chemscore.Internal_Hbond.Weighted>
0.0000

> <Gold.Chemscore.DEClash.Weighted>
2.5083

> <Gold.Chemscore.DEInternal.Weighted>
3.4305

> <Gold.Chemscore.Rot.Weighted>
9.3844

> <Gold.Chemscore.Internal.Correction.Weighted>
   9.000000E+99

> <Gold.Protein.RotatedTorsions>
[ 6907 6896 6895 6894 ] final  -20.08 input  -60.11 | X-H torsion
[ 7974 7965 7964 7962 ] final  136.80 input  175.53 | X-H torsion
[ 8008 7997 7996 7995 ] final   21.09 input   59.86 | X-H torsion
[ 10167 10162 10161 10158 ] final  -51.56 input  -65.29 | X-H torsion
[ 10718 10713 10712 10709 ] final  -76.80 input   66.30 | X-H torsion
[ 10763 10752 10751 10750 ] final  155.62 input  -60.55 | X-H torsion
[ 11005 11000 10999 10996 ] final -140.51 input  -57.11 | X-H torsion

> <Gold.Protein.ActiveResidues>
 VAL166  LYS551  ARG553  GLY616  TRP617  ASP618  TYR619  PRO620  LYS621  CYS622 
 ASP623  PHE694  ASN695  SER759  ASP760  ASP761  ALA762  ILE779  LEU786  VAL792 
 PHE793  MET794  SER795  GLU796  ALA797  LYS798  CYS799  TRP800  GLU811  SER814 

> <Gold.Protein.RotatedAtoms>
  151.2536  135.0630  159.9070 H   0  0  0  0  0  0  0  0  0  0  0  0  # atno 6907 bound_to 6896
  152.5376  134.0306  159.8033 H   0  0  0  0  0  0  0  0  0  0  0  0  # atno 6908 bound_to 6896
  151.0518  133.5568  159.2673 H   0  0  0  0  0  0  0  0  0  0  0  0  # atno 6909 bound_to 6896
  144.9529  139.4797  143.5517 H   0  0  0  0  0  0  0  0  0  0  0  0  # atno 7974 bound_to 7965
  154.9453  140.3058  155.5101 H   0  0  0  0  0  0  0  0  0  0  0  0  # atno 8008 bound_to 7997
  156.2992  140.2329  156.4464 H   0  0  0  0  0  0  0  0  0  0  0  0  # atno 8009 bound_to 7997
  154.8106  140.0429  157.1328 H   0  0  0  0  0  0  0  0  0  0  0  0  # atno 8010 bound_to 7997
  140.6582  143.2615  151.4522 H   0  0  0  0  0  0  0  0  0  0  0  0  # atno 10167 bound_to 10162
  156.0164  130.4475  150.3248 H   0  0  0  0  0  0  0  0  0  0  0  0  # atno 10718 bound_to 10713
  154.1713  135.2804  155.3080 H   0  0  0  0  0  0  0  0  0  0  0  0  # atno 10763 bound_to 10752
  154.6073  135.5510  153.7440 H   0  0  0  0  0  0  0  0  0  0  0  0  # atno 10764 bound_to 10752
  153.0164  135.6406  154.1853 H   0  0  0  0  0  0  0  0  0  0  0  0  # atno 10765 bound_to 10752
  140.8416  134.2395  157.4807 H   0  0  0  0  0  0  0  0  0  0  0  0  # atno 11005 bound_to 11000
  146.3327  139.8627  142.8853 LP  0  0  0  0  0  0  0  0  0  0  0  0  # atno 17320 bound_to 7965
  145.2816  141.0140  143.3714 LP  0  0  0  0  0  0  0  0  0  0  0  0  # atno 17321 bound_to 7965
  139.5809  144.1711  152.1967 LP  0  0  0  0  0  0  0  0  0  0  0  0  # atno 17342 bound_to 10162
  140.1036  144.5518  150.6972 LP  0  0  0  0  0  0  0  0  0  0  0  0  # atno 17343 bound_to 10162
  157.1347  131.0281  151.2954 LP  0  0  0  0  0  0  0  0  0  0  0  0  # atno 17370 bound_to 10713
  157.4521  130.7604  149.7160 LP  0  0  0  0  0  0  0  0  0  0  0  0  # atno 17371 bound_to 10713
  139.8703  134.9638  156.4474 LP  0  0  0  0  0  0  0  0  0  0  0  0  # atno 17394 bound_to 11000
  140.8889  133.7863  155.9550 LP  0  0  0  0  0  0  0  0  0  0  0  0  # atno 17395 bound_to 11000

$$$$
