AV-unprocessed.smi:623|AV-procd|sdf|3093|dock9
  -GOLD-   22720 0 13D 1   1.00000     0.00000
 Structure written by MMmdl.
 45 47  0  0  0  0  0  0  0  0  1 V2000
  145.1916  134.3302  159.4137 C   0  0  0  0  0  0  0  0  0  0  0  0
  145.9060  134.6279  160.7628 C   0  0  0  0  0  0  0  0  0  0  0  0
  144.8068  135.2394  161.6772 C   0  0  0  0  0  0  0  0  0  0  0  0
  146.6379  133.4160  161.3739 C   0  0  2  0  0  0  0  0  0  0  0  0
  147.3354  134.0054  162.6211 C   0  0  0  0  0  0  0  0  0  0  0  0
  147.7288  135.4201  162.1476 C   0  0  0  0  0  0  0  0  0  0  0  0
  147.2290  135.4412  160.6796 C   0  0  2  0  0  0  0  0  0  0  0  0
  147.1063  136.8718  160.1185 C   0  0  0  0  0  0  0  0  0  0  0  0
  148.2150  134.5082  159.9100 C   0  0  2  0  0  0  0  0  0  0  0  0
  148.1596  134.6879  158.4621 N   0  0  0  0  0  0  0  0  0  0  0  0
  149.1165  134.3964  157.5665 C   0  0  0  0  0  0  0  0  0  0  0  0
  150.1899  133.8789  157.8716 O   0  0  0  0  0  0  0  0  0  0  0  0
  148.8455  134.7598  156.0961 C   0  0  0  0  0  0  0  0  0  0  0  0
  149.4978  136.0046  155.6542 N   0  0  0  0  0  0  0  0  0  0  0  0
  148.7283  137.0669  155.2004 C   0  0  0  0  0  0  0  0  0  0  0  0
  149.2549  138.2231  154.7329 C   0  0  0  0  0  0  0  0  0  0  0  0
  150.7009  138.4090  154.6836 C   0  0  0  0  0  0  0  0  0  0  0  0
  151.2727  139.4169  154.2749 O   0  0  0  0  0  0  0  0  0  0  0  0
  151.4407  137.3189  155.1492 N   0  0  0  0  0  0  0  0  0  0  0  0
  150.9046  136.1241  155.6315 C   0  0  0  0  0  0  0  0  0  0  0  0
  151.6494  135.2185  156.0036 O   0  0  0  0  0  0  0  0  0  0  0  0
  147.7512  133.1014  160.3482 C   0  0  0  0  0  0  0  0  0  0  0  0
  152.4470  137.4008  155.1325 H   0  0  0  0  0  0  0  0  0  0  0  0
  144.3096  133.7100  159.5762 H   0  0  0  0  0  0  0  0  0  0  0  0
  145.7886  133.8032  158.6752 H   0  0  0  0  0  0  0  0  0  0  0  0
  144.8497  135.2518  158.9421 H   0  0  0  0  0  0  0  0  0  0  0  0
  145.1351  135.5165  162.6763 H   0  0  0  0  0  0  0  0  0  0  0  0
  143.9836  134.5366  161.8102 H   0  0  0  0  0  0  0  0  0  0  0  0
  144.3881  136.1402  161.2279 H   0  0  0  0  0  0  0  0  0  0  0  0
  146.0027  132.5587  161.5980 H   0  0  0  0  0  0  0  0  0  0  0  0
  146.6617  134.0468  163.4772 H   0  0  0  0  0  0  0  0  0  0  0  0
  148.2028  133.4185  162.9256 H   0  0  0  0  0  0  0  0  0  0  0  0
  147.2443  136.1853  162.7544 H   0  0  0  0  0  0  0  0  0  0  0  0
  148.8019  135.5967  162.2312 H   0  0  0  0  0  0  0  0  0  0  0  0
  148.0820  137.3557  160.0736 H   0  0  0  0  0  0  0  0  0  0  0  0
  146.4614  137.4887  160.7444 H   0  0  0  0  0  0  0  0  0  0  0  0
  146.6870  136.8794  159.1123 H   0  0  0  0  0  0  0  0  0  0  0  0
  149.2391  134.6736  160.2486 H   0  0  0  0  0  0  0  0  0  0  0  0
  147.3141  135.1076  158.1038 H   0  0  0  0  0  0  0  0  0  0  0  0
  149.1852  133.9304  155.4740 H   0  0  0  0  0  0  0  0  0  0  0  0
  147.7663  134.8072  155.9405 H   0  0  0  0  0  0  0  0  0  0  0  0
  147.6520  136.9683  155.2105 H   0  0  0  0  0  0  0  0  0  0  0  0
  148.6030  139.0136  154.3900 H   0  0  0  0  0  0  0  0  0  0  0  0
  148.5658  132.5247  160.7881 H   0  0  0  0  0  0  0  0  0  0  0  0
  147.3693  132.5121  159.5142 H   0  0  0  0  0  0  0  0  0  0  0  0
  1  2  1  0  0  0  0
  1 24  1  0  0  0  0
  1 25  1  0  0  0  0
  1 26  1  0  0  0  0
  2  7  1  0  0  0  0
  2  3  1  0  0  0  0
  2  4  1  0  0  0  0
  3 27  1  0  0  0  0
  3 28  1  0  0  0  0
  3 29  1  0  0  0  0
  4 22  1  0  0  0  0
  4  5  1  0  0  0  0
  4 30  1  0  0  0  0
  5  6  1  0  0  0  0
  5 31  1  0  0  0  0
  5 32  1  0  0  0  0
  6  7  1  0  0  0  0
  6 33  1  0  0  0  0
  6 34  1  0  0  0  0
  7  8  1  0  0  0  0
  7  9  1  0  0  0  0
  8 35  1  0  0  0  0
  8 36  1  0  0  0  0
  8 37  1  0  0  0  0
  9 10  1  0  0  0  0
  9 22  1  0  0  0  0
  9 38  1  0  0  0  0
 10 11  1  0  0  0  0
 10 39  1  0  0  0  0
 11 12  2  0  0  0  0
 11 13  1  0  0  0  0
 13 14  1  0  0  0  0
 13 40  1  0  0  0  0
 13 41  1  0  0  0  0
 14 20  1  0  0  0  0
 14 15  1  0  0  0  0
 15 16  2  0  0  0  0
 15 42  1  0  0  0  0
 16 17  1  0  0  0  0
 16 43  1  0  0  0  0
 17 18  2  0  0  0  0
 17 19  1  0  0  0  0
 19 23  1  0  0  0  0
 19 20  1  0  0  0  0
 20 21  2  0  0  0  0
 22 44  1  0  0  0  0
 22 45  1  0  0  0  0
M  END
> <s_m_source_file>
AV-unprocessed.smi

> <i_m_source_file_index>
623

> <i_lp_mmshare_version>
43012

> <i_f3d_flags>
0

> <s_epik_input>
W0NIM11bQ0BdMTJDKFtDSDNdKShbQ0gzXSlbQ0BIXShbQ0gyXVtDSDJdMSlbQ0gyXVtDQEBIXTJbTkhdQyg9TylbQ0gyXW4zW2NIXVtjSF1jKD1PKVtuSF1jMz1P

> <s_epik_cmdline>
J2VwaWtfcHl0aG9uJywgJy1waCcsICc3LjAnLCAnLXRuJywgJzgnLCAnLW1hJywgJzIwMCcsICctbWV0YWxfYmluZGluZycsICctaW1hZScsICc8aW5maWxlLm1hZT4nLCAnLW9tYWUnLCAnPG91dGZpbGUubWFlPic=

> <r_lp_tautomer_probability>
0.999537

> <r_epik_Ionization_Penalty>
0.00303563

> <r_epik_Ionization_Penalty_Charging>
0.00303561

> <r_epik_Ionization_Penalty_Neutral>
2.03238e-08

> <r_epik_State_Penalty>
0.00213308

> <r_epik_Charging_Adjusted_Penalty>
0.00516869

> <i_epik_Tot_Q>
0

> <i_epik_Tot_abs_Q>
0

> <r_epik_Metal_State_Penalty>
0.361714

> <b_epik_Metal_Only>
0

> <s_lp_Force_Field>
OPLS_2005

> <r_lp_Energy>
55.1954

> <b_lp_Chiralities_Consistent>
1

> <s_lp_Variant>
AV-unprocessed.smi:623-3

> <Gold.Version>
5.8.1

> <Gold.Id.Protein>
6NUR|6NUR_protein|mol2

> <Gold.PLP.Fitness>
33.7041

> <Gold.PLP.PLP>
-25.9384

> <Gold.PLP.part.hbond>
-3.0000

> <Gold.PLP.part.metal>
0.0000

> <Gold.PLP.part.buried>
-3.7966

> <Gold.PLP.part.nonpolar>
-20.0201

> <Gold.PLP.part.repulsive>
0.3107

> <Gold.PLP.ligand.clash>
0.0000

> <Gold.PLP.ligand.torsion>
0.6249

> <Gold.PLP.Chemscore.Hbond>
3.0000

> <Gold.PLP.Chemscore.CHOScore>
0.0000

> <Gold.PLP.Chemscore.Metal>
0.0000

> <Gold.Chemscore.Hbonds>
donor molecule, donor type, donor heavy atom, donor atom, acceptor molecule, acceptor atom, score
      P1  H  6896  6909       L1    12  0.95
      P1  H  7989  7998       L1    18  1.00
      P1  H 10752 10763       L1    21  1.00

> <Gold.PLP.Chemscore.Internal.Correction>
0.0155

> <Gold.Rescore>
     Score         DG    S(hbond)    S(metal)    S(lipo)     H(rot)  DE(clash)    DE(int)     intcor
     16.00     -17.99       2.83        0.00      62.52       1.66       0.01       1.97       ----

> <Gold.Chemscore.Fitness>
16.0032

> <Gold.Chemscore.DG>
-17.9884

> <Gold.Chemscore.ZeroCoef>
-5.4800

> <Gold.Chemscore.Hbond>
2.8309

> <Gold.Chemscore.Metal>
0.0000

> <Gold.Chemscore.Lipo>
62.5197

> <Gold.Chemscore.Internal_Hbond>
0.0000

> <Gold.Chemscore.DEClash>
0.0145

> <Gold.Chemscore.DEInternal>
1.9707

> <Gold.Chemscore.Rot>
1.6647

> <Gold.Chemscore.Internal.Correction>
   9.000000E+99

> <Gold.Chemscore.Hbonds>
donor molecule, donor type, donor heavy atom, donor atom, acceptor molecule, acceptor atom, score
      P1  H  6896  6909       L1    12  0.83
      P1  H  7989  7998       L1    18  1.00
      P1  H 10752 10763       L1    21  0.34

> <Gold.Chemscore.Hbond.Weighted>
-9.4553

> <Gold.Chemscore.Metal.Weighted>
-0.0000

> <Gold.Chemscore.Lipo.Weighted>
-7.3148

> <Gold.Chemscore.Internal_Hbond.Weighted>
0.0000

> <Gold.Chemscore.DEClash.Weighted>
0.0145

> <Gold.Chemscore.DEInternal.Weighted>
1.9707

> <Gold.Chemscore.Rot.Weighted>
4.2617

> <Gold.Chemscore.Internal.Correction.Weighted>
   9.000000E+99

> <Gold.Protein.RotatedTorsions>
[ 6907 6896 6895 6894 ] final    7.68 input  -60.11 | X-H torsion
[ 7974 7965 7964 7962 ] final -105.50 input  175.53 | X-H torsion
[ 8008 7997 7996 7995 ] final  -80.53 input   59.86 | X-H torsion
[ 10167 10162 10161 10158 ] final  137.58 input  -65.29 | X-H torsion
[ 10718 10713 10712 10709 ] final -114.43 input   66.30 | X-H torsion
[ 10763 10752 10751 10750 ] final   81.89 input  -60.55 | X-H torsion
[ 11005 11000 10999 10996 ] final   67.90 input  -57.11 | X-H torsion

> <Gold.Protein.ActiveResidues>
 VAL166  LYS551  ARG553  GLY616  TRP617  ASP618  TYR619  PRO620  LYS621  CYS622 
 ASP623  PHE694  ASN695  SER759  ASP760  ASP761  ALA762  ILE779  LEU786  VAL792 
 PHE793  MET794  SER795  GLU796  ALA797  LYS798  CYS799  TRP800  GLU811  SER814 

> <Gold.Protein.RotatedAtoms>
  151.6938  135.0942  160.0238 H   0  0  0  0  0  0  0  0  0  0  0  0  # atno 6907 bound_to 6896
  152.3762  133.6480  159.6134 H   0  0  0  0  0  0  0  0  0  0  0  0  # atno 6908 bound_to 6896
  150.7711  133.9106  159.3409 H   0  0  0  0  0  0  0  0  0  0  0  0  # atno 6909 bound_to 6896
  145.2297  140.9166  143.3212 H   0  0  0  0  0  0  0  0  0  0  0  0  # atno 7974 bound_to 7965
  154.5892  140.0661  156.9215 H   0  0  0  0  0  0  0  0  0  0  0  0  # atno 8008 bound_to 7997
  155.2325  140.3338  155.4283 H   0  0  0  0  0  0  0  0  0  0  0  0  # atno 8009 bound_to 7997
  156.2244  140.1813  156.7383 H   0  0  0  0  0  0  0  0  0  0  0  0  # atno 8010 bound_to 7997
  139.5139  144.6402  151.5590 H   0  0  0  0  0  0  0  0  0  0  0  0  # atno 10167 bound_to 10162
  156.0829  130.6026  150.8774 H   0  0  0  0  0  0  0  0  0  0  0  0  # atno 10718 bound_to 10713
  153.1156  135.4748  154.9109 H   0  0  0  0  0  0  0  0  0  0  0  0  # atno 10763 bound_to 10752
  154.7524  135.3109  154.8534 H   0  0  0  0  0  0  0  0  0  0  0  0  # atno 10764 bound_to 10752
  153.9112  135.6865  153.4804 H   0  0  0  0  0  0  0  0  0  0  0  0  # atno 10765 bound_to 10752
  139.9743  134.6848  156.0384 H   0  0  0  0  0  0  0  0  0  0  0  0  # atno 11005 bound_to 11000
  144.9688  139.3902  143.6319 LP  0  0  0  0  0  0  0  0  0  0  0  0  # atno 17320 bound_to 7965
  146.3356  139.8776  142.8829 LP  0  0  0  0  0  0  0  0  0  0  0  0  # atno 17321 bound_to 7965
  140.6165  143.9338  150.6493 LP  0  0  0  0  0  0  0  0  0  0  0  0  # atno 17342 bound_to 10162
  140.2598  143.3532  152.1333 LP  0  0  0  0  0  0  0  0  0  0  0  0  # atno 17343 bound_to 10162
  157.5953  131.0943  150.9051 LP  0  0  0  0  0  0  0  0  0  0  0  0  # atno 17370 bound_to 10713
  156.9218  130.5318  149.5279 LP  0  0  0  0  0  0  0  0  0  0  0  0  # atno 17371 bound_to 10713
  141.1421  133.6562  156.3761 LP  0  0  0  0  0  0  0  0  0  0  0  0  # atno 17394 bound_to 11000
  140.5227  134.6289  157.5323 LP  0  0  0  0  0  0  0  0  0  0  0  0  # atno 17395 bound_to 11000

$$$$
