AV-unprocessed.smi:285|AV-procd|sdf|2167|dock9
  -GOLD-   2262021523D 1   1.00000     0.00000
 Structure written by MMmdl.
 31 33  0  0  0  0  0  0  0  0  1 V2000
  153.6488  136.9092  161.7800 N   0  0  0  0  0  0  0  0  0  0  0  0
  153.6075  137.9060  160.8853 C   0  0  0  0  0  0  0  0  0  0  0  0
  154.4581  138.9470  161.0427 N   0  0  0  0  0  0  0  0  0  0  0  0
  154.4393  139.9524  160.1616 C   0  0  0  0  0  0  0  0  0  0  0  0
  153.6672  140.1030  159.0822 N   0  0  0  0  0  0  0  0  0  0  0  0
  152.8069  139.0539  158.9254 C   0  0  0  0  0  0  0  0  0  0  0  0
  152.7162  137.9186  159.7829 C   0  0  0  0  0  0  0  0  0  0  0  0
  151.7372  137.0463  159.3237 N   0  0  0  0  0  0  0  0  0  0  0  0
  151.2923  137.6502  158.2573 C   0  0  0  0  0  0  0  0  0  0  0  0
  149.9156  136.8582  157.2058 Br  0  0  0  0  0  0  0  0  0  0  0  0
  151.8667  138.8583  157.9325 N   0  0  0  0  0  0  0  0  0  0  0  0
  151.5674  139.7638  156.7810 C   0  0  2  0  0  0  0  0  0  0  0  0
  151.1030  141.1317  157.2724 C   0  0  0  0  0  0  0  0  0  0  0  0
  150.1703  141.5307  156.1507 C   0  0  2  0  0  0  0  0  0  0  0  0
  149.2461  142.5036  156.5925 O   0  0  0  0  0  0  0  0  0  0  0  0
  149.5039  140.1895  155.8187 C   0  0  1  0  0  0  0  0  0  0  0  0
  148.9777  140.0707  154.3802 C   0  0  0  0  0  0  0  0  0  0  0  0
  149.7805  140.8231  153.4953 O   0  0  0  0  0  0  0  0  0  0  0  0
  150.5249  139.2146  156.0323 O   0  0  0  0  0  0  0  0  0  0  0  0
  153.0248  136.1210  161.6831 H   0  0  0  0  0  0  0  0  0  0  0  0
  154.3060  136.9457  162.5456 H   0  0  0  0  0  0  0  0  0  0  0  0
  155.1439  140.7499  160.3468 H   0  0  0  0  0  0  0  0  0  0  0  0
  152.4736  139.8030  156.1773 H   0  0  0  0  0  0  0  0  0  0  0  0
  150.5598  141.0251  158.2133 H   0  0  0  0  0  0  0  0  0  0  0  0
  151.9445  141.8098  157.4167 H   0  0  0  0  0  0  0  0  0  0  0  0
  150.7409  141.9055  155.2996 H   0  0  0  0  0  0  0  0  0  0  0  0
  149.2655  143.2301  155.9877 H   0  0  0  0  0  0  0  0  0  0  0  0
  148.7065  139.9783  156.5338 H   0  0  0  0  0  0  0  0  0  0  0  0
  148.9505  139.0296  154.0574 H   0  0  0  0  0  0  0  0  0  0  0  0
  147.9582  140.4529  154.3234 H   0  0  0  0  0  0  0  0  0  0  0  0
  149.5741  140.5654  152.6097 H   0  0  0  0  0  0  0  0  0  0  0  0
  1  2  1  0  0  0  0
  1 20  1  0  0  0  0
  1 21  1  0  0  0  0
  2  7  1  0  0  0  0
  2  3  2  0  0  0  0
  3  4  1  0  0  0  0
  4  5  2  0  0  0  0
  4 22  1  0  0  0  0
  5  6  1  0  0  0  0
  6 11  1  0  0  0  0
  6  7  2  0  0  0  0
  7  8  1  0  0  0  0
  8  9  2  0  0  0  0
  9 10  1  0  0  0  0
  9 11  1  0  0  0  0
 11 12  1  0  0  0  0
 12 19  1  0  0  0  0
 12 13  1  0  0  0  0
 12 23  1  0  0  0  0
 13 14  1  0  0  0  0
 13 24  1  0  0  0  0
 13 25  1  0  0  0  0
 14 15  1  0  0  0  0
 14 16  1  0  0  0  0
 14 26  1  0  0  0  0
 15 27  1  0  0  0  0
 16 17  1  0  0  0  0
 16 19  1  0  0  0  0
 16 28  1  0  0  0  0
 17 18  1  0  0  0  0
 17 29  1  0  0  0  0
 17 30  1  0  0  0  0
 18 31  1  0  0  0  0
M  END
> <s_m_source_file>
AV-unprocessed.smi

> <i_m_source_file_index>
285

> <i_lp_mmshare_version>
43012

> <i_f3d_flags>
0

> <s_epik_input>
bjFbY0hdbmMoW05IMl0pYyhjMTIpbmMoQnIpbjJbQ0BASF0zW0NIMl1bQ0BASF0oW09IXSlbQ0BIXShPMylbQ0gyXVtPSF0=

> <s_epik_cmdline>
J2VwaWtfcHl0aG9uJywgJy1waCcsICc3LjAnLCAnLXRuJywgJzgnLCAnLW1hJywgJzIwMCcsICctbWV0YWxfYmluZGluZycsICctaW1hZScsICc8aW5maWxlLm1hZT4nLCAnLW9tYWUnLCAnPG91dGZpbGUubWFlPic=

> <r_lp_tautomer_probability>
1

> <r_epik_Ionization_Penalty>
0.000103242

> <r_epik_Ionization_Penalty_Charging>
0

> <r_epik_Ionization_Penalty_Neutral>
0.000103242

> <r_epik_State_Penalty>
-0

> <r_epik_Charging_Adjusted_Penalty>
0

> <i_epik_Tot_Q>
0

> <i_epik_Tot_abs_Q>
0

> <r_epik_Metal_State_Penalty>
-0

> <b_epik_Metal_Only>
0

> <s_epik_Chemistry_Notes>
This compound contains an acetal/aminal-like group ( X-CH(R)-Y where X, Y are N, S, or O) that may be acid/base labile, releasing an aldehyde.

> <s_lp_Force_Field>
OPLS_2005

> <r_lp_Energy>
29.9109

> <b_lp_Chiralities_Consistent>
1

> <s_lp_Variant>
AV-unprocessed.smi:285-3

> <Gold.Version>
5.8.1

> <Gold.Id.Protein>
6NUR|6NUR_protein|mol2

> <Gold.PLP.Fitness>
38.5037

> <Gold.PLP.PLP>
-26.1798

> <Gold.PLP.part.hbond>
-5.3939

> <Gold.PLP.part.metal>
0.0000

> <Gold.PLP.part.buried>
-3.6655

> <Gold.PLP.part.nonpolar>
-16.3674

> <Gold.PLP.part.repulsive>
0.0506

> <Gold.PLP.ligand.clash>
0.0000

> <Gold.PLP.ligand.torsion>
0.3213

> <Gold.PLP.Chemscore.Hbond>
4.3200

> <Gold.PLP.Chemscore.CHOScore>
0.0000

> <Gold.PLP.Chemscore.Metal>
0.0000

> <Gold.Chemscore.Hbonds>
donor molecule, donor type, donor heavy atom, donor atom, acceptor molecule, acceptor atom, score
      L1  H    15    27       P1  8028  0.98
      L1  H    18    31       P1  7957  1.00
      P1  H  6896  6909       L1     8  1.00
      P1  H  7989  7998       L1    18  0.34
      P1  H  7997  8010       L1     5  0.51

> <Gold.PLP.Chemscore.Internal.Correction>
0.0066

> <Gold.Rescore>
     Score         DG    S(hbond)    S(metal)    S(lipo)     H(rot)  DE(clash)    DE(int)     intcor
     12.84     -14.56       3.99        0.00      30.78       3.06       0.00       1.71       ----

> <Gold.Chemscore.Fitness>
12.8449

> <Gold.Chemscore.DG>
-14.5555

> <Gold.Chemscore.ZeroCoef>
-5.4800

> <Gold.Chemscore.Hbond>
3.9850

> <Gold.Chemscore.Metal>
0.0000

> <Gold.Chemscore.Lipo>
30.7760

> <Gold.Chemscore.Internal_Hbond>
0.0000

> <Gold.Chemscore.DEClash>
0.0048

> <Gold.Chemscore.DEInternal>
1.7058

> <Gold.Chemscore.Rot>
3.0607

> <Gold.Chemscore.Internal.Correction>
   9.000000E+99

> <Gold.Chemscore.Hbonds>
donor molecule, donor type, donor heavy atom, donor atom, acceptor molecule, acceptor atom, score
      L1  H    15    27       P1  8028  0.91
      L1  H    18    31       P1  7957  0.93
      P1  H  6896  6909       L1     8  0.95
      P1  H  7989  7998       L1    18  0.12
      P1  H  7997  8010       L1     5  0.16

> <Gold.Chemscore.Hbond.Weighted>
-13.3101

> <Gold.Chemscore.Metal.Weighted>
-0.0000

> <Gold.Chemscore.Lipo.Weighted>
-3.6008

> <Gold.Chemscore.Internal_Hbond.Weighted>
0.0000

> <Gold.Chemscore.DEClash.Weighted>
0.0048

> <Gold.Chemscore.DEInternal.Weighted>
1.7058

> <Gold.Chemscore.Rot.Weighted>
7.8354

> <Gold.Chemscore.Internal.Correction.Weighted>
   9.000000E+99

> <Gold.Protein.RotatedTorsions>
[ 6907 6896 6895 6894 ] final  120.68 input  -60.11 | X-H torsion
[ 7974 7965 7964 7962 ] final -135.18 input  175.53 | X-H torsion
[ 8008 7997 7996 7995 ] final    8.05 input   59.86 | X-H torsion
[ 10167 10162 10161 10158 ] final  129.08 input  -65.29 | X-H torsion
[ 10718 10713 10712 10709 ] final  156.67 input   66.30 | X-H torsion
[ 10763 10752 10751 10750 ] final -112.29 input  -60.55 | X-H torsion
[ 11005 11000 10999 10996 ] final  175.32 input  -57.11 | X-H torsion

> <Gold.Protein.ActiveResidues>
 VAL166  LYS551  ARG553  GLY616  TRP617  ASP618  TYR619  PRO620  LYS621  CYS622 
 ASP623  PHE694  ASN695  SER759  ASP760  ASP761  ALA762  ILE779  LEU786  VAL792 
 PHE793  MET794  SER795  GLU796  ALA797  LYS798  CYS799  TRP800  GLU811  SER814 

> <Gold.Protein.RotatedAtoms>
  152.4379  133.7395  159.6632 H   0  0  0  0  0  0  0  0  0  0  0  0  # atno 6907 bound_to 6896
  150.8266  133.8152  159.3122 H   0  0  0  0  0  0  0  0  0  0  0  0  # atno 6908 bound_to 6896
  151.5818  135.1060  160.0070 H   0  0  0  0  0  0  0  0  0  0  0  0  # atno 6909 bound_to 6896
  144.9037  140.6804  143.5069 H   0  0  0  0  0  0  0  0  0  0  0  0  # atno 7974 bound_to 7965
  154.7617  140.2786  155.6208 H   0  0  0  0  0  0  0  0  0  0  0  0  # atno 8008 bound_to 7997
  156.2917  140.2658  156.2325 H   0  0  0  0  0  0  0  0  0  0  0  0  # atno 8009 bound_to 7997
  155.0009  140.0373  157.2349 H   0  0  0  0  0  0  0  0  0  0  0  0  # atno 8010 bound_to 7997
  139.5495  144.6802  151.4367 H   0  0  0  0  0  0  0  0  0  0  0  0  # atno 10167 bound_to 10162
  157.2019  131.0678  151.2020 H   0  0  0  0  0  0  0  0  0  0  0  0  # atno 10718 bound_to 10713
  154.8342  135.4496  154.1171 H   0  0  0  0  0  0  0  0  0  0  0  0  # atno 10763 bound_to 10752
  153.2417  135.6917  153.7781 H   0  0  0  0  0  0  0  0  0  0  0  0  # atno 10764 bound_to 10752
  153.7127  135.3354  155.3225 H   0  0  0  0  0  0  0  0  0  0  0  0  # atno 10765 bound_to 10752
  140.3609  134.7113  157.4330 H   0  0  0  0  0  0  0  0  0  0  0  0  # atno 11005 bound_to 11000
  145.3573  139.1691  143.4402 LP  0  0  0  0  0  0  0  0  0  0  0  0  # atno 17320 bound_to 7965
  146.3122  140.3631  142.8667 LP  0  0  0  0  0  0  0  0  0  0  0  0  # atno 17321 bound_to 7965
  140.6754  143.8202  150.7052 LP  0  0  0  0  0  0  0  0  0  0  0  0  # atno 17342 bound_to 10162
  140.1638  143.4252  152.2048 LP  0  0  0  0  0  0  0  0  0  0  0  0  # atno 17343 bound_to 10162
  157.3759  130.7205  149.6596 LP  0  0  0  0  0  0  0  0  0  0  0  0  # atno 17370 bound_to 10713
  155.9699  130.4186  150.4334 LP  0  0  0  0  0  0  0  0  0  0  0  0  # atno 17371 bound_to 10713
  140.0627  134.5973  155.8730 LP  0  0  0  0  0  0  0  0  0  0  0  0  # atno 17394 bound_to 11000
  141.1984  133.6601  156.5791 LP  0  0  0  0  0  0  0  0  0  0  0  0  # atno 17395 bound_to 11000

$$$$
