AV-unprocessed.smi:1090|AV-procd|sdf|4735|dock7
  -GOLD-   22720 3273D 1   1.00000     0.00000
 Structure written by MMmdl.
 38 40  0  0  0  0  0  0  0  0  1 V2000
  150.2415  141.0736  157.8263 O   0  0  0  0  0  0  0  0  0  0  0  0
  151.3838  140.6583  157.6318 C   0  0  0  0  0  0  0  0  0  0  0  0
  152.5578  141.2370  158.4252 C   0  0  0  0  0  0  0  0  0  0  0  0
  152.1369  142.3037  159.4619 C   0  0  0  0  0  0  0  0  0  0  0  0
  151.6336  143.5891  158.8174 C   0  0  0  0  0  0  0  0  0  0  0  0
  152.5925  144.6197  158.2684 C   0  0  0  0  0  0  0  0  0  0  0  0
  151.7763  144.9297  159.5017 C   0  0  0  0  0  0  0  0  0  0  0  0
  153.2882  142.5991  160.4077 C   0  0  0  0  0  0  0  0  0  0  0  0
  153.8860  141.5149  161.2715 C   0  0  0  0  0  0  0  0  0  0  0  0
  153.0899  142.6350  161.9041 C   0  0  0  0  0  0  0  0  0  0  0  0
  151.6804  139.7057  156.7349 N   0  0  0  0  0  0  0  0  0  0  0  0
  150.7054  139.0081  155.9057 C   0  0  0  0  0  0  0  0  0  0  0  0
  150.6309  139.6135  154.4948 C   0  0  0  0  0  0  0  0  0  0  0  0
  149.3102  140.2494  154.2192 C   0  0  0  0  0  0  0  0  0  0  0  0
  149.1023  141.5685  154.2633 N   0  0  0  0  0  0  0  0  0  0  0  0
  147.7728  141.9081  154.0004 C   0  0  0  0  0  0  0  0  0  0  0  0
  146.9663  140.8230  153.7684 C   0  0  0  0  0  0  0  0  0  0  0  0
  147.8514  139.3260  153.8745 S   0  0  0  0  0  0  0  0  0  0  0  0
  153.0758  140.4177  158.9263 H   0  0  0  0  0  0  0  0  0  0  0  0
  153.2775  141.6622  157.7243 H   0  0  0  0  0  0  0  0  0  0  0  0
  151.3216  141.8922  160.0602 H   0  0  0  0  0  0  0  0  0  0  0  0
  150.7221  143.4507  158.2388 H   0  0  0  0  0  0  0  0  0  0  0  0
  153.6587  144.4522  158.4067 H   0  0  0  0  0  0  0  0  0  0  0  0
  152.3152  145.1185  157.3419 H   0  0  0  0  0  0  0  0  0  0  0  0
  150.9526  145.6331  159.4001 H   0  0  0  0  0  0  0  0  0  0  0  0
  152.3004  144.9606  160.4550 H   0  0  0  0  0  0  0  0  0  0  0  0
  153.9973  143.3235  160.0106 H   0  0  0  0  0  0  0  0  0  0  0  0
  153.4261  140.5290  161.2392 H   0  0  0  0  0  0  0  0  0  0  0  0
  154.9649  141.5221  161.4119 H   0  0  0  0  0  0  0  0  0  0  0  0
  153.6383  143.3893  162.4644 H   0  0  0  0  0  0  0  0  0  0  0  0
  152.1055  142.3870  162.2956 H   0  0  0  0  0  0  0  0  0  0  0  0
  152.6469  139.4312  156.6339 H   0  0  0  0  0  0  0  0  0  0  0  0
  150.9485  137.9454  155.8544 H   0  0  0  0  0  0  0  0  0  0  0  0
  149.7324  139.0810  156.3923 H   0  0  0  0  0  0  0  0  0  0  0  0
  151.4150  140.3601  154.3628 H   0  0  0  0  0  0  0  0  0  0  0  0
  150.8042  138.8443  153.7412 H   0  0  0  0  0  0  0  0  0  0  0  0
  147.4860  142.9495  154.0007 H   0  0  0  0  0  0  0  0  0  0  0  0
  145.9094  140.8129  153.5458 H   0  0  0  0  0  0  0  0  0  0  0  0
  1  2  2  0  0  0  0
  2  3  1  0  0  0  0
  2 11  1  0  0  0  0
  3  4  1  0  0  0  0
  3 19  1  0  0  0  0
  3 20  1  0  0  0  0
  4  5  1  0  0  0  0
  4  8  1  0  0  0  0
  4 21  1  0  0  0  0
  5  7  1  0  0  0  0
  5  6  1  0  0  0  0
  5 22  1  0  0  0  0
  6  7  1  0  0  0  0
  6 23  1  0  0  0  0
  6 24  1  0  0  0  0
  7 25  1  0  0  0  0
  7 26  1  0  0  0  0
  8 10  1  0  0  0  0
  8  9  1  0  0  0  0
  8 27  1  0  0  0  0
  9 10  1  0  0  0  0
  9 28  1  0  0  0  0
  9 29  1  0  0  0  0
 10 30  1  0  0  0  0
 10 31  1  0  0  0  0
 11 12  1  0  0  0  0
 11 32  1  0  0  0  0
 12 13  1  0  0  0  0
 12 33  1  0  0  0  0
 12 34  1  0  0  0  0
 13 14  1  0  0  0  0
 13 35  1  0  0  0  0
 13 36  1  0  0  0  0
 14 18  1  0  0  0  0
 14 15  2  0  0  0  0
 15 16  1  0  0  0  0
 16 17  2  0  0  0  0
 16 37  1  0  0  0  0
 17 18  1  0  0  0  0
 17 38  1  0  0  0  0
M  END
> <s_m_source_file>
AV-unprocessed.smi

> <i_m_source_file_index>
1090

> <i_lp_mmshare_version>
43012

> <i_f3d_flags>
0

> <s_epik_input>
W0NIMl0xW0NIMl1bQ0hdMVtDSF0oW0NIXTJbQ0gyXVtDSDJdMilbQ0gyXUMoPU8pW05IXVtDSDJdW0NIMl1jM25bY0hdW2NIXXMz

> <s_epik_cmdline>
J2VwaWtfcHl0aG9uJywgJy1waCcsICc3LjAnLCAnLXRuJywgJzgnLCAnLW1hJywgJzIwMCcsICctbWV0YWxfYmluZGluZycsICctaW1hZScsICc8aW5maWxlLm1hZT4nLCAnLW9tYWUnLCAnPG91dGZpbGUubWFlPic=

> <r_lp_tautomer_probability>
1

> <r_epik_Ionization_Penalty>
0.000189819

> <r_epik_Ionization_Penalty_Charging>
0

> <r_epik_Ionization_Penalty_Neutral>
0.000189819

> <r_epik_State_Penalty>
-0

> <r_epik_Charging_Adjusted_Penalty>
0

> <i_epik_Tot_Q>
0

> <i_epik_Tot_abs_Q>
0

> <r_epik_Metal_State_Penalty>
-0

> <b_epik_Metal_Only>
0

> <s_lp_Force_Field>
OPLS_2005

> <r_lp_Energy>
14.2357

> <b_lp_Chiralities_Consistent>
1

> <s_lp_Variant>
AV-unprocessed.smi:1090-1

> <Gold.Version>
5.8.1

> <Gold.Id.Protein>
6NUR|6NUR_protein|mol2

> <Gold.PLP.Fitness>
49.1454

> <Gold.PLP.PLP>
-45.1683

> <Gold.PLP.part.hbond>
-1.0065

> <Gold.PLP.part.metal>
0.0000

> <Gold.PLP.part.buried>
-3.8652

> <Gold.PLP.part.nonpolar>
-40.6987

> <Gold.PLP.part.repulsive>
0.2889

> <Gold.PLP.ligand.clash>
0.0000

> <Gold.PLP.ligand.torsion>
1.9903

> <Gold.PLP.Chemscore.Hbond>
0.1085

> <Gold.PLP.Chemscore.CHOScore>
1.7867

> <Gold.PLP.Chemscore.Metal>
0.0000

> <Gold.Chemscore.Hbonds>
donor molecule, donor type, donor heavy atom, donor atom, acceptor molecule, acceptor atom, score
      P1  H  8011  8017       L1    15  0.19
      L1  C    16    37       P1  8028  0.36
      L1  C    17    38       P1 10175  1.00

> <Gold.PLP.Chemscore.Internal.Correction>
2.2718

> <Gold.Rescore>
     Score         DG    S(hbond)    S(metal)    S(lipo)     H(rot)  DE(clash)    DE(int)     intcor
     13.40     -16.52       0.15        0.00     127.28       1.70       0.03       3.08       ----

> <Gold.Chemscore.Fitness>
13.4027

> <Gold.Chemscore.DG>
-16.5185

> <Gold.Chemscore.ZeroCoef>
-5.4800

> <Gold.Chemscore.Hbond>
0.1479

> <Gold.Chemscore.Metal>
0.0000

> <Gold.Chemscore.Lipo>
127.2821

> <Gold.Chemscore.Internal_Hbond>
0.0000

> <Gold.Chemscore.DEClash>
0.0331

> <Gold.Chemscore.DEInternal>
3.0828

> <Gold.Chemscore.Rot>
1.6982

> <Gold.Chemscore.Internal.Correction>
   9.000000E+99

> <Gold.Chemscore.Hbonds>
donor molecule, donor type, donor heavy atom, donor atom, acceptor molecule, acceptor atom, score
      P1  H  8011  8017       L1    15  0.01

> <Gold.Chemscore.Hbond.Weighted>
-0.4939

> <Gold.Chemscore.Metal.Weighted>
-0.0000

> <Gold.Chemscore.Lipo.Weighted>
-14.8920

> <Gold.Chemscore.Internal_Hbond.Weighted>
0.0000

> <Gold.Chemscore.DEClash.Weighted>
0.0331

> <Gold.Chemscore.DEInternal.Weighted>
3.0828

> <Gold.Chemscore.Rot.Weighted>
4.3474

> <Gold.Chemscore.Internal.Correction.Weighted>
   9.000000E+99

> <Gold.Protein.RotatedTorsions>
[ 6907 6896 6895 6894 ] final   54.00 input  -60.11 | X-H torsion
[ 7974 7965 7964 7962 ] final -108.64 input  175.53 | X-H torsion
[ 8008 7997 7996 7995 ] final  100.79 input   59.86 | X-H torsion
[ 10167 10162 10161 10158 ] final -155.57 input  -65.29 | X-H torsion
[ 10718 10713 10712 10709 ] final   43.42 input   66.30 | X-H torsion
[ 10763 10752 10751 10750 ] final  135.73 input  -60.55 | X-H torsion
[ 11005 11000 10999 10996 ] final  104.64 input  -57.11 | X-H torsion

> <Gold.Protein.ActiveResidues>
 VAL166  LYS551  ARG553  GLY616  TRP617  ASP618  TYR619  PRO620  LYS621  CYS622 
 ASP623  PHE694  ASN695  SER759  ASP760  ASP761  ALA762  ILE779  LEU786  VAL792 
 PHE793  MET794  SER795  GLU796  ALA797  LYS798  CYS799  TRP800  GLU811  SER814 

> <Gold.Protein.RotatedAtoms>
  152.3394  134.7154  160.0267 H   0  0  0  0  0  0  0  0  0  0  0  0  # atno 6907 bound_to 6896
  151.7544  133.3324  159.3408 H   0  0  0  0  0  0  0  0  0  0  0  0  # atno 6908 bound_to 6896
  150.7470  134.6095  159.6123 H   0  0  0  0  0  0  0  0  0  0  0  0  # atno 6909 bound_to 6896
  145.1904  140.9012  143.3428 H   0  0  0  0  0  0  0  0  0  0  0  0  # atno 7974 bound_to 7965
  156.1237  140.3208  155.8246 H   0  0  0  0  0  0  0  0  0  0  0  0  # atno 8008 bound_to 7997
  155.4458  140.0529  157.3023 H   0  0  0  0  0  0  0  0  0  0  0  0  # atno 8009 bound_to 7997
  154.4846  140.2067  155.9698 H   0  0  0  0  0  0  0  0  0  0  0  0  # atno 8010 bound_to 7997
  139.6920  143.9404  152.2389 H   0  0  0  0  0  0  0  0  0  0  0  0  # atno 10167 bound_to 10162
  157.4157  130.7940  149.7470 H   0  0  0  0  0  0  0  0  0  0  0  0  # atno 10718 bound_to 10713
  153.8448  135.3087  155.3428 H   0  0  0  0  0  0  0  0  0  0  0  0  # atno 10763 bound_to 10752
  154.7917  135.4779  154.0070 H   0  0  0  0  0  0  0  0  0  0  0  0  # atno 10764 bound_to 10752
  153.1554  135.6851  153.8913 H   0  0  0  0  0  0  0  0  0  0  0  0  # atno 10765 bound_to 10752
  139.8794  134.9307  156.5392 H   0  0  0  0  0  0  0  0  0  0  0  0  # atno 11005 bound_to 11000
  145.0047  139.3565  143.6150 LP  0  0  0  0  0  0  0  0  0  0  0  0  # atno 17320 bound_to 7965
  146.3437  139.9285  142.8757 LP  0  0  0  0  0  0  0  0  0  0  0  0  # atno 17321 bound_to 7965
  139.9223  144.6792  150.8448 LP  0  0  0  0  0  0  0  0  0  0  0  0  # atno 17342 bound_to 10162
  140.7685  143.3366  151.2296 LP  0  0  0  0  0  0  0  0  0  0  0  0  # atno 17343 bound_to 10162
  155.9864  130.3975  150.3212 LP  0  0  0  0  0  0  0  0  0  0  0  0  # atno 17370 bound_to 10713
  157.1355  131.0283  151.2950 LP  0  0  0  0  0  0  0  0  0  0  0  0  # atno 17371 bound_to 10713
  140.8323  133.8269  155.8995 LP  0  0  0  0  0  0  0  0  0  0  0  0  # atno 17394 bound_to 11000
  140.9317  134.2013  157.4859 LP  0  0  0  0  0  0  0  0  0  0  0  0  # atno 17395 bound_to 11000

$$$$
