#       Name:                AV-unprocessed.smi:623
#       Creating user name   scv26
#       Creation time:       Fri Mar 27 00:01:54 2020


#       File generated by GOLD software.
#

@<TRIPOS>MOLECULE
AV-unprocessed.smi:623
    51    53     1
SMALL
NO_CHARGES


@<TRIPOS>ATOM
      1 ****        -3.7336  -1.9843  -1.7288 C.3            1 S1                 0.0000
      2 ****        -2.8869  -1.0417  -0.8276 C.3            1 S1                 0.0000
      3 ****        -3.7847   0.2003  -0.5686 C.3            1 S1                 0.0000
      4 ****        -2.3482  -1.7096   0.4537 C.3            1 S1                 0.0000
      5 ****        -1.4021  -2.8090  -0.0770 C.3            1 S1                 0.0000
      6 ****        -0.7982  -2.1518  -1.3334 C.3            1 S1                 0.0000
      7 ****        -1.4482  -0.7394  -1.3290 C.3            1 S1                 0.0000
      8 ****        -1.3449  -0.0246  -2.6869 C.3            1 S1                 0.0000
      9 ****        -0.8364   0.0787  -0.1506 C.3            1 S1                 0.0000
     10 ****         0.6258   0.0729  -0.1296 N.am           1 S1                 0.0000
     11 ****         1.3902   0.7994   0.6985 C.2            1 S1                 0.0000
     12 ****         0.9260   1.5517   1.5564 O.2            1 S1                 0.0000
     13 ****         2.9061   0.6152   0.5413 C.3            1 S1                 0.0000
     14 ****         3.6931   1.6947   1.1590 N.am           1 S1                 0.0000
     15 ****         4.1793   1.4833   2.4610 C.2            1 S1                 0.0000
     16 ****         4.9047   2.4148   3.1087 C.2            1 S1                 0.0000
     17 ****         5.1836   3.6710   2.4241 C.2            1 S1                 0.0000
     18 ****         5.8487   4.5310   2.9983 O.2            1 S1                 0.0000
     19 ****         4.6858   3.8307   1.1629 N.pl3          1 S1                -1.0000
     20 ****         3.9460   2.8757   0.5180 C.2            1 S1                 0.0000
     21 ****         3.5023   3.0421  -0.6187 O.2            1 S1                 0.0000
     22 ****        -1.4554  -0.6190   1.0857 C.3            1 S1                 0.0000
     23 ****        -4.6670  -2.2515  -1.2324 H              1 S1                 0.0000
     24 ****        -3.2532  -2.9221  -1.9988 H              1 S1                 0.0000
     25 ****        -3.9996  -1.4908  -2.6638 H              1 S1                 0.0000
     26 ****        -3.3423   0.9690   0.0606 H              1 S1                 0.0000
     27 ****        -4.7147  -0.0951  -0.0817 H              1 S1                 0.0000
     28 ****        -4.0551   0.6852  -1.5070 H              1 S1                 0.0000
     29 ****        -3.1125  -2.0881   1.1332 H              1 S1                 0.0000
     30 ****        -0.6376  -3.0835   0.6509 H              1 S1                 0.0000
     31 ****        -1.9450  -3.7201  -0.3290 H              1 S1                 0.0000
     32 ****         0.2910  -2.1391  -1.3074 H              1 S1                 0.0000
     33 ****        -1.0654  -2.7115  -2.2298 H              1 S1                 0.0000
     34 ****        -0.3030   0.1362  -2.9646 H              1 S1                 0.0000
     35 ****        -1.8327   0.9499  -2.6610 H              1 S1                 0.0000
     36 ****        -1.8104  -0.6089  -3.4807 H              1 S1                 0.0000
     37 ****        -1.1636   1.1182  -0.2031 H              1 S1                 0.0000
     38 ****         1.0889  -0.5178  -0.8047 H              1 S1                 0.0000
     39 ****         3.1779  -0.3470   0.9774 H              1 S1                 0.0000
     40 ****         3.1528   0.5277  -0.5185 H              1 S1                 0.0000
     41 ****         3.9221   0.5297   2.8983 H              1 S1                 0.0000
     42 ****         5.2680   2.2377   4.1102 H              1 S1                 0.0000
     43 ****        -2.0411   0.0840   1.6782 H              1 S1                 0.0000
     44 ****        -0.7088  -1.0458   1.7572 H              1 S1                 0.0000
     45 ****        -0.0646   1.6418   1.6594 LP             1 S1                 0.0000
     46 ****         1.5397   2.0724   2.1498 LP             1 S1                 0.0000
     47 ****         6.1906   4.3640   3.9230 LP             1 S1                 0.0000
     48 ****         6.0477   5.3976   2.5406 LP             1 S1                 0.0000
     49 ****         4.8710   4.6896   0.6853 LP             1 S1                 0.0000
     50 ****         2.9672   2.3201  -1.0573 LP             1 S1                 0.0000
     51 ****         3.6770   3.8993  -1.1032 LP             1 S1                 0.0000
@<TRIPOS>BOND
    1    1    2 1     
    2    1   23 1     
    3    1   24 1     
    4    1   25 1     
    5    2    7 1     
    6    2    3 1     
    7    2    4 1     
    8    3   26 1     
    9    3   27 1     
   10    3   28 1     
   11    4   22 1     
   12    4    5 1     
   13    4   29 1     
   14    5    6 1     
   15    5   30 1     
   16    5   31 1     
   17    6    7 1     
   18    6   32 1     
   19    6   33 1     
   20    7    8 1     
   21    7    9 1     
   22    8   34 1     
   23    8   35 1     
   24    8   36 1     
   25    9   10 1     
   26    9   22 1     
   27    9   37 1     
   28   10   11 am    
   29   10   38 1     
   30   11   12 2     
   31   11   13 1     
   32   13   14 1     
   33   13   39 1     
   34   13   40 1     
   35   14   20 am    
   36   14   15 1     
   37   15   16 2     
   38   15   41 1     
   39   16   17 1     
   40   16   42 1     
   41   17   18 2     
   42   17   19 1     
   43   19   20 1     
   44   20   21 2     
   45   22   43 1     
   46   22   44 1     
   47   12   45 1     
   48   12   46 1     
   49   18   47 1     
   50   18   48 1     
   51   19   49 1     
   52   21   50 1     
   53   21   51 1     
@<TRIPOS>SUBSTRUCTURE
      1 S1             1
@<TRIPOS>SET
LONE_PAIRS      STATIC     ATOMS    <user>   **** ""
7 45 46 47 48 49 50 51
DONOR_HYDROGENS      STATIC     ATOMS    <user>   **** ""
1 38
ATOM$BLUE        STATIC     ATOMS    COLORGROUP SYSTEM
7 45 46 47 48 49 50 51
ATOM$RED        STATIC     ATOMS    COLORGROUP SYSTEM
1 38
