AV-unprocessed.smi:3123|AV-procd|sdf|11901|dock5
  -GOLD-   2272017283D 1   1.00000     0.00000
 Structure written by MMmdl.
 29 30  0  0  0  0  0  0  0  0  1 V2000
  149.0926  141.0543  153.2012 N   0  0  0  0  0  0  0  0  0  0  0  0
  148.8154  140.6425  154.5622 C   0  0  0  0  0  0  0  0  0  0  0  0
  150.0810  140.3737  155.3486 C   0  0  0  0  0  0  0  0  0  0  0  0
  150.9960  139.3900  154.9228 C   0  0  0  0  0  0  0  0  0  0  0  0
  152.1539  139.1744  155.6951 C   0  0  0  0  0  0  0  0  0  0  0  0
  152.4310  139.8620  156.8233 N   0  0  0  0  0  0  0  0  0  0  0  0
  151.5491  140.8060  157.2327 C   0  0  0  0  0  0  0  0  0  0  0  0
  151.8361  141.5250  158.4018 N   0  0  0  0  0  0  0  0  0  0  0  0
  153.0009  141.0246  159.1213 C   0  0  0  0  0  0  0  0  0  0  0  0
  153.1683  141.7876  160.4471 C   0  0  0  0  0  0  0  0  0  0  0  0
  153.2489  143.1866  160.1883 O   0  0  0  0  0  0  0  0  0  0  0  0
  152.0746  143.6811  159.5503 C   0  0  0  0  0  0  0  0  0  0  0  0
  151.8823  142.9681  158.2009 C   0  0  0  0  0  0  0  0  0  0  0  0
  150.3607  141.0927  156.5283 C   0  0  0  0  0  0  0  0  0  0  0  0
  149.5492  140.3033  152.7038 H   0  0  0  0  0  0  0  0  0  0  0  0
  148.2228  141.2352  152.7208 H   0  0  0  0  0  0  0  0  0  0  0  0
  148.2436  141.4263  155.0600 H   0  0  0  0  0  0  0  0  0  0  0  0
  148.1879  139.7509  154.5467 H   0  0  0  0  0  0  0  0  0  0  0  0
  150.8171  138.8140  154.0268 H   0  0  0  0  0  0  0  0  0  0  0  0
  152.8777  138.4298  155.3985 H   0  0  0  0  0  0  0  0  0  0  0  0
  152.8855  139.9575  159.3151 H   0  0  0  0  0  0  0  0  0  0  0  0
  153.8951  141.1474  158.5084 H   0  0  0  0  0  0  0  0  0  0  0  0
  152.3372  141.5798  161.1228 H   0  0  0  0  0  0  0  0  0  0  0  0
  154.0788  141.4670  160.9533 H   0  0  0  0  0  0  0  0  0  0  0  0
  151.2071  143.5332  160.1958 H   0  0  0  0  0  0  0  0  0  0  0  0
  152.1785  144.7552  159.3968 H   0  0  0  0  0  0  0  0  0  0  0  0
  152.7031  143.2226  157.5290 H   0  0  0  0  0  0  0  0  0  0  0  0
  150.9596  143.3049  157.7267 H   0  0  0  0  0  0  0  0  0  0  0  0
  149.6780  141.8503  156.8853 H   0  0  0  0  0  0  0  0  0  0  0  0
  1  2  1  0  0  0  0
  1 15  1  0  0  0  0
  1 16  1  0  0  0  0
  2  3  1  0  0  0  0
  2 17  1  0  0  0  0
  2 18  1  0  0  0  0
  3 14  1  0  0  0  0
  3  4  2  0  0  0  0
  4  5  1  0  0  0  0
  4 19  1  0  0  0  0
  5  6  2  0  0  0  0
  5 20  1  0  0  0  0
  6  7  1  0  0  0  0
  7  8  1  0  0  0  0
  7 14  2  0  0  0  0
  8 13  1  0  0  0  0
  8  9  1  0  0  0  0
  9 10  1  0  0  0  0
  9 21  1  0  0  0  0
  9 22  1  0  0  0  0
 10 11  1  0  0  0  0
 10 23  1  0  0  0  0
 10 24  1  0  0  0  0
 11 12  1  0  0  0  0
 12 13  1  0  0  0  0
 12 25  1  0  0  0  0
 12 26  1  0  0  0  0
 13 27  1  0  0  0  0
 13 28  1  0  0  0  0
 14 29  1  0  0  0  0
M  END
> <s_m_source_file>
AV-unprocessed.smi

> <i_m_source_file_index>
3123

> <i_lp_mmshare_version>
43012

> <i_f3d_flags>
0

> <s_epik_input>
W05IMl1bQ0gyXWMxW2NIXVtjSF1uYyhbY0hdMSlOMltDSDJdW0NIMl1PW0NIMl1bQ0gyXTI=

> <s_epik_cmdline>
J2VwaWtfcHl0aG9uJywgJy1waCcsICc3LjAnLCAnLXRuJywgJzgnLCAnLW1hJywgJzIwMCcsICctbWV0YWxfYmluZGluZycsICctaW1hZScsICc8aW5maWxlLm1hZT4nLCAnLW9tYWUnLCAnPG91dGZpbGUubWFlPic=

> <r_lp_tautomer_probability>
1

> <r_epik_Ionization_Penalty>
1.26929

> <r_epik_Ionization_Penalty_Charging>
0

> <r_epik_Ionization_Penalty_Neutral>
1.26929

> <r_epik_State_Penalty>
2.46732

> <r_epik_Charging_Adjusted_Penalty>
2.46732

> <i_epik_Tot_Q>
0

> <i_epik_Tot_abs_Q>
0

> <r_epik_Metal_State_Penalty>
2.44539

> <b_epik_Metal_Only>
0

> <s_lp_Force_Field>
OPLS_2005

> <r_lp_Energy>
17.6888

> <b_lp_Chiralities_Consistent>
1

> <s_lp_Variant>
AV-unprocessed.smi:3123-2

> <Gold.Version>
5.8.1

> <Gold.Id.Protein>
6NUR|6NUR_protein|mol2

> <Gold.PLP.Fitness>
37.6489

> <Gold.PLP.PLP>
-31.3788

> <Gold.PLP.part.hbond>
-3.3615

> <Gold.PLP.part.metal>
0.0000

> <Gold.PLP.part.buried>
-3.2550

> <Gold.PLP.part.nonpolar>
-25.5152

> <Gold.PLP.part.repulsive>
0.0000

> <Gold.PLP.ligand.clash>
0.0000

> <Gold.PLP.ligand.torsion>
0.0607

> <Gold.PLP.Chemscore.Hbond>
2.0960

> <Gold.PLP.Chemscore.CHOScore>
0.0000

> <Gold.PLP.Chemscore.Metal>
0.0000

> <Gold.Chemscore.Hbonds>
donor molecule, donor type, donor heavy atom, donor atom, acceptor molecule, acceptor atom, score
      L1  H     1    15       P1  7957  0.58
      P1  H  7997  8009       L1     6  0.95
      P1  H  8011  8017       L1     1  0.36

> <Gold.PLP.Chemscore.Internal.Correction>
0.1035

> <Gold.Rescore>
     Score         DG    S(hbond)    S(metal)    S(lipo)     H(rot)  DE(clash)    DE(int)     intcor
     16.47     -16.93       1.75        0.00      75.93       1.29       0.39       0.07       ----

> <Gold.Chemscore.Fitness>
16.4704

> <Gold.Chemscore.DG>
-16.9281

> <Gold.Chemscore.ZeroCoef>
-5.4800

> <Gold.Chemscore.Hbond>
1.7547

> <Gold.Chemscore.Metal>
0.0000

> <Gold.Chemscore.Lipo>
75.9268

> <Gold.Chemscore.Internal_Hbond>
0.0000

> <Gold.Chemscore.DEClash>
0.3873

> <Gold.Chemscore.DEInternal>
0.0705

> <Gold.Chemscore.Rot>
1.2875

> <Gold.Chemscore.Internal.Correction>
   9.000000E+99

> <Gold.Chemscore.Hbonds>
donor molecule, donor type, donor heavy atom, donor atom, acceptor molecule, acceptor atom, score
      L1  H     1    15       P1  7957  0.56
      P1  H  7997  8009       L1     6  0.21

> <Gold.Chemscore.Hbond.Weighted>
-5.8607

> <Gold.Chemscore.Metal.Weighted>
-0.0000

> <Gold.Chemscore.Lipo.Weighted>
-8.8834

> <Gold.Chemscore.Internal_Hbond.Weighted>
0.0000

> <Gold.Chemscore.DEClash.Weighted>
0.3873

> <Gold.Chemscore.DEInternal.Weighted>
0.0705

> <Gold.Chemscore.Rot.Weighted>
3.2961

> <Gold.Chemscore.Internal.Correction.Weighted>
   9.000000E+99

> <Gold.Protein.RotatedTorsions>
[ 6907 6896 6895 6894 ] final -164.27 input  -60.11 | X-H torsion
[ 7974 7965 7964 7962 ] final    3.40 input  175.53 | X-H torsion
[ 8008 7997 7996 7995 ] final -175.84 input   59.86 | X-H torsion
[ 10167 10162 10161 10158 ] final  173.69 input  -65.29 | X-H torsion
[ 10718 10713 10712 10709 ] final -109.54 input   66.30 | X-H torsion
[ 10763 10752 10751 10750 ] final -130.20 input  -60.55 | X-H torsion
[ 11005 11000 10999 10996 ] final   93.31 input  -57.11 | X-H torsion

> <Gold.Protein.ActiveResidues>
 VAL166  LYS551  ARG553  GLY616  TRP617  ASP618  TYR619  PRO620  LYS621  CYS622 
 ASP623  PHE694  ASN695  SER759  ASP760  ASP761  ALA762  ILE779  LEU786  VAL792 
 PHE793  MET794  SER795  GLU796  ALA797  LYS798  CYS799  TRP800  GLU811  SER814 

> <Gold.Protein.RotatedAtoms>
  151.4092  133.3733  159.2741 H   0  0  0  0  0  0  0  0  0  0  0  0  # atno 6907 bound_to 6896
  150.9376  134.8788  159.7602 H   0  0  0  0  0  0  0  0  0  0  0  0  # atno 6908 bound_to 6896
  152.5057  134.4040  159.9478 H   0  0  0  0  0  0  0  0  0  0  0  0  # atno 6909 bound_to 6896
  146.2445  140.0691  142.8363 H   0  0  0  0  0  0  0  0  0  0  0  0  # atno 7974 bound_to 7965
  155.9876  140.1194  157.0669 H   0  0  0  0  0  0  0  0  0  0  0  0  # atno 8008 bound_to 7997
  154.4201  140.1132  156.5589 H   0  0  0  0  0  0  0  0  0  0  0  0  # atno 8009 bound_to 7997
  155.6387  140.3473  155.4709 H   0  0  0  0  0  0  0  0  0  0  0  0  # atno 8010 bound_to 7997
  139.5117  144.3232  152.0183 H   0  0  0  0  0  0  0  0  0  0  0  0  # atno 10167 bound_to 10162
  156.0542  130.5769  150.8113 H   0  0  0  0  0  0  0  0  0  0  0  0  # atno 10718 bound_to 10713
  154.8756  135.3870  154.4044 H   0  0  0  0  0  0  0  0  0  0  0  0  # atno 10763 bound_to 10752
  153.4765  135.7030  153.5968 H   0  0  0  0  0  0  0  0  0  0  0  0  # atno 10764 bound_to 10752
  153.4402  135.3858  155.2191 H   0  0  0  0  0  0  0  0  0  0  0  0  # atno 10765 bound_to 10752
  139.8812  134.8782  156.3699 H   0  0  0  0  0  0  0  0  0  0  0  0  # atno 11005 bound_to 11000
  145.0832  140.9235  143.4813 LP  0  0  0  0  0  0  0  0  0  0  0  0  # atno 17320 bound_to 7965
  145.0849  139.2933  143.5765 LP  0  0  0  0  0  0  0  0  0  0  0  0  # atno 17321 bound_to 7965
  140.2673  144.4002  150.6164 LP  0  0  0  0  0  0  0  0  0  0  0  0  # atno 17342 bound_to 10162
  140.6114  143.2170  151.6879 LP  0  0  0  0  0  0  0  0  0  0  0  0  # atno 17343 bound_to 10162
  157.5497  131.0943  150.9712 LP  0  0  0  0  0  0  0  0  0  0  0  0  # atno 17370 bound_to 10713
  156.9975  130.5587  149.5308 LP  0  0  0  0  0  0  0  0  0  0  0  0  # atno 17371 bound_to 10713
  140.9471  133.7475  156.0223 LP  0  0  0  0  0  0  0  0  0  0  0  0  # atno 17394 bound_to 11000
  140.8150  134.3356  157.5400 LP  0  0  0  0  0  0  0  0  0  0  0  0  # atno 17395 bound_to 11000

$$$$
