AV-unprocessed.smi:2467|AV-procd|sdf|9727|dock1
  -GOLD-   2272013363D 1   1.00000     0.00000
 Structure written by MMmdl.
 46 47  0  0  0  0  0  0  0  0  1 V2000
  150.8598  142.3741  158.0529 C   0  0  0  0  0  0  0  0  0  0  0  0
  149.6133  141.9985  157.2367 C   0  0  0  0  0  0  0  0  0  0  0  0
  149.7492  140.6926  156.4145 C   0  0  0  0  0  0  0  0  0  0  0  0
  151.0725  140.6770  155.6079 C   0  0  0  0  0  0  0  0  0  0  0  0
  151.5761  139.2715  155.2455 C   0  0  0  0  0  0  0  0  0  0  0  0
  148.5087  140.4586  155.5122 C   0  0  2  0  0  0  0  0  0  0  0  0
  148.5645  139.1593  154.6779 C   0  0  0  0  0  0  0  0  0  0  0  0
  147.2921  139.0298  153.8224 C   0  0  2  0  0  0  0  0  0  0  0  0
  147.2658  137.8064  153.0180 N   0  0  0  0  0  0  0  0  0  0  0  0
  146.2381  136.9594  152.8257 C   0  0  0  0  0  0  0  0  0  0  0  0
  145.1328  137.1153  153.3412 O   0  0  0  0  0  0  0  0  0  0  0  0
  146.4794  135.9012  152.0220 N   0  0  0  0  0  0  0  0  0  0  0  0
  145.6490  134.8212  151.5994 C   0  0  0  0  0  0  0  0  0  0  0  0
  146.3519  133.7227  151.0545 C   0  0  0  0  0  0  0  0  0  0  0  0
  145.6406  132.5923  150.6071 C   0  0  0  0  0  0  0  0  0  0  0  0
  144.2392  132.5870  150.7162 C   0  0  0  0  0  0  0  0  0  0  0  0
  143.6142  133.7186  151.2702 C   0  0  0  0  0  0  0  0  0  0  0  0
  144.2952  134.8022  151.6994 N   0  0  0  0  0  0  0  0  0  0  0  0
  147.0909  140.3076  152.9890 C   0  0  0  0  0  0  0  0  0  0  0  0
  147.1160  141.5424  153.9040 C   0  0  0  0  0  0  0  0  0  0  0  0
  148.3314  141.5803  154.6471 O   0  0  0  0  0  0  0  0  0  0  0  0
  150.7331  143.3545  158.5124 H   0  0  0  0  0  0  0  0  0  0  0  0
  151.7464  142.4192  157.4201 H   0  0  0  0  0  0  0  0  0  0  0  0
  151.0542  141.6666  158.8578 H   0  0  0  0  0  0  0  0  0  0  0  0
  148.7482  141.9339  157.8972 H   0  0  0  0  0  0  0  0  0  0  0  0
  149.4110  142.8346  156.5694 H   0  0  0  0  0  0  0  0  0  0  0  0
  149.7908  139.8649  157.1239 H   0  0  0  0  0  0  0  0  0  0  0  0
  150.9511  141.2177  154.6716 H   0  0  0  0  0  0  0  0  0  0  0  0
  151.8481  141.2122  156.1568 H   0  0  0  0  0  0  0  0  0  0  0  0
  152.4595  139.3339  154.6097 H   0  0  0  0  0  0  0  0  0  0  0  0
  150.8174  138.7101  154.6997 H   0  0  0  0  0  0  0  0  0  0  0  0
  151.8543  138.6936  156.1257 H   0  0  0  0  0  0  0  0  0  0  0  0
  147.6288  140.3825  156.1505 H   0  0  0  0  0  0  0  0  0  0  0  0
  149.4407  139.1588  154.0328 H   0  0  0  0  0  0  0  0  0  0  0  0
  148.6613  138.2955  155.3367 H   0  0  0  0  0  0  0  0  0  0  0  0
  146.4438  138.9434  154.5027 H   0  0  0  0  0  0  0  0  0  0  0  0
  148.1283  137.5773  152.5439 H   0  0  0  0  0  0  0  0  0  0  0  0
  147.4245  135.8579  151.6697 H   0  0  0  0  0  0  0  0  0  0  0  0
  147.4296  133.7410  150.9781 H   0  0  0  0  0  0  0  0  0  0  0  0
  146.1625  131.7446  150.1886 H   0  0  0  0  0  0  0  0  0  0  0  0
  143.6589  131.7387  150.3848 H   0  0  0  0  0  0  0  0  0  0  0  0
  142.5400  133.7555  151.3732 H   0  0  0  0  0  0  0  0  0  0  0  0
  147.8770  140.4100  152.2410 H   0  0  0  0  0  0  0  0  0  0  0  0
  146.1457  140.2635  152.4470 H   0  0  0  0  0  0  0  0  0  0  0  0
  147.0415  142.4510  153.3064 H   0  0  0  0  0  0  0  0  0  0  0  0
  146.2630  141.5401  154.5842 H   0  0  0  0  0  0  0  0  0  0  0  0
  1  2  1  0  0  0  0
  1 22  1  0  0  0  0
  1 23  1  0  0  0  0
  1 24  1  0  0  0  0
  2  3  1  0  0  0  0
  2 25  1  0  0  0  0
  2 26  1  0  0  0  0
  3  4  1  0  0  0  0
  3  6  1  0  0  0  0
  3 27  1  0  0  0  0
  4  5  1  0  0  0  0
  4 28  1  0  0  0  0
  4 29  1  0  0  0  0
  5 30  1  0  0  0  0
  5 31  1  0  0  0  0
  5 32  1  0  0  0  0
  6 21  1  0  0  0  0
  6  7  1  0  0  0  0
  6 33  1  0  0  0  0
  7  8  1  0  0  0  0
  7 34  1  0  0  0  0
  7 35  1  0  0  0  0
  8  9  1  0  0  0  0
  8 19  1  0  0  0  0
  8 36  1  0  0  0  0
  9 10  1  0  0  0  0
  9 37  1  0  0  0  0
 10 11  2  0  0  0  0
 10 12  1  0  0  0  0
 12 13  1  0  0  0  0
 12 38  1  0  0  0  0
 13 18  1  0  0  0  0
 13 14  2  0  0  0  0
 14 15  1  0  0  0  0
 14 39  1  0  0  0  0
 15 16  2  0  0  0  0
 15 40  1  0  0  0  0
 16 17  1  0  0  0  0
 16 41  1  0  0  0  0
 17 18  2  0  0  0  0
 17 42  1  0  0  0  0
 19 20  1  0  0  0  0
 19 43  1  0  0  0  0
 19 44  1  0  0  0  0
 20 21  1  0  0  0  0
 20 45  1  0  0  0  0
 20 46  1  0  0  0  0
M  END
> <s_m_source_file>
AV-unprocessed.smi

> <i_m_source_file_index>
2467

> <i_lp_mmshare_version>
43012

> <i_f3d_flags>
0

> <s_epik_input>
W0NIM11bQ0gyXVtDSF0oW0NIMl1bQ0gzXSlbQ0BASF0xW0NIMl1bQ0BIXShbQ0gyXVtDSDJdTzEpW05IXUMoPU8pW05IXWMyW2NIXVtjSF1bY0hdW2NIXW4y

> <s_epik_cmdline>
J2VwaWtfcHl0aG9uJywgJy1waCcsICc3LjAnLCAnLXRuJywgJzgnLCAnLW1hJywgJzIwMCcsICctbWV0YWxfYmluZGluZycsICctaW1hZScsICc8aW5maWxlLm1hZT4nLCAnLW9tYWUnLCAnPG91dGZpbGUubWFlPic=

> <r_lp_tautomer_probability>
1

> <r_epik_Ionization_Penalty>
4.80427e-05

> <r_epik_Ionization_Penalty_Charging>
0

> <r_epik_Ionization_Penalty_Neutral>
4.80427e-05

> <r_epik_State_Penalty>
-0

> <r_epik_Charging_Adjusted_Penalty>
0

> <i_epik_Tot_Q>
0

> <i_epik_Tot_abs_Q>
0

> <r_epik_Metal_State_Penalty>
-0

> <b_epik_Metal_Only>
0

> <s_lp_Force_Field>
OPLS_2005

> <r_lp_Energy>
20.5229

> <b_lp_Chiralities_Consistent>
1

> <s_lp_Variant>
AV-unprocessed.smi:2467-3

> <Gold.Version>
5.8.1

> <Gold.Id.Protein>
6NUR|6NUR_protein|mol2

> <Gold.PLP.Fitness>
39.7128

> <Gold.PLP.PLP>
-32.5201

> <Gold.PLP.part.hbond>
-1.8156

> <Gold.PLP.part.metal>
0.0000

> <Gold.PLP.part.buried>
-2.0052

> <Gold.PLP.part.nonpolar>
-28.9735

> <Gold.PLP.part.repulsive>
0.5326

> <Gold.PLP.ligand.clash>
0.0000

> <Gold.PLP.ligand.torsion>
0.5934

> <Gold.PLP.Chemscore.Hbond>
1.8480

> <Gold.PLP.Chemscore.CHOScore>
0.8992

> <Gold.PLP.Chemscore.Metal>
0.0000

> <Gold.Chemscore.Hbonds>
donor molecule, donor type, donor heavy atom, donor atom, acceptor molecule, acceptor atom, score
      L1  H     9    37       P1  7948  0.83
      L1  H    12    38       P1  7948  1.00
      L1  C    17    42       P1 10186  0.89

> <Gold.PLP.Chemscore.Internal.Correction>
0.1381

> <Gold.Rescore>
     Score         DG    S(hbond)    S(metal)    S(lipo)     H(rot)  DE(clash)    DE(int)     intcor
     16.05     -17.87       1.87        0.00      85.02       1.49       0.08       1.74       ----

> <Gold.Chemscore.Fitness>
16.0490

> <Gold.Chemscore.DG>
-17.8655

> <Gold.Chemscore.ZeroCoef>
-5.4800

> <Gold.Chemscore.Hbond>
1.8686

> <Gold.Chemscore.Metal>
0.0000

> <Gold.Chemscore.Lipo>
85.0219

> <Gold.Chemscore.Internal_Hbond>
0.0000

> <Gold.Chemscore.DEClash>
0.0794

> <Gold.Chemscore.DEInternal>
1.7371

> <Gold.Chemscore.Rot>
1.4856

> <Gold.Chemscore.Internal.Correction>
   9.000000E+99

> <Gold.Chemscore.Hbonds>
donor molecule, donor type, donor heavy atom, donor atom, acceptor molecule, acceptor atom, score
      L1  H     9    37       P1  7948  0.83
      L1  H    12    38       P1  7948  0.90

> <Gold.Chemscore.Hbond.Weighted>
-6.2410

> <Gold.Chemscore.Metal.Weighted>
-0.0000

> <Gold.Chemscore.Lipo.Weighted>
-9.9476

> <Gold.Chemscore.Internal_Hbond.Weighted>
0.0000

> <Gold.Chemscore.DEClash.Weighted>
0.0794

> <Gold.Chemscore.DEInternal.Weighted>
1.7371

> <Gold.Chemscore.Rot.Weighted>
3.8031

> <Gold.Chemscore.Internal.Correction.Weighted>
   9.000000E+99

> <Gold.Protein.RotatedTorsions>
[ 6907 6896 6895 6894 ] final  -14.79 input  -60.11 | X-H torsion
[ 7974 7965 7964 7962 ] final  162.84 input  175.53 | X-H torsion
[ 8008 7997 7996 7995 ] final  -21.54 input   59.86 | X-H torsion
[ 10167 10162 10161 10158 ] final   26.12 input  -65.29 | X-H torsion
[ 10718 10713 10712 10709 ] final  149.27 input   66.30 | X-H torsion
[ 10763 10752 10751 10750 ] final  -65.64 input  -60.55 | X-H torsion
[ 11005 11000 10999 10996 ] final   21.51 input  -57.11 | X-H torsion

> <Gold.Protein.ActiveResidues>
 VAL166  LYS551  ARG553  GLY616  TRP617  ASP618  TYR619  PRO620  LYS621  CYS622 
 ASP623  PHE694  ASN695  SER759  ASP760  ASP761  ALA762  ILE779  LEU786  VAL792 
 PHE793  MET794  SER795  GLU796  ALA797  LYS798  CYS799  TRP800  GLU811  SER814 

> <Gold.Protein.RotatedAtoms>
  151.3340  135.0848  159.9347 H   0  0  0  0  0  0  0  0  0  0  0  0  # atno 6907 bound_to 6896
  152.5228  133.9514  159.7684 H   0  0  0  0  0  0  0  0  0  0  0  0  # atno 6908 bound_to 6896
  150.9858  133.6146  159.2745 H   0  0  0  0  0  0  0  0  0  0  0  0  # atno 6909 bound_to 6896
  144.7617  139.8097  143.6330 H   0  0  0  0  0  0  0  0  0  0  0  0  # atno 7974 bound_to 7965
  154.4699  140.2032  156.0021 H   0  0  0  0  0  0  0  0  0  0  0  0  # atno 8008 bound_to 7997
  156.0993  140.3246  155.7891 H   0  0  0  0  0  0  0  0  0  0  0  0  # atno 8009 bound_to 7997
  155.4825  140.0540  157.2956 H   0  0  0  0  0  0  0  0  0  0  0  0  # atno 8010 bound_to 7997
  140.5049  144.0255  150.6348 H   0  0  0  0  0  0  0  0  0  0  0  0  # atno 10167 bound_to 10162
  157.2982  131.0866  151.1410 H   0  0  0  0  0  0  0  0  0  0  0  0  # atno 10718 bound_to 10713
  154.3480  135.6142  153.5629 H   0  0  0  0  0  0  0  0  0  0  0  0  # atno 10763 bound_to 10752
  152.9800  135.5785  154.4776 H   0  0  0  0  0  0  0  0  0  0  0  0  # atno 10764 bound_to 10752
  154.4492  135.2852  155.1770 H   0  0  0  0  0  0  0  0  0  0  0  0  # atno 10765 bound_to 10752
  140.3908  134.1821  155.7662 H   0  0  0  0  0  0  0  0  0  0  0  0  # atno 11005 bound_to 11000
  146.1687  139.4829  142.9941 LP  0  0  0  0  0  0  0  0  0  0  0  0  # atno 17320 bound_to 7965
  145.6597  141.0243  143.1716 LP  0  0  0  0  0  0  0  0  0  0  0  0  # atno 17321 bound_to 7965
  140.3561  143.2935  152.0434 LP  0  0  0  0  0  0  0  0  0  0  0  0  # atno 17342 bound_to 10162
  139.4881  144.6338  151.7017 LP  0  0  0  0  0  0  0  0  0  0  0  0  # atno 17343 bound_to 10162
  157.2780  130.6736  149.6051 LP  0  0  0  0  0  0  0  0  0  0  0  0  # atno 17370 bound_to 10713
  155.9670  130.4459  150.5518 LP  0  0  0  0  0  0  0  0  0  0  0  0  # atno 17371 bound_to 10713
  141.1891  133.8245  157.0968 LP  0  0  0  0  0  0  0  0  0  0  0  0  # atno 17394 bound_to 11000
  140.0408  134.9855  157.0958 LP  0  0  0  0  0  0  0  0  0  0  0  0  # atno 17395 bound_to 11000

$$$$
