AV-unprocessed.smi:3203|AV-procd|sdf|12249|dock1
  -GOLD-   2272018 83D 1   1.00000     0.00000
 Structure written by MMmdl.
 32 33  0  0  0  0  0  0  0  0  1 V2000
  153.3673  142.3551  161.3217 C   0  0  0  0  0  0  0  0  0  0  0  0
  152.6731  142.7874  160.0400 C   0  0  0  0  0  0  0  0  0  0  0  0
  152.5459  144.1631  159.7531 C   0  0  0  0  0  0  0  0  0  0  0  0
  151.9046  144.5597  158.5672 C   0  0  0  0  0  0  0  0  0  0  0  0
  151.4149  143.5570  157.7126 C   0  0  0  0  0  0  0  0  0  0  0  0
  151.5320  142.2402  157.9786 N   0  0  0  0  0  0  0  0  0  0  0  0
  152.1485  141.8408  159.1193 C   0  0  0  0  0  0  0  0  0  0  0  0
  152.3078  140.4710  159.4674 N   0  0  0  0  0  0  0  0  0  0  0  0
  152.7118  139.4444  158.6948 C   0  0  0  0  0  0  0  0  0  0  0  0
  153.0050  139.5358  157.5030 O   0  0  0  0  0  0  0  0  0  0  0  0
  152.7773  138.0771  159.3766 C   0  0  0  0  0  0  0  0  0  0  0  0
  153.7340  138.1144  160.4254 O   0  0  0  0  0  0  0  0  0  0  0  0
  153.8491  136.8768  161.1051 C   0  0  0  0  0  0  0  0  0  0  0  0
  154.6029  137.0980  162.3987 C   0  0  0  0  0  0  0  0  0  0  0  0
  154.9934  135.9246  163.2684 C   0  0  0  0  0  0  0  0  0  0  0  0
  153.9235  136.8805  163.7319 C   0  0  0  0  0  0  0  0  0  0  0  0
  153.6947  143.2157  161.9059 H   0  0  0  0  0  0  0  0  0  0  0  0
  154.2453  141.7499  161.0945 H   0  0  0  0  0  0  0  0  0  0  0  0
  152.6919  141.7662  161.9431 H   0  0  0  0  0  0  0  0  0  0  0  0
  152.9344  144.9084  160.4318 H   0  0  0  0  0  0  0  0  0  0  0  0
  151.7918  145.6045  158.3188 H   0  0  0  0  0  0  0  0  0  0  0  0
  150.9155  143.8179  156.7913 H   0  0  0  0  0  0  0  0  0  0  0  0
  152.1023  140.2420  160.4289 H   0  0  0  0  0  0  0  0  0  0  0  0
  151.7896  137.8301  159.7684 H   0  0  0  0  0  0  0  0  0  0  0  0
  153.0488  137.3145  158.6447 H   0  0  0  0  0  0  0  0  0  0  0  0
  152.8622  136.4618  161.3174 H   0  0  0  0  0  0  0  0  0  0  0  0
  154.3945  136.1559  160.4943 H   0  0  0  0  0  0  0  0  0  0  0  0
  155.3225  137.9135  162.3540 H   0  0  0  0  0  0  0  0  0  0  0  0
  154.6770  134.9317  162.9546 H   0  0  0  0  0  0  0  0  0  0  0  0
  155.9587  135.9700  163.7686 H   0  0  0  0  0  0  0  0  0  0  0  0
  154.1746  137.5643  164.5400 H   0  0  0  0  0  0  0  0  0  0  0  0
  152.8951  136.5247  163.7251 H   0  0  0  0  0  0  0  0  0  0  0  0
  1  2  1  0  0  0  0
  1 17  1  0  0  0  0
  1 18  1  0  0  0  0
  1 19  1  0  0  0  0
  2  7  1  0  0  0  0
  2  3  2  0  0  0  0
  3  4  1  0  0  0  0
  3 20  1  0  0  0  0
  4  5  2  0  0  0  0
  4 21  1  0  0  0  0
  5  6  1  0  0  0  0
  5 22  1  0  0  0  0
  6  7  2  0  0  0  0
  7  8  1  0  0  0  0
  8  9  1  0  0  0  0
  8 23  1  0  0  0  0
  9 10  2  0  0  0  0
  9 11  1  0  0  0  0
 11 12  1  0  0  0  0
 11 24  1  0  0  0  0
 11 25  1  0  0  0  0
 12 13  1  0  0  0  0
 13 14  1  0  0  0  0
 13 26  1  0  0  0  0
 13 27  1  0  0  0  0
 14 16  1  0  0  0  0
 14 15  1  0  0  0  0
 14 28  1  0  0  0  0
 15 16  1  0  0  0  0
 15 29  1  0  0  0  0
 15 30  1  0  0  0  0
 16 31  1  0  0  0  0
 16 32  1  0  0  0  0
M  END
> <s_m_source_file>
AV-unprocessed.smi

> <i_m_source_file_index>
3203

> <i_lp_mmshare_version>
43012

> <i_f3d_flags>
0

> <s_epik_input>
W0NIM11jMVtjSF1bY0hdW2NIXW5jMVtOSF1DKD1PKVtDSDJdT1tDSDJdW0NIXTJbQ0gyXVtDSDJdMg==

> <s_epik_cmdline>
J2VwaWtfcHl0aG9uJywgJy1waCcsICc3LjAnLCAnLXRuJywgJzgnLCAnLW1hJywgJzIwMCcsICctbWV0YWxfYmluZGluZycsICctaW1hZScsICc8aW5maWxlLm1hZT4nLCAnLW9tYWUnLCAnPG91dGZpbGUubWFlPic=

> <r_epik_Ionization_Penalty>
0.00323497

> <r_epik_Ionization_Penalty_Charging>
0

> <r_epik_Ionization_Penalty_Neutral>
0.00323497

> <r_epik_State_Penalty>
0.00315819

> <r_epik_Charging_Adjusted_Penalty>
0.00315819

> <i_epik_Tot_Q>
0

> <i_epik_Tot_abs_Q>
0

> <r_epik_Metal_State_Penalty>
-0

> <b_epik_Metal_Only>
0

> <s_lp_Force_Field>
OPLS_2005

> <r_lp_Energy>
15.2792

> <b_lp_Chiralities_Consistent>
1

> <s_lp_Variant>
AV-unprocessed.smi:3203-1

> <Gold.Version>
5.8.1

> <Gold.Id.Protein>
6NUR|6NUR_protein|mol2

> <Gold.PLP.Fitness>
43.4834

> <Gold.PLP.PLP>
-38.5379

> <Gold.PLP.part.hbond>
-1.0000

> <Gold.PLP.part.metal>
0.0000

> <Gold.PLP.part.buried>
-4.7137

> <Gold.PLP.part.nonpolar>
-32.8251

> <Gold.PLP.part.repulsive>
0.1803

> <Gold.PLP.ligand.clash>
0.0000

> <Gold.PLP.ligand.torsion>
0.8129

> <Gold.PLP.Chemscore.Hbond>
1.0000

> <Gold.PLP.Chemscore.CHOScore>
1.0000

> <Gold.PLP.Chemscore.Metal>
0.0000

> <Gold.Chemscore.Hbonds>
donor molecule, donor type, donor heavy atom, donor atom, acceptor molecule, acceptor atom, score
      P1  H  7997  8009       L1    10  1.00
      L1  C     5    22       P1  8028  1.00

> <Gold.PLP.Chemscore.Internal.Correction>
0.5713

> <Gold.Rescore>
     Score         DG    S(hbond)    S(metal)    S(lipo)     H(rot)  DE(clash)    DE(int)     intcor
     15.68     -16.56       1.00        0.00      99.71       1.54       0.01       0.86       ----

> <Gold.Chemscore.Fitness>
15.6836

> <Gold.Chemscore.DG>
-16.5552

> <Gold.Chemscore.ZeroCoef>
-5.4800

> <Gold.Chemscore.Hbond>
0.9999

> <Gold.Chemscore.Metal>
0.0000

> <Gold.Chemscore.Lipo>
99.7112

> <Gold.Chemscore.Internal_Hbond>
0.0000

> <Gold.Chemscore.DEClash>
0.0110

> <Gold.Chemscore.DEInternal>
0.8605

> <Gold.Chemscore.Rot>
1.5355

> <Gold.Chemscore.Internal.Correction>
   9.000000E+99

> <Gold.Chemscore.Hbonds>
donor molecule, donor type, donor heavy atom, donor atom, acceptor molecule, acceptor atom, score
      P1  H  7997  8009       L1    10  1.00

> <Gold.Chemscore.Hbond.Weighted>
-3.3398

> <Gold.Chemscore.Metal.Weighted>
-0.0000

> <Gold.Chemscore.Lipo.Weighted>
-11.6662

> <Gold.Chemscore.Internal_Hbond.Weighted>
0.0000

> <Gold.Chemscore.DEClash.Weighted>
0.0110

> <Gold.Chemscore.DEInternal.Weighted>
0.8605

> <Gold.Chemscore.Rot.Weighted>
3.9308

> <Gold.Chemscore.Internal.Correction.Weighted>
   9.000000E+99

> <Gold.Protein.RotatedTorsions>
[ 6907 6896 6895 6894 ] final -133.99 input  -60.11 | X-H torsion
[ 7974 7965 7964 7962 ] final   35.97 input  175.53 | X-H torsion
[ 8008 7997 7996 7995 ] final  168.79 input   59.86 | X-H torsion
[ 10167 10162 10161 10158 ] final -104.85 input  -65.29 | X-H torsion
[ 10718 10713 10712 10709 ] final  179.75 input   66.30 | X-H torsion
[ 10763 10752 10751 10750 ] final  172.28 input  -60.55 | X-H torsion
[ 11005 11000 10999 10996 ] final -100.14 input  -57.11 | X-H torsion

> <Gold.Protein.ActiveResidues>
 VAL166  LYS551  ARG553  GLY616  TRP617  ASP618  TYR619  PRO620  LYS621  CYS622 
 ASP623  PHE694  ASN695  SER759  ASP760  ASP761  ALA762  ILE779  LEU786  VAL792 
 PHE793  MET794  SER795  GLU796  ALA797  LYS798  CYS799  TRP800  GLU811  SER814 

> <Gold.Protein.RotatedAtoms>
  150.9805  133.6250  159.2723 H   0  0  0  0  0  0  0  0  0  0  0  0  # atno 6907 bound_to 6896
  151.3507  135.0882  159.9412 H   0  0  0  0  0  0  0  0  0  0  0  0  # atno 6908 bound_to 6896
  152.5214  133.9398  159.7675 H   0  0  0  0  0  0  0  0  0  0  0  0  # atno 6909 bound_to 6896
  146.1245  139.6076  142.9268 H   0  0  0  0  0  0  0  0  0  0  0  0  # atno 7974 bound_to 7965
  156.1515  140.1581  156.8761 H   0  0  0  0  0  0  0  0  0  0  0  0  # atno 8008 bound_to 7997
  154.5076  140.0809  156.7962 H   0  0  0  0  0  0  0  0  0  0  0  0  # atno 8009 bound_to 7997
  155.3886  140.3408  155.4252 H   0  0  0  0  0  0  0  0  0  0  0  0  # atno 8010 bound_to 7997
  140.2048  143.3791  152.1099 H   0  0  0  0  0  0  0  0  0  0  0  0  # atno 10167 bound_to 10162
  156.8711  130.9784  151.3073 H   0  0  0  0  0  0  0  0  0  0  0  0  # atno 10718 bound_to 10713
  154.4238  135.2758  155.1958 H   0  0  0  0  0  0  0  0  0  0  0  0  # atno 10763 bound_to 10752
  154.3892  135.6070  153.5837 H   0  0  0  0  0  0  0  0  0  0  0  0  # atno 10764 bound_to 10752
  152.9834  135.5899  154.4538 H   0  0  0  0  0  0  0  0  0  0  0  0  # atno 10765 bound_to 10752
  141.1282  133.8375  157.1063 H   0  0  0  0  0  0  0  0  0  0  0  0  # atno 11005 bound_to 11000
  145.5395  141.0422  143.2338 LP  0  0  0  0  0  0  0  0  0  0  0  0  # atno 17320 bound_to 7965
  144.7629  139.6914  143.7227 LP  0  0  0  0  0  0  0  0  0  0  0  0  # atno 17321 bound_to 7965
  139.5203  144.7030  151.5436 LP  0  0  0  0  0  0  0  0  0  0  0  0  # atno 17342 bound_to 10162
  140.6365  143.8974  150.6652 LP  0  0  0  0  0  0  0  0  0  0  0  0  # atno 17343 bound_to 10162
  157.6195  130.8644  149.9084 LP  0  0  0  0  0  0  0  0  0  0  0  0  # atno 17370 bound_to 10713
  156.0726  130.3683  150.0744 LP  0  0  0  0  0  0  0  0  0  0  0  0  # atno 17371 bound_to 10713
  140.0302  134.9904  157.0766 LP  0  0  0  0  0  0  0  0  0  0  0  0  # atno 17394 bound_to 11000
  140.4297  134.1794  155.7167 LP  0  0  0  0  0  0  0  0  0  0  0  0  # atno 17395 bound_to 11000

$$$$
