AV-unprocessed.smi:422|AV-procd|sdf|2537|dock3
  -GOLD-   2262022493D 1   1.00000     0.00000
 Structure written by MMmdl.
 43 45  0  0  0  0  0  0  0  0  1 V2000
  154.1905  139.6732  160.6516 C   0  0  0  0  0  0  0  0  0  0  0  0
  153.3309  140.6022  159.9280 N   0  0  0  0  0  0  0  0  0  0  0  0
  152.8731  140.4649  158.6616 C   0  0  0  0  0  0  0  0  0  0  0  0
  153.1119  139.5255  157.9028 O   0  0  0  0  0  0  0  0  0  0  0  0
  152.1213  141.5516  158.3677 N   0  0  0  0  0  0  0  0  0  0  0  0
  151.4475  141.8256  157.1004 C   0  0  0  0  0  0  0  0  0  0  0  0
  149.9146  141.7278  157.2395 C   0  0  1  0  0  0  0  0  0  0  0  0
  149.3784  142.9682  157.6541 O   0  0  0  0  0  0  0  0  0  0  0  0
  149.2133  141.3291  155.9300 C   0  0  0  0  0  0  0  0  0  0  0  0
  147.8228  141.5989  156.0177 O   0  0  0  0  0  0  0  0  0  0  0  0
  147.1985  141.6958  154.7497 C   0  0  0  0  0  0  0  0  0  0  0  0
  146.1223  142.7630  154.7496 C   0  0  0  0  0  0  0  0  0  0  0  0
  145.9559  143.5962  153.6233 C   0  0  0  0  0  0  0  0  0  0  0  0
  144.9544  144.5866  153.6164 C   0  0  0  0  0  0  0  0  0  0  0  0
  144.1142  144.7465  154.7351 C   0  0  0  0  0  0  0  0  0  0  0  0
  144.2755  143.9149  155.8602 C   0  0  0  0  0  0  0  0  0  0  0  0
  145.2764  142.9236  155.8687 C   0  0  0  0  0  0  0  0  0  0  0  0
  145.4202  142.1272  156.9552 F   0  0  0  0  0  0  0  0  0  0  0  0
  152.1197  142.4205  159.4685 C   0  0  0  0  0  0  0  0  0  0  0  0
  151.5160  143.6762  159.6567 C   0  0  0  0  0  0  0  0  0  0  0  0
  151.7154  144.3080  160.9067 C   0  0  0  0  0  0  0  0  0  0  0  0
  152.4969  143.6901  161.9176 C   0  0  0  0  0  0  0  0  0  0  0  0
  153.0963  142.4273  161.7001 C   0  0  0  0  0  0  0  0  0  0  0  0
  152.8804  141.8215  160.4504 C   0  0  0  0  0  0  0  0  0  0  0  0
  154.1771  138.6781  160.2053 H   0  0  0  0  0  0  0  0  0  0  0  0
  153.8645  139.5753  161.6873 H   0  0  0  0  0  0  0  0  0  0  0  0
  155.2192  140.0344  160.6486 H   0  0  0  0  0  0  0  0  0  0  0  0
  151.7452  142.7971  156.7017 H   0  0  0  0  0  0  0  0  0  0  0  0
  151.7986  141.0925  156.3733 H   0  0  0  0  0  0  0  0  0  0  0  0
  149.6539  140.9880  157.9977 H   0  0  0  0  0  0  0  0  0  0  0  0
  149.3224  143.5387  156.9025 H   0  0  0  0  0  0  0  0  0  0  0  0
  149.6316  141.9160  155.1106 H   0  0  0  0  0  0  0  0  0  0  0  0
  149.3953  140.2786  155.6963 H   0  0  0  0  0  0  0  0  0  0  0  0
  147.9379  141.9328  153.9826 H   0  0  0  0  0  0  0  0  0  0  0  0
  146.7572  140.7351  154.4787 H   0  0  0  0  0  0  0  0  0  0  0  0
  146.5947  143.4766  152.7603 H   0  0  0  0  0  0  0  0  0  0  0  0
  144.8303  145.2227  152.7524 H   0  0  0  0  0  0  0  0  0  0  0  0
  143.3459  145.5056  154.7302 H   0  0  0  0  0  0  0  0  0  0  0  0
  143.6301  144.0368  156.7176 H   0  0  0  0  0  0  0  0  0  0  0  0
  150.9258  144.1441  158.8825 H   0  0  0  0  0  0  0  0  0  0  0  0
  151.2686  145.2736  161.0930 H   0  0  0  0  0  0  0  0  0  0  0  0
  152.6377  144.1906  162.8642 H   0  0  0  0  0  0  0  0  0  0  0  0
  153.6954  141.9533  162.4635 H   0  0  0  0  0  0  0  0  0  0  0  0
  1  2  1  0  0  0  0
  1 25  1  0  0  0  0
  1 26  1  0  0  0  0
  1 27  1  0  0  0  0
  2 24  1  0  0  0  0
  2  3  1  0  0  0  0
  3  4  2  0  0  0  0
  3  5  1  0  0  0  0
  5  6  1  0  0  0  0
  5 19  1  0  0  0  0
  6  7  1  0  0  0  0
  6 28  1  0  0  0  0
  6 29  1  0  0  0  0
  7  8  1  0  0  0  0
  7  9  1  0  0  0  0
  7 30  1  0  0  0  0
  8 31  1  0  0  0  0
  9 10  1  0  0  0  0
  9 32  1  0  0  0  0
  9 33  1  0  0  0  0
 10 11  1  0  0  0  0
 11 12  1  0  0  0  0
 11 34  1  0  0  0  0
 11 35  1  0  0  0  0
 12 17  1  0  0  0  0
 12 13  2  0  0  0  0
 13 14  1  0  0  0  0
 13 36  1  0  0  0  0
 14 15  2  0  0  0  0
 14 37  1  0  0  0  0
 15 16  1  0  0  0  0
 15 38  1  0  0  0  0
 16 17  2  0  0  0  0
 16 39  1  0  0  0  0
 17 18  1  0  0  0  0
 19 24  2  0  0  0  0
 19 20  1  0  0  0  0
 20 21  2  0  0  0  0
 20 40  1  0  0  0  0
 21 22  1  0  0  0  0
 21 41  1  0  0  0  0
 22 23  2  0  0  0  0
 22 42  1  0  0  0  0
 23 24  1  0  0  0  0
 23 43  1  0  0  0  0
M  END
> <s_m_source_file>
AV-unprocessed.smi

> <i_m_source_file_index>
422

> <i_lp_mmshare_version>
43012

> <i_f3d_flags>
0

> <s_epik_input>
W2NIXTFbY0hdW2NIXVtjSF1jKGMxMiluKFtDSDNdKWMoPU8pbjJbQ0gyXVtDQEhdKFtPSF0pW0NIMl1PW0NIMl1jM1tjSF1bY0hdW2NIXVtjSF1jM0Y=

> <s_epik_cmdline>
J2VwaWtfcHl0aG9uJywgJy1waCcsICc3LjAnLCAnLXRuJywgJzgnLCAnLW1hJywgJzIwMCcsICctbWV0YWxfYmluZGluZycsICctaW1hZScsICc8aW5maWxlLm1hZT4nLCAnLW9tYWUnLCAnPG91dGZpbGUubWFlPic=

> <r_lp_tautomer_probability>
1

> <r_epik_Ionization_Penalty>
1.0795e-06

> <r_epik_Ionization_Penalty_Charging>
2.82452e-09

> <r_epik_Ionization_Penalty_Neutral>
1.07667e-06

> <r_epik_State_Penalty>
-0

> <r_epik_Charging_Adjusted_Penalty>
2.82452e-09

> <i_epik_Tot_Q>
0

> <i_epik_Tot_abs_Q>
0

> <r_epik_Metal_State_Penalty>
-0

> <b_epik_Metal_Only>
0

> <s_lp_Force_Field>
OPLS_2005

> <r_lp_Energy>
48.6782

> <b_lp_Chiralities_Consistent>
1

> <s_lp_Variant>
AV-unprocessed.smi:422-2

> <Gold.Version>
5.8.1

> <Gold.Id.Protein>
6NUR|6NUR_protein|mol2

> <Gold.PLP.Fitness>
58.1048

> <Gold.PLP.PLP>
-54.3586

> <Gold.PLP.part.hbond>
-2.1270

> <Gold.PLP.part.metal>
0.0000

> <Gold.PLP.part.buried>
-8.0757

> <Gold.PLP.part.nonpolar>
-43.2518

> <Gold.PLP.part.repulsive>
0.1139

> <Gold.PLP.ligand.clash>
0.0000

> <Gold.PLP.ligand.torsion>
1.2044

> <Gold.PLP.Chemscore.Hbond>
2.0000

> <Gold.PLP.Chemscore.CHOScore>
0.0000

> <Gold.PLP.Chemscore.Metal>
0.0000

> <Gold.Chemscore.Hbonds>
donor molecule, donor type, donor heavy atom, donor atom, acceptor molecule, acceptor atom, score
      L1  H     8    31       P1  8028  1.00
      P1  H  7997  8009       L1     4  1.00

> <Gold.PLP.Chemscore.Internal.Correction>
0.1549

> <Gold.Rescore>
     Score         DG    S(hbond)    S(metal)    S(lipo)     H(rot)  DE(clash)    DE(int)     intcor
     17.69     -21.01       1.93        0.00     129.80       2.38       0.27       3.05       ----

> <Gold.Chemscore.Fitness>
17.6911

> <Gold.Chemscore.DG>
-21.0127

> <Gold.Chemscore.ZeroCoef>
-5.4800

> <Gold.Chemscore.Hbond>
1.9286

> <Gold.Chemscore.Metal>
0.0000

> <Gold.Chemscore.Lipo>
129.7964

> <Gold.Chemscore.Internal_Hbond>
0.0000

> <Gold.Chemscore.DEClash>
0.2742

> <Gold.Chemscore.DEInternal>
3.0474

> <Gold.Chemscore.Rot>
2.3809

> <Gold.Chemscore.Internal.Correction>
   9.000000E+99

> <Gold.Chemscore.Hbonds>
donor molecule, donor type, donor heavy atom, donor atom, acceptor molecule, acceptor atom, score
      L1  H     8    31       P1  8028  0.91
      P1  H  7997  8009       L1     4  0.45

> <Gold.Chemscore.Hbond.Weighted>
-6.4416

> <Gold.Chemscore.Metal.Weighted>
-0.0000

> <Gold.Chemscore.Lipo.Weighted>
-15.1862

> <Gold.Chemscore.Internal_Hbond.Weighted>
0.0000

> <Gold.Chemscore.DEClash.Weighted>
0.2742

> <Gold.Chemscore.DEInternal.Weighted>
3.0474

> <Gold.Chemscore.Rot.Weighted>
6.0951

> <Gold.Chemscore.Internal.Correction.Weighted>
   9.000000E+99

> <Gold.Protein.RotatedTorsions>
[ 6907 6896 6895 6894 ] final   88.92 input  -60.11 | X-H torsion
[ 7974 7965 7964 7962 ] final  109.79 input  175.53 | X-H torsion
[ 8008 7997 7996 7995 ] final  153.25 input   59.86 | X-H torsion
[ 10167 10162 10161 10158 ] final -131.63 input  -65.29 | X-H torsion
[ 10718 10713 10712 10709 ] final  -17.88 input   66.30 | X-H torsion
[ 10763 10752 10751 10750 ] final -168.73 input  -60.55 | X-H torsion
[ 11005 11000 10999 10996 ] final  -97.76 input  -57.11 | X-H torsion

> <Gold.Protein.ActiveResidues>
 VAL166  LYS551  ARG553  GLY616  TRP617  ASP618  TYR619  PRO620  LYS621  CYS622 
 ASP623  PHE694  ASN695  SER759  ASP760  ASP761  ALA762  ILE779  LEU786  VAL792 
 PHE793  MET794  SER795  GLU796  ALA797  LYS798  CYS799  TRP800  GLU811  SER814 

> <Gold.Protein.RotatedAtoms>
  152.5431  134.2046  159.8725 H   0  0  0  0  0  0  0  0  0  0  0  0  # atno 6907 bound_to 6896
  151.2033  133.4591  159.2604 H   0  0  0  0  0  0  0  0  0  0  0  0  # atno 6908 bound_to 6896
  151.0968  134.9961  159.8485 H   0  0  0  0  0  0  0  0  0  0  0  0  # atno 6909 bound_to 6896
  145.2632  139.2694  143.4005 H   0  0  0  0  0  0  0  0  0  0  0  0  # atno 7974 bound_to 7965
  156.2590  140.1998  156.6461 H   0  0  0  0  0  0  0  0  0  0  0  0  # atno 8008 bound_to 7997
  154.6572  140.0565  157.0047 H   0  0  0  0  0  0  0  0  0  0  0  0  # atno 8009 bound_to 7997
  155.1330  140.3235  155.4472 H   0  0  0  0  0  0  0  0  0  0  0  0  # atno 8010 bound_to 7997
  139.9169  143.6428  152.2563 H   0  0  0  0  0  0  0  0  0  0  0  0  # atno 10167 bound_to 10162
  156.5673  130.4740  149.6379 H   0  0  0  0  0  0  0  0  0  0  0  0  # atno 10718 bound_to 10713
  154.6598  135.2923  154.9881 H   0  0  0  0  0  0  0  0  0  0  0  0  # atno 10763 bound_to 10752
  154.0945  135.6586  153.4862 H   0  0  0  0  0  0  0  0  0  0  0  0  # atno 10764 bound_to 10752
  153.0423  135.5228  154.7543 H   0  0  0  0  0  0  0  0  0  0  0  0  # atno 10765 bound_to 10752
  141.1368  133.8194  157.0748 H   0  0  0  0  0  0  0  0  0  0  0  0  # atno 11005 bound_to 11000
  146.3269  140.3055  142.8623 LP  0  0  0  0  0  0  0  0  0  0  0  0  # atno 17320 bound_to 7965
  144.9399  140.8067  143.5637 LP  0  0  0  0  0  0  0  0  0  0  0  0  # atno 17321 bound_to 7965
  139.6895  144.7648  151.1464 LP  0  0  0  0  0  0  0  0  0  0  0  0  # atno 17342 bound_to 10162
  140.7672  143.5610  150.9099 LP  0  0  0  0  0  0  0  0  0  0  0  0  # atno 17343 bound_to 10162
  156.2746  130.7036  151.1843 LP  0  0  0  0  0  0  0  0  0  0  0  0  # atno 17370 bound_to 10713
  157.7356  131.0571  150.5462 LP  0  0  0  0  0  0  0  0  0  0  0  0  # atno 17371 bound_to 10713
  140.0488  134.9816  157.1098 LP  0  0  0  0  0  0  0  0  0  0  0  0  # atno 17394 bound_to 11000
  140.4021  134.2071  155.7163 LP  0  0  0  0  0  0  0  0  0  0  0  0  # atno 17395 bound_to 11000

$$$$
