AV-unprocessed.smi:1567|AV-procd|sdf|6306|dock10
  -GOLD-   22720 6503D 1   1.00000     0.00000
 Structure written by MMmdl.
 42 44  0  0  0  0  0  0  0  0  1 V2000
  151.6200  137.0596  153.8014 O   0  0  0  0  0  0  0  0  0  0  0  0
  150.7214  138.1062  154.1012 C   0  0  0  0  0  0  0  0  0  0  0  0
  151.4340  139.2265  154.8719 C   0  0  0  0  0  0  0  0  0  0  0  0
  151.5321  138.9613  156.3837 C   0  0  0  0  0  0  0  0  0  0  0  0
  151.7756  140.2147  157.1766 C   0  0  0  0  0  0  0  0  0  0  0  0
  152.7086  140.2405  158.1302 N   0  0  0  0  0  0  0  0  0  0  0  0
  152.6268  141.5311  158.6102 C   0  0  0  0  0  0  0  0  0  0  0  0
  153.3663  142.1826  159.6229 C   0  0  0  0  0  0  0  0  0  0  0  0
  153.0980  143.5282  159.9484 C   0  0  0  0  0  0  0  0  0  0  0  0
  152.0873  144.2383  159.2687 C   0  0  0  0  0  0  0  0  0  0  0  0
  151.3384  143.6064  158.2574 C   0  0  0  0  0  0  0  0  0  0  0  0
  151.6124  142.2636  157.9341 C   0  0  0  0  0  0  0  0  0  0  0  0
  151.0721  141.3692  157.0137 N   0  0  0  0  0  0  0  0  0  0  0  0
  149.9695  141.6745  156.1077 C   0  0  0  0  0  0  0  0  0  0  0  0
  148.6145  141.1410  156.6134 C   0  0  2  0  0  0  0  0  0  0  0  0
  148.5653  139.7547  156.3432 O   0  0  0  0  0  0  0  0  0  0  0  0
  147.4230  141.8803  156.0173 C   0  0  0  0  0  0  0  0  0  0  0  0
  146.5072  142.5474  156.8611 C   0  0  0  0  0  0  0  0  0  0  0  0
  145.4110  143.2425  156.3153 C   0  0  0  0  0  0  0  0  0  0  0  0
  144.5366  143.8756  157.1323 F   0  0  0  0  0  0  0  0  0  0  0  0
  145.2224  143.2762  154.9209 C   0  0  0  0  0  0  0  0  0  0  0  0
  146.1274  142.6083  154.0740 C   0  0  0  0  0  0  0  0  0  0  0  0
  147.2227  141.9091  154.6180 C   0  0  0  0  0  0  0  0  0  0  0  0
  148.0777  141.2655  153.7874 F   0  0  0  0  0  0  0  0  0  0  0  0
  151.6072  136.9082  152.8687 H   0  0  0  0  0  0  0  0  0  0  0  0
  150.3201  138.4947  153.1649 H   0  0  0  0  0  0  0  0  0  0  0  0
  149.8802  137.7133  154.6728 H   0  0  0  0  0  0  0  0  0  0  0  0
  152.4270  139.3918  154.4518 H   0  0  0  0  0  0  0  0  0  0  0  0
  150.8856  140.1537  154.7144 H   0  0  0  0  0  0  0  0  0  0  0  0
  150.6251  138.4595  156.7096 H   0  0  0  0  0  0  0  0  0  0  0  0
  152.3484  138.2675  156.5869 H   0  0  0  0  0  0  0  0  0  0  0  0
  154.1411  141.6460  160.1503 H   0  0  0  0  0  0  0  0  0  0  0  0
  153.6695  144.0169  160.7237 H   0  0  0  0  0  0  0  0  0  0  0  0
  151.8871  145.2684  159.5247 H   0  0  0  0  0  0  0  0  0  0  0  0
  150.5634  144.1482  157.7359 H   0  0  0  0  0  0  0  0  0  0  0  0
  149.9221  142.7394  155.8923 H   0  0  0  0  0  0  0  0  0  0  0  0
  150.2042  141.2040  155.1518 H   0  0  0  0  0  0  0  0  0  0  0  0
  148.5834  141.2320  157.6992 H   0  0  0  0  0  0  0  0  0  0  0  0
  147.6710  139.4634  156.4355 H   0  0  0  0  0  0  0  0  0  0  0  0
  146.6427  142.5272  157.9326 H   0  0  0  0  0  0  0  0  0  0  0  0
  144.3817  143.8088  154.5013 H   0  0  0  0  0  0  0  0  0  0  0  0
  145.9790  142.6287  153.0045 H   0  0  0  0  0  0  0  0  0  0  0  0
  1  2  1  0  0  0  0
  1 25  1  0  0  0  0
  2  3  1  0  0  0  0
  2 26  1  0  0  0  0
  2 27  1  0  0  0  0
  3  4  1  0  0  0  0
  3 28  1  0  0  0  0
  3 29  1  0  0  0  0
  4  5  1  0  0  0  0
  4 30  1  0  0  0  0
  4 31  1  0  0  0  0
  5 13  1  0  0  0  0
  5  6  2  0  0  0  0
  6  7  1  0  0  0  0
  7 12  2  0  0  0  0
  7  8  1  0  0  0  0
  8  9  2  0  0  0  0
  8 32  1  0  0  0  0
  9 10  1  0  0  0  0
  9 33  1  0  0  0  0
 10 11  2  0  0  0  0
 10 34  1  0  0  0  0
 11 12  1  0  0  0  0
 11 35  1  0  0  0  0
 12 13  1  0  0  0  0
 13 14  1  0  0  0  0
 14 15  1  0  0  0  0
 14 36  1  0  0  0  0
 14 37  1  0  0  0  0
 15 16  1  0  0  0  0
 15 17  1  0  0  0  0
 15 38  1  0  0  0  0
 16 39  1  0  0  0  0
 17 23  1  0  0  0  0
 17 18  2  0  0  0  0
 18 19  1  0  0  0  0
 18 40  1  0  0  0  0
 19 20  1  0  0  0  0
 19 21  2  0  0  0  0
 21 22  1  0  0  0  0
 21 41  1  0  0  0  0
 22 23  2  0  0  0  0
 22 42  1  0  0  0  0
 23 24  1  0  0  0  0
M  END
> <s_m_source_file>
AV-unprocessed.smi

> <i_m_source_file_index>
1567

> <i_lp_mmshare_version>
43012

> <i_f3d_flags>
0

> <s_epik_input>
W09IXVtDSDJdW0NIMl1bQ0gyXWMobjEpbihjKGMxMilbY0hdW2NIXVtjSF1bY0hdMilbQ0gyXVtDQEhdKFtPSF0pYzNbY0hdYyhGKVtjSF1bY0hdYzNG

> <s_epik_cmdline>
J2VwaWtfcHl0aG9uJywgJy1waCcsICc3LjAnLCAnLXRuJywgJzgnLCAnLW1hJywgJzIwMCcsICctbWV0YWxfYmluZGluZycsICctaW1hZScsICc8aW5maWxlLm1hZT4nLCAnLW9tYWUnLCAnPG91dGZpbGUubWFlPic=

> <r_epik_Ionization_Penalty>
0.182562

> <r_epik_Ionization_Penalty_Charging>
0

> <r_epik_Ionization_Penalty_Neutral>
0.182562

> <r_epik_State_Penalty>
0.172086

> <r_epik_Charging_Adjusted_Penalty>
0.172086

> <i_epik_Tot_Q>
0

> <i_epik_Tot_abs_Q>
0

> <r_epik_Metal_State_Penalty>
0.000199649

> <b_epik_Metal_Only>
0

> <s_lp_Force_Field>
OPLS_2005

> <r_lp_Energy>
11.8794

> <b_lp_Chiralities_Consistent>
1

> <s_lp_Variant>
AV-unprocessed.smi:1567-1

> <Gold.Version>
5.8.1

> <Gold.Id.Protein>
6NUR|6NUR_protein|mol2

> <Gold.PLP.Fitness>
57.3273

> <Gold.PLP.PLP>
-51.0648

> <Gold.PLP.part.hbond>
-2.8439

> <Gold.PLP.part.metal>
0.0000

> <Gold.PLP.part.buried>
-5.1113

> <Gold.PLP.part.nonpolar>
-43.2815

> <Gold.PLP.part.repulsive>
0.0000

> <Gold.PLP.ligand.clash>
0.0000

> <Gold.PLP.ligand.torsion>
0.8479

> <Gold.PLP.Chemscore.Hbond>
2.6344

> <Gold.PLP.Chemscore.CHOScore>
0.0000

> <Gold.PLP.Chemscore.Metal>
0.0000

> <Gold.Chemscore.Hbonds>
donor molecule, donor type, donor heavy atom, donor atom, acceptor molecule, acceptor atom, score
      L1  H     1    25       P1  7949  1.00
      P1  H  7997  8008       L1     6  0.63
      P1  H 10752 10765       L1     1  1.00

> <Gold.PLP.Chemscore.Internal.Correction>
0.0552

> <Gold.Rescore>
     Score         DG    S(hbond)    S(metal)    S(lipo)     H(rot)  DE(clash)    DE(int)     intcor
     14.28     -16.62       1.63        0.00     119.24       3.23       0.29       2.05       ----

> <Gold.Chemscore.Fitness>
14.2780

> <Gold.Chemscore.DG>
-16.6197

> <Gold.Chemscore.ZeroCoef>
-5.4800

> <Gold.Chemscore.Hbond>
1.6325

> <Gold.Chemscore.Metal>
0.0000

> <Gold.Chemscore.Lipo>
119.2391

> <Gold.Chemscore.Internal_Hbond>
0.0000

> <Gold.Chemscore.DEClash>
0.2923

> <Gold.Chemscore.DEInternal>
2.0494

> <Gold.Chemscore.Rot>
3.2281

> <Gold.Chemscore.Internal.Correction>
   9.000000E+99

> <Gold.Chemscore.Hbonds>
donor molecule, donor type, donor heavy atom, donor atom, acceptor molecule, acceptor atom, score
      L1  H     1    25       P1  7949  0.94
      P1  H  7997  8008       L1     6  0.12
      P1  H 10752 10765       L1     1  0.27

> <Gold.Chemscore.Hbond.Weighted>
-5.4526

> <Gold.Chemscore.Metal.Weighted>
-0.0000

> <Gold.Chemscore.Lipo.Weighted>
-13.9510

> <Gold.Chemscore.Internal_Hbond.Weighted>
0.0000

> <Gold.Chemscore.DEClash.Weighted>
0.2923

> <Gold.Chemscore.DEInternal.Weighted>
2.0494

> <Gold.Chemscore.Rot.Weighted>
8.2639

> <Gold.Chemscore.Internal.Correction.Weighted>
   9.000000E+99

> <Gold.Protein.RotatedTorsions>
[ 6907 6896 6895 6894 ] final   90.89 input  -60.11 | X-H torsion
[ 7974 7965 7964 7962 ] final  -37.08 input  175.53 | X-H torsion
[ 8008 7997 7996 7995 ] final  -79.71 input   59.86 | X-H torsion
[ 10167 10162 10161 10158 ] final -114.10 input  -65.29 | X-H torsion
[ 10718 10713 10712 10709 ] final   -1.04 input   66.30 | X-H torsion
[ 10763 10752 10751 10750 ] final  169.90 input  -60.55 | X-H torsion
[ 11005 11000 10999 10996 ] final -167.10 input  -57.11 | X-H torsion

> <Gold.Protein.ActiveResidues>
 VAL166  LYS551  ARG553  GLY616  TRP617  ASP618  TYR619  PRO620  LYS621  CYS622 
 ASP623  PHE694  ASN695  SER759  ASP760  ASP761  ALA762  ILE779  LEU786  VAL792 
 PHE793  MET794  SER795  GLU796  ALA797  LYS798  CYS799  TRP800  GLU811  SER814 

> <Gold.Protein.RotatedAtoms>
  152.5447  134.1741  159.8608 H   0  0  0  0  0  0  0  0  0  0  0  0  # atno 6907 bound_to 6896
  151.1749  133.4754  159.2601 H   0  0  0  0  0  0  0  0  0  0  0  0  # atno 6908 bound_to 6896
  151.1237  135.0105  159.8606 H   0  0  0  0  0  0  0  0  0  0  0  0  # atno 6909 bound_to 6896
  146.0606  140.6354  142.8999 H   0  0  0  0  0  0  0  0  0  0  0  0  # atno 7974 bound_to 7965
  154.5812  140.0674  156.9106 H   0  0  0  0  0  0  0  0  0  0  0  0  # atno 8008 bound_to 7997
  155.2459  140.3348  155.4269 H   0  0  0  0  0  0  0  0  0  0  0  0  # atno 8009 bound_to 7997
  156.2190  140.1791  156.7505 H   0  0  0  0  0  0  0  0  0  0  0  0  # atno 8010 bound_to 7997
  140.1046  143.4582  152.1790 H   0  0  0  0  0  0  0  0  0  0  0  0  # atno 10167 bound_to 10162
  156.8115  130.5426  149.5708 H   0  0  0  0  0  0  0  0  0  0  0  0  # atno 10718 bound_to 10713
  154.3898  135.2754  155.2162 H   0  0  0  0  0  0  0  0  0  0  0  0  # atno 10763 bound_to 10752
  154.4233  135.5995  153.6026 H   0  0  0  0  0  0  0  0  0  0  0  0  # atno 10764 bound_to 10752
  152.9832  135.5978  154.4151 H   0  0  0  0  0  0  0  0  0  0  0  0  # atno 10765 bound_to 10752
  140.5570  134.5371  157.5135 H   0  0  0  0  0  0  0  0  0  0  0  0  # atno 11005 bound_to 11000
  144.7172  140.4252  143.7035 LP  0  0  0  0  0  0  0  0  0  0  0  0  # atno 17320 bound_to 7965
  145.6567  139.1574  143.2831 LP  0  0  0  0  0  0  0  0  0  0  0  0  # atno 17321 bound_to 7965
  139.5652  144.7431  151.4042 LP  0  0  0  0  0  0  0  0  0  0  0  0  # atno 17342 bound_to 10162
  140.6959  143.7750  150.7326 LP  0  0  0  0  0  0  0  0  0  0  0  0  # atno 17343 bound_to 10162
  156.1042  130.5992  150.9943 LP  0  0  0  0  0  0  0  0  0  0  0  0  # atno 17370 bound_to 10713
  157.6503  131.0898  150.8064 LP  0  0  0  0  0  0  0  0  0  0  0  0  # atno 17371 bound_to 10713
  139.9426  134.7759  156.0639 LP  0  0  0  0  0  0  0  0  0  0  0  0  # atno 17394 bound_to 11000
  141.1137  133.6634  156.3042 LP  0  0  0  0  0  0  0  0  0  0  0  0  # atno 17395 bound_to 11000

$$$$
