AV-unprocessed.smi:3199|AV-procd|sdf|12234|dock1
  -GOLD-   2272018 63D 1   1.00000     0.00000
 Structure written by MMmdl.
 36 37  0  0  0  0  0  0  0  0  2 V2000
  146.5703  138.6893  151.8207 C   0  0  0  0  0  0  0  0  0  0  0  0
  147.5239  139.3317  152.8061 C   0  0  0  0  0  0  0  0  0  0  0  0
  147.3052  140.6212  153.3368 C   0  0  0  0  0  0  0  0  0  0  0  0
  148.2395  141.1595  154.2458 C   0  0  0  0  0  0  0  0  0  0  0  0
  149.3743  140.3996  154.6045 C   0  0  0  0  0  0  0  0  0  0  0  0
  150.4010  140.9553  155.5720 C   0  0  0  0  0  0  0  0  0  0  0  0
  149.8344  141.1338  156.9867 C   0  0  0  0  0  0  0  0  0  0  0  0
  150.7213  141.9655  157.7872 N   0  0  0  0  0  0  0  0  0  0  0  0
  152.0102  141.6891  158.0306 C   0  0  0  0  0  0  0  0  0  0  0  0
  152.5770  140.6876  157.5925 O   0  0  0  0  0  0  0  0  0  0  0  0
  152.7674  142.7131  158.8853 C   0  0  1  0  0  0  0  0  0  0  0  0
  152.7042  144.1645  158.3696 C   0  0  0  0  0  0  0  0  0  0  0  0
  151.8833  144.8854  159.4217 C   0  0  0  0  0  0  0  0  0  0  0  0
  152.1801  144.0661  160.6696 C   0  0  0  0  0  0  0  0  0  0  0  0
  152.1726  142.7346  160.1812 O   0  0  0  0  0  0  0  0  0  0  0  0
  149.5389  139.1143  154.0450 C   0  0  0  0  0  0  0  0  0  0  0  0
  148.6206  138.6339  153.1779 N   0  3  0  0  0  0  0  0  0  0  0  0
  145.6894  139.3125  151.6634 H   0  0  0  0  0  0  0  0  0  0  0  0
  146.2382  137.7179  152.1881 H   0  0  0  0  0  0  0  0  0  0  0  0
  147.0611  138.5451  150.8578 H   0  0  0  0  0  0  0  0  0  0  0  0
  146.4343  141.1939  153.0519 H   0  0  0  0  0  0  0  0  0  0  0  0
  148.0859  142.1455  154.6601 H   0  0  0  0  0  0  0  0  0  0  0  0
  151.2618  140.2853  155.5962 H   0  0  0  0  0  0  0  0  0  0  0  0
  150.7662  141.9108  155.1921 H   0  0  0  0  0  0  0  0  0  0  0  0
  148.8482  141.5990  156.9433 H   0  0  0  0  0  0  0  0  0  0  0  0
  149.7134  140.1613  157.4673 H   0  0  0  0  0  0  0  0  0  0  0  0
  150.3349  142.8131  158.1771 H   0  0  0  0  0  0  0  0  0  0  0  0
  153.8116  142.4104  158.9828 H   0  0  0  0  0  0  0  0  0  0  0  0
  153.7108  144.5829  158.3337 H   0  0  0  0  0  0  0  0  0  0  0  0
  152.2750  144.2736  157.3729 H   0  0  0  0  0  0  0  0  0  0  0  0
  152.1496  145.9375  159.5267 H   0  0  0  0  0  0  0  0  0  0  0  0
  150.8220  144.8217  159.1780 H   0  0  0  0  0  0  0  0  0  0  0  0
  153.1668  144.3048  161.0700 H   0  0  0  0  0  0  0  0  0  0  0  0
  151.4406  144.2112  161.4574 H   0  0  0  0  0  0  0  0  0  0  0  0
  150.3720  138.4610  154.2607 H   0  0  0  0  0  0  0  0  0  0  0  0
  148.7623  137.7030  152.7847 H   0  0  0  0  0  0  0  0  0  0  0  0
  1  2  1  0  0  0  0
  1 18  1  0  0  0  0
  1 19  1  0  0  0  0
  1 20  1  0  0  0  0
  2 17  1  0  0  0  0
  2  3  2  0  0  0  0
  3  4  1  0  0  0  0
  3 21  1  0  0  0  0
  4  5  2  0  0  0  0
  4 22  1  0  0  0  0
  5  6  1  0  0  0  0
  5 16  1  0  0  0  0
  6  7  1  0  0  0  0
  6 23  1  0  0  0  0
  6 24  1  0  0  0  0
  7  8  1  0  0  0  0
  7 25  1  0  0  0  0
  7 26  1  0  0  0  0
  8  9  1  0  0  0  0
  8 27  1  0  0  0  0
  9 10  2  0  0  0  0
  9 11  1  0  0  0  0
 11 15  1  0  0  0  0
 11 12  1  0  0  0  0
 11 28  1  0  0  0  0
 12 13  1  0  0  0  0
 12 29  1  0  0  0  0
 12 30  1  0  0  0  0
 13 14  1  0  0  0  0
 13 31  1  0  0  0  0
 13 32  1  0  0  0  0
 14 15  1  0  0  0  0
 14 33  1  0  0  0  0
 14 34  1  0  0  0  0
 16 17  2  0  0  0  0
 16 35  1  0  0  0  0
 17 36  1  0  0  0  0
M  CHG  1  17   1
M  END
> <s_m_source_file>
AV-unprocessed.smi

> <i_m_source_file_index>
3199

> <i_lp_mmshare_version>
43012

> <i_f3d_flags>
0

> <s_epik_input>
W0NIM11jMVtjSF1bY0hdYyhbY0hdbjEpW0NIMl1bQ0gyXVtOSF1DKD1PKVtDQEBIXTJbQ0gyXVtDSDJdW0NIMl1PMg==

> <s_epik_cmdline>
J2VwaWtfcHl0aG9uJywgJy1waCcsICc3LjAnLCAnLXRuJywgJzgnLCAnLW1hJywgJzIwMCcsICctbWV0YWxfYmluZGluZycsICctaW1hZScsICc8aW5maWxlLm1hZT4nLCAnLW9tYWUnLCAnPG91dGZpbGUubWFlPic=

> <r_epik_Ionization_Penalty>
1.4683

> <r_epik_Ionization_Penalty_Charging>
1.4683

> <r_epik_Ionization_Penalty_Neutral>
5.71603e-08

> <r_epik_State_Penalty>
1.5559

> <r_epik_Charging_Adjusted_Penalty>
3.0242

> <i_epik_Tot_Q>
1

> <i_epik_Tot_abs_Q>
1

> <r_epik_Metal_State_Penalty>
1.60421

> <b_epik_Metal_Only>
0

> <s_lp_Force_Field>
OPLS_2005

> <r_lp_Energy>
24.4706

> <b_lp_Chiralities_Consistent>
1

> <s_lp_Variant>
AV-unprocessed.smi:3199-4

> <Gold.Version>
5.8.1

> <Gold.Id.Protein>
6NUR|6NUR_protein|mol2

> <Gold.PLP.Fitness>
48.2658

> <Gold.PLP.PLP>
-41.0556

> <Gold.PLP.part.hbond>
-2.9612

> <Gold.PLP.part.metal>
0.0000

> <Gold.PLP.part.buried>
0.6510

> <Gold.PLP.part.nonpolar>
-37.7293

> <Gold.PLP.part.repulsive>
0.1143

> <Gold.PLP.ligand.clash>
0.0000

> <Gold.PLP.ligand.torsion>
0.1353

> <Gold.PLP.Chemscore.Hbond>
2.4906

> <Gold.PLP.Chemscore.CHOScore>
0.0000

> <Gold.PLP.Chemscore.Metal>
0.0000

> <Gold.Chemscore.Hbonds>
donor molecule, donor type, donor heavy atom, donor atom, acceptor molecule, acceptor atom, score
      L1  H    17    36       P1  7948  2.00
      P1  H  7997  8009       L1    10  0.64

> <Gold.PLP.Chemscore.Internal.Correction>
0.0089

> <Gold.Rescore>
     Score         DG    S(hbond)    S(metal)    S(lipo)     H(rot)  DE(clash)    DE(int)     intcor
     18.07     -20.46       1.82        0.00     110.36       1.56       1.16       1.23       ----

> <Gold.Chemscore.Fitness>
18.0697

> <Gold.Chemscore.DG>
-20.4623

> <Gold.Chemscore.ZeroCoef>
-5.4800

> <Gold.Chemscore.Hbond>
1.8166

> <Gold.Chemscore.Metal>
0.0000

> <Gold.Chemscore.Lipo>
110.3583

> <Gold.Chemscore.Internal_Hbond>
0.0000

> <Gold.Chemscore.DEClash>
1.1649

> <Gold.Chemscore.DEInternal>
1.2277

> <Gold.Chemscore.Rot>
1.5613

> <Gold.Chemscore.Internal.Correction>
   9.000000E+99

> <Gold.Chemscore.Hbonds>
donor molecule, donor type, donor heavy atom, donor atom, acceptor molecule, acceptor atom, score
      L1  H    17    36       P1  7948  1.00
      P1  H  7997  8009       L1    10  0.61

> <Gold.Chemscore.Hbond.Weighted>
-6.0673

> <Gold.Chemscore.Metal.Weighted>
-0.0000

> <Gold.Chemscore.Lipo.Weighted>
-12.9119

> <Gold.Chemscore.Internal_Hbond.Weighted>
0.0000

> <Gold.Chemscore.DEClash.Weighted>
1.1649

> <Gold.Chemscore.DEInternal.Weighted>
1.2277

> <Gold.Chemscore.Rot.Weighted>
3.9969

> <Gold.Chemscore.Internal.Correction.Weighted>
   9.000000E+99

> <Gold.Protein.RotatedTorsions>
[ 6907 6896 6895 6894 ] final   57.49 input  -60.11 | X-H torsion
[ 7974 7965 7964 7962 ] final   15.45 input  175.53 | X-H torsion
[ 8008 7997 7996 7995 ] final  171.90 input   59.86 | X-H torsion
[ 10167 10162 10161 10158 ] final -143.77 input  -65.29 | X-H torsion
[ 10718 10713 10712 10709 ] final   29.69 input   66.30 | X-H torsion
[ 10763 10752 10751 10750 ] final  -25.55 input  -60.55 | X-H torsion
[ 11005 11000 10999 10996 ] final  -86.36 input  -57.11 | X-H torsion

> <Gold.Protein.ActiveResidues>
 VAL166  LYS551  ARG553  GLY616  TRP617  ASP618  TYR619  PRO620  LYS621  CYS622 
 ASP623  PHE694  ASN695  SER759  ASP760  ASP761  ALA762  ILE779  LEU786  VAL792 
 PHE793  MET794  SER795  GLU796  ALA797  LYS798  CYS799  TRP800  GLU811  SER814 

> <Gold.Protein.RotatedAtoms>
  152.3736  134.6697  160.0167 H   0  0  0  0  0  0  0  0  0  0  0  0  # atno 6907 bound_to 6896
  151.6982  133.3305  159.3268 H   0  0  0  0  0  0  0  0  0  0  0  0  # atno 6908 bound_to 6896
  150.7692  134.6574  159.6365 H   0  0  0  0  0  0  0  0  0  0  0  0  # atno 6909 bound_to 6896
  146.2278  139.8892  142.8557 H   0  0  0  0  0  0  0  0  0  0  0  0  # atno 7974 bound_to 7965
  156.1226  140.1500  156.9182 H   0  0  0  0  0  0  0  0  0  0  0  0  # atno 8008 bound_to 7997
  154.4847  140.0868  156.7501 H   0  0  0  0  0  0  0  0  0  0  0  0  # atno 8009 bound_to 7997
  155.4400  140.3430  155.4291 H   0  0  0  0  0  0  0  0  0  0  0  0  # atno 8010 bound_to 7997
  139.7962  143.7897  152.2654 H   0  0  0  0  0  0  0  0  0  0  0  0  # atno 10167 bound_to 10162
  157.2498  130.7109  149.6399 H   0  0  0  0  0  0  0  0  0  0  0  0  # atno 10718 bound_to 10713
  153.7017  135.6956  153.5061 H   0  0  0  0  0  0  0  0  0  0  0  0  # atno 10763 bound_to 10752
  153.2337  135.4329  155.0622 H   0  0  0  0  0  0  0  0  0  0  0  0  # atno 10764 bound_to 10752
  154.8342  135.3490  154.6556 H   0  0  0  0  0  0  0  0  0  0  0  0  # atno 10765 bound_to 10752
  141.1631  133.7450  156.9149 H   0  0  0  0  0  0  0  0  0  0  0  0  # atno 11005 bound_to 11000
  145.2435  141.0018  143.3922 LP  0  0  0  0  0  0  0  0  0  0  0  0  # atno 17320 bound_to 7965
  144.9432  139.4165  143.6438 LP  0  0  0  0  0  0  0  0  0  0  0  0  # atno 17321 bound_to 7965
  139.8003  144.7376  150.9833 LP  0  0  0  0  0  0  0  0  0  0  0  0  # atno 17342 bound_to 10162
  140.7820  143.4351  151.0635 LP  0  0  0  0  0  0  0  0  0  0  0  0  # atno 17343 bound_to 10162
  155.9666  130.4431  150.5408 LP  0  0  0  0  0  0  0  0  0  0  0  0  # atno 17370 bound_to 10713
  157.3290  131.0696  151.1875 LP  0  0  0  0  0  0  0  0  0  0  0  0  # atno 17371 bound_to 10713
  140.1491  134.9242  157.2569 LP  0  0  0  0  0  0  0  0  0  0  0  0  # atno 17394 bound_to 11000
  140.2744  134.3422  155.7363 LP  0  0  0  0  0  0  0  0  0  0  0  0  # atno 17395 bound_to 11000

$$$$
