AV-unprocessed.smi:2007|AV-procd|sdf|8136|dock4
  -GOLD-   2272010373D 1   1.00000     0.00000
 Structure written by MMmdl.
 37 38  0  0  0  0  0  0  0  0  2 V2000
  146.8274  141.6416  154.0005 C   0  0  0  0  0  0  0  0  0  0  0  0
  148.0010  140.8870  154.6398 C   0  0  1  0  0  0  0  0  0  0  0  0
  148.6827  139.9472  153.6178 C   0  0  0  0  0  0  0  0  0  0  0  0
  147.8778  138.7390  153.3058 N   0  3  0  0  0  0  0  0  0  0  0  0
  147.4469  137.9871  154.5095 C   0  0  0  0  0  0  0  0  0  0  0  0
  146.6920  136.7127  154.0966 C   0  0  0  0  0  0  0  0  0  0  0  0
  145.5793  137.0624  153.2819 O   0  0  0  0  0  0  0  0  0  0  0  0
  145.9800  137.7183  152.0849 C   0  0  0  0  0  0  0  0  0  0  0  0
  146.7169  139.0235  152.4309 C   0  0  0  0  0  0  0  0  0  0  0  0
  148.9459  141.8602  155.1904 N   0  0  0  0  0  0  0  0  0  0  0  0
  149.4758  141.8357  156.4229 C   0  0  0  0  0  0  0  0  0  0  0  0
  149.2484  140.9439  157.2407 O   0  0  0  0  0  0  0  0  0  0  0  0
  150.2787  142.8937  156.6305 N   0  0  0  0  0  0  0  0  0  0  0  0
  151.0465  143.1974  157.7853 C   0  0  0  0  0  0  0  0  0  0  0  0
  151.3687  142.3081  158.7321 N   0  0  0  0  0  0  0  0  0  0  0  0
  152.1336  142.8818  159.7512 C   0  0  0  0  0  0  0  0  0  0  0  0
  152.3891  144.2170  159.5607 C   0  0  0  0  0  0  0  0  0  0  0  0
  151.6761  144.8106  158.0847 S   0  0  0  0  0  0  0  0  0  0  0  0
  146.0796  140.9482  153.6143 H   0  0  0  0  0  0  0  0  0  0  0  0
  147.1594  142.2674  153.1712 H   0  0  0  0  0  0  0  0  0  0  0  0
  146.3316  142.2864  154.7270 H   0  0  0  0  0  0  0  0  0  0  0  0
  147.5860  140.2936  155.4556 H   0  0  0  0  0  0  0  0  0  0  0  0
  148.9097  140.4809  152.6936 H   0  0  0  0  0  0  0  0  0  0  0  0
  149.6442  139.6391  154.0318 H   0  0  0  0  0  0  0  0  0  0  0  0
  148.3088  137.7151  155.1180 H   0  0  0  0  0  0  0  0  0  0  0  0
  146.8053  138.6169  155.1277 H   0  0  0  0  0  0  0  0  0  0  0  0
  147.3501  136.0257  153.5618 H   0  0  0  0  0  0  0  0  0  0  0  0
  146.3317  136.1861  154.9803 H   0  0  0  0  0  0  0  0  0  0  0  0
  146.6148  137.0590  151.4905 H   0  0  0  0  0  0  0  0  0  0  0  0
  145.0951  137.9334  151.4859 H   0  0  0  0  0  0  0  0  0  0  0  0
  146.0404  139.7174  152.9324 H   0  0  0  0  0  0  0  0  0  0  0  0
  147.0527  139.5069  151.5128 H   0  0  0  0  0  0  0  0  0  0  0  0
  149.1929  142.6335  154.5897 H   0  0  0  0  0  0  0  0  0  0  0  0
  150.3526  143.5592  155.8752 H   0  0  0  0  0  0  0  0  0  0  0  0
  152.4556  142.2647  160.5769 H   0  0  0  0  0  0  0  0  0  0  0  0
  152.9518  144.8844  160.1968 H   0  0  0  0  0  0  0  0  0  0  0  0
  148.4827  138.1240  152.7795 H   0  0  0  0  0  0  0  0  0  0  0  0
  1  2  1  0  0  0  0
  1 19  1  0  0  0  0
  1 20  1  0  0  0  0
  1 21  1  0  0  0  0
  2  3  1  0  0  0  0
  2 10  1  0  0  0  0
  2 22  1  0  0  0  0
  3  4  1  0  0  0  0
  3 23  1  0  0  0  0
  3 24  1  0  0  0  0
  4  9  1  0  0  0  0
  4  5  1  0  0  0  0
  4 37  1  0  0  0  0
  5  6  1  0  0  0  0
  5 25  1  0  0  0  0
  5 26  1  0  0  0  0
  6  7  1  0  0  0  0
  6 27  1  0  0  0  0
  6 28  1  0  0  0  0
  7  8  1  0  0  0  0
  8  9  1  0  0  0  0
  8 29  1  0  0  0  0
  8 30  1  0  0  0  0
  9 31  1  0  0  0  0
  9 32  1  0  0  0  0
 10 11  1  0  0  0  0
 10 33  1  0  0  0  0
 11 12  2  0  0  0  0
 11 13  1  0  0  0  0
 13 14  1  0  0  0  0
 13 34  1  0  0  0  0
 14 18  1  0  0  0  0
 14 15  2  0  0  0  0
 15 16  1  0  0  0  0
 16 17  2  0  0  0  0
 16 35  1  0  0  0  0
 17 18  1  0  0  0  0
 17 36  1  0  0  0  0
M  CHG  1   4   1
M  END
> <s_m_source_file>
AV-unprocessed.smi

> <i_m_source_file_index>
2007

> <i_lp_mmshare_version>
43012

> <i_f3d_flags>
0

> <s_epik_input>
W0NIMl0xW0NIMl1PW0NIMl1bQ0gyXU4xW0NIMl1bQ0BASF0oW0NIM10pW05IXUMoPU8pW05IXWMybltjSF1bY0hdczI=

> <s_epik_cmdline>
J2VwaWtfcHl0aG9uJywgJy1waCcsICc3LjAnLCAnLXRuJywgJzgnLCAnLW1hJywgJzIwMCcsICctbWV0YWxfYmluZGluZycsICctaW1hZScsICc8aW5maWxlLm1hZT4nLCAnLW9tYWUnLCAnPG91dGZpbGUubWFlPic=

> <r_lp_tautomer_probability>
0.999

> <r_epik_Ionization_Penalty>
0.695848

> <r_epik_Ionization_Penalty_Charging>
0.695697

> <r_epik_Ionization_Penalty_Neutral>
0.000150585

> <r_epik_State_Penalty>
0.717972

> <r_epik_Charging_Adjusted_Penalty>
1.41367

> <i_epik_Tot_Q>
1

> <i_epik_Tot_abs_Q>
1

> <r_epik_Metal_State_Penalty>
0.763271

> <b_epik_Metal_Only>
0

> <s_lp_Force_Field>
OPLS_2005

> <r_lp_Energy>
20.6539

> <b_lp_Chiralities_Consistent>
1

> <s_lp_Variant>
AV-unprocessed.smi:2007-4

> <Gold.Version>
5.8.1

> <Gold.Id.Protein>
6NUR|6NUR_protein|mol2

> <Gold.PLP.Fitness>
38.6158

> <Gold.PLP.PLP>
-33.2916

> <Gold.PLP.part.hbond>
-3.9194

> <Gold.PLP.part.metal>
0.0000

> <Gold.PLP.part.buried>
1.3334

> <Gold.PLP.part.nonpolar>
-31.6434

> <Gold.PLP.part.repulsive>
0.5176

> <Gold.PLP.ligand.clash>
0.0000

> <Gold.PLP.ligand.torsion>
0.3769

> <Gold.PLP.Chemscore.Hbond>
2.0187

> <Gold.PLP.Chemscore.CHOScore>
0.0000

> <Gold.PLP.Chemscore.Metal>
0.0000

> <Gold.Chemscore.Hbonds>
donor molecule, donor type, donor heavy atom, donor atom, acceptor molecule, acceptor atom, score
      L1  H     4    37       P1  7948  1.50
      L1  H    10    33       P1  8028  0.05
      L1  H    13    34       P1  8028  0.34

> <Gold.PLP.Chemscore.Internal.Correction>
0.0218

> <Gold.Rescore>
     Score         DG    S(hbond)    S(metal)    S(lipo)     H(rot)  DE(clash)    DE(int)     intcor
     11.80     -14.01       1.00        0.00      80.17       1.63       1.59       0.63       ----

> <Gold.Chemscore.Fitness>
11.7964

> <Gold.Chemscore.DG>
-14.0143

> <Gold.Chemscore.ZeroCoef>
-5.4800

> <Gold.Chemscore.Hbond>
0.9966

> <Gold.Chemscore.Metal>
0.0000

> <Gold.Chemscore.Lipo>
80.1693

> <Gold.Chemscore.Internal_Hbond>
0.0000

> <Gold.Chemscore.DEClash>
1.5909

> <Gold.Chemscore.DEInternal>
0.6269

> <Gold.Chemscore.Rot>
1.6306

> <Gold.Chemscore.Internal.Correction>
   9.000000E+99

> <Gold.Chemscore.Hbonds>
donor molecule, donor type, donor heavy atom, donor atom, acceptor molecule, acceptor atom, score
      L1  H     4    37       P1  7948  0.73
      L1  H    10    33       P1  8028  0.06
      L1  H    13    34       P1  8028  0.34

> <Gold.Chemscore.Hbond.Weighted>
-3.3287

> <Gold.Chemscore.Metal.Weighted>
-0.0000

> <Gold.Chemscore.Lipo.Weighted>
-9.3798

> <Gold.Chemscore.Internal_Hbond.Weighted>
0.0000

> <Gold.Chemscore.DEClash.Weighted>
1.5909

> <Gold.Chemscore.DEInternal.Weighted>
0.6269

> <Gold.Chemscore.Rot.Weighted>
4.1743

> <Gold.Chemscore.Internal.Correction.Weighted>
   9.000000E+99

> <Gold.Protein.RotatedTorsions>
[ 6907 6896 6895 6894 ] final   88.09 input  -60.11 | X-H torsion
[ 7974 7965 7964 7962 ] final  149.53 input  175.53 | X-H torsion
[ 8008 7997 7996 7995 ] final  -80.10 input   59.86 | X-H torsion
[ 10167 10162 10161 10158 ] final  -51.68 input  -65.29 | X-H torsion
[ 10718 10713 10712 10709 ] final -157.29 input   66.30 | X-H torsion
[ 10763 10752 10751 10750 ] final  -64.21 input  -60.55 | X-H torsion
[ 11005 11000 10999 10996 ] final  -67.34 input  -57.11 | X-H torsion

> <Gold.Protein.ActiveResidues>
 VAL166  LYS551  ARG553  GLY616  TRP617  ASP618  TYR619  PRO620  LYS621  CYS622 
 ASP623  PHE694  ASN695  SER759  ASP760  ASP761  ALA762  ILE779  LEU786  VAL792 
 PHE793  MET794  SER795  GLU796  ALA797  LYS798  CYS799  TRP800  GLU811  SER814 

> <Gold.Protein.RotatedAtoms>
  152.5420  134.2176  159.8774 H   0  0  0  0  0  0  0  0  0  0  0  0  # atno 6907 bound_to 6896
  151.2155  133.4525  159.2607 H   0  0  0  0  0  0  0  0  0  0  0  0  # atno 6908 bound_to 6896
  151.0856  134.9898  159.8433 H   0  0  0  0  0  0  0  0  0  0  0  0  # atno 6909 bound_to 6896
  144.8431  139.6292  143.6007 H   0  0  0  0  0  0  0  0  0  0  0  0  # atno 7974 bound_to 7965
  154.5850  140.0668  156.9158 H   0  0  0  0  0  0  0  0  0  0  0  0  # atno 8008 bound_to 7997
  155.2395  140.3343  155.4275 H   0  0  0  0  0  0  0  0  0  0  0  0  # atno 8009 bound_to 7997
  156.2216  140.1801  156.7447 H   0  0  0  0  0  0  0  0  0  0  0  0  # atno 8010 bound_to 7997
  140.6576  143.2611  151.4538 H   0  0  0  0  0  0  0  0  0  0  0  0  # atno 10167 bound_to 10162
  156.5383  130.8552  151.2740 H   0  0  0  0  0  0  0  0  0  0  0  0  # atno 10718 bound_to 10713
  154.3266  135.6185  153.5532 H   0  0  0  0  0  0  0  0  0  0  0  0  # atno 10763 bound_to 10752
  152.9815  135.5737  154.5009 H   0  0  0  0  0  0  0  0  0  0  0  0  # atno 10764 bound_to 10752
  154.4688  135.2858  155.1635 H   0  0  0  0  0  0  0  0  0  0  0  0  # atno 10765 bound_to 10752
  141.1505  133.6717  156.6277 H   0  0  0  0  0  0  0  0  0  0  0  0  # atno 11005 bound_to 11000
  146.2720  139.6659  142.9289 LP  0  0  0  0  0  0  0  0  0  0  0  0  # atno 17320 bound_to 7965
  145.4653  141.0434  143.2729 LP  0  0  0  0  0  0  0  0  0  0  0  0  # atno 17321 bound_to 7965
  139.5802  144.1727  152.1958 LP  0  0  0  0  0  0  0  0  0  0  0  0  # atno 17342 bound_to 10162
  140.1050  144.5507  150.6963 LP  0  0  0  0  0  0  0  0  0  0  0  0  # atno 17343 bound_to 10162
  157.7410  130.9861  150.2414 LP  0  0  0  0  0  0  0  0  0  0  0  0  # atno 17370 bound_to 10713
  156.2995  130.3756  149.7764 LP  0  0  0  0  0  0  0  0  0  0  0  0  # atno 17371 bound_to 10713
  140.3491  134.7784  157.4454 LP  0  0  0  0  0  0  0  0  0  0  0  0  # atno 17394 bound_to 11000
  140.0875  134.5646  155.8477 LP  0  0  0  0  0  0  0  0  0  0  0  0  # atno 17395 bound_to 11000

$$$$
