AV-unprocessed.smi:634|AV-procd|sdf|3138|dock5
  -GOLD-   22720 0 63D 1   1.00000     0.00000
 Structure written by MMmdl.
 32 33  0  0  0  0  0  0  0  0  2 V2000
  146.1522  133.9407  162.3218 C   0  0  0  0  0  0  0  0  0  0  0  0
  146.8420  135.0212  161.5621 C   0  0  0  0  0  0  0  0  0  0  0  0
  148.0833  135.1148  160.9987 C   0  0  0  0  0  0  0  0  0  0  0  0
  148.0833  136.4190  160.4359 C   0  0  0  0  0  0  0  0  0  0  0  0
  149.2249  136.9105  159.7496 N   0  0  0  0  0  0  0  0  0  0  0  0
  149.2889  137.8325  158.7724 C   0  0  0  0  0  0  0  0  0  0  0  0
  148.2568  138.3516  158.3343 O   0  0  0  0  0  0  0  0  0  0  0  0
  150.5710  138.0760  158.3790 N   0  5  0  0  0  0  0  0  0  0  0  0
  151.0276  138.7635  157.1570 C   0  0  2  0  0  0  0  0  0  0  0  0
  151.6217  140.1151  157.6055 C   0  0  0  0  0  0  0  0  0  0  0  0
  149.8619  139.0166  156.1621 C   0  0  0  0  0  0  0  0  0  0  0  0
  150.4357  139.3934  154.7868 C   0  0  0  0  0  0  0  0  0  0  0  0
  152.0480  138.5269  154.6555 S   0  0  0  0  0  0  0  0  0  0  0  0
  151.9109  137.3653  153.7631 O   0  0  0  0  0  0  0  0  0  0  0  0
  153.1082  139.5231  154.4333 O   0  0  0  0  0  0  0  0  0  0  0  0
  152.0990  137.9463  156.3980 C   0  0  0  0  0  0  0  0  0  0  0  0
  146.9420  137.0618  160.6363 N   0  0  0  0  0  0  0  0  0  0  0  0
  146.1409  136.1693  161.3583 O   0  0  0  0  0  0  0  0  0  0  0  0
  146.8600  133.1747  162.6385 H   0  0  0  0  0  0  0  0  0  0  0  0
  145.3892  133.4637  161.7066 H   0  0  0  0  0  0  0  0  0  0  0  0
  145.6683  134.3413  163.2127 H   0  0  0  0  0  0  0  0  0  0  0  0
  148.8658  134.3706  160.9931 H   0  0  0  0  0  0  0  0  0  0  0  0
  150.1105  136.5286  160.0462 H   0  0  0  0  0  0  0  0  0  0  0  0
  152.0051  140.6935  156.7651 H   0  0  0  0  0  0  0  0  0  0  0  0
  152.4495  139.9739  158.3018 H   0  0  0  0  0  0  0  0  0  0  0  0
  150.8745  140.7309  158.1079 H   0  0  0  0  0  0  0  0  0  0  0  0
  149.2735  138.1096  156.0267 H   0  0  0  0  0  0  0  0  0  0  0  0
  149.1700  139.7773  156.5255 H   0  0  0  0  0  0  0  0  0  0  0  0
  149.7837  139.0951  153.9658 H   0  0  0  0  0  0  0  0  0  0  0  0
  150.6160  140.4663  154.7102 H   0  0  0  0  0  0  0  0  0  0  0  0
  153.1031  138.0683  156.8042 H   0  0  0  0  0  0  0  0  0  0  0  0
  151.8738  136.8807  156.3815 H   0  0  0  0  0  0  0  0  0  0  0  0
  1  2  1  0  0  0  0
  1 19  1  0  0  0  0
  1 20  1  0  0  0  0
  1 21  1  0  0  0  0
  2 18  1  0  0  0  0
  2  3  2  0  0  0  0
  3  4  1  0  0  0  0
  3 22  1  0  0  0  0
  4  5  1  0  0  0  0
  4 17  2  0  0  0  0
  5  6  1  0  0  0  0
  5 23  1  0  0  0  0
  6  7  2  0  0  0  0
  6  8  1  0  0  0  0
  8  9  1  0  0  0  0
  9 16  1  0  0  0  0
  9 10  1  0  0  0  0
  9 11  1  0  0  0  0
 10 24  1  0  0  0  0
 10 25  1  0  0  0  0
 10 26  1  0  0  0  0
 11 12  1  0  0  0  0
 11 27  1  0  0  0  0
 11 28  1  0  0  0  0
 12 13  1  0  0  0  0
 12 29  1  0  0  0  0
 12 30  1  0  0  0  0
 13 14  2  0  0  0  0
 13 15  2  0  0  0  0
 13 16  1  0  0  0  0
 16 31  1  0  0  0  0
 16 32  1  0  0  0  0
 17 18  1  0  0  0  0
M  CHG  1   8  -1
M  END
> <s_m_source_file>
AV-unprocessed.smi

> <i_m_source_file_index>
634

> <i_lp_mmshare_version>
43012

> <i_f3d_flags>
0

> <s_epik_input>
W0NIM11jMVtjSF1jKG5vMSlbTkhdQyg9TylbTkhdW0NAQF0yKFtDSDNdKVtDSDJdW0NIMl1TKD1PKSg9TylbQ0gyXTI=

> <s_epik_cmdline>
J2VwaWtfcHl0aG9uJywgJy1waCcsICc3LjAnLCAnLXRuJywgJzgnLCAnLW1hJywgJzIwMCcsICctbWV0YWxfYmluZGluZycsICctaW1hZScsICc8aW5maWxlLm1hZT4nLCAnLW9tYWUnLCAnPG91dGZpbGUubWFlPic=

> <r_lp_tautomer_probability>
1

> <r_epik_Ionization_Penalty>
6.62388

> <r_epik_Ionization_Penalty_Charging>
6.62387

> <r_epik_Ionization_Penalty_Neutral>
5.45748e-06

> <r_epik_State_Penalty>
6.65157

> <r_epik_Charging_Adjusted_Penalty>
13.2754

> <i_epik_Tot_Q>
-1

> <i_epik_Tot_abs_Q>
1

> <r_epik_Metal_State_Penalty>
2.59195

> <b_epik_Metal_Only>
1

> <s_lp_Force_Field>
OPLS_2005

> <r_lp_Energy>
8.10378

> <b_lp_Chiralities_Consistent>
1

> <s_lp_Variant>
AV-unprocessed.smi:634-6

> <Gold.Version>
5.8.1

> <Gold.Id.Protein>
6NUR|6NUR_protein|mol2

> <Gold.PLP.Fitness>
33.2664

> <Gold.PLP.PLP>
-24.6606

> <Gold.PLP.part.hbond>
-4.8420

> <Gold.PLP.part.metal>
0.0000

> <Gold.PLP.part.buried>
-5.4023

> <Gold.PLP.part.nonpolar>
-17.0444

> <Gold.PLP.part.repulsive>
1.7485

> <Gold.PLP.ligand.clash>
0.0000

> <Gold.PLP.ligand.torsion>
0.3443

> <Gold.PLP.Chemscore.Hbond>
3.0950

> <Gold.PLP.Chemscore.CHOScore>
0.0000

> <Gold.PLP.Chemscore.Metal>
0.0000

> <Gold.Chemscore.Hbonds>
donor molecule, donor type, donor heavy atom, donor atom, acceptor molecule, acceptor atom, score
      P1  H  6934  6947       L1    17  1.00
      P1  H  7989  7998       L1    15  0.11
      P1  H  7997  8009       L1    15  0.57
      P1  H 10752 10763       L1    14  1.00

> <Gold.PLP.Chemscore.Internal.Correction>
0.0094

> <Gold.Rescore>
     Score         DG    S(hbond)    S(metal)    S(lipo)     H(rot)  DE(clash)    DE(int)     intcor
     14.31     -17.31       2.73        0.00      45.04       1.00       0.17       2.82       ----

> <Gold.Chemscore.Fitness>
14.3099

> <Gold.Chemscore.DG>
-17.3074

> <Gold.Chemscore.ZeroCoef>
-5.4800

> <Gold.Chemscore.Hbond>
2.7299

> <Gold.Chemscore.Metal>
0.0000

> <Gold.Chemscore.Lipo>
45.0378

> <Gold.Chemscore.Internal_Hbond>
0.0000

> <Gold.Chemscore.DEClash>
0.1731

> <Gold.Chemscore.DEInternal>
2.8243

> <Gold.Chemscore.Rot>
1.0000

> <Gold.Chemscore.Internal.Correction>
   9.000000E+99

> <Gold.Chemscore.Hbonds>
donor molecule, donor type, donor heavy atom, donor atom, acceptor molecule, acceptor atom, score
      P1  H  6934  6947       L1    17  0.83
      P1  H  7989  7998       L1    15  0.01
      P1  H  7997  8009       L1    15  0.55
      P1  H 10752 10763       L1    14  0.89

> <Gold.Chemscore.Hbond.Weighted>
-9.1180

> <Gold.Chemscore.Metal.Weighted>
-0.0000

> <Gold.Chemscore.Lipo.Weighted>
-5.2694

> <Gold.Chemscore.Internal_Hbond.Weighted>
0.0000

> <Gold.Chemscore.DEClash.Weighted>
0.1731

> <Gold.Chemscore.DEInternal.Weighted>
2.8243

> <Gold.Chemscore.Rot.Weighted>
2.5600

> <Gold.Chemscore.Internal.Correction.Weighted>
   9.000000E+99

> <Gold.Protein.RotatedTorsions>
[ 6907 6896 6895 6894 ] final  -89.88 input  -60.11 | X-H torsion
[ 7974 7965 7964 7962 ] final  118.67 input  175.53 | X-H torsion
[ 8008 7997 7996 7995 ] final -150.06 input   59.86 | X-H torsion
[ 10167 10162 10161 10158 ] final -126.67 input  -65.29 | X-H torsion
[ 10718 10713 10712 10709 ] final  -15.81 input   66.30 | X-H torsion
[ 10763 10752 10751 10750 ] final   32.67 input  -60.55 | X-H torsion
[ 11005 11000 10999 10996 ] final   -3.04 input  -57.11 | X-H torsion

> <Gold.Protein.ActiveResidues>
 VAL166  LYS551  ARG553  GLY616  TRP617  ASP618  TYR619  PRO620  LYS621  CYS622 
 ASP623  PHE694  ASN695  SER759  ASP760  ASP761  ALA762  ILE779  LEU786  VAL792 
 PHE793  MET794  SER795  GLU796  ALA797  LYS798  CYS799  TRP800  GLU811  SER814 

> <Gold.Protein.RotatedAtoms>
  150.6877  134.2519  159.4513 H   0  0  0  0  0  0  0  0  0  0  0  0  # atno 6907 bound_to 6896
  152.0456  134.9682  160.0583 H   0  0  0  0  0  0  0  0  0  0  0  0  # atno 6908 bound_to 6896
  152.1167  133.4296  159.4693 H   0  0  0  0  0  0  0  0  0  0  0  0  # atno 6909 bound_to 6896
  145.1524  139.3202  143.4559 H   0  0  0  0  0  0  0  0  0  0  0  0  # atno 7974 bound_to 7965
  155.6175  140.0678  157.2688 H   0  0  0  0  0  0  0  0  0  0  0  0  # atno 8008 bound_to 7997
  154.4237  140.1790  156.1385 H   0  0  0  0  0  0  0  0  0  0  0  0  # atno 8009 bound_to 7997
  156.0036  140.3333  155.6873 H   0  0  0  0  0  0  0  0  0  0  0  0  # atno 8010 bound_to 7997
  139.9689  143.5867  152.2419 H   0  0  0  0  0  0  0  0  0  0  0  0  # atno 10167 bound_to 10162
  156.5965  130.4812  149.6257 H   0  0  0  0  0  0  0  0  0  0  0  0  # atno 10718 bound_to 10713
  153.0250  135.6407  154.1392 H   0  0  0  0  0  0  0  0  0  0  0  0  # atno 10763 bound_to 10752
  154.1122  135.2852  155.3229 H   0  0  0  0  0  0  0  0  0  0  0  0  # atno 10764 bound_to 10752
  154.6323  135.5488  153.7757 H   0  0  0  0  0  0  0  0  0  0  0  0  # atno 10765 bound_to 10752
  140.6649  133.9287  155.8459 H   0  0  0  0  0  0  0  0  0  0  0  0  # atno 11005 bound_to 11000
  146.3493  140.1604  142.8591 LP  0  0  0  0  0  0  0  0  0  0  0  0  # atno 17320 bound_to 7965
  145.0416  140.8950  143.5049 LP  0  0  0  0  0  0  0  0  0  0  0  0  # atno 17321 bound_to 7965
  139.6496  144.7660  151.2175 LP  0  0  0  0  0  0  0  0  0  0  0  0  # atno 17342 bound_to 10162
  140.7528  143.6183  150.8538 LP  0  0  0  0  0  0  0  0  0  0  0  0  # atno 17343 bound_to 10162
  156.2506  130.6904  151.1641 LP  0  0  0  0  0  0  0  0  0  0  0  0  # atno 17370 bound_to 10713
  157.7290  131.0627  150.5792 LP  0  0  0  0  0  0  0  0  0  0  0  0  # atno 17371 bound_to 10713
  141.0436  134.0585  157.3871 LP  0  0  0  0  0  0  0  0  0  0  0  0  # atno 17394 bound_to 11000
  139.9000  135.0161  156.7223 LP  0  0  0  0  0  0  0  0  0  0  0  0  # atno 17395 bound_to 11000

$$$$
