AV-unprocessed.smi:2944|AV-procd|sdf|11274|dock5
  -GOLD-   2272016163D 1   1.00000     0.00000
 Structure written by MMmdl.
 45 47  0  0  0  0  0  0  0  0  2 V2000
  153.7161  137.9353  159.2335 C   0  0  0  0  0  0  0  0  0  0  0  0
  153.7805  138.6810  158.0308 O   0  0  0  0  0  0  0  0  0  0  0  0
  152.5131  139.1736  157.6265 C   0  0  0  0  0  0  0  0  0  0  0  0
  151.9345  140.0937  158.7112 C   0  0  0  0  0  0  0  0  0  0  0  0
  151.5047  141.3963  158.1797 N   0  0  0  0  0  0  0  0  0  0  0  0
  150.8327  141.7032  157.0355 C   0  0  0  0  0  0  0  0  0  0  0  0
  150.2242  140.5646  155.8342 S   0  0  0  0  0  0  0  0  0  0  0  0
  148.4143  140.7601  155.8401 C   0  0  2  0  0  0  0  0  0  0  0  0
  147.7364  139.3853  155.7206 C   0  0  0  0  0  0  0  0  0  0  0  0
  147.9425  141.7144  154.7210 C   0  0  0  0  0  0  0  0  0  0  0  0
  148.7298  141.9289  153.7957 O   0  0  0  0  0  0  0  0  0  0  0  0
  146.7204  142.3114  154.8185 N   0  0  0  0  0  0  0  0  0  0  0  0
  146.2166  143.3190  153.8837 C   0  0  0  0  0  0  0  0  0  0  0  0
  144.8153  143.6449  154.3819 C   0  0  0  0  0  0  0  0  0  0  0  0
  144.7105  142.8002  155.5436 N   0  0  0  0  0  0  0  0  0  0  0  0
  145.7946  142.0562  155.7750 C   0  0  0  0  0  0  0  0  0  0  0  0
  145.8826  141.2651  156.7146 O   0  0  0  0  0  0  0  0  0  0  0  0
  150.6809  143.0552  156.9921 N   0  3  0  0  0  0  0  0  0  0  0  0
  151.2378  143.6227  158.1380 C   0  0  0  0  0  0  0  0  0  0  0  0
  151.3102  144.9488  158.5521 C   0  0  0  0  0  0  0  0  0  0  0  0
  151.9460  145.1915  159.7873 C   0  0  0  0  0  0  0  0  0  0  0  0
  152.4789  144.1382  160.5584 C   0  0  0  0  0  0  0  0  0  0  0  0
  152.4001  142.7974  160.1278 C   0  0  0  0  0  0  0  0  0  0  0  0
  151.7701  142.5645  158.9053 C   0  0  0  0  0  0  0  0  0  0  0  0
  154.7151  137.5961  159.5070 H   0  0  0  0  0  0  0  0  0  0  0  0
  153.0804  137.0566  159.1184 H   0  0  0  0  0  0  0  0  0  0  0  0
  153.3307  138.5412  160.0544 H   0  0  0  0  0  0  0  0  0  0  0  0
  152.6083  139.7245  156.6898 H   0  0  0  0  0  0  0  0  0  0  0  0
  151.8313  138.3419  157.4446 H   0  0  0  0  0  0  0  0  0  0  0  0
  151.0937  139.6189  159.2165 H   0  0  0  0  0  0  0  0  0  0  0  0
  152.6852  140.2805  159.4795 H   0  0  0  0  0  0  0  0  0  0  0  0
  148.1479  141.1432  156.8222 H   0  0  0  0  0  0  0  0  0  0  0  0
  146.6498  139.4783  155.7076 H   0  0  0  0  0  0  0  0  0  0  0  0
  147.9987  138.7493  156.5664 H   0  0  0  0  0  0  0  0  0  0  0  0
  148.0382  138.8625  154.8120 H   0  0  0  0  0  0  0  0  0  0  0  0
  146.8470  144.2095  153.8922 H   0  0  0  0  0  0  0  0  0  0  0  0
  146.1747  142.9286  152.8685 H   0  0  0  0  0  0  0  0  0  0  0  0
  144.7089  144.6952  154.6553 H   0  0  0  0  0  0  0  0  0  0  0  0
  144.0497  143.3867  153.6489 H   0  0  0  0  0  0  0  0  0  0  0  0
  143.8856  142.7841  156.1260 H   0  0  0  0  0  0  0  0  0  0  0  0
  150.9007  145.7571  157.9639 H   0  0  0  0  0  0  0  0  0  0  0  0
  152.0254  146.2055  160.1513 H   0  0  0  0  0  0  0  0  0  0  0  0
  152.9573  144.3627  161.5009 H   0  0  0  0  0  0  0  0  0  0  0  0
  152.8058  141.9986  160.7307 H   0  0  0  0  0  0  0  0  0  0  0  0
  150.2138  143.5481  156.2415 H   0  0  0  0  0  0  0  0  0  0  0  0
  1  2  1  0  0  0  0
  1 25  1  0  0  0  0
  1 26  1  0  0  0  0
  1 27  1  0  0  0  0
  2  3  1  0  0  0  0
  3  4  1  0  0  0  0
  3 28  1  0  0  0  0
  3 29  1  0  0  0  0
  4  5  1  0  0  0  0
  4 30  1  0  0  0  0
  4 31  1  0  0  0  0
  5 24  1  0  0  0  0
  5  6  1  0  0  0  0
  6  7  1  0  0  0  0
  6 18  2  0  0  0  0
  7  8  1  0  0  0  0
  8  9  1  0  0  0  0
  8 10  1  0  0  0  0
  8 32  1  0  0  0  0
  9 33  1  0  0  0  0
  9 34  1  0  0  0  0
  9 35  1  0  0  0  0
 10 11  2  0  0  0  0
 10 12  1  0  0  0  0
 12 16  1  0  0  0  0
 12 13  1  0  0  0  0
 13 14  1  0  0  0  0
 13 36  1  0  0  0  0
 13 37  1  0  0  0  0
 14 15  1  0  0  0  0
 14 38  1  0  0  0  0
 14 39  1  0  0  0  0
 15 16  1  0  0  0  0
 15 40  1  0  0  0  0
 16 17  2  0  0  0  0
 18 19  1  0  0  0  0
 18 45  1  0  0  0  0
 19 24  2  0  0  0  0
 19 20  1  0  0  0  0
 20 21  2  0  0  0  0
 20 41  1  0  0  0  0
 21 22  1  0  0  0  0
 21 42  1  0  0  0  0
 22 23  2  0  0  0  0
 22 43  1  0  0  0  0
 23 24  1  0  0  0  0
 23 44  1  0  0  0  0
M  CHG  1  18   1
M  END
> <s_m_source_file>
AV-unprocessed.smi

> <i_m_source_file_index>
2944

> <i_lp_mmshare_version>
43012

> <i_f3d_flags>
0

> <s_epik_input>
W2NIXTFbY0hdW2NIXVtjSF1jKGMxMiluKFtDSDJdW0NIMl1PW0NIM10pYyhuMilTW0NASF0oW0NIM10pQyg9TylOM1tDSDJdW0NIMl1bTkhdQzM9Tw==

> <s_epik_cmdline>
J2VwaWtfcHl0aG9uJywgJy1waCcsICc3LjAnLCAnLXRuJywgJzgnLCAnLW1hJywgJzIwMCcsICctbWV0YWxfYmluZGluZycsICctaW1hZScsICc8aW5maWxlLm1hZT4nLCAnLW9tYWUnLCAnPG91dGZpbGUubWFlPic=

> <r_lp_tautomer_probability>
0.9999

> <r_epik_Ionization_Penalty>
1.88808

> <r_epik_Ionization_Penalty_Charging>
1.88806

> <r_epik_Ionization_Penalty_Neutral>
2.68145e-05

> <r_epik_State_Penalty>
2.00836

> <r_epik_Charging_Adjusted_Penalty>
3.89641

> <i_epik_Tot_Q>
1

> <i_epik_Tot_abs_Q>
1

> <r_epik_Metal_State_Penalty>
2.03272

> <b_epik_Metal_Only>
0

> <s_lp_Force_Field>
OPLS_2005

> <r_lp_Energy>
42.6194

> <b_lp_Chiralities_Consistent>
1

> <s_lp_Variant>
AV-unprocessed.smi:2944-3

> <Gold.Version>
5.8.1

> <Gold.Id.Protein>
6NUR|6NUR_protein|mol2

> <Gold.PLP.Fitness>
54.3137

> <Gold.PLP.PLP>
-47.8189

> <Gold.PLP.part.hbond>
-3.0000

> <Gold.PLP.part.metal>
0.0000

> <Gold.PLP.part.buried>
-6.8495

> <Gold.PLP.part.nonpolar>
-38.3809

> <Gold.PLP.part.repulsive>
0.2418

> <Gold.PLP.ligand.clash>
0.8794

> <Gold.PLP.ligand.torsion>
1.6368

> <Gold.PLP.Chemscore.Hbond>
3.5120

> <Gold.PLP.Chemscore.CHOScore>
0.0000

> <Gold.PLP.Chemscore.Metal>
0.0000

> <Gold.Chemscore.Hbonds>
donor molecule, donor type, donor heavy atom, donor atom, acceptor molecule, acceptor atom, score
      L1  H    18    45       P1  8028  2.00
      P1  H  7997  8010       L1     2  0.99
      P1  H  8011  8017       L1    11  0.48

> <Gold.PLP.Chemscore.Internal.Correction>
0.1117

> <Gold.Rescore>
     Score         DG    S(hbond)    S(metal)    S(lipo)     H(rot)  DE(clash)    DE(int)     intcor
     15.08     -19.63       2.22        0.00     107.93       2.30       0.04       4.51       ----

> <Gold.Chemscore.Fitness>
15.0824

> <Gold.Chemscore.DG>
-19.6309

> <Gold.Chemscore.ZeroCoef>
-5.4800

> <Gold.Chemscore.Hbond>
2.2181

> <Gold.Chemscore.Metal>
0.0000

> <Gold.Chemscore.Lipo>
107.9262

> <Gold.Chemscore.Internal_Hbond>
0.0000

> <Gold.Chemscore.DEClash>
0.0419

> <Gold.Chemscore.DEInternal>
4.5067

> <Gold.Chemscore.Rot>
2.2988

> <Gold.Chemscore.Internal.Correction>
   9.000000E+99

> <Gold.Chemscore.Hbonds>
donor molecule, donor type, donor heavy atom, donor atom, acceptor molecule, acceptor atom, score
      L1  H    18    45       P1  8028  0.94
      P1  H  7997  8010       L1     2  0.28
      P1  H  8011  8017       L1    11  0.48

> <Gold.Chemscore.Hbond.Weighted>
-7.4085

> <Gold.Chemscore.Metal.Weighted>
-0.0000

> <Gold.Chemscore.Lipo.Weighted>
-12.6274

> <Gold.Chemscore.Internal_Hbond.Weighted>
0.0000

> <Gold.Chemscore.DEClash.Weighted>
0.0419

> <Gold.Chemscore.DEInternal.Weighted>
4.5067

> <Gold.Chemscore.Rot.Weighted>
5.8850

> <Gold.Chemscore.Internal.Correction.Weighted>
   9.000000E+99

> <Gold.Protein.RotatedTorsions>
[ 6907 6896 6895 6894 ] final  -56.32 input  -60.11 | X-H torsion
[ 7974 7965 7964 7962 ] final  115.83 input  175.53 | X-H torsion
[ 8008 7997 7996 7995 ] final    9.00 input   59.86 | X-H torsion
[ 10167 10162 10161 10158 ] final  -56.53 input  -65.29 | X-H torsion
[ 10718 10713 10712 10709 ] final   -2.11 input   66.30 | X-H torsion
[ 10763 10752 10751 10750 ] final   23.76 input  -60.55 | X-H torsion
[ 11005 11000 10999 10996 ] final  120.03 input  -57.11 | X-H torsion

> <Gold.Protein.ActiveResidues>
 VAL166  LYS551  ARG553  GLY616  TRP617  ASP618  TYR619  PRO620  LYS621  CYS622 
 ASP623  PHE694  ASN695  SER759  ASP760  ASP761  ALA762  ILE779  LEU786  VAL792 
 PHE793  MET794  SER795  GLU796  ALA797  LYS798  CYS799  TRP800  GLU811  SER814 

> <Gold.Protein.RotatedAtoms>
  150.8177  134.7368  159.6744 H   0  0  0  0  0  0  0  0  0  0  0  0  # atno 6907 bound_to 6896
  152.4295  134.5802  159.9955 H   0  0  0  0  0  0  0  0  0  0  0  0  # atno 6908 bound_to 6896
  151.5994  133.3320  159.3080 H   0  0  0  0  0  0  0  0  0  0  0  0  # atno 6909 bound_to 6896
  145.1871  139.3019  143.4388 H   0  0  0  0  0  0  0  0  0  0  0  0  # atno 7974 bound_to 7965
  154.7742  140.2807  155.6114 H   0  0  0  0  0  0  0  0  0  0  0  0  # atno 8008 bound_to 7997
  156.2939  140.2635  156.2480 H   0  0  0  0  0  0  0  0  0  0  0  0  # atno 8009 bound_to 7997
  154.9863  140.0374  157.2289 H   0  0  0  0  0  0  0  0  0  0  0  0  # atno 8010 bound_to 7997
  140.6311  143.2460  151.5238 H   0  0  0  0  0  0  0  0  0  0  0  0  # atno 10167 bound_to 10162
  156.7957  130.5376  149.5729 H   0  0  0  0  0  0  0  0  0  0  0  0  # atno 10718 bound_to 10713
  153.0814  135.6620  154.0038 H   0  0  0  0  0  0  0  0  0  0  0  0  # atno 10763 bound_to 10752
  153.9658  135.2969  155.3432 H   0  0  0  0  0  0  0  0  0  0  0  0  # atno 10764 bound_to 10752
  154.7214  135.5163  153.8889 H   0  0  0  0  0  0  0  0  0  0  0  0  # atno 10765 bound_to 10752
  139.9169  134.9632  156.7746 H   0  0  0  0  0  0  0  0  0  0  0  0  # atno 11005 bound_to 11000
  146.3443  140.2070  142.8589 LP  0  0  0  0  0  0  0  0  0  0  0  0  # atno 17320 bound_to 7965
  145.0078  140.8688  143.5242 LP  0  0  0  0  0  0  0  0  0  0  0  0  # atno 17321 bound_to 7965
  139.5525  144.2358  152.1556 LP  0  0  0  0  0  0  0  0  0  0  0  0  # atno 17342 bound_to 10162
  140.1602  144.5033  150.6637 LP  0  0  0  0  0  0  0  0  0  0  0  0  # atno 17343 bound_to 10162
  156.1132  130.6055  151.0079 LP  0  0  0  0  0  0  0  0  0  0  0  0  # atno 17370 bound_to 10713
  157.6578  131.0886  150.7906 LP  0  0  0  0  0  0  0  0  0  0  0  0  # atno 17371 bound_to 10713
  140.6594  133.9659  155.7796 LP  0  0  0  0  0  0  0  0  0  0  0  0  # atno 17394 bound_to 11000
  141.0654  134.0284  157.3601 LP  0  0  0  0  0  0  0  0  0  0  0  0  # atno 17395 bound_to 11000

$$$$
