AV-unprocessed.smi:2850|AV-procd|sdf|10966|dock8
  -GOLD-   2272015423D 1   1.00000     0.00000
 Structure written by MMmdl.
 45 46  0  0  0  0  0  0  0  0  2 V2000
  150.9299  139.6009  159.4361 C   0  0  0  0  0  0  0  0  0  0  0  0
  151.7198  137.9677  159.4516 S   0  0  0  0  0  0  0  0  0  0  0  0
  151.0197  137.0342  158.1247 C   0  0  0  0  0  0  0  0  0  0  0  0
  151.1003  137.5008  156.8004 C   0  0  0  0  0  0  0  0  0  0  0  0
  150.5216  136.6961  155.8038 C   0  0  0  0  0  0  0  0  0  0  0  0
  149.9102  135.4915  156.2059 C   0  0  0  0  0  0  0  0  0  0  0  0
  149.3298  134.6695  155.2291 N   0  0  0  0  0  0  0  0  0  0  0  0
  149.0301  133.2662  155.4876 C   0  0  0  0  0  0  0  0  0  0  0  0
  147.9052  132.7279  154.5866 C   0  0  1  0  0  0  0  0  0  0  0  0
  148.3877  132.5230  153.1361 C   0  0  0  0  0  0  0  0  0  0  0  0
  147.3196  131.9360  152.2903 N   0  3  2  0  0  0  0  0  0  0  0  0
  146.2798  132.9174  151.8767 C   0  0  0  0  0  0  0  0  0  0  0  0
  145.3183  132.3598  150.8054 C   0  0  0  0  0  0  0  0  0  0  0  0
  146.0057  132.2099  149.4379 C   0  0  0  0  0  0  0  0  0  0  0  0
  144.0740  133.2518  150.6834 C   0  0  0  0  0  0  0  0  0  0  0  0
  146.7912  130.6940  152.9101 C   0  0  0  0  0  0  0  0  0  0  0  0
  146.3897  130.9222  154.3799 C   0  0  0  0  0  0  0  0  0  0  0  0
  147.4894  131.4659  155.0994 O   0  0  0  0  0  0  0  0  0  0  0  0
  149.8700  135.1076  157.5077 N   0  0  0  0  0  0  0  0  0  0  0  0
  150.4203  135.8689  158.4598 N   0  0  0  0  0  0  0  0  0  0  0  0
  151.3337  140.2191  160.2378 H   0  0  0  0  0  0  0  0  0  0  0  0
  149.8537  139.5084  159.5818 H   0  0  0  0  0  0  0  0  0  0  0  0
  151.1134  140.1044  158.4868 H   0  0  0  0  0  0  0  0  0  0  0  0
  151.5845  138.4354  156.5583 H   0  0  0  0  0  0  0  0  0  0  0  0
  150.5489  136.9957  154.7663 H   0  0  0  0  0  0  0  0  0  0  0  0
  149.1987  135.0267  154.2935 H   0  0  0  0  0  0  0  0  0  0  0  0
  149.9371  132.6746  155.3568 H   0  0  0  0  0  0  0  0  0  0  0  0
  148.7482  133.1610  156.5356 H   0  0  0  0  0  0  0  0  0  0  0  0
  147.0651  133.4240  154.5968 H   0  0  0  0  0  0  0  0  0  0  0  0
  148.7410  133.4609  152.7060 H   0  0  0  0  0  0  0  0  0  0  0  0
  149.2420  131.8444  153.1285 H   0  0  0  0  0  0  0  0  0  0  0  0
  145.7206  133.2567  152.7488 H   0  0  0  0  0  0  0  0  0  0  0  0
  146.7616  133.8069  151.4680 H   0  0  0  0  0  0  0  0  0  0  0  0
  144.9695  131.3746  151.1139 H   0  0  0  0  0  0  0  0  0  0  0  0
  146.3747  133.1686  149.0719 H   0  0  0  0  0  0  0  0  0  0  0  0
  145.3138  131.8155  148.6930 H   0  0  0  0  0  0  0  0  0  0  0  0
  146.8516  131.5241  149.4881 H   0  0  0  0  0  0  0  0  0  0  0  0
  144.3387  134.2621  150.3699 H   0  0  0  0  0  0  0  0  0  0  0  0
  143.5478  133.3260  151.6355 H   0  0  0  0  0  0  0  0  0  0  0  0
  143.3717  132.8501  149.9524 H   0  0  0  0  0  0  0  0  0  0  0  0
  145.9537  130.2908  152.3421 H   0  0  0  0  0  0  0  0  0  0  0  0
  147.5761  129.9374  152.8701 H   0  0  0  0  0  0  0  0  0  0  0  0
  145.5239  131.5804  154.4620 H   0  0  0  0  0  0  0  0  0  0  0  0
  146.1057  129.9752  154.8391 H   0  0  0  0  0  0  0  0  0  0  0  0
  147.7724  131.6600  151.4305 H   0  0  0  0  0  0  0  0  0  0  0  0
  1  2  1  0  0  0  0
  1 21  1  0  0  0  0
  1 22  1  0  0  0  0
  1 23  1  0  0  0  0
  2  3  1  0  0  0  0
  3 20  1  0  0  0  0
  3  4  2  0  0  0  0
  4  5  1  0  0  0  0
  4 24  1  0  0  0  0
  5  6  2  0  0  0  0
  5 25  1  0  0  0  0
  6  7  1  0  0  0  0
  6 19  1  0  0  0  0
  7  8  1  0  0  0  0
  7 26  1  0  0  0  0
  8  9  1  0  0  0  0
  8 27  1  0  0  0  0
  8 28  1  0  0  0  0
  9 18  1  0  0  0  0
  9 10  1  0  0  0  0
  9 29  1  0  0  0  0
 10 11  1  0  0  0  0
 10 30  1  0  0  0  0
 10 31  1  0  0  0  0
 11 12  1  0  0  0  0
 11 16  1  0  0  0  0
 11 45  1  0  0  0  0
 12 13  1  0  0  0  0
 12 32  1  0  0  0  0
 12 33  1  0  0  0  0
 13 14  1  0  0  0  0
 13 15  1  0  0  0  0
 13 34  1  0  0  0  0
 14 35  1  0  0  0  0
 14 36  1  0  0  0  0
 14 37  1  0  0  0  0
 15 38  1  0  0  0  0
 15 39  1  0  0  0  0
 15 40  1  0  0  0  0
 16 17  1  0  0  0  0
 16 41  1  0  0  0  0
 16 42  1  0  0  0  0
 17 18  1  0  0  0  0
 17 43  1  0  0  0  0
 17 44  1  0  0  0  0
 19 20  2  0  0  0  0
M  CHG  1  11   1
M  END
> <s_m_source_file>
AV-unprocessed.smi

> <i_m_source_file_index>
2850

> <i_lp_mmshare_version>
43012

> <i_f3d_flags>
0

> <s_epik_input>
W0NIM11TYzFbY0hdW2NIXWMobm4xKVtOSF1bQ0gyXVtDQEBIXTJbQ0gyXU4oW0NIMl1bQ0gyXU8yKVtDSDJdW0NIXShbQ0gzXSlbQ0gzXQ==

> <s_epik_cmdline>
J2VwaWtfcHl0aG9uJywgJy1waCcsICc3LjAnLCAnLXRuJywgJzgnLCAnLW1hJywgJzIwMCcsICctbWV0YWxfYmluZGluZycsICctaW1hZScsICc8aW5maWxlLm1hZT4nLCAnLW9tYWUnLCAnPG91dGZpbGUubWFlPic=

> <r_lp_tautomer_probability>
0.999978

> <r_epik_Ionization_Penalty>
0.0874875

> <r_epik_Ionization_Penalty_Charging>
0.0831532

> <r_epik_Ionization_Penalty_Neutral>
0.00433433

> <r_epik_State_Penalty>
0.0738301

> <r_epik_Charging_Adjusted_Penalty>
0.156983

> <i_epik_Tot_Q>
1

> <i_epik_Tot_abs_Q>
1

> <r_epik_Metal_State_Penalty>
0.073888

> <b_epik_Metal_Only>
0

> <s_lp_Force_Field>
OPLS_2005

> <r_lp_Energy>
26.339

> <b_lp_Chiralities_Consistent>
1

> <s_lp_Variant>
AV-unprocessed.smi:2850-2

> <Gold.Version>
5.8.1

> <Gold.Id.Protein>
6NUR|6NUR_protein|mol2

> <Gold.PLP.Fitness>
39.4008

> <Gold.PLP.PLP>
-34.1640

> <Gold.PLP.part.hbond>
-2.2321

> <Gold.PLP.part.metal>
0.0000

> <Gold.PLP.part.buried>
-4.7750

> <Gold.PLP.part.nonpolar>
-27.8248

> <Gold.PLP.part.repulsive>
0.0504

> <Gold.PLP.ligand.clash>
0.0000

> <Gold.PLP.ligand.torsion>
0.4413

> <Gold.PLP.Chemscore.Hbond>
2.0000

> <Gold.PLP.Chemscore.CHOScore>
0.0000

> <Gold.PLP.Chemscore.Metal>
0.0000

> <Gold.Chemscore.Hbonds>
donor molecule, donor type, donor heavy atom, donor atom, acceptor molecule, acceptor atom, score
      L1  H    11    45       P1 10747  1.00
      P1  H  6896  6908       L1    20  0.26

> <Gold.PLP.Chemscore.Internal.Correction>
0.1194

> <Gold.Rescore>
     Score         DG    S(hbond)    S(metal)    S(lipo)     H(rot)  DE(clash)    DE(int)     intcor
     18.08     -18.63       1.89        0.00      93.57       1.60       0.00       0.55       ----

> <Gold.Chemscore.Fitness>
18.0795

> <Gold.Chemscore.DG>
-18.6269

> <Gold.Chemscore.ZeroCoef>
-5.4800

> <Gold.Chemscore.Hbond>
1.8852

> <Gold.Chemscore.Metal>
0.0000

> <Gold.Chemscore.Lipo>
93.5654

> <Gold.Chemscore.Internal_Hbond>
0.0000

> <Gold.Chemscore.DEClash>
0.0018

> <Gold.Chemscore.DEInternal>
0.5456

> <Gold.Chemscore.Rot>
1.6003

> <Gold.Chemscore.Internal.Correction>
   9.000000E+99

> <Gold.Chemscore.Hbonds>
donor molecule, donor type, donor heavy atom, donor atom, acceptor molecule, acceptor atom, score
      L1  H    11    45       P1 10747  1.00
      P1  H  6896  6908       L1    20  0.01

> <Gold.Chemscore.Hbond.Weighted>
-6.2966

> <Gold.Chemscore.Metal.Weighted>
-0.0000

> <Gold.Chemscore.Lipo.Weighted>
-10.9472

> <Gold.Chemscore.Internal_Hbond.Weighted>
0.0000

> <Gold.Chemscore.DEClash.Weighted>
0.0018

> <Gold.Chemscore.DEInternal.Weighted>
0.5456

> <Gold.Chemscore.Rot.Weighted>
4.0968

> <Gold.Chemscore.Internal.Correction.Weighted>
   9.000000E+99

> <Gold.Protein.RotatedTorsions>
[ 6907 6896 6895 6894 ] final  157.00 input  -60.11 | X-H torsion
[ 7974 7965 7964 7962 ] final  146.15 input  175.53 | X-H torsion
[ 8008 7997 7996 7995 ] final  112.27 input   59.86 | X-H torsion
[ 10167 10162 10161 10158 ] final  127.06 input  -65.29 | X-H torsion
[ 10718 10713 10712 10709 ] final -155.66 input   66.30 | X-H torsion
[ 10763 10752 10751 10750 ] final   -8.70 input  -60.55 | X-H torsion
[ 11005 11000 10999 10996 ] final  120.03 input  -57.11 | X-H torsion

> <Gold.Protein.ActiveResidues>
 VAL166  LYS551  ARG553  GLY616  TRP617  ASP618  TYR619  PRO620  LYS621  CYS622 
 ASP623  PHE694  ASN695  SER759  ASP760  ASP761  ALA762  ILE779  LEU786  VAL792 
 PHE793  MET794  SER795  GLU796  ALA797  LYS798  CYS799  TRP800  GLU811  SER814 

> <Gold.Protein.RotatedAtoms>
  152.0215  133.3900  159.4259 H   0  0  0  0  0  0  0  0  0  0  0  0  # atno 6907 bound_to 6896
  150.6890  134.3621  159.4964 H   0  0  0  0  0  0  0  0  0  0  0  0  # atno 6908 bound_to 6896
  152.1395  134.9073  160.0605 H   0  0  0  0  0  0  0  0  0  0  0  0  # atno 6909 bound_to 6896
  144.8694  139.5870  143.5894 H   0  0  0  0  0  0  0  0  0  0  0  0  # atno 7974 bound_to 7965
  156.2181  140.3003  155.9886 H   0  0  0  0  0  0  0  0  0  0  0  0  # atno 8008 bound_to 7997
  155.2554  140.0427  157.3008 H   0  0  0  0  0  0  0  0  0  0  0  0  # atno 8009 bound_to 7997
  154.5798  140.2372  155.8078 H   0  0  0  0  0  0  0  0  0  0  0  0  # atno 8010 bound_to 7997
  139.5598  144.6874  151.4077 H   0  0  0  0  0  0  0  0  0  0  0  0  # atno 10167 bound_to 10162
  156.5159  130.8456  151.2664 H   0  0  0  0  0  0  0  0  0  0  0  0  # atno 10718 bound_to 10713
  153.4443  135.7014  153.6149 H   0  0  0  0  0  0  0  0  0  0  0  0  # atno 10763 bound_to 10752
  153.4511  135.3758  155.2284 H   0  0  0  0  0  0  0  0  0  0  0  0  # atno 10764 bound_to 10752
  154.8728  135.3997  154.3846 H   0  0  0  0  0  0  0  0  0  0  0  0  # atno 10765 bound_to 10752
  139.9169  134.9632  156.7746 H   0  0  0  0  0  0  0  0  0  0  0  0  # atno 11005 bound_to 11000
  146.2919  139.7165  142.9154 LP  0  0  0  0  0  0  0  0  0  0  0  0  # atno 17320 bound_to 7965
  145.4159  141.0401  143.2991 LP  0  0  0  0  0  0  0  0  0  0  0  0  # atno 17321 bound_to 7965
  140.6876  143.7937  150.7208 LP  0  0  0  0  0  0  0  0  0  0  0  0  # atno 17342 bound_to 10162
  140.1410  143.4441  152.2194 LP  0  0  0  0  0  0  0  0  0  0  0  0  # atno 17343 bound_to 10162
  157.7444  130.9934  150.2670 LP  0  0  0  0  0  0  0  0  0  0  0  0  # atno 17370 bound_to 10713
  156.3196  130.3784  149.7587 LP  0  0  0  0  0  0  0  0  0  0  0  0  # atno 17371 bound_to 10713
  140.6593  133.9659  155.7796 LP  0  0  0  0  0  0  0  0  0  0  0  0  # atno 17394 bound_to 11000
  141.0654  134.0284  157.3601 LP  0  0  0  0  0  0  0  0  0  0  0  0  # atno 17395 bound_to 11000

$$$$
