AV-unprocessed.smi:1563|AV-procd|sdf|6289|dock6
  -GOLD-   22720 6483D 1   1.00000     0.00000
 Structure written by MMmdl.
 43 44  0  0  0  0  0  0  0  0  1 V2000
  146.0418  144.9845  160.0277 C   0  0  0  0  0  0  0  0  0  0  0  0
  147.4201  144.4723  160.4314 C   0  0  0  0  0  0  0  0  0  0  0  0
  147.5694  143.8753  161.4969 O   0  0  0  0  0  0  0  0  0  0  0  0
  148.4182  144.7145  159.5681 N   0  0  0  0  0  0  0  0  0  0  0  0
  149.8114  144.3214  159.7571 C   0  0  2  0  0  0  0  0  0  0  0  0
  150.6801  145.5794  159.9714 C   0  0  0  0  0  0  0  0  0  0  0  0
  152.1841  145.2476  159.9831 C   0  0  0  0  0  0  0  0  0  0  0  0
  152.5673  144.3998  158.7585 C   0  0  0  0  0  0  0  0  0  0  0  0
  151.7372  143.1830  158.7513 N   0  0  0  0  0  0  0  0  0  0  0  0
  152.1576  141.9188  159.0121 C   0  0  0  0  0  0  0  0  0  0  0  0
  151.4277  140.9318  158.9115 O   0  0  0  0  0  0  0  0  0  0  0  0
  153.4388  141.8266  159.4079 N   0  0  0  0  0  0  0  0  0  0  0  0
  154.1667  140.5935  159.6960 C   0  0  0  0  0  0  0  0  0  0  0  0
  154.5733  140.5017  161.1782 C   0  0  0  0  0  0  0  0  0  0  0  0
  154.5780  139.0833  161.7249 C   0  0  0  0  0  0  0  0  0  0  0  0
  155.1277  138.8076  162.9951 C   0  0  0  0  0  0  0  0  0  0  0  0
  155.0965  137.4809  163.4666 C   0  0  0  0  0  0  0  0  0  0  0  0
  154.5194  136.4856  162.6546 C   0  0  0  0  0  0  0  0  0  0  0  0
  153.9959  136.8633  161.4020 C   0  0  0  0  0  0  0  0  0  0  0  0
  154.0223  138.1318  160.9397 N   0  0  0  0  0  0  0  0  0  0  0  0
  150.3199  143.5084  158.5448 C   0  0  0  0  0  0  0  0  0  0  0  0
  145.7622  144.5981  159.0471 H   0  0  0  0  0  0  0  0  0  0  0  0
  146.0388  146.0740  159.9845 H   0  0  0  0  0  0  0  0  0  0  0  0
  145.2851  144.6689  160.7468 H   0  0  0  0  0  0  0  0  0  0  0  0
  148.1971  145.2111  158.7174 H   0  0  0  0  0  0  0  0  0  0  0  0
  149.8890  143.7014  160.6526 H   0  0  0  0  0  0  0  0  0  0  0  0
  150.4875  146.2924  159.1684 H   0  0  0  0  0  0  0  0  0  0  0  0
  150.4011  146.0791  160.8997 H   0  0  0  0  0  0  0  0  0  0  0  0
  152.7683  146.1679  160.0015 H   0  0  0  0  0  0  0  0  0  0  0  0
  152.4323  144.7034  160.8953 H   0  0  0  0  0  0  0  0  0  0  0  0
  152.3806  144.9640  157.8438 H   0  0  0  0  0  0  0  0  0  0  0  0
  153.6401  144.2063  158.7586 H   0  0  0  0  0  0  0  0  0  0  0  0
  153.9658  142.6850  159.4751 H   0  0  0  0  0  0  0  0  0  0  0  0
  153.5220  139.7523  159.4407 H   0  0  0  0  0  0  0  0  0  0  0  0
  155.0553  140.4983  159.0703 H   0  0  0  0  0  0  0  0  0  0  0  0
  155.5646  140.9365  161.3146 H   0  0  0  0  0  0  0  0  0  0  0  0
  153.8956  141.1093  161.7793 H   0  0  0  0  0  0  0  0  0  0  0  0
  155.5594  139.5939  163.5969 H   0  0  0  0  0  0  0  0  0  0  0  0
  155.5067  137.2316  164.4341 H   0  0  0  0  0  0  0  0  0  0  0  0
  154.4775  135.4580  162.9838 H   0  0  0  0  0  0  0  0  0  0  0  0
  153.5447  136.1268  160.7537 H   0  0  0  0  0  0  0  0  0  0  0  0
  149.7035  142.6193  158.4033 H   0  0  0  0  0  0  0  0  0  0  0  0
  150.2138  144.0880  157.6263 H   0  0  0  0  0  0  0  0  0  0  0  0
  1  2  1  0  0  0  0
  1 22  1  0  0  0  0
  1 23  1  0  0  0  0
  1 24  1  0  0  0  0
  2  3  2  0  0  0  0
  2  4  1  0  0  0  0
  4  5  1  0  0  0  0
  4 25  1  0  0  0  0
  5 21  1  0  0  0  0
  5  6  1  0  0  0  0
  5 26  1  0  0  0  0
  6  7  1  0  0  0  0
  6 27  1  0  0  0  0
  6 28  1  0  0  0  0
  7  8  1  0  0  0  0
  7 29  1  0  0  0  0
  7 30  1  0  0  0  0
  8  9  1  0  0  0  0
  8 31  1  0  0  0  0
  8 32  1  0  0  0  0
  9 10  1  0  0  0  0
  9 21  1  0  0  0  0
 10 11  2  0  0  0  0
 10 12  1  0  0  0  0
 12 13  1  0  0  0  0
 12 33  1  0  0  0  0
 13 14  1  0  0  0  0
 13 34  1  0  0  0  0
 13 35  1  0  0  0  0
 14 15  1  0  0  0  0
 14 36  1  0  0  0  0
 14 37  1  0  0  0  0
 15 20  1  0  0  0  0
 15 16  2  0  0  0  0
 16 17  1  0  0  0  0
 16 38  1  0  0  0  0
 17 18  2  0  0  0  0
 17 39  1  0  0  0  0
 18 19  1  0  0  0  0
 18 40  1  0  0  0  0
 19 20  2  0  0  0  0
 19 41  1  0  0  0  0
 21 42  1  0  0  0  0
 21 43  1  0  0  0  0
M  END
> <s_m_source_file>
AV-unprocessed.smi

> <i_m_source_file_index>
1563

> <i_lp_mmshare_version>
43012

> <i_f3d_flags>
0

> <s_epik_input>
W0NIM11DKD1PKVtOSF1bQ0BASF0xW0NIMl1bQ0gyXVtDSDJdTihbQ0gyXTEpQyg9TylbTkhdW0NIMl1bQ0gyXWMyW2NIXVtjSF1bY0hdW2NIXW4y

> <s_epik_cmdline>
J2VwaWtfcHl0aG9uJywgJy1waCcsICc3LjAnLCAnLXRuJywgJzgnLCAnLW1hJywgJzIwMCcsICctbWV0YWxfYmluZGluZycsICctaW1hZScsICc8aW5maWxlLm1hZT4nLCAnLW9tYWUnLCAnPG91dGZpbGUubWFlPic=

> <r_epik_Ionization_Penalty>
0.0442074

> <r_epik_Ionization_Penalty_Charging>
0

> <r_epik_Ionization_Penalty_Neutral>
0.0442074

> <r_epik_State_Penalty>
0.0374027

> <r_epik_Charging_Adjusted_Penalty>
0.0374027

> <i_epik_Tot_Q>
0

> <i_epik_Tot_abs_Q>
0

> <r_epik_Metal_State_Penalty>
0.0347963

> <b_epik_Metal_Only>
0

> <s_lp_Force_Field>
OPLS_2005

> <r_lp_Energy>
29.1558

> <b_lp_Chiralities_Consistent>
1

> <s_lp_Variant>
AV-unprocessed.smi:1563-1

> <Gold.Version>
5.8.1

> <Gold.Id.Protein>
6NUR|6NUR_protein|mol2

> <Gold.PLP.Fitness>
46.9464

> <Gold.PLP.PLP>
-41.7665

> <Gold.PLP.part.hbond>
-2.0000

> <Gold.PLP.part.metal>
0.0000

> <Gold.PLP.part.buried>
-5.9349

> <Gold.PLP.part.nonpolar>
-33.1840

> <Gold.PLP.part.repulsive>
0.3663

> <Gold.PLP.ligand.clash>
0.0000

> <Gold.PLP.ligand.torsion>
0.4179

> <Gold.PLP.Chemscore.Hbond>
2.0000

> <Gold.PLP.Chemscore.CHOScore>
0.0000

> <Gold.PLP.Chemscore.Metal>
0.0000

> <Gold.Chemscore.Hbonds>
donor molecule, donor type, donor heavy atom, donor atom, acceptor molecule, acceptor atom, score
      L1  H     4    25       P1  8029  1.00
      P1  H  6933  6944       L1     3  1.00

> <Gold.PLP.Chemscore.Internal.Correction>
0.0157

> <Gold.Rescore>
     Score         DG    S(hbond)    S(metal)    S(lipo)     H(rot)  DE(clash)    DE(int)     intcor
     19.72     -20.35       1.96        0.00     107.92       1.68       0.05       0.59       ----

> <Gold.Chemscore.Fitness>
19.7172

> <Gold.Chemscore.DG>
-20.3493

> <Gold.Chemscore.ZeroCoef>
-5.4800

> <Gold.Chemscore.Hbond>
1.9601

> <Gold.Chemscore.Metal>
0.0000

> <Gold.Chemscore.Lipo>
107.9213

> <Gold.Chemscore.Internal_Hbond>
0.0000

> <Gold.Chemscore.DEClash>
0.0469

> <Gold.Chemscore.DEInternal>
0.5852

> <Gold.Chemscore.Rot>
1.6813

> <Gold.Chemscore.Internal.Correction>
   9.000000E+99

> <Gold.Chemscore.Hbonds>
donor molecule, donor type, donor heavy atom, donor atom, acceptor molecule, acceptor atom, score
      L1  H     4    25       P1  8029  1.00
      P1  H  6933  6944       L1     3  0.95

> <Gold.Chemscore.Hbond.Weighted>
-6.5468

> <Gold.Chemscore.Metal.Weighted>
-0.0000

> <Gold.Chemscore.Lipo.Weighted>
-12.6268

> <Gold.Chemscore.Internal_Hbond.Weighted>
0.0000

> <Gold.Chemscore.DEClash.Weighted>
0.0469

> <Gold.Chemscore.DEInternal.Weighted>
0.5852

> <Gold.Chemscore.Rot.Weighted>
4.3042

> <Gold.Chemscore.Internal.Correction.Weighted>
   9.000000E+99

> <Gold.Protein.RotatedTorsions>
[ 6907 6896 6895 6894 ] final   55.03 input  -60.11 | X-H torsion
[ 7974 7965 7964 7962 ] final -162.04 input  175.53 | X-H torsion
[ 8008 7997 7996 7995 ] final   -7.89 input   59.86 | X-H torsion
[ 10167 10162 10161 10158 ] final -179.53 input  -65.29 | X-H torsion
[ 10718 10713 10712 10709 ] final  -63.93 input   66.30 | X-H torsion
[ 10763 10752 10751 10750 ] final  120.27 input  -60.55 | X-H torsion
[ 11005 11000 10999 10996 ] final   -7.21 input  -57.11 | X-H torsion

> <Gold.Protein.ActiveResidues>
 VAL166  LYS551  ARG553  GLY616  TRP617  ASP618  TYR619  PRO620  LYS621  CYS622 
 ASP623  PHE694  ASN695  SER759  ASP760  ASP761  ALA762  ILE779  LEU786  VAL792 
 PHE793  MET794  SER795  GLU796  ALA797  LYS798  CYS799  TRP800  GLU811  SER814 

> <Gold.Protein.RotatedAtoms>
  152.3498  134.7021  160.0239 H   0  0  0  0  0  0  0  0  0  0  0  0  # atno 6907 bound_to 6896
  151.7378  133.3315  159.3365 H   0  0  0  0  0  0  0  0  0  0  0  0  # atno 6908 bound_to 6896
  150.7533  134.6238  159.6195 H   0  0  0  0  0  0  0  0  0  0  0  0  # atno 6909 bound_to 6896
  144.7371  140.3311  143.6153 H   0  0  0  0  0  0  0  0  0  0  0  0  # atno 7974 bound_to 7965
  154.5794  140.2395  155.8075 H   0  0  0  0  0  0  0  0  0  0  0  0  # atno 8008 bound_to 7997
  156.2168  140.3010  155.9814 H   0  0  0  0  0  0  0  0  0  0  0  0  # atno 8009 bound_to 7997
  155.2568  140.0413  157.2983 H   0  0  0  0  0  0  0  0  0  0  0  0  # atno 8010 bound_to 7997
  139.5382  144.2438  152.0839 H   0  0  0  0  0  0  0  0  0  0  0  0  # atno 10167 bound_to 10162
  156.0760  130.4227  150.1347 H   0  0  0  0  0  0  0  0  0  0  0  0  # atno 10718 bound_to 10713
  153.5958  135.3457  155.2927 H   0  0  0  0  0  0  0  0  0  0  0  0  # atno 10763 bound_to 10752
  154.8644  135.4216  154.2466 H   0  0  0  0  0  0  0  0  0  0  0  0  # atno 10764 bound_to 10752
  153.3283  135.7042  153.7041 H   0  0  0  0  0  0  0  0  0  0  0  0  # atno 10765 bound_to 10752
  140.7103  133.8914  155.8746 H   0  0  0  0  0  0  0  0  0  0  0  0  # atno 11005 bound_to 11000
  145.7471  139.1782  143.2343 LP  0  0  0  0  0  0  0  0  0  0  0  0  # atno 17320 bound_to 7965
  146.1090  140.7452  142.9512 LP  0  0  0  0  0  0  0  0  0  0  0  0  # atno 17321 bound_to 7965
  140.1912  144.4750  150.6478 LP  0  0  0  0  0  0  0  0  0  0  0  0  # atno 17342 bound_to 10162
  140.6599  143.2249  151.5880 LP  0  0  0  0  0  0  0  0  0  0  0  0  # atno 17343 bound_to 10162
  156.9388  130.9738  151.3520 LP  0  0  0  0  0  0  0  0  0  0  0  0  # atno 17370 bound_to 10713
  157.5856  130.8407  149.8584 LP  0  0  0  0  0  0  0  0  0  0  0  0  # atno 17371 bound_to 10713
  141.0090  134.1047  157.4241 LP  0  0  0  0  0  0  0  0  0  0  0  0  # atno 17394 bound_to 11000
  139.8873  135.0089  156.6554 LP  0  0  0  0  0  0  0  0  0  0  0  0  # atno 17395 bound_to 11000

$$$$
