AV-unprocessed.smi:2361|AV-procd|sdf|9411|dock6
  -GOLD-   2272013 43D 1   1.00000     0.00000
 Structure written by MMmdl.
 26 27  0  0  0  0  0  0  0  0  1 V2000
  154.0713  144.3215  164.5611 O   0  0  0  0  0  0  0  0  0  0  0  0
  154.6245  143.2222  164.5958 C   0  0  0  0  0  0  0  0  0  0  0  0
  154.4743  142.2629  163.6646 N   0  0  0  0  0  0  0  0  0  0  0  0
  153.6893  142.2938  162.4782 C   0  0  0  0  0  0  0  0  0  0  0  0
  152.8193  143.3621  162.1472 C   0  0  0  0  0  0  0  0  0  0  0  0
  152.0895  143.4057  161.0127 N   0  0  0  0  0  0  0  0  0  0  0  0
  152.2025  142.3776  160.1470 C   0  0  0  0  0  0  0  0  0  0  0  0
  153.0476  141.2724  160.3643 C   0  0  0  0  0  0  0  0  0  0  0  0
  153.1338  140.0078  159.1903 Cl  0  0  0  0  0  0  0  0  0  0  0  0
  153.8104  141.2319  161.5518 C   0  0  0  0  0  0  0  0  0  0  0  0
  154.8701  139.8994  161.8674 Cl  0  0  0  0  0  0  0  0  0  0  0  0
  155.5516  142.8705  165.7654 C   0  0  2  0  0  0  0  0  0  0  0  0
  156.2455  141.5015  165.6309 C   0  0  0  0  0  0  0  0  0  0  0  0
  155.6041  140.6629  166.7196 C   0  0  0  0  0  0  0  0  0  0  0  0
  155.2315  141.7186  167.7501 C   0  0  0  0  0  0  0  0  0  0  0  0
  154.7603  142.7904  166.9494 O   0  0  0  0  0  0  0  0  0  0  0  0
  154.9206  141.3796  163.8662 H   0  0  0  0  0  0  0  0  0  0  0  0
  152.7089  144.2251  162.7854 H   0  0  0  0  0  0  0  0  0  0  0  0
  151.6045  142.4423  159.2498 H   0  0  0  0  0  0  0  0  0  0  0  0
  156.3051  143.6491  165.8968 H   0  0  0  0  0  0  0  0  0  0  0  0
  156.1424  141.0409  164.6475 H   0  0  0  0  0  0  0  0  0  0  0  0
  157.3128  141.6114  165.8258 H   0  0  0  0  0  0  0  0  0  0  0  0
  154.7036  140.1791  166.3389 H   0  0  0  0  0  0  0  0  0  0  0  0
  156.2675  139.8934  167.1149 H   0  0  0  0  0  0  0  0  0  0  0  0
  154.4715  141.3758  168.4524 H   0  0  0  0  0  0  0  0  0  0  0  0
  156.1076  142.0405  168.3154 H   0  0  0  0  0  0  0  0  0  0  0  0
  1  2  2  0  0  0  0
  2  3  1  0  0  0  0
  2 12  1  0  0  0  0
  3  4  1  0  0  0  0
  3 17  1  0  0  0  0
  4 10  1  0  0  0  0
  4  5  2  0  0  0  0
  5  6  1  0  0  0  0
  5 18  1  0  0  0  0
  6  7  2  0  0  0  0
  7  8  1  0  0  0  0
  7 19  1  0  0  0  0
  8  9  1  0  0  0  0
  8 10  2  0  0  0  0
 10 11  1  0  0  0  0
 12 16  1  0  0  0  0
 12 13  1  0  0  0  0
 12 20  1  0  0  0  0
 13 14  1  0  0  0  0
 13 21  1  0  0  0  0
 13 22  1  0  0  0  0
 14 15  1  0  0  0  0
 14 23  1  0  0  0  0
 14 24  1  0  0  0  0
 15 16  1  0  0  0  0
 15 25  1  0  0  0  0
 15 26  1  0  0  0  0
M  END
> <s_m_source_file>
AV-unprocessed.smi

> <i_m_source_file_index>
2361

> <i_lp_mmshare_version>
43012

> <i_f3d_flags>
0

> <s_epik_input>
TzFbQ0gyXVtDSDJdW0NIMl1bQ0BIXTFDKD1PKVtOSF1jMltjSF1uW2NIXWMoQ2wpYzJDbA==

> <s_epik_cmdline>
J2VwaWtfcHl0aG9uJywgJy1waCcsICc3LjAnLCAnLXRuJywgJzgnLCAnLW1hJywgJzIwMCcsICctbWV0YWxfYmluZGluZycsICctaW1hZScsICc8aW5maWxlLm1hZT4nLCAnLW9tYWUnLCAnPG91dGZpbGUubWFlPic=

> <r_lp_tautomer_probability>
1

> <r_epik_Ionization_Penalty>
7.18707e-06

> <r_epik_Ionization_Penalty_Charging>
0

> <r_epik_Ionization_Penalty_Neutral>
7.18707e-06

> <r_epik_State_Penalty>
-0

> <r_epik_Charging_Adjusted_Penalty>
0

> <i_epik_Tot_Q>
0

> <i_epik_Tot_abs_Q>
0

> <r_epik_Metal_State_Penalty>
-0

> <b_epik_Metal_Only>
0

> <s_lp_Force_Field>
OPLS_2005

> <r_lp_Energy>
24.4573

> <b_lp_Chiralities_Consistent>
1

> <s_lp_Variant>
AV-unprocessed.smi:2361-1

> <Gold.Version>
5.8.1

> <Gold.Id.Protein>
6NUR|6NUR_protein|mol2

> <Gold.PLP.Fitness>
36.7769

> <Gold.PLP.PLP>
-36.9074

> <Gold.PLP.part.hbond>
-1.7261

> <Gold.PLP.part.metal>
0.0000

> <Gold.PLP.part.buried>
-3.3738

> <Gold.PLP.part.nonpolar>
-30.2413

> <Gold.PLP.part.repulsive>
0.3619

> <Gold.PLP.ligand.clash>
0.0000

> <Gold.PLP.ligand.torsion>
0.0690

> <Gold.PLP.Chemscore.Hbond>
0.0000

> <Gold.PLP.Chemscore.CHOScore>
0.0000

> <Gold.PLP.Chemscore.Metal>
0.0000

> <Gold.PLP.Chemscore.Internal.Correction>
0.0075

> <Gold.Rescore>
     Score         DG    S(hbond)    S(metal)    S(lipo)     H(rot)  DE(clash)    DE(int)     intcor
     11.62     -13.92       0.00        0.00      94.03       1.00       0.93       1.37       ----

> <Gold.Chemscore.Fitness>
11.6213

> <Gold.Chemscore.DG>
-13.9215

> <Gold.Chemscore.ZeroCoef>
-5.4800

> <Gold.Chemscore.Hbond>
0.0000

> <Gold.Chemscore.Metal>
0.0000

> <Gold.Chemscore.Lipo>
94.0302

> <Gold.Chemscore.Internal_Hbond>
0.0000

> <Gold.Chemscore.DEClash>
0.9331

> <Gold.Chemscore.DEInternal>
1.3671

> <Gold.Chemscore.Rot>
1.0000

> <Gold.Chemscore.Internal.Correction>
   9.000000E+99

> <Gold.Chemscore.Hbond.Weighted>
-0.0000

> <Gold.Chemscore.Metal.Weighted>
-0.0000

> <Gold.Chemscore.Lipo.Weighted>
-11.0015

> <Gold.Chemscore.Internal_Hbond.Weighted>
0.0000

> <Gold.Chemscore.DEClash.Weighted>
0.9331

> <Gold.Chemscore.DEInternal.Weighted>
1.3671

> <Gold.Chemscore.Rot.Weighted>
2.5600

> <Gold.Chemscore.Internal.Correction.Weighted>
   9.000000E+99

> <Gold.Protein.RotatedTorsions>
[ 6907 6896 6895 6894 ] final -159.60 input  -60.11 | X-H torsion
[ 7974 7965 7964 7962 ] final   20.42 input  175.53 | X-H torsion
[ 8008 7997 7996 7995 ] final  -88.30 input   59.86 | X-H torsion
[ 10167 10162 10161 10158 ] final -120.14 input  -65.29 | X-H torsion
[ 10718 10713 10712 10709 ] final  133.89 input   66.30 | X-H torsion
[ 10763 10752 10751 10750 ] final  -26.75 input  -60.55 | X-H torsion
[ 11005 11000 10999 10996 ] final  144.03 input  -57.11 | X-H torsion

> <Gold.Protein.ActiveResidues>
 VAL166  LYS551  ARG553  GLY616  TRP617  ASP618  TYR619  PRO620  LYS621  CYS622 
 ASP623  PHE694  ASN695  SER759  ASP760  ASP761  ALA762  ILE779  LEU786  VAL792 
 PHE793  MET794  SER795  GLU796  ALA797  LYS798  CYS799  TRP800  GLU811  SER814 

> <Gold.Protein.RotatedAtoms>
  151.3361  133.3981  159.2666 H   0  0  0  0  0  0  0  0  0  0  0  0  # atno 6907 bound_to 6896
  150.9916  134.9250  159.7913 H   0  0  0  0  0  0  0  0  0  0  0  0  # atno 6908 bound_to 6896
  152.5249  134.3326  159.9241 H   0  0  0  0  0  0  0  0  0  0  0  0  # atno 6909 bound_to 6896
  146.2112  139.8171  142.8687 H   0  0  0  0  0  0  0  0  0  0  0  0  # atno 7974 bound_to 7965
  154.6732  140.0555  157.0187 H   0  0  0  0  0  0  0  0  0  0  0  0  # atno 8008 bound_to 7997
  155.1059  140.3233  155.4516 H   0  0  0  0  0  0  0  0  0  0  0  0  # atno 8009 bound_to 7997
  156.2665  140.2023  156.6184 H   0  0  0  0  0  0  0  0  0  0  0  0  # atno 8010 bound_to 7997
  140.0390  143.5172  152.2139 H   0  0  0  0  0  0  0  0  0  0  0  0  # atno 10167 bound_to 10162
  157.4727  131.1081  150.9782 H   0  0  0  0  0  0  0  0  0  0  0  0  # atno 10718 bound_to 10713
  153.7210  135.6945  153.5013 H   0  0  0  0  0  0  0  0  0  0  0  0  # atno 10763 bound_to 10752
  153.2203  135.4372  155.0481 H   0  0  0  0  0  0  0  0  0  0  0  0  # atno 10764 bound_to 10752
  154.8284  135.3459  154.6744 H   0  0  0  0  0  0  0  0  0  0  0  0  # atno 10765 bound_to 10752
  140.0600  134.9210  157.1168 H   0  0  0  0  0  0  0  0  0  0  0  0  # atno 11005 bound_to 11000
  145.3135  141.0226  143.3541 LP  0  0  0  0  0  0  0  0  0  0  0  0  # atno 17320 bound_to 7965
  144.8919  139.4764  143.6674 LP  0  0  0  0  0  0  0  0  0  0  0  0  # atno 17321 bound_to 7965
  139.6026  144.7587  151.3137 LP  0  0  0  0  0  0  0  0  0  0  0  0  # atno 17342 bound_to 10162
  140.7268  143.6980  150.7868 LP  0  0  0  0  0  0  0  0  0  0  0  0  # atno 17343 bound_to 10162
  157.0541  130.5799  149.5375 LP  0  0  0  0  0  0  0  0  0  0  0  0  # atno 17370 bound_to 10713
  156.0081  130.5170  150.7899 LP  0  0  0  0  0  0  0  0  0  0  0  0  # atno 17371 bound_to 10713
  140.3785  134.2313  155.7172 LP  0  0  0  0  0  0  0  0  0  0  0  0  # atno 17394 bound_to 11000
  141.1969  133.8072  157.0652 LP  0  0  0  0  0  0  0  0  0  0  0  0  # atno 17395 bound_to 11000

$$$$
