AV-unprocessed.smi:1236|AV-procd|sdf|5181|dock7
  -GOLD-   22720 4263D 1   1.00000     0.00000
 Structure written by MMmdl.
 40 41  0  0  0  0  0  0  0  0  2 V2000
  146.8267  139.7450  152.2191 C   0  0  0  0  0  0  0  0  0  0  0  0
  146.6567  138.6504  153.2813 C   0  0  2  0  0  0  0  0  0  0  0  0
  147.6570  138.8401  154.4458 C   0  0  0  0  0  0  0  0  0  0  0  0
  148.8798  138.0094  154.3055 N   0  3  0  0  0  0  0  0  0  0  0  0
  150.1328  138.7923  154.4099 C   0  0  0  0  0  0  0  0  0  0  0  0
  151.3489  137.8815  154.1680 C   0  0  0  0  0  0  0  0  0  0  0  0
  151.3307  136.8006  155.0928 O   0  0  0  0  0  0  0  0  0  0  0  0
  150.1665  135.9956  154.9501 C   0  0  0  0  0  0  0  0  0  0  0  0
  148.9173  136.8480  155.2267 C   0  0  0  0  0  0  0  0  0  0  0  0
  146.8158  137.3413  152.6449 N   0  0  0  0  0  0  0  0  0  0  0  0
  145.8332  136.4623  152.3942 C   0  0  0  0  0  0  0  0  0  0  0  0
  144.6568  136.6563  152.7019 O   0  0  0  0  0  0  0  0  0  0  0  0
  146.3059  135.3605  151.7860 N   0  0  0  0  0  0  0  0  0  0  0  0
  145.5918  134.1887  151.4188 C   0  0  0  0  0  0  0  0  0  0  0  0
  146.3941  133.0551  151.1576 C   0  0  0  0  0  0  0  0  0  0  0  0
  145.7807  131.8416  150.7909 C   0  0  0  0  0  0  0  0  0  0  0  0
  144.3786  131.7931  150.6950 C   0  0  0  0  0  0  0  0  0  0  0  0
  143.6537  132.9666  150.9725 C   0  0  0  0  0  0  0  0  0  0  0  0
  144.2396  134.1302  151.3261 N   0  0  0  0  0  0  0  0  0  0  0  0
  146.6696  140.7349  152.6487 H   0  0  0  0  0  0  0  0  0  0  0  0
  146.1073  139.6221  151.4086 H   0  0  0  0  0  0  0  0  0  0  0  0
  147.8262  139.7265  151.7831 H   0  0  0  0  0  0  0  0  0  0  0  0
  145.6386  138.7390  153.6629 H   0  0  0  0  0  0  0  0  0  0  0  0
  147.9425  139.8929  154.4776 H   0  0  0  0  0  0  0  0  0  0  0  0
  147.1800  138.6278  155.4038 H   0  0  0  0  0  0  0  0  0  0  0  0
  150.1299  139.5994  153.6761 H   0  0  0  0  0  0  0  0  0  0  0  0
  150.1966  139.2534  155.3968 H   0  0  0  0  0  0  0  0  0  0  0  0
  151.3518  137.5003  153.1456 H   0  0  0  0  0  0  0  0  0  0  0  0
  152.2726  138.4447  154.3011 H   0  0  0  0  0  0  0  0  0  0  0  0
  150.1281  135.5610  153.9497 H   0  0  0  0  0  0  0  0  0  0  0  0
  150.2202  135.1670  155.6561 H   0  0  0  0  0  0  0  0  0  0  0  0
  148.9238  137.1967  156.2605 H   0  0  0  0  0  0  0  0  0  0  0  0
  148.0256  136.2342  155.1026 H   0  0  0  0  0  0  0  0  0  0  0  0
  147.7511  137.0951  152.3546 H   0  0  0  0  0  0  0  0  0  0  0  0
  147.2930  135.3499  151.5752 H   0  0  0  0  0  0  0  0  0  0  0  0
  147.4704  133.1094  151.2355 H   0  0  0  0  0  0  0  0  0  0  0  0
  146.3763  130.9639  150.5872 H   0  0  0  0  0  0  0  0  0  0  0  0
  143.8723  130.8808  150.4162 H   0  0  0  0  0  0  0  0  0  0  0  0
  142.5758  132.9719  150.9106 H   0  0  0  0  0  0  0  0  0  0  0  0
  148.8602  137.6348  153.3674 H   0  0  0  0  0  0  0  0  0  0  0  0
  1  2  1  0  0  0  0
  1 20  1  0  0  0  0
  1 21  1  0  0  0  0
  1 22  1  0  0  0  0
  2  3  1  0  0  0  0
  2 10  1  0  0  0  0
  2 23  1  0  0  0  0
  3  4  1  0  0  0  0
  3 24  1  0  0  0  0
  3 25  1  0  0  0  0
  4  9  1  0  0  0  0
  4  5  1  0  0  0  0
  4 40  1  0  0  0  0
  5  6  1  0  0  0  0
  5 26  1  0  0  0  0
  5 27  1  0  0  0  0
  6  7  1  0  0  0  0
  6 28  1  0  0  0  0
  6 29  1  0  0  0  0
  7  8  1  0  0  0  0
  8  9  1  0  0  0  0
  8 30  1  0  0  0  0
  8 31  1  0  0  0  0
  9 32  1  0  0  0  0
  9 33  1  0  0  0  0
 10 11  1  0  0  0  0
 10 34  1  0  0  0  0
 11 12  2  0  0  0  0
 11 13  1  0  0  0  0
 13 14  1  0  0  0  0
 13 35  1  0  0  0  0
 14 19  1  0  0  0  0
 14 15  2  0  0  0  0
 15 16  1  0  0  0  0
 15 36  1  0  0  0  0
 16 17  2  0  0  0  0
 16 37  1  0  0  0  0
 17 18  1  0  0  0  0
 17 38  1  0  0  0  0
 18 19  2  0  0  0  0
 18 39  1  0  0  0  0
M  CHG  1   4   1
M  END
> <s_m_source_file>
AV-unprocessed.smi

> <i_m_source_file_index>
1236

> <i_lp_mmshare_version>
43012

> <i_f3d_flags>
0

> <s_epik_input>
W0NIMl0xW0NIMl1PW0NIMl1bQ0gyXU4xW0NIMl1bQ0BASF0oW0NIM10pW05IXUMoPU8pW05IXWMyW2NIXVtjSF1bY0hdW2NIXW4y

> <s_epik_cmdline>
J2VwaWtfcHl0aG9uJywgJy1waCcsICc3LjAnLCAnLXRuJywgJzgnLCAnLW1hJywgJzIwMCcsICctbWV0YWxfYmluZGluZycsICctaW1hZScsICc8aW5maWxlLm1hZT4nLCAnLW9tYWUnLCAnPG91dGZpbGUubWFlPic=

> <r_epik_Ionization_Penalty>
0.602564

> <r_epik_Ionization_Penalty_Charging>
0.602531

> <r_epik_Ionization_Penalty_Neutral>
3.36306e-05

> <r_epik_State_Penalty>
0.617039

> <r_epik_Charging_Adjusted_Penalty>
1.21957

> <i_epik_Tot_Q>
1

> <i_epik_Tot_abs_Q>
1

> <r_epik_Metal_State_Penalty>
0.617041

> <b_epik_Metal_Only>
0

> <s_lp_Force_Field>
OPLS_2005

> <r_lp_Energy>
24.2739

> <b_lp_Chiralities_Consistent>
1

> <s_lp_Variant>
AV-unprocessed.smi:1236-3

> <Gold.Version>
5.8.1

> <Gold.Id.Protein>
6NUR|6NUR_protein|mol2

> <Gold.PLP.Fitness>
46.0654

> <Gold.PLP.PLP>
-31.0483

> <Gold.PLP.part.hbond>
-3.9262

> <Gold.PLP.part.metal>
0.0000

> <Gold.PLP.part.buried>
-2.6736

> <Gold.PLP.part.nonpolar>
-26.1902

> <Gold.PLP.part.repulsive>
0.5420

> <Gold.PLP.ligand.clash>
0.0000

> <Gold.PLP.ligand.torsion>
1.3558

> <Gold.PLP.Chemscore.Hbond>
4.9033

> <Gold.PLP.Chemscore.CHOScore>
1.0000

> <Gold.PLP.Chemscore.Metal>
0.0000

> <Gold.Chemscore.Hbonds>
donor molecule, donor type, donor heavy atom, donor atom, acceptor molecule, acceptor atom, score
      L1  H     4    40       P1  7948  1.95
      L1  H    10    34       P1  7948  1.00
      L1  H    13    35       P1  7948  0.93
      P1  H 10752 10764       L1     7  0.88
      L1  C    18    39       P1 10186  1.00

> <Gold.PLP.Chemscore.Internal.Correction>
0.0191

> <Gold.Rescore>
     Score         DG    S(hbond)    S(metal)    S(lipo)     H(rot)  DE(clash)    DE(int)     intcor
     19.10     -22.03       3.49        0.00      75.88       1.56       0.49       2.44       ----

> <Gold.Chemscore.Fitness>
19.0985

> <Gold.Chemscore.DG>
-22.0301

> <Gold.Chemscore.ZeroCoef>
-5.4800

> <Gold.Chemscore.Hbond>
3.4914

> <Gold.Chemscore.Metal>
0.0000

> <Gold.Chemscore.Lipo>
75.8834

> <Gold.Chemscore.Internal_Hbond>
0.0000

> <Gold.Chemscore.DEClash>
0.4868

> <Gold.Chemscore.DEInternal>
2.4447

> <Gold.Chemscore.Rot>
1.5584

> <Gold.Chemscore.Internal.Correction>
   9.000000E+99

> <Gold.Chemscore.Hbonds>
donor molecule, donor type, donor heavy atom, donor atom, acceptor molecule, acceptor atom, score
      L1  H     4    40       P1  7948  0.91
      L1  H    10    34       P1  7948  0.95
      L1  H    13    35       P1  7948  0.86
      P1  H 10752 10764       L1     7  0.19

> <Gold.Chemscore.Hbond.Weighted>
-11.6613

> <Gold.Chemscore.Metal.Weighted>
-0.0000

> <Gold.Chemscore.Lipo.Weighted>
-8.8784

> <Gold.Chemscore.Internal_Hbond.Weighted>
0.0000

> <Gold.Chemscore.DEClash.Weighted>
0.4868

> <Gold.Chemscore.DEInternal.Weighted>
2.4447

> <Gold.Chemscore.Rot.Weighted>
3.9896

> <Gold.Chemscore.Internal.Correction.Weighted>
   9.000000E+99

> <Gold.Protein.RotatedTorsions>
[ 6907 6896 6895 6894 ] final   66.49 input  -60.11 | X-H torsion
[ 7974 7965 7964 7962 ] final  -36.10 input  175.53 | X-H torsion
[ 8008 7997 7996 7995 ] final -106.76 input   59.86 | X-H torsion
[ 10167 10162 10161 10158 ] final -134.27 input  -65.29 | X-H torsion
[ 10718 10713 10712 10709 ] final  -87.54 input   66.30 | X-H torsion
[ 10763 10752 10751 10750 ] final  -67.12 input  -60.55 | X-H torsion
[ 11005 11000 10999 10996 ] final -153.27 input  -57.11 | X-H torsion

> <Gold.Protein.ActiveResidues>
 VAL166  LYS551  ARG553  GLY616  TRP617  ASP618  TYR619  PRO620  LYS621  CYS622 
 ASP623  PHE694  ASN695  SER759  ASP760  ASP761  ALA762  ILE779  LEU786  VAL792 
 PHE793  MET794  SER795  GLU796  ALA797  LYS798  CYS799  TRP800  GLU811  SER814 

> <Gold.Protein.RotatedAtoms>
  152.4485  134.5445  159.9848 H   0  0  0  0  0  0  0  0  0  0  0  0  # atno 6907 bound_to 6896
  151.5523  133.3410  159.2963 H   0  0  0  0  0  0  0  0  0  0  0  0  # atno 6908 bound_to 6896
  150.8407  134.7730  159.6993 H   0  0  0  0  0  0  0  0  0  0  0  0  # atno 6909 bound_to 6896
  146.0690  140.6239  142.8961 H   0  0  0  0  0  0  0  0  0  0  0  0  # atno 7974 bound_to 7965
  154.9193  140.0408  157.1989 H   0  0  0  0  0  0  0  0  0  0  0  0  # atno 8008 bound_to 7997
  154.8270  140.2893  155.5727 H   0  0  0  0  0  0  0  0  0  0  0  0  # atno 8009 bound_to 7997
  156.2984  140.2508  156.3188 H   0  0  0  0  0  0  0  0  0  0  0  0  # atno 8010 bound_to 7997
  139.8897  143.6737  152.2614 H   0  0  0  0  0  0  0  0  0  0  0  0  # atno 10167 bound_to 10162
  155.9985  130.4803  150.4883 H   0  0  0  0  0  0  0  0  0  0  0  0  # atno 10718 bound_to 10713
  154.3699  135.6097  153.5734 H   0  0  0  0  0  0  0  0  0  0  0  0  # atno 10763 bound_to 10752
  152.9790  135.5835  154.4534 H   0  0  0  0  0  0  0  0  0  0  0  0  # atno 10764 bound_to 10752
  154.4286  135.2847  155.1905 H   0  0  0  0  0  0  0  0  0  0  0  0  # atno 10765 bound_to 10752
  140.7100  134.3843  157.5199 H   0  0  0  0  0  0  0  0  0  0  0  0  # atno 11005 bound_to 11000
  144.7220  140.4403  143.7001 LP  0  0  0  0  0  0  0  0  0  0  0  0  # atno 17320 bound_to 7965
  145.6426  139.1552  143.2907 LP  0  0  0  0  0  0  0  0  0  0  0  0  # atno 17321 bound_to 7965
  139.7121  144.7618  151.1095 LP  0  0  0  0  0  0  0  0  0  0  0  0  # atno 17342 bound_to 10162
  140.7729  143.5317  150.9415 LP  0  0  0  0  0  0  0  0  0  0  0  0  # atno 17343 bound_to 10162
  157.2881  131.0620  151.2153 LP  0  0  0  0  0  0  0  0  0  0  0  0  # atno 17370 bound_to 10713
  157.3175  130.6920  149.6250 LP  0  0  0  0  0  0  0  0  0  0  0  0  # atno 17371 bound_to 10713
  139.8874  134.8883  156.2530 LP  0  0  0  0  0  0  0  0  0  0  0  0  # atno 17394 bound_to 11000
  141.0092  133.7105  156.1085 LP  0  0  0  0  0  0  0  0  0  0  0  0  # atno 17395 bound_to 11000

$$$$
