AV-unprocessed.smi:3298|AV-procd|sdf|12646|dock10
  -GOLD-   2272018583D 1   1.00000     0.00000
 Structure written by MMmdl.
 36 37  0  0  0  0  0  0  0  0  2 V2000
  146.2684  143.1469  154.1727 C   0  0  0  0  0  0  0  0  0  0  0  0
  147.1858  141.9431  154.1290 C   0  0  0  0  0  0  0  0  0  0  0  0
  146.7918  140.7159  153.5532 C   0  0  0  0  0  0  0  0  0  0  0  0
  147.7021  139.6274  153.5386 C   0  0  0  0  0  0  0  0  0  0  0  0
  147.4132  138.3436  152.9966 N   0  0  0  0  0  0  0  0  0  0  0  0
  146.2718  137.6341  153.0489 C   0  0  0  0  0  0  0  0  0  0  0  0
  145.2292  137.9959  153.5931 O   0  0  0  0  0  0  0  0  0  0  0  0
  146.4018  136.4609  152.4126 N   0  0  0  0  0  0  0  0  0  0  0  0
  145.3529  135.4533  152.2867 C   0  0  2  0  0  0  0  0  0  0  0  0
  145.8351  134.0985  152.7331 C   0  0  0  0  0  0  0  0  0  0  0  0
  145.7756  133.1878  151.7644 C   0  0  0  0  0  0  0  0  0  0  0  0
  145.2642  133.7484  150.4629 C   0  0  1  0  0  0  0  0  0  0  0  0
  144.0586  132.9568  149.9288 C   0  0  0  0  0  0  0  0  0  0  0  0
  143.5924  133.5285  148.7248 O   0  0  0  0  0  0  0  0  0  0  0  0
  144.9454  135.2273  150.8095 C   0  0  0  0  0  0  0  0  0  0  0  0
  148.9752  139.8086  154.1235 C   0  0  0  0  0  0  0  0  0  0  0  0
  149.3137  141.0560  154.6856 C   0  0  0  0  0  0  0  0  0  0  0  0
  148.4190  142.0664  154.6666 N   0  3  0  0  0  0  0  0  0  0  0  0
  144.4784  135.7341  152.8765 H   0  0  0  0  0  0  0  0  0  0  0  0
  146.0831  133.7024  149.7436 H   0  0  0  0  0  0  0  0  0  0  0  0
  145.3068  142.9262  153.7083 H   0  0  0  0  0  0  0  0  0  0  0  0
  146.7172  143.9864  153.6408 H   0  0  0  0  0  0  0  0  0  0  0  0
  146.0863  143.4491  155.2044 H   0  0  0  0  0  0  0  0  0  0  0  0
  145.7970  140.6353  153.1443 H   0  0  0  0  0  0  0  0  0  0  0  0
  148.1623  137.9249  152.4650 H   0  0  0  0  0  0  0  0  0  0  0  0
  147.2916  136.2426  151.9887 H   0  0  0  0  0  0  0  0  0  0  0  0
  146.1758  133.9119  153.7410 H   0  0  0  0  0  0  0  0  0  0  0  0
  146.0712  132.1541  151.8673 H   0  0  0  0  0  0  0  0  0  0  0  0
  144.3404  131.9219  149.7322 H   0  0  0  0  0  0  0  0  0  0  0  0
  143.2481  132.9380  150.6586 H   0  0  0  0  0  0  0  0  0  0  0  0
  142.8138  134.0307  148.9117 H   0  0  0  0  0  0  0  0  0  0  0  0
  143.8820  135.4381  150.6874 H   0  0  0  0  0  0  0  0  0  0  0  0
  145.4735  135.9001  150.1320 H   0  0  0  0  0  0  0  0  0  0  0  0
  149.6924  139.0005  154.1403 H   0  0  0  0  0  0  0  0  0  0  0  0
  150.2659  141.2740  155.1469 H   0  0  0  0  0  0  0  0  0  0  0  0
  148.6840  142.9614  155.0789 H   0  0  0  0  0  0  0  0  0  0  0  0
  1  2  1  0  0  0  0
  1 21  1  0  0  0  0
  1 22  1  0  0  0  0
  1 23  1  0  0  0  0
  2 18  1  0  0  0  0
  2  3  2  0  0  0  0
  3  4  1  0  0  0  0
  3 24  1  0  0  0  0
  4  5  1  0  0  0  0
  4 16  2  0  0  0  0
  5  6  1  0  0  0  0
  5 25  1  0  0  0  0
  6  7  2  0  0  0  0
  6  8  1  0  0  0  0
  8  9  1  0  0  0  0
  8 26  1  0  0  0  0
  9 19  1  0  0  0  0
  9 15  1  0  0  0  0
  9 10  1  0  0  0  0
 10 11  2  0  0  0  0
 10 27  1  0  0  0  0
 11 12  1  0  0  0  0
 11 28  1  0  0  0  0
 12 20  1  0  0  0  0
 12 13  1  0  0  0  0
 12 15  1  0  0  0  0
 13 14  1  0  0  0  0
 13 29  1  0  0  0  0
 13 30  1  0  0  0  0
 14 31  1  0  0  0  0
 15 32  1  0  0  0  0
 15 33  1  0  0  0  0
 16 17  1  0  0  0  0
 16 34  1  0  0  0  0
 17 18  2  0  0  0  0
 17 35  1  0  0  0  0
 18 36  1  0  0  0  0
M  CHG  1  18   1
M  END
> <s_m_source_file>
AV-unprocessed.smi

> <i_m_source_file_index>
3298

> <i_lp_mmshare_version>
43012

> <i_f3d_flags>
0

> <s_epik_input>
W0NIM11jMVtjSF1jKFtjSF1bY0hdbjEpW05IXUMoPU8pW05IXVtDQEBIXTJbQ0hdPVtDSF1bQ0BASF0oW0NIMl0yKVtDSDJdW09IXQ==

> <s_epik_cmdline>
J2VwaWtfcHl0aG9uJywgJy1waCcsICc3LjAnLCAnLXRuJywgJzgnLCAnLW1hJywgJzIwMCcsICctbWV0YWxfYmluZGluZycsICctaW1hZScsICc8aW5maWxlLm1hZT4nLCAnLW9tYWUnLCAnPG91dGZpbGUubWFlPic=

> <r_epik_Ionization_Penalty>
0.443901

> <r_epik_Ionization_Penalty_Charging>
0.443881

> <r_epik_Ionization_Penalty_Neutral>
1.94967e-05

> <r_epik_State_Penalty>
0.446172

> <r_epik_Charging_Adjusted_Penalty>
0.890053

> <i_epik_Tot_Q>
1

> <i_epik_Tot_abs_Q>
1

> <r_epik_Metal_State_Penalty>
0.675842

> <b_epik_Metal_Only>
0

> <s_lp_Force_Field>
OPLS_2005

> <r_lp_Energy>
27.4169

> <b_lp_Chiralities_Consistent>
1

> <s_lp_Variant>
AV-unprocessed.smi:3298-7

> <Gold.Version>
5.8.1

> <Gold.Id.Protein>
6NUR|6NUR_protein|mol2

> <Gold.PLP.Fitness>
49.2277

> <Gold.PLP.PLP>
-35.0566

> <Gold.PLP.part.hbond>
-5.0590

> <Gold.PLP.part.metal>
0.0000

> <Gold.PLP.part.buried>
-3.7063

> <Gold.PLP.part.nonpolar>
-27.9880

> <Gold.PLP.part.repulsive>
0.4706

> <Gold.PLP.ligand.clash>
0.0000

> <Gold.PLP.ligand.torsion>
0.3372

> <Gold.PLP.Chemscore.Hbond>
4.9440

> <Gold.PLP.Chemscore.CHOScore>
0.0000

> <Gold.PLP.Chemscore.Metal>
0.0000

> <Gold.Chemscore.Hbonds>
donor molecule, donor type, donor heavy atom, donor atom, acceptor molecule, acceptor atom, score
      L1  H     5    25       P1  7948  0.93
      L1  H     8    26       P1  7948  1.00
      L1  H    14    31       P1 10186  1.00
      L1  H    18    36       P1  8028  2.00

> <Gold.PLP.Chemscore.Internal.Correction>
0.0134

> <Gold.Rescore>
     Score         DG    S(hbond)    S(metal)    S(lipo)     H(rot)  DE(clash)    DE(int)     intcor
     22.38     -22.81       3.91        0.00      76.00       1.81       0.08       0.36       ----

> <Gold.Chemscore.Fitness>
22.3751

> <Gold.Chemscore.DG>
-22.8134

> <Gold.Chemscore.ZeroCoef>
-5.4800

> <Gold.Chemscore.Hbond>
3.9118

> <Gold.Chemscore.Metal>
0.0000

> <Gold.Chemscore.Lipo>
75.9985

> <Gold.Chemscore.Internal_Hbond>
0.0000

> <Gold.Chemscore.DEClash>
0.0790

> <Gold.Chemscore.DEInternal>
0.3594

> <Gold.Chemscore.Rot>
1.8061

> <Gold.Chemscore.Internal.Correction>
   9.000000E+99

> <Gold.Chemscore.Hbonds>
donor molecule, donor type, donor heavy atom, donor atom, acceptor molecule, acceptor atom, score
      L1  H     5    25       P1  7948  0.89
      L1  H     8    26       P1  7948  0.99
      L1  H    14    31       P1 10186  0.99
      L1  H    18    36       P1  8028  1.00

> <Gold.Chemscore.Hbond.Weighted>
-13.0653

> <Gold.Chemscore.Metal.Weighted>
-0.0000

> <Gold.Chemscore.Lipo.Weighted>
-8.8918

> <Gold.Chemscore.Internal_Hbond.Weighted>
0.0000

> <Gold.Chemscore.DEClash.Weighted>
0.0790

> <Gold.Chemscore.DEInternal.Weighted>
0.3594

> <Gold.Chemscore.Rot.Weighted>
4.6237

> <Gold.Chemscore.Internal.Correction.Weighted>
   9.000000E+99

> <Gold.Protein.RotatedTorsions>
[ 6907 6896 6895 6894 ] final   63.47 input  -60.11 | X-H torsion
[ 7974 7965 7964 7962 ] final   21.09 input  175.53 | X-H torsion
[ 8008 7997 7996 7995 ] final   32.62 input   59.86 | X-H torsion
[ 10167 10162 10161 10158 ] final -121.45 input  -65.29 | X-H torsion
[ 10718 10713 10712 10709 ] final   74.31 input   66.30 | X-H torsion
[ 10763 10752 10751 10750 ] final  -70.79 input  -60.55 | X-H torsion
[ 11005 11000 10999 10996 ] final  -39.51 input  -57.11 | X-H torsion

> <Gold.Protein.ActiveResidues>
 VAL166  LYS551  ARG553  GLY616  TRP617  ASP618  TYR619  PRO620  LYS621  CYS622 
 ASP623  PHE694  ASN695  SER759  ASP760  ASP761  ALA762  ILE779  LEU786  VAL792 
 PHE793  MET794  SER795  GLU796  ALA797  LYS798  CYS799  TRP800  GLU811  SER814 

> <Gold.Protein.RotatedAtoms>
  152.4255  134.5876  159.9964 H   0  0  0  0  0  0  0  0  0  0  0  0  # atno 6907 bound_to 6896
  151.6013  133.3350  159.3056 H   0  0  0  0  0  0  0  0  0  0  0  0  # atno 6908 bound_to 6896
  150.8145  134.7355  159.6783 H   0  0  0  0  0  0  0  0  0  0  0  0  # atno 6909 bound_to 6896
  146.2085  139.8076  142.8707 H   0  0  0  0  0  0  0  0  0  0  0  0  # atno 7974 bound_to 7965
  155.1254  140.3252  155.4487 H   0  0  0  0  0  0  0  0  0  0  0  0  # atno 8008 bound_to 7997
  156.2650  140.2020  156.6324 H   0  0  0  0  0  0  0  0  0  0  0  0  # atno 8009 bound_to 7997
  154.6652  140.0542  157.0093 H   0  0  0  0  0  0  0  0  0  0  0  0  # atno 8010 bound_to 7997
  140.0249  143.5306  152.2203 H   0  0  0  0  0  0  0  0  0  0  0  0  # atno 10167 bound_to 10162
  157.6586  130.9671  150.1193 H   0  0  0  0  0  0  0  0  0  0  0  0  # atno 10718 bound_to 10713
  154.4227  135.5983  153.6020 H   0  0  0  0  0  0  0  0  0  0  0  0  # atno 10763 bound_to 10752
  152.9794  135.5956  154.3935 H   0  0  0  0  0  0  0  0  0  0  0  0  # atno 10764 bound_to 10752
  154.3763  135.2841  155.2216 H   0  0  0  0  0  0  0  0  0  0  0  0  # atno 10765 bound_to 10752
  141.0107  133.6909  156.2196 H   0  0  0  0  0  0  0  0  0  0  0  0  # atno 11005 bound_to 11000
  145.3230  141.0248  143.3490 LP  0  0  0  0  0  0  0  0  0  0  0  0  # atno 17320 bound_to 7965
  144.8853  139.4848  143.6703 LP  0  0  0  0  0  0  0  0  0  0  0  0  # atno 17321 bound_to 7965
  139.6114  144.7609  151.2942 LP  0  0  0  0  0  0  0  0  0  0  0  0  # atno 17342 bound_to 10162
  140.7327  143.6817  150.7996 LP  0  0  0  0  0  0  0  0  0  0  0  0  # atno 17343 bound_to 10162
  156.2068  130.3664  149.8719 LP  0  0  0  0  0  0  0  0  0  0  0  0  # atno 17370 bound_to 10713
  156.6608  130.8781  151.3547 LP  0  0  0  0  0  0  0  0  0  0  0  0  # atno 17371 bound_to 10713
  140.6738  134.4839  157.5588 LP  0  0  0  0  0  0  0  0  0  0  0  0  # atno 17394 bound_to 11000
  139.9088  134.8390  156.1604 LP  0  0  0  0  0  0  0  0  0  0  0  0  # atno 17395 bound_to 11000

$$$$
