AV-unprocessed.smi:1782|AV-procd|sdf|7188|dock2
  -GOLD-   22720 8433D 1   1.00000     0.00000
 Structure written by MMmdl.
 42 44  0  0  0  0  0  0  0  0  2 V2000
  148.7859  140.4040  157.0170 O   0  0  0  0  0  0  0  0  0  0  0  0
  149.3116  141.2169  156.2552 C   0  0  0  0  0  0  0  0  0  0  0  0
  150.8305  141.4412  156.2675 C   0  0  0  0  0  0  0  0  0  0  0  0
  151.3315  141.9522  157.5552 N   0  0  0  0  0  0  0  0  0  0  0  0
  150.8128  143.1821  157.9982 C   0  0  0  0  0  0  0  0  0  0  0  0
  151.2065  143.7391  159.1512 C   0  0  0  0  0  0  0  0  0  0  0  0
  152.1908  143.0437  159.9438 C   0  0  0  0  0  0  0  0  0  0  0  0
  152.7083  141.8591  159.5439 C   0  0  0  0  0  0  0  0  0  0  0  0
  153.7585  141.1153  160.3660 C   0  0  0  0  0  0  0  0  0  0  0  0
  154.9811  141.3692  159.8984 F   0  0  0  0  0  0  0  0  0  0  0  0
  153.7138  141.4952  161.6436 F   0  0  0  0  0  0  0  0  0  0  0  0
  153.5726  139.7950  160.3279 F   0  0  0  0  0  0  0  0  0  0  0  0
  152.2669  141.2537  158.2709 C   0  0  0  0  0  0  0  0  0  0  0  0
  152.7096  140.1784  157.8623 O   0  0  0  0  0  0  0  0  0  0  0  0
  148.6149  141.9417  155.3673 N   0  0  0  0  0  0  0  0  0  0  0  0
  147.1671  141.8799  155.2001 C   0  0  2  0  0  0  0  0  0  0  0  0
  146.6510  142.6961  154.0159 C   0  0  0  0  0  0  0  0  0  0  0  0
  145.2199  143.0926  154.4193 C   0  0  0  0  0  0  0  0  0  0  0  0
  145.0589  142.7325  155.8480 N   0  3  2  0  0  0  0  0  0  0  0  0
  144.2637  143.6987  156.6343 C   0  0  0  0  0  0  0  0  0  0  0  0
  143.0855  144.2669  155.8797 C   0  0  0  0  0  0  0  0  0  0  0  0
  144.3248  145.1085  156.0967 C   0  0  0  0  0  0  0  0  0  0  0  0
  146.4117  142.4926  156.3788 C   0  0  0  0  0  0  0  0  0  0  0  0
  151.3135  140.4969  156.0132 H   0  0  0  0  0  0  0  0  0  0  0  0
  151.1040  142.1264  155.4627 H   0  0  0  0  0  0  0  0  0  0  0  0
  150.0867  143.6417  157.3432 H   0  0  0  0  0  0  0  0  0  0  0  0
  150.8016  144.6863  159.4763 H   0  0  0  0  0  0  0  0  0  0  0  0
  152.5123  143.4933  160.8714 H   0  0  0  0  0  0  0  0  0  0  0  0
  149.1220  142.5814  154.7725 H   0  0  0  0  0  0  0  0  0  0  0  0
  146.8551  140.8411  155.0713 H   0  0  0  0  0  0  0  0  0  0  0  0
  147.2530  143.5965  153.8823 H   0  0  0  0  0  0  0  0  0  0  0  0
  146.6821  142.1353  153.0811 H   0  0  0  0  0  0  0  0  0  0  0  0
  145.0651  144.1604  154.2568 H   0  0  0  0  0  0  0  0  0  0  0  0
  144.4752  142.5566  153.8301 H   0  0  0  0  0  0  0  0  0  0  0  0
  144.1996  143.5178  157.7058 H   0  0  0  0  0  0  0  0  0  0  0  0
  142.8947  143.9033  154.8715 H   0  0  0  0  0  0  0  0  0  0  0  0
  142.1993  144.5277  156.4547 H   0  0  0  0  0  0  0  0  0  0  0  0
  144.2536  145.9234  156.8142 H   0  0  0  0  0  0  0  0  0  0  0  0
  144.9576  145.3040  155.2326 H   0  0  0  0  0  0  0  0  0  0  0  0
  146.3874  141.8383  157.2510 H   0  0  0  0  0  0  0  0  0  0  0  0
  146.8671  143.4400  156.6746 H   0  0  0  0  0  0  0  0  0  0  0  0
  144.5800  141.8433  155.8710 H   0  0  0  0  0  0  0  0  0  0  0  0
  1  2  2  0  0  0  0
  2  3  1  0  0  0  0
  2 15  1  0  0  0  0
  3  4  1  0  0  0  0
  3 24  1  0  0  0  0
  3 25  1  0  0  0  0
  4 13  1  0  0  0  0
  4  5  1  0  0  0  0
  5  6  2  0  0  0  0
  5 26  1  0  0  0  0
  6  7  1  0  0  0  0
  6 27  1  0  0  0  0
  7  8  2  0  0  0  0
  7 28  1  0  0  0  0
  8  9  1  0  0  0  0
  8 13  1  0  0  0  0
  9 10  1  0  0  0  0
  9 11  1  0  0  0  0
  9 12  1  0  0  0  0
 13 14  2  0  0  0  0
 15 16  1  0  0  0  0
 15 29  1  0  0  0  0
 16 23  1  0  0  0  0
 16 17  1  0  0  0  0
 16 30  1  0  0  0  0
 17 18  1  0  0  0  0
 17 31  1  0  0  0  0
 17 32  1  0  0  0  0
 18 19  1  0  0  0  0
 18 33  1  0  0  0  0
 18 34  1  0  0  0  0
 19 20  1  0  0  0  0
 19 23  1  0  0  0  0
 19 42  1  0  0  0  0
 20 22  1  0  0  0  0
 20 21  1  0  0  0  0
 20 35  1  0  0  0  0
 21 22  1  0  0  0  0
 21 36  1  0  0  0  0
 21 37  1  0  0  0  0
 22 38  1  0  0  0  0
 22 39  1  0  0  0  0
 23 40  1  0  0  0  0
 23 41  1  0  0  0  0
M  CHG  1  19   1
M  END
> <s_m_source_file>
AV-unprocessed.smi

> <i_m_source_file_index>
1782

> <i_lp_mmshare_version>
43012

> <i_f3d_flags>
0

> <s_epik_input>
W0NIMl0xW0NIMl1bQ0hdMU4oW0NIMl0yKVtDSDJdW0NIMl1bQ0BIXTJbTkhdQyg9TylbQ0gyXW4zW2NIXVtjSF1bY0hdYyhDKEYpKEYpRiljMz1P

> <s_epik_cmdline>
J2VwaWtfcHl0aG9uJywgJy1waCcsICc3LjAnLCAnLXRuJywgJzgnLCAnLW1hJywgJzIwMCcsICctbWV0YWxfYmluZGluZycsICctaW1hZScsICc8aW5maWxlLm1hZT4nLCAnLW9tYWUnLCAnPG91dGZpbGUubWFlPic=

> <r_lp_tautomer_probability>
1

> <r_epik_Ionization_Penalty>
0.00106789

> <r_epik_Ionization_Penalty_Charging>
0.00106781

> <r_epik_Ionization_Penalty_Neutral>
8.2288e-08

> <r_epik_State_Penalty>
0.000699156

> <r_epik_Charging_Adjusted_Penalty>
0.00176697

> <i_epik_Tot_Q>
1

> <i_epik_Tot_abs_Q>
1

> <r_epik_Metal_State_Penalty>
-0

> <b_epik_Metal_Only>
0

> <s_lp_Force_Field>
OPLS_2005

> <r_lp_Energy>
44.9554

> <b_lp_Chiralities_Consistent>
1

> <s_lp_Variant>
AV-unprocessed.smi:1782-1

> <Gold.Version>
5.8.1

> <Gold.Id.Protein>
6NUR|6NUR_protein|mol2

> <Gold.PLP.Fitness>
49.2042

> <Gold.PLP.PLP>
-44.5240

> <Gold.PLP.part.hbond>
-2.0000

> <Gold.PLP.part.metal>
0.0000

> <Gold.PLP.part.buried>
-6.2630

> <Gold.PLP.part.nonpolar>
-36.6397

> <Gold.PLP.part.repulsive>
0.1646

> <Gold.PLP.ligand.clash>
0.0000

> <Gold.PLP.ligand.torsion>
1.6576

> <Gold.PLP.Chemscore.Hbond>
1.0972

> <Gold.PLP.Chemscore.CHOScore>
1.0000

> <Gold.PLP.Chemscore.Metal>
0.0000

> <Gold.Chemscore.Hbonds>
donor molecule, donor type, donor heavy atom, donor atom, acceptor molecule, acceptor atom, score
      L1  H    15    29       P1  8028  0.05
      P1  H  7997  8010       L1    14  1.00
      L1  C     5    26       P1  8028  1.00

> <Gold.PLP.Chemscore.Internal.Correction>
1.7036

> <Gold.Rescore>
     Score         DG    S(hbond)    S(metal)    S(lipo)     H(rot)  DE(clash)    DE(int)     intcor
     11.91     -14.50       1.23        0.00      81.51       1.81       0.07       2.52       ----

> <Gold.Chemscore.Fitness>
11.9143

> <Gold.Chemscore.DG>
-14.5043

> <Gold.Chemscore.ZeroCoef>
-5.4800

> <Gold.Chemscore.Hbond>
1.2339

> <Gold.Chemscore.Metal>
0.0000

> <Gold.Chemscore.Lipo>
81.5117

> <Gold.Chemscore.Internal_Hbond>
0.0000

> <Gold.Chemscore.DEClash>
0.0654

> <Gold.Chemscore.DEInternal>
2.5246

> <Gold.Chemscore.Rot>
1.8101

> <Gold.Chemscore.Internal.Correction>
   9.000000E+99

> <Gold.Chemscore.Hbonds>
donor molecule, donor type, donor heavy atom, donor atom, acceptor molecule, acceptor atom, score
      L1  H    15    29       P1  8028  0.05
      P1  H  7997  8010       L1    14  0.88

> <Gold.Chemscore.Hbond.Weighted>
-4.1212

> <Gold.Chemscore.Metal.Weighted>
-0.0000

> <Gold.Chemscore.Lipo.Weighted>
-9.5369

> <Gold.Chemscore.Internal_Hbond.Weighted>
0.0000

> <Gold.Chemscore.DEClash.Weighted>
0.0654

> <Gold.Chemscore.DEInternal.Weighted>
2.5246

> <Gold.Chemscore.Rot.Weighted>
4.6338

> <Gold.Chemscore.Internal.Correction.Weighted>
   9.000000E+99

> <Gold.Protein.RotatedTorsions>
[ 6907 6896 6895 6894 ] final  -52.97 input  -60.11 | X-H torsion
[ 7974 7965 7964 7962 ] final   34.74 input  175.53 | X-H torsion
[ 8008 7997 7996 7995 ] final   46.56 input   59.86 | X-H torsion
[ 10167 10162 10161 10158 ] final   38.22 input  -65.29 | X-H torsion
[ 10718 10713 10712 10709 ] final -129.21 input   66.30 | X-H torsion
[ 10763 10752 10751 10750 ] final  -57.86 input  -60.55 | X-H torsion
[ 11005 11000 10999 10996 ] final -154.35 input  -57.11 | X-H torsion

> <Gold.Protein.ActiveResidues>
 VAL166  LYS551  ARG553  GLY616  TRP617  ASP618  TYR619  PRO620  LYS621  CYS622 
 ASP623  PHE694  ASN695  SER759  ASP760  ASP761  ALA762  ILE779  LEU786  VAL792 
 PHE793  MET794  SER795  GLU796  ALA797  LYS798  CYS799  TRP800  GLU811  SER814 

> <Gold.Protein.RotatedAtoms>
  150.8469  134.7781  159.6977 H   0  0  0  0  0  0  0  0  0  0  0  0  # atno 6907 bound_to 6896
  152.4544  134.5321  159.9824 H   0  0  0  0  0  0  0  0  0  0  0  0  # atno 6908 bound_to 6896
  151.5449  133.3389  159.2978 H   0  0  0  0  0  0  0  0  0  0  0  0  # atno 6909 bound_to 6896
  146.1332  139.6230  142.9213 H   0  0  0  0  0  0  0  0  0  0  0  0  # atno 7974 bound_to 7965
  155.3545  140.3415  155.4239 H   0  0  0  0  0  0  0  0  0  0  0  0  # atno 8008 bound_to 7997
  156.1746  140.1643  156.8420 H   0  0  0  0  0  0  0  0  0  0  0  0  # atno 8009 bound_to 7997
  154.5269  140.0754  156.8257 H   0  0  0  0  0  0  0  0  0  0  0  0  # atno 8010 bound_to 7997
  140.3957  144.1792  150.6132 H   0  0  0  0  0  0  0  0  0  0  0  0  # atno 10167 bound_to 10162
  156.2025  130.6866  151.0556 H   0  0  0  0  0  0  0  0  0  0  0  0  # atno 10718 bound_to 10713
  154.2291  135.6364  153.5169 H   0  0  0  0  0  0  0  0  0  0  0  0  # atno 10763 bound_to 10752
  152.9953  135.5515  154.6032 H   0  0  0  0  0  0  0  0  0  0  0  0  # atno 10764 bound_to 10752
  154.5511  135.2901  155.0982 H   0  0  0  0  0  0  0  0  0  0  0  0  # atno 10765 bound_to 10752
  140.6982  134.3966  157.5212 H   0  0  0  0  0  0  0  0  0  0  0  0  # atno 11005 bound_to 11000
  145.5215  141.0431  143.2433 LP  0  0  0  0  0  0  0  0  0  0  0  0  # atno 17320 bound_to 7965
  144.7712  139.6731  143.7194 LP  0  0  0  0  0  0  0  0  0  0  0  0  # atno 17321 bound_to 7965
  140.4793  143.2385  151.8978 LP  0  0  0  0  0  0  0  0  0  0  0  0  # atno 17342 bound_to 10162
  139.4787  144.5287  151.8698 LP  0  0  0  0  0  0  0  0  0  0  0  0  # atno 17343 bound_to 10162
  157.6994  131.0782  150.6869 LP  0  0  0  0  0  0  0  0  0  0  0  0  # atno 17370 bound_to 10713
  156.6926  130.4600  149.5595 LP  0  0  0  0  0  0  0  0  0  0  0  0  # atno 17371 bound_to 10713
  139.8904  134.8806  156.2372 LP  0  0  0  0  0  0  0  0  0  0  0  0  # atno 17394 bound_to 11000
  141.0185  133.7055  156.1229 LP  0  0  0  0  0  0  0  0  0  0  0  0  # atno 17395 bound_to 11000

$$$$
