AV-unprocessed.smi:256|AV-procd|sdf|1958|dock4
  -GOLD-   2262021103D 1   1.00000     0.00000
 Structure written by MMmdl.
 62 65  0  0  0  0  0  0  0  0  2 V2000
  148.6425  130.8600  154.0620 C   0  0  0  0  0  0  0  0  0  0  0  0
  147.6632  131.9284  153.5541 C   0  0  0  0  0  0  0  0  0  0  0  0
  146.1982  131.7340  154.0315 C   0  0  1  0  0  0  0  0  0  0  0  0
  146.0378  131.7222  155.5719 C   0  0  0  0  0  0  0  0  0  0  0  0
  146.1589  133.0610  156.1464 N   0  0  0  0  0  0  0  0  0  0  0  0
  147.4030  133.4583  156.5280 C   0  0  0  0  0  0  0  0  0  0  0  0
  148.3005  132.5338  156.9642 N   0  0  0  0  0  0  0  0  0  0  0  0
  149.5115  132.9085  157.3844 C   0  0  0  0  0  0  0  0  0  0  0  0
  150.0266  134.1364  157.4510 N   0  0  0  0  0  0  0  0  0  0  0  0
  149.1425  135.0692  156.9968 C   0  0  0  0  0  0  0  0  0  0  0  0
  147.8270  134.8186  156.5126 C   0  0  0  0  0  0  0  0  0  0  0  0
  147.2373  136.0141  156.1180 N   0  0  0  0  0  0  0  0  0  0  0  0
  148.1429  136.9185  156.3716 C   0  0  0  0  0  0  0  0  0  0  0  0
  149.3128  136.4402  156.9161 N   0  0  0  0  0  0  0  0  0  0  0  0
  150.4769  137.2222  157.3051 C   0  0  0  0  0  0  0  0  0  0  0  0
  151.5882  137.2810  156.2210 C   0  0  0  0  0  0  0  0  0  0  0  0
  152.3400  136.0851  156.3161 O   0  0  0  0  0  0  0  0  0  0  0  0
  151.0551  137.3792  154.7748 C   0  0  0  0  0  0  0  0  0  0  0  0
  150.4981  138.7820  154.4772 C   0  0  0  0  0  0  0  0  0  0  0  0
  151.5038  139.7614  154.7125 O   0  0  0  0  0  0  0  0  0  0  0  0
  151.9350  139.8022  156.0686 C   0  0  0  0  0  0  0  0  0  0  0  0
  152.5612  138.4521  156.4633 C   0  0  0  0  0  0  0  0  0  0  0  0
  145.2391  134.0367  155.5661 C   0  0  0  0  0  0  0  0  0  0  0  0
  145.3677  134.0836  154.0328 C   0  0  0  0  0  0  0  0  0  0  0  0
  145.2448  132.7261  153.4383 N   0  3  1  0  0  0  0  0  0  0  0  0
  145.1711  132.7698  151.9522 C   0  0  0  0  0  0  0  0  0  0  0  0
  144.4871  131.5350  151.3328 C   0  0  0  0  0  0  0  0  0  0  0  0
  144.5207  131.5607  149.9116 O   0  0  0  0  0  0  0  0  0  0  0  0
  144.1506  132.8055  149.3395 C   0  0  0  0  0  0  0  0  0  0  0  0
  149.6250  130.9952  153.6093 H   0  0  0  0  0  0  0  0  0  0  0  0
  148.2985  129.8563  153.8111 H   0  0  0  0  0  0  0  0  0  0  0  0
  148.7793  130.9111  155.1414 H   0  0  0  0  0  0  0  0  0  0  0  0
  148.0363  132.9125  153.8337 H   0  0  0  0  0  0  0  0  0  0  0  0
  147.7013  131.8964  152.4662 H   0  0  0  0  0  0  0  0  0  0  0  0
  145.8863  130.7445  153.6990 H   0  0  0  0  0  0  0  0  0  0  0  0
  145.0404  131.3561  155.8194 H   0  0  0  0  0  0  0  0  0  0  0  0
  146.7204  131.0077  156.0255 H   0  0  0  0  0  0  0  0  0  0  0  0
  150.1586  132.1112  157.7200 H   0  0  0  0  0  0  0  0  0  0  0  0
  147.9788  137.9681  156.1748 H   0  0  0  0  0  0  0  0  0  0  0  0
  150.1362  138.2246  157.5631 H   0  0  0  0  0  0  0  0  0  0  0  0
  150.8742  136.7979  158.2283 H   0  0  0  0  0  0  0  0  0  0  0  0
  151.8634  135.4731  156.8561 H   0  0  0  0  0  0  0  0  0  0  0  0
  151.8677  137.1834  154.0734 H   0  0  0  0  0  0  0  0  0  0  0  0
  150.3002  136.6190  154.5730 H   0  0  0  0  0  0  0  0  0  0  0  0
  150.1854  138.8447  153.4347 H   0  0  0  0  0  0  0  0  0  0  0  0
  149.6181  138.9993  155.0829 H   0  0  0  0  0  0  0  0  0  0  0  0
  152.6719  140.5981  156.1757 H   0  0  0  0  0  0  0  0  0  0  0  0
  151.1000  140.0614  156.7204 H   0  0  0  0  0  0  0  0  0  0  0  0
  152.8850  138.4753  157.5045 H   0  0  0  0  0  0  0  0  0  0  0  0
  153.4633  138.3097  155.8659 H   0  0  0  0  0  0  0  0  0  0  0  0
  144.2244  133.7412  155.8360 H   0  0  0  0  0  0  0  0  0  0  0  0
  145.3867  135.0271  155.9986 H   0  0  0  0  0  0  0  0  0  0  0  0
  144.5887  134.7334  153.6326 H   0  0  0  0  0  0  0  0  0  0  0  0
  146.3201  134.5275  153.7413 H   0  0  0  0  0  0  0  0  0  0  0  0
  144.6178  133.6618  151.6583 H   0  0  0  0  0  0  0  0  0  0  0  0
  146.1664  132.8999  151.5278 H   0  0  0  0  0  0  0  0  0  0  0  0
  144.9483  130.6189  151.7049 H   0  0  0  0  0  0  0  0  0  0  0  0
  143.4452  131.4855  151.6482 H   0  0  0  0  0  0  0  0  0  0  0  0
  144.2651  132.7532  148.2569 H   0  0  0  0  0  0  0  0  0  0  0  0
  144.7862  133.6137  149.7034 H   0  0  0  0  0  0  0  0  0  0  0  0
  143.1104  133.0551  149.5482 H   0  0  0  0  0  0  0  0  0  0  0  0
  144.3329  132.4037  153.7295 H   0  0  0  0  0  0  0  0  0  0  0  0
  1  2  1  0  0  0  0
  1 30  1  0  0  0  0
  1 31  1  0  0  0  0
  1 32  1  0  0  0  0
  2  3  1  0  0  0  0
  2 33  1  0  0  0  0
  2 34  1  0  0  0  0
  3 25  1  0  0  0  0
  3  4  1  0  0  0  0
  3 35  1  0  0  0  0
  4  5  1  0  0  0  0
  4 36  1  0  0  0  0
  4 37  1  0  0  0  0
  5  6  1  0  0  0  0
  5 23  1  0  0  0  0
  6 11  1  0  0  0  0
  6  7  2  0  0  0  0
  7  8  1  0  0  0  0
  8  9  2  0  0  0  0
  8 38  1  0  0  0  0
  9 10  1  0  0  0  0
 10 14  1  0  0  0  0
 10 11  2  0  0  0  0
 11 12  1  0  0  0  0
 12 13  2  0  0  0  0
 13 14  1  0  0  0  0
 13 39  1  0  0  0  0
 14 15  1  0  0  0  0
 15 16  1  0  0  0  0
 15 40  1  0  0  0  0
 15 41  1  0  0  0  0
 16 22  1  0  0  0  0
 16 17  1  0  0  0  0
 16 18  1  0  0  0  0
 17 42  1  0  0  0  0
 18 19  1  0  0  0  0
 18 43  1  0  0  0  0
 18 44  1  0  0  0  0
 19 20  1  0  0  0  0
 19 45  1  0  0  0  0
 19 46  1  0  0  0  0
 20 21  1  0  0  0  0
 21 22  1  0  0  0  0
 21 47  1  0  0  0  0
 21 48  1  0  0  0  0
 22 49  1  0  0  0  0
 22 50  1  0  0  0  0
 23 24  1  0  0  0  0
 23 51  1  0  0  0  0
 23 52  1  0  0  0  0
 24 25  1  0  0  0  0
 24 53  1  0  0  0  0
 24 54  1  0  0  0  0
 25 26  1  0  0  0  0
 25 62  1  0  0  0  0
 26 27  1  0  0  0  0
 26 55  1  0  0  0  0
 26 56  1  0  0  0  0
 27 28  1  0  0  0  0
 27 57  1  0  0  0  0
 27 58  1  0  0  0  0
 28 29  1  0  0  0  0
 29 59  1  0  0  0  0
 29 60  1  0  0  0  0
 29 61  1  0  0  0  0
M  CHG  1  25   1
M  END
> <s_m_source_file>
AV-unprocessed.smi

> <i_m_source_file_index>
256

> <i_lp_mmshare_version>
43012

> <i_f3d_flags>
0

> <s_epik_input>
W0NIM11PW0NIMl1bQ0gyXU4xW0NIMl1bQ0gyXU4oW0NIMl1bQ0BIXTFbQ0gyXVtDSDNdKWMobltjSF1uMiljKGMyMyluW2NIXW4zW0NIMl1DNChbT0hdKVtDSDJdW0NIMl1PW0NIMl1bQ0gyXTQ=

> <s_epik_cmdline>
J2VwaWtfcHl0aG9uJywgJy1waCcsICc3LjAnLCAnLXRuJywgJzgnLCAnLW1hJywgJzIwMCcsICctbWV0YWxfYmluZGluZycsICctaW1hZScsICc8aW5maWxlLm1hZT4nLCAnLW9tYWUnLCAnPG91dGZpbGUubWFlPic=

> <r_lp_tautomer_probability>
1

> <r_epik_Ionization_Penalty>
0.233023

> <r_epik_Ionization_Penalty_Charging>
0.23295

> <r_epik_Ionization_Penalty_Neutral>
7.2493e-05

> <r_epik_State_Penalty>
0.223667

> <r_epik_Charging_Adjusted_Penalty>
0.456618

> <i_epik_Tot_Q>
1

> <i_epik_Tot_abs_Q>
1

> <r_epik_Metal_State_Penalty>
0.226879

> <b_epik_Metal_Only>
0

> <s_lp_Force_Field>
OPLS_2005

> <r_lp_Energy>
45.4801

> <b_lp_Chiralities_Consistent>
1

> <s_lp_Variant>
AV-unprocessed.smi:256-2

> <Gold.Version>
5.8.1

> <Gold.Id.Protein>
6NUR|6NUR_protein|mol2

> <Gold.PLP.Fitness>
44.6306

> <Gold.PLP.PLP>
-31.1350

> <Gold.PLP.part.hbond>
-4.8652

> <Gold.PLP.part.metal>
0.0000

> <Gold.PLP.part.buried>
-6.6665

> <Gold.PLP.part.nonpolar>
-22.9389

> <Gold.PLP.part.repulsive>
0.2299

> <Gold.PLP.ligand.clash>
0.0000

> <Gold.PLP.ligand.torsion>
1.0436

> <Gold.PLP.Chemscore.Hbond>
5.0237

> <Gold.PLP.Chemscore.CHOScore>
0.0000

> <Gold.PLP.Chemscore.Metal>
0.0000

> <Gold.Chemscore.Hbonds>
donor molecule, donor type, donor heavy atom, donor atom, acceptor molecule, acceptor atom, score
      L1  H    25    62       P1 10957  1.85
      P1  H  6896  6909       L1     9  0.70
      P1  H  7989  7998       L1    20  1.00
      P1  H 10752 10763       L1    17  1.00
      P1  H 10785 10796       L1    28  0.22

> <Gold.PLP.Chemscore.Internal.Correction>
0.5119

> <Gold.Rescore>
     Score         DG    S(hbond)    S(metal)    S(lipo)     H(rot)  DE(clash)    DE(int)     intcor
     15.40     -17.98       3.17        0.00      74.28       2.65       0.01       2.57       ----

> <Gold.Chemscore.Fitness>
15.3995

> <Gold.Chemscore.DG>
-17.9802

> <Gold.Chemscore.ZeroCoef>
-5.4800

> <Gold.Chemscore.Hbond>
3.1688

> <Gold.Chemscore.Metal>
0.0000

> <Gold.Chemscore.Lipo>
74.2773

> <Gold.Chemscore.Internal_Hbond>
0.0000

> <Gold.Chemscore.DEClash>
0.0133

> <Gold.Chemscore.DEInternal>
2.5673

> <Gold.Chemscore.Rot>
2.6462

> <Gold.Chemscore.Internal.Correction>
   9.000000E+99

> <Gold.Chemscore.Hbonds>
donor molecule, donor type, donor heavy atom, donor atom, acceptor molecule, acceptor atom, score
      L1  H    25    62       P1 10957  0.27
      P1  H  6896  6909       L1     9  0.08
      P1  H  7989  7998       L1    20  0.88
      P1  H 10752 10763       L1    17  0.86
      P1  H 10785 10796       L1    28  0.07

> <Gold.Chemscore.Hbond.Weighted>
-10.5839

> <Gold.Chemscore.Metal.Weighted>
-0.0000

> <Gold.Chemscore.Lipo.Weighted>
-8.6904

> <Gold.Chemscore.Internal_Hbond.Weighted>
0.0000

> <Gold.Chemscore.DEClash.Weighted>
0.0133

> <Gold.Chemscore.DEInternal.Weighted>
2.5673

> <Gold.Chemscore.Rot.Weighted>
6.7742

> <Gold.Chemscore.Internal.Correction.Weighted>
   9.000000E+99

> <Gold.Protein.RotatedTorsions>
[ 6907 6896 6895 6894 ] final    6.61 input  -60.11 | X-H torsion
[ 7974 7965 7964 7962 ] final  104.13 input  175.53 | X-H torsion
[ 8008 7997 7996 7995 ] final -123.99 input   59.86 | X-H torsion
[ 10167 10162 10161 10158 ] final  -59.82 input  -65.29 | X-H torsion
[ 10718 10713 10712 10709 ] final  112.99 input   66.30 | X-H torsion
[ 10763 10752 10751 10750 ] final   78.04 input  -60.55 | X-H torsion
[ 11005 11000 10999 10996 ] final -175.70 input  -57.11 | X-H torsion

> <Gold.Protein.ActiveResidues>
 VAL166  LYS551  ARG553  GLY616  TRP617  ASP618  TYR619  PRO620  LYS621  CYS622 
 ASP623  PHE694  ASN695  SER759  ASP760  ASP761  ALA762  ILE779  LEU786  VAL792 
 PHE793  MET794  SER795  GLU796  ALA797  LYS798  CYS799  TRP800  GLU811  SER814 

> <Gold.Protein.RotatedAtoms>
  151.6764  135.0968  160.0207 H   0  0  0  0  0  0  0  0  0  0  0  0  # atno 6907 bound_to 6896
  152.3861  133.6609  159.6208 H   0  0  0  0  0  0  0  0  0  0  0  0  # atno 6908 bound_to 6896
  150.7786  133.8949  159.3365 H   0  0  0  0  0  0  0  0  0  0  0  0  # atno 6909 bound_to 6896
  145.3368  139.2472  143.3631 H   0  0  0  0  0  0  0  0  0  0  0  0  # atno 7974 bound_to 7965
  155.1895  140.0413  157.2897 H   0  0  0  0  0  0  0  0  0  0  0  0  # atno 8008 bound_to 7997
  154.6148  140.2486  155.7595 H   0  0  0  0  0  0  0  0  0  0  0  0  # atno 8009 bound_to 7997
  156.2400  140.2907  156.0428 H   0  0  0  0  0  0  0  0  0  0  0  0  # atno 8010 bound_to 7997
  140.6111  143.2387  151.5708 H   0  0  0  0  0  0  0  0  0  0  0  0  # atno 10167 bound_to 10162
  157.6363  131.0976  150.6976 H   0  0  0  0  0  0  0  0  0  0  0  0  # atno 10718 bound_to 10713
  153.0844  135.4892  154.8566 H   0  0  0  0  0  0  0  0  0  0  0  0  # atno 10763 bound_to 10752
  154.7191  135.3035  154.9078 H   0  0  0  0  0  0  0  0  0  0  0  0  # atno 10764 bound_to 10752
  153.9748  135.6797  153.4801 H   0  0  0  0  0  0  0  0  0  0  0  0  # atno 10765 bound_to 10752
  140.4603  134.6261  157.4840 H   0  0  0  0  0  0  0  0  0  0  0  0  # atno 11005 bound_to 11000
  146.3023  140.3958  142.8699 LP  0  0  0  0  0  0  0  0  0  0  0  0  # atno 17320 bound_to 7965
  144.8821  140.7414  143.5980 LP  0  0  0  0  0  0  0  0  0  0  0  0  # atno 17321 bound_to 7965
  139.5362  144.2775  152.1255 LP  0  0  0  0  0  0  0  0  0  0  0  0  # atno 17342 bound_to 10162
  140.1975  144.4691  150.6448 LP  0  0  0  0  0  0  0  0  0  0  0  0  # atno 17343 bound_to 10162
  156.7307  130.4708  149.5500 LP  0  0  0  0  0  0  0  0  0  0  0  0  # atno 17370 bound_to 10713
  156.1604  130.6370  151.0712 LP  0  0  0  0  0  0  0  0  0  0  0  0  # atno 17371 bound_to 10713
  139.9949  134.6926  155.9626 LP  0  0  0  0  0  0  0  0  0  0  0  0  # atno 17394 bound_to 11000
  141.1624  133.6538  156.4364 LP  0  0  0  0  0  0  0  0  0  0  0  0  # atno 17395 bound_to 11000

$$$$
