AV-unprocessed.smi:527|AV-procd|sdf|2830|dock5
  -GOLD-   2262023313D 1   1.00000     0.00000
 Structure written by MMmdl.
 43 44  0  0  0  0  0  0  0  0  2 V2000
  148.6361  140.4432  154.5157 C   0  0  0  0  0  0  0  0  0  0  0  0
  149.1920  139.0077  154.5302 C   0  0  1  0  0  0  0  0  0  0  0  0
  150.7340  139.0457  154.5538 C   0  0  0  0  0  0  0  0  0  0  0  0
  151.3489  137.6399  154.5563 C   0  0  0  0  0  0  0  0  0  0  0  0
  150.8167  136.8101  155.7331 C   0  0  0  0  0  0  0  0  0  0  0  0
  149.2766  136.7402  155.7336 C   0  0  2  0  0  0  0  0  0  0  0  0
  148.7892  135.9304  154.6158 N   0  0  0  0  0  0  0  0  0  0  0  0
  148.1772  134.7421  154.7191 C   0  0  0  0  0  0  0  0  0  0  0  0
  147.9468  134.1881  155.7959 O   0  0  0  0  0  0  0  0  0  0  0  0
  147.8551  134.2611  153.5032 N   0  0  0  0  0  0  0  0  0  0  0  0
  147.1096  133.1727  153.2220 C   0  0  0  0  0  0  0  0  0  0  0  0
  146.6106  132.4155  154.0563 O   0  0  0  0  0  0  0  0  0  0  0  0
  146.8707  132.8996  151.7367 C   0  0  0  0  0  0  0  0  0  0  0  0
  145.7528  133.7009  151.2298 N   0  0  0  0  0  0  0  0  0  0  0  0
  145.6804  135.0681  151.1438 C   0  0  0  0  0  0  0  0  0  0  0  0
  144.4473  135.3621  150.6210 C   0  0  0  0  0  0  0  0  0  0  0  0
  143.8191  134.1637  150.4112 N   0  3  0  0  0  0  0  0  0  0  0  0
  144.6139  133.1546  150.7828 C   0  0  0  0  0  0  0  0  0  0  0  0
  148.6455  138.1568  155.7114 C   0  0  2  0  0  0  0  0  0  0  0  0
  147.1053  138.0815  155.7410 C   0  0  0  0  0  0  0  0  0  0  0  0
  148.8420  140.9585  155.4545 H   0  0  0  0  0  0  0  0  0  0  0  0
  147.5588  140.4584  154.3524 H   0  0  0  0  0  0  0  0  0  0  0  0
  149.0850  141.0277  153.7121 H   0  0  0  0  0  0  0  0  0  0  0  0
  148.8870  138.5343  153.5959 H   0  0  0  0  0  0  0  0  0  0  0  0
  151.1063  139.5989  153.6909 H   0  0  0  0  0  0  0  0  0  0  0  0
  151.0746  139.5894  155.4361 H   0  0  0  0  0  0  0  0  0  0  0  0
  151.1248  137.1379  153.6144 H   0  0  0  0  0  0  0  0  0  0  0  0
  152.4353  137.7112  154.6158 H   0  0  0  0  0  0  0  0  0  0  0  0
  151.2464  135.8079  155.7088 H   0  0  0  0  0  0  0  0  0  0  0  0
  151.1547  137.2590  156.6679 H   0  0  0  0  0  0  0  0  0  0  0  0
  148.9649  136.2556  156.6610 H   0  0  0  0  0  0  0  0  0  0  0  0
  148.9258  136.3156  153.6928 H   0  0  0  0  0  0  0  0  0  0  0  0
  148.2065  134.7800  152.7123 H   0  0  0  0  0  0  0  0  0  0  0  0
  147.7591  133.1355  151.1488 H   0  0  0  0  0  0  0  0  0  0  0  0
  146.6444  131.8441  151.5771 H   0  0  0  0  0  0  0  0  0  0  0  0
  146.4892  135.7134  151.4544 H   0  0  0  0  0  0  0  0  0  0  0  0
  143.9817  136.3095  150.3901 H   0  0  0  0  0  0  0  0  0  0  0  0
  144.3799  132.1056  150.7356 H   0  0  0  0  0  0  0  0  0  0  0  0
  148.9515  138.6505  156.6350 H   0  0  0  0  0  0  0  0  0  0  0  0
  146.7004  137.7158  154.7970 H   0  0  0  0  0  0  0  0  0  0  0  0
  146.6595  139.0557  155.9388 H   0  0  0  0  0  0  0  0  0  0  0  0
  146.7624  137.4123  156.5308 H   0  0  0  0  0  0  0  0  0  0  0  0
  142.8868  134.0534  150.0318 H   0  0  0  0  0  0  0  0  0  0  0  0
  1  2  1  0  0  0  0
  1 21  1  0  0  0  0
  1 22  1  0  0  0  0
  1 23  1  0  0  0  0
  2 19  1  0  0  0  0
  2  3  1  0  0  0  0
  2 24  1  0  0  0  0
  3  4  1  0  0  0  0
  3 25  1  0  0  0  0
  3 26  1  0  0  0  0
  4  5  1  0  0  0  0
  4 27  1  0  0  0  0
  4 28  1  0  0  0  0
  5  6  1  0  0  0  0
  5 29  1  0  0  0  0
  5 30  1  0  0  0  0
  6  7  1  0  0  0  0
  6 19  1  0  0  0  0
  6 31  1  0  0  0  0
  7  8  1  0  0  0  0
  7 32  1  0  0  0  0
  8  9  2  0  0  0  0
  8 10  1  0  0  0  0
 10 11  1  0  0  0  0
 10 33  1  0  0  0  0
 11 12  2  0  0  0  0
 11 13  1  0  0  0  0
 13 14  1  0  0  0  0
 13 34  1  0  0  0  0
 13 35  1  0  0  0  0
 14 18  1  0  0  0  0
 14 15  1  0  0  0  0
 15 16  2  0  0  0  0
 15 36  1  0  0  0  0
 16 17  1  0  0  0  0
 16 37  1  0  0  0  0
 17 18  2  0  0  0  0
 17 43  1  0  0  0  0
 18 38  1  0  0  0  0
 19 20  1  0  0  0  0
 19 39  1  0  0  0  0
 20 40  1  0  0  0  0
 20 41  1  0  0  0  0
 20 42  1  0  0  0  0
M  CHG  1  17   1
M  END
> <s_m_source_file>
AV-unprocessed.smi

> <i_m_source_file_index>
527

> <i_lp_mmshare_version>
43012

> <i_f3d_flags>
0

> <s_epik_input>
W0NIM11bQ0BASF0xW0NIMl1bQ0gyXVtDSDJdW0NASF0oW0NASF0xW0NIM10pW05IXUMoPU8pW05IXUMoPU8pW0NIMl1uMltjSF1bY0hdbltjSF0y

> <s_epik_cmdline>
J2VwaWtfcHl0aG9uJywgJy1waCcsICc3LjAnLCAnLXRuJywgJzgnLCAnLW1hJywgJzIwMCcsICctbWV0YWxfYmluZGluZycsICctaW1hZScsICc8aW5maWxlLm1hZT4nLCAnLW9tYWUnLCAnPG91dGZpbGUubWFlPic=

> <r_lp_tautomer_probability>
1

> <r_epik_Ionization_Penalty>
0.816441

> <r_epik_Ionization_Penalty_Charging>
0

> <r_epik_Ionization_Penalty_Neutral>
0.816441

> <r_epik_State_Penalty>
0.849034

> <r_epik_Charging_Adjusted_Penalty>
0.849034

> <i_epik_Tot_Q>
1

> <i_epik_Tot_abs_Q>
1

> <r_epik_Metal_State_Penalty>
0.984327

> <b_epik_Metal_Only>
0

> <s_lp_Force_Field>
OPLS_2005

> <r_lp_Energy>
15.9829

> <b_lp_Chiralities_Consistent>
1

> <s_lp_Variant>
AV-unprocessed.smi:527-16

> <Gold.Version>
5.8.1

> <Gold.Id.Protein>
6NUR|6NUR_protein|mol2

> <Gold.PLP.Fitness>
45.8743

> <Gold.PLP.PLP>
-31.6428

> <Gold.PLP.part.hbond>
-3.0000

> <Gold.PLP.part.metal>
0.0000

> <Gold.PLP.part.buried>
-4.6982

> <Gold.PLP.part.nonpolar>
-24.6734

> <Gold.PLP.part.repulsive>
0.1181

> <Gold.PLP.ligand.clash>
0.0000

> <Gold.PLP.ligand.torsion>
0.3991

> <Gold.PLP.Chemscore.Hbond>
4.0000

> <Gold.PLP.Chemscore.CHOScore>
1.0000

> <Gold.PLP.Chemscore.Metal>
0.0000

> <Gold.Chemscore.Hbonds>
donor molecule, donor type, donor heavy atom, donor atom, acceptor molecule, acceptor atom, score
      L1  H     7    32       P1  7948  1.00
      L1  H    10    33       P1  7948  1.00
      L1  H    17    43       P1 10186  2.00
      L1  C    15    36       P1  7948  1.00

> <Gold.PLP.Chemscore.Internal.Correction>
0.0297

> <Gold.Rescore>
     Score         DG    S(hbond)    S(metal)    S(lipo)     H(rot)  DE(clash)    DE(int)     intcor
     15.11     -16.90       2.74        0.00      56.74       1.71       0.06       1.73       ----

> <Gold.Chemscore.Fitness>
15.1119

> <Gold.Chemscore.DG>
-16.8992

> <Gold.Chemscore.ZeroCoef>
-5.4800

> <Gold.Chemscore.Hbond>
2.7383

> <Gold.Chemscore.Metal>
0.0000

> <Gold.Chemscore.Lipo>
56.7404

> <Gold.Chemscore.Internal_Hbond>
0.0000

> <Gold.Chemscore.DEClash>
0.0580

> <Gold.Chemscore.DEInternal>
1.7293

> <Gold.Chemscore.Rot>
1.7052

> <Gold.Chemscore.Internal.Correction>
   9.000000E+99

> <Gold.Chemscore.Hbonds>
donor molecule, donor type, donor heavy atom, donor atom, acceptor molecule, acceptor atom, score
      L1  H     7    32       P1  7948  0.97
      L1  H    10    33       P1  7948  0.60
      L1  H    17    43       P1 10186  0.97

> <Gold.Chemscore.Hbond.Weighted>
-9.1458

> <Gold.Chemscore.Metal.Weighted>
-0.0000

> <Gold.Chemscore.Lipo.Weighted>
-6.6386

> <Gold.Chemscore.Internal_Hbond.Weighted>
0.0000

> <Gold.Chemscore.DEClash.Weighted>
0.0580

> <Gold.Chemscore.DEInternal.Weighted>
1.7293

> <Gold.Chemscore.Rot.Weighted>
4.3653

> <Gold.Chemscore.Internal.Correction.Weighted>
   9.000000E+99

> <Gold.Protein.RotatedTorsions>
[ 6907 6896 6895 6894 ] final  -57.07 input  -60.11 | X-H torsion
[ 7974 7965 7964 7962 ] final  172.53 input  175.53 | X-H torsion
[ 8008 7997 7996 7995 ] final -121.42 input   59.86 | X-H torsion
[ 10167 10162 10161 10158 ] final  -41.48 input  -65.29 | X-H torsion
[ 10718 10713 10712 10709 ] final   92.75 input   66.30 | X-H torsion
[ 10763 10752 10751 10750 ] final -111.18 input  -60.55 | X-H torsion
[ 11005 11000 10999 10996 ] final  118.32 input  -57.11 | X-H torsion

> <Gold.Protein.ActiveResidues>
 VAL166  LYS551  ARG553  GLY616  TRP617  ASP618  TYR619  PRO620  LYS621  CYS622 
 ASP623  PHE694  ASN695  SER759  ASP760  ASP761  ALA762  ILE779  LEU786  VAL792 
 PHE793  MET794  SER795  GLU796  ALA797  LYS798  CYS799  TRP800  GLU811  SER814 

> <Gold.Protein.RotatedAtoms>
  150.8116  134.7273  159.6692 H   0  0  0  0  0  0  0  0  0  0  0  0  # atno 6907 bound_to 6896
  152.4235  134.5908  159.9983 H   0  0  0  0  0  0  0  0  0  0  0  0  # atno 6908 bound_to 6896
  151.6116  133.3309  159.3104 H   0  0  0  0  0  0  0  0  0  0  0  0  # atno 6909 bound_to 6896
  144.7266  139.9513  143.6432 H   0  0  0  0  0  0  0  0  0  0  0  0  # atno 7974 bound_to 7965
  155.1478  140.0403  157.2814 H   0  0  0  0  0  0  0  0  0  0  0  0  # atno 8008 bound_to 7997
  154.6426  140.2550  155.7278 H   0  0  0  0  0  0  0  0  0  0  0  0  # atno 8009 bound_to 7997
  156.2540  140.2852  156.0826 H   0  0  0  0  0  0  0  0  0  0  0  0  # atno 8010 bound_to 7997
  140.7001  143.3092  151.3072 H   0  0  0  0  0  0  0  0  0  0  0  0  # atno 10167 bound_to 10162
  157.6957  131.0454  150.3930 H   0  0  0  0  0  0  0  0  0  0  0  0  # atno 10718 bound_to 10713
  154.8287  135.4537  154.0999 H   0  0  0  0  0  0  0  0  0  0  0  0  # atno 10763 bound_to 10752
  153.2291  135.6903  153.7917 H   0  0  0  0  0  0  0  0  0  0  0  0  # atno 10764 bound_to 10752
  153.7306  135.3327  155.3261 H   0  0  0  0  0  0  0  0  0  0  0  0  # atno 10765 bound_to 10752
  139.9105  134.9619  156.7485 H   0  0  0  0  0  0  0  0  0  0  0  0  # atno 11005 bound_to 11000
  146.0709  139.3698  143.0523 LP  0  0  0  0  0  0  0  0  0  0  0  0  # atno 17320 bound_to 7965
  145.7969  140.9789  143.1019 LP  0  0  0  0  0  0  0  0  0  0  0  0  # atno 17321 bound_to 7965
  139.6509  144.0364  152.2625 LP  0  0  0  0  0  0  0  0  0  0  0  0  # atno 17342 bound_to 10162
  139.9900  144.6368  150.7823 LP  0  0  0  0  0  0  0  0  0  0  0  0  # atno 17343 bound_to 10162
  156.4331  130.3976  149.6747 LP  0  0  0  0  0  0  0  0  0  0  0  0  # atno 17370 bound_to 10713
  156.3957  130.7649  151.2654 LP  0  0  0  0  0  0  0  0  0  0  0  0  # atno 17371 bound_to 10713
  140.6792  133.9489  155.7901 LP  0  0  0  0  0  0  0  0  0  0  0  0  # atno 17394 bound_to 11000
  141.0522  134.0468  157.3769 LP  0  0  0  0  0  0  0  0  0  0  0  0  # atno 17395 bound_to 11000

$$$$
