#       Name:                AV-unprocessed.smi:1077
#       Creating user name   scv26
#       Creation time:       Fri Mar 27 03:22:32 2020


#       File generated by GOLD software.
#

@<TRIPOS>MOLECULE
AV-unprocessed.smi:1077
    49    50     1
SMALL
NO_CHARGES


@<TRIPOS>ATOM
      1 ****        -3.8707  -3.8720  -3.0581 C.3            1 S1                 0.0000
      2 ****        -3.9543  -3.1861  -1.6860 C.3            1 S1                 0.0000
      3 ****        -3.3600  -1.8745  -1.6741 N.am           1 S1                 0.0000
      4 ****        -4.1238  -0.7303  -1.7751 C.2            1 S1                 0.0000
      5 ****        -3.5838   0.5057  -1.7719 C.2            1 S1                 0.0000
      6 ****        -4.3889   1.6776  -1.8734 C.1            1 S1                 0.0000
      7 ****        -5.0625   2.6151  -1.9573 N.1            1 S1                 0.0000
      8 ****        -2.1396   0.6969  -1.6643 C.2            1 S1                 0.0000
      9 ****        -1.6005   1.8050  -1.6462 O.2            1 S1                 0.0000
     10 ****        -1.3705  -0.4913  -1.5743 N.am           1 S1                 0.0000
     11 ****         0.0983  -0.3684  -1.4476 C.3            1 S1                 0.0000
     12 ****         0.5667  -0.1821   0.0032 C.2            1 S1                 0.0000
     13 ****        -0.1312  -0.5568   0.9467 O.2            1 S1                 0.0000
     14 ****         1.7668   0.3964   0.1608 N.am           1 S1                 0.0000
     15 ****         2.4068   0.6832   1.4410 C.3            1 S1                 0.0000
     16 ****         1.8138   1.9610   2.0723 C.3            1 S1                 0.0000
     17 ****         2.5345   2.3325   3.3782 C.3            1 S1                 0.0000
     18 ****         4.0475   2.4804   3.1572 C.3            1 S1                 0.0000
     19 ****         4.6429   1.2054   2.5401 C.3            1 S1                 0.0000
     20 ****         3.9261   0.8314   1.2326 C.3            1 S1                 0.0000
     21 ****        -1.9524  -1.7822  -1.5702 C.2            1 S1                 0.0000
     22 ****        -1.2510  -2.7928  -1.4760 O.2            1 S1                 0.0000
     23 ****        -4.3778  -4.8367  -3.0376 H              1 S1                 0.0000
     24 ****        -2.8375  -4.0505  -3.3566 H              1 S1                 0.0000
     25 ****        -4.3427  -3.2651  -3.8310 H              1 S1                 0.0000
     26 ****        -4.9951  -3.0460  -1.3906 H              1 S1                 0.0000
     27 ****        -3.4800  -3.7690  -0.8941 H              1 S1                 0.0000
     28 ****        -5.1969  -0.8261  -1.8591 H              1 S1                 0.0000
     29 ****         0.6114  -1.2376  -1.8608 H              1 S1                 0.0000
     30 ****         0.4642   0.4643  -2.0513 H              1 S1                 0.0000
     31 ****         2.2726   0.6675  -0.6700 H              1 S1                 0.0000
     32 ****         2.2369  -0.1574   2.1167 H              1 S1                 0.0000
     33 ****         1.8933   2.7908   1.3684 H              1 S1                 0.0000
     34 ****         0.7499   1.8269   2.2712 H              1 S1                 0.0000
     35 ****         2.1245   3.2608   3.7772 H              1 S1                 0.0000
     36 ****         2.3478   1.5640   4.1292 H              1 S1                 0.0000
     37 ****         4.2397   3.3297   2.5003 H              1 S1                 0.0000
     38 ****         4.5422   2.7028   4.1031 H              1 S1                 0.0000
     39 ****         5.7079   1.3456   2.3529 H              1 S1                 0.0000
     40 ****         4.5596   0.3821   3.2507 H              1 S1                 0.0000
     41 ****         4.3418  -0.0977   0.8404 H              1 S1                 0.0000
     42 ****         4.1234   1.5988   0.4823 H              1 S1                 0.0000
     43 ****        -5.6445   3.4250  -2.0298 LP             1 S1                 0.0000
     44 ****        -2.1577   2.6331  -1.7069 LP             1 S1                 0.0000
     45 ****        -0.6059   1.8759  -1.5708 LP             1 S1                 0.0000
     46 ****        -1.0161  -0.9891   0.7733 LP             1 S1                 0.0000
     47 ****         0.1872  -0.4287   1.8860 LP             1 S1                 0.0000
     48 ****        -1.6761  -3.6979  -1.4721 LP             1 S1                 0.0000
     49 ****        -0.2573  -2.7068  -1.4035 LP             1 S1                 0.0000
@<TRIPOS>BOND
    1    1    2 1     
    2    1   23 1     
    3    1   24 1     
    4    1   25 1     
    5    2    3 1     
    6    2   26 1     
    7    2   27 1     
    8    3   21 am    
    9    3    4 1     
   10    4    5 2     
   11    4   28 1     
   12    5    6 1     
   13    5    8 1     
   14    6    7 3     
   15    8    9 2     
   16    8   10 am    
   17   10   11 1     
   18   10   21 am    
   19   11   12 1     
   20   11   29 1     
   21   11   30 1     
   22   12   13 2     
   23   12   14 am    
   24   14   15 1     
   25   14   31 1     
   26   15   20 1     
   27   15   16 1     
   28   15   32 1     
   29   16   17 1     
   30   16   33 1     
   31   16   34 1     
   32   17   18 1     
   33   17   35 1     
   34   17   36 1     
   35   18   19 1     
   36   18   37 1     
   37   18   38 1     
   38   19   20 1     
   39   19   39 1     
   40   19   40 1     
   41   20   41 1     
   42   20   42 1     
   43   21   22 2     
   44    7   43 1     
   45    9   44 1     
   46    9   45 1     
   47   13   46 1     
   48   13   47 1     
   49   22   48 1     
   50   22   49 1     
@<TRIPOS>SUBSTRUCTURE
      1 S1             1
@<TRIPOS>SET
LONE_PAIRS      STATIC     ATOMS    <user>   **** ""
7 43 44 45 46 47 48 49
DONOR_HYDROGENS      STATIC     ATOMS    <user>   **** ""
1 31
ATOM$BLUE        STATIC     ATOMS    COLORGROUP SYSTEM
7 43 44 45 46 47 48 49
ATOM$RED        STATIC     ATOMS    COLORGROUP SYSTEM
1 31
