AV-unprocessed.smi:3154|AV-procd|sdf|12021|dock1
  -GOLD-   2272017433D 1   1.00000     0.00000
 Structure written by MMmdl.
 35 36  0  0  0  0  0  0  0  0  2 V2000
  145.8362  135.1955  152.5863 C   0  0  0  0  0  0  0  0  0  0  0  0
  145.2828  136.0940  151.4675 C   0  0  2  0  0  0  0  0  0  0  0  0
  144.5178  135.2900  150.3901 C   0  0  0  0  0  0  0  0  0  0  0  0
  144.6406  133.8533  150.5594 N   0  0  0  0  0  0  0  0  0  0  0  0
  143.6417  132.9202  150.7425 C   0  0  0  0  0  0  0  0  0  0  0  0
  144.2438  131.7013  150.8692 C   0  0  0  0  0  0  0  0  0  0  0  0
  145.6313  131.9954  150.7548 C   0  0  0  0  0  0  0  0  0  0  0  0
  145.8656  133.2852  150.5737 N   0  0  0  0  0  0  0  0  0  0  0  0
  146.3918  136.8669  150.8659 N   0  3  0  0  0  0  0  0  0  0  0  0
  146.5197  138.2635  151.3378 C   0  0  0  0  0  0  0  0  0  0  0  0
  146.9796  138.3430  152.7946 C   0  0  0  0  0  0  0  0  0  0  0  0
  146.3231  137.8105  153.6905 O   0  0  0  0  0  0  0  0  0  0  0  0
  148.1227  139.0095  153.0113 N   0  0  0  0  0  0  0  0  0  0  0  0
  148.7454  139.1973  154.2820 C   0  0  0  0  0  0  0  0  0  0  0  0
  149.7659  140.3075  154.4096 C   0  0  0  0  0  0  0  0  0  0  0  0
  150.2199  138.8742  154.3940 C   0  0  0  0  0  0  0  0  0  0  0  0
  145.0373  134.6777  153.1179 H   0  0  0  0  0  0  0  0  0  0  0  0
  146.3846  135.7817  153.3244 H   0  0  0  0  0  0  0  0  0  0  0  0
  146.5157  134.4404  152.1896 H   0  0  0  0  0  0  0  0  0  0  0  0
  144.5983  136.8048  151.9332 H   0  0  0  0  0  0  0  0  0  0  0  0
  143.4549  135.5315  150.4009 H   0  0  0  0  0  0  0  0  0  0  0  0
  144.8852  135.5509  149.3967 H   0  0  0  0  0  0  0  0  0  0  0  0
  142.5977  133.1963  150.7665 H   0  0  0  0  0  0  0  0  0  0  0  0
  143.7668  130.7448  151.0230 H   0  0  0  0  0  0  0  0  0  0  0  0
  146.4688  131.3149  150.7995 H   0  0  0  0  0  0  0  0  0  0  0  0
  147.2559  136.3975  151.0959 H   0  0  0  0  0  0  0  0  0  0  0  0
  147.2381  138.8050  150.7230 H   0  0  0  0  0  0  0  0  0  0  0  0
  145.5578  138.7682  151.2394 H   0  0  0  0  0  0  0  0  0  0  0  0
  148.5944  139.4119  152.2140 H   0  0  0  0  0  0  0  0  0  0  0  0
  148.1459  138.9944  155.1684 H   0  0  0  0  0  0  0  0  0  0  0  0
  149.9770  140.9104  153.5285 H   0  0  0  0  0  0  0  0  0  0  0  0
  149.8127  140.8387  155.3583 H   0  0  0  0  0  0  0  0  0  0  0  0
  150.5713  138.4489  155.3320 H   0  0  0  0  0  0  0  0  0  0  0  0
  150.7344  138.5214  153.5022 H   0  0  0  0  0  0  0  0  0  0  0  0
  146.2898  136.8651  149.8611 H   0  0  0  0  0  0  0  0  0  0  0  0
  1  2  1  0  0  0  0
  1 17  1  0  0  0  0
  1 18  1  0  0  0  0
  1 19  1  0  0  0  0
  2  3  1  0  0  0  0
  2  9  1  0  0  0  0
  2 20  1  0  0  0  0
  3  4  1  0  0  0  0
  3 21  1  0  0  0  0
  3 22  1  0  0  0  0
  4  8  1  0  0  0  0
  4  5  1  0  0  0  0
  5  6  2  0  0  0  0
  5 23  1  0  0  0  0
  6  7  1  0  0  0  0
  6 24  1  0  0  0  0
  7  8  2  0  0  0  0
  7 25  1  0  0  0  0
  9 10  1  0  0  0  0
  9 26  1  0  0  0  0
  9 35  1  0  0  0  0
 10 11  1  0  0  0  0
 10 27  1  0  0  0  0
 10 28  1  0  0  0  0
 11 12  2  0  0  0  0
 11 13  1  0  0  0  0
 13 14  1  0  0  0  0
 13 29  1  0  0  0  0
 14 16  1  0  0  0  0
 14 15  1  0  0  0  0
 14 30  1  0  0  0  0
 15 16  1  0  0  0  0
 15 31  1  0  0  0  0
 15 32  1  0  0  0  0
 16 33  1  0  0  0  0
 16 34  1  0  0  0  0
M  CHG  1   9   1
M  END
> <s_m_source_file>
AV-unprocessed.smi

> <i_m_source_file_index>
3154

> <i_lp_mmshare_version>
43012

> <i_f3d_flags>
0

> <s_epik_input>
bjFbY0hdW2NIXVtjSF1uMVtDSDJdW0NAQEhdKFtDSDNdKVtOSF1bQ0gyXUMoPU8pW05IXVtDSF0yW0NIMl1bQ0gyXTI=

> <s_epik_cmdline>
J2VwaWtfcHl0aG9uJywgJy1waCcsICc3LjAnLCAnLXRuJywgJzgnLCAnLW1hJywgJzIwMCcsICctbWV0YWxfYmluZGluZycsICctaW1hZScsICc8aW5maWxlLm1hZT4nLCAnLW9tYWUnLCAnPG91dGZpbGUubWFlPic=

> <r_lp_tautomer_probability>
1

> <r_epik_Ionization_Penalty>
0.12065

> <r_epik_Ionization_Penalty_Charging>
0.120646

> <r_epik_Ionization_Penalty_Neutral>
4.1343e-06

> <r_epik_State_Penalty>
0.110186

> <r_epik_Charging_Adjusted_Penalty>
0.230832

> <i_epik_Tot_Q>
1

> <i_epik_Tot_abs_Q>
1

> <r_epik_Metal_State_Penalty>
0.110197

> <b_epik_Metal_Only>
0

> <s_lp_Force_Field>
OPLS_2005

> <r_lp_Energy>
15.3848

> <b_lp_Chiralities_Consistent>
1

> <s_lp_Variant>
AV-unprocessed.smi:3154-1

> <Gold.Version>
5.8.1

> <Gold.Id.Protein>
6NUR|6NUR_protein|mol2

> <Gold.PLP.Fitness>
46.0879

> <Gold.PLP.PLP>
-34.0254

> <Gold.PLP.part.hbond>
-2.8566

> <Gold.PLP.part.metal>
0.0000

> <Gold.PLP.part.buried>
-2.1154

> <Gold.PLP.part.nonpolar>
-30.4228

> <Gold.PLP.part.repulsive>
0.5261

> <Gold.PLP.ligand.clash>
0.0000

> <Gold.PLP.ligand.torsion>
1.5268

> <Gold.PLP.Chemscore.Hbond>
3.0000

> <Gold.PLP.Chemscore.CHOScore>
2.0000

> <Gold.PLP.Chemscore.Metal>
0.0000

> <Gold.Chemscore.Hbonds>
donor molecule, donor type, donor heavy atom, donor atom, acceptor molecule, acceptor atom, score
      L1  H     9    26       P1  7948  2.00
      L1  H    13    29       P1  7957  1.00
      L1  C     5    23       P1 10186  1.00
      L1  C     7    25       P1 10747  0.83

> <Gold.PLP.Chemscore.Internal.Correction>
0.1160

> <Gold.Rescore>
     Score         DG    S(hbond)    S(metal)    S(lipo)     H(rot)  DE(clash)    DE(int)     intcor
     11.64     -14.92       2.00        0.00      71.84       2.20       0.20       3.08       ----

> <Gold.Chemscore.Fitness>
11.6393

> <Gold.Chemscore.DG>
-14.9218

> <Gold.Chemscore.ZeroCoef>
-5.4800

> <Gold.Chemscore.Hbond>
1.9998

> <Gold.Chemscore.Metal>
0.0000

> <Gold.Chemscore.Lipo>
71.8390

> <Gold.Chemscore.Internal_Hbond>
0.0000

> <Gold.Chemscore.DEClash>
0.2041

> <Gold.Chemscore.DEInternal>
3.0783

> <Gold.Chemscore.Rot>
2.2042

> <Gold.Chemscore.Internal.Correction>
   9.000000E+99

> <Gold.Chemscore.Hbonds>
donor molecule, donor type, donor heavy atom, donor atom, acceptor molecule, acceptor atom, score
      L1  H     9    26       P1  7948  0.98
      L1  H    13    29       P1  7957  0.97

> <Gold.Chemscore.Hbond.Weighted>
-6.6793

> <Gold.Chemscore.Metal.Weighted>
-0.0000

> <Gold.Chemscore.Lipo.Weighted>
-8.4052

> <Gold.Chemscore.Internal_Hbond.Weighted>
0.0000

> <Gold.Chemscore.DEClash.Weighted>
0.2041

> <Gold.Chemscore.DEInternal.Weighted>
3.0783

> <Gold.Chemscore.Rot.Weighted>
5.6427

> <Gold.Chemscore.Internal.Correction.Weighted>
   9.000000E+99

> <Gold.Protein.RotatedTorsions>
[ 6907 6896 6895 6894 ] final -124.78 input  -60.11 | X-H torsion
[ 7974 7965 7964 7962 ] final -112.49 input  175.53 | X-H torsion
[ 8008 7997 7996 7995 ] final    4.16 input   59.86 | X-H torsion
[ 10167 10162 10161 10158 ] final  -56.94 input  -65.29 | X-H torsion
[ 10718 10713 10712 10709 ] final  101.46 input   66.30 | X-H torsion
[ 10763 10752 10751 10750 ] final  -54.97 input  -60.55 | X-H torsion
[ 11005 11000 10999 10996 ] final -170.59 input  -57.11 | X-H torsion

> <Gold.Protein.ActiveResidues>
 VAL166  LYS551  ARG553  GLY616  TRP617  ASP618  TYR619  PRO620  LYS621  CYS622 
 ASP623  PHE694  ASN695  SER759  ASP760  ASP761  ALA762  ILE779  LEU786  VAL792 
 PHE793  MET794  SER795  GLU796  ALA797  LYS798  CYS799  TRP800  GLU811  SER814 

> <Gold.Protein.RotatedAtoms>
  150.8802  133.7383  159.2934 H   0  0  0  0  0  0  0  0  0  0  0  0  # atno 6907 bound_to 6896
  151.4966  135.1058  159.9827 H   0  0  0  0  0  0  0  0  0  0  0  0  # atno 6908 bound_to 6896
  152.4754  133.8081  159.7044 H   0  0  0  0  0  0  0  0  0  0  0  0  # atno 6909 bound_to 6896
  145.1433  140.8790  143.3689 H   0  0  0  0  0  0  0  0  0  0  0  0  # atno 7974 bound_to 7965
  154.7125  140.2695  155.6616 H   0  0  0  0  0  0  0  0  0  0  0  0  # atno 8008 bound_to 7997
  156.2799  140.2750  156.1695 H   0  0  0  0  0  0  0  0  0  0  0  0  # atno 8009 bound_to 7997
  155.0615  140.0371  157.2568 H   0  0  0  0  0  0  0  0  0  0  0  0  # atno 8010 bound_to 7997
  140.6287  143.2450  151.5296 H   0  0  0  0  0  0  0  0  0  0  0  0  # atno 10167 bound_to 10162
  157.6829  131.0727  150.5255 H   0  0  0  0  0  0  0  0  0  0  0  0  # atno 10718 bound_to 10713
  154.1833  135.6439  153.5040 H   0  0  0  0  0  0  0  0  0  0  0  0  # atno 10763 bound_to 10752
  153.0053  135.5411  154.6492 H   0  0  0  0  0  0  0  0  0  0  0  0  # atno 10764 bound_to 10752
  154.5861  135.2930  155.0655 H   0  0  0  0  0  0  0  0  0  0  0  0  # atno 10765 bound_to 10752
  140.5178  134.5739  157.5038 H   0  0  0  0  0  0  0  0  0  0  0  0  # atno 11005 bound_to 11000
  145.0508  139.3183  143.5929 LP  0  0  0  0  0  0  0  0  0  0  0  0  # atno 17320 bound_to 7965
  146.3503  139.9916  142.8685 LP  0  0  0  0  0  0  0  0  0  0  0  0  # atno 17321 bound_to 7965
  139.5504  144.2411  152.1520 LP  0  0  0  0  0  0  0  0  0  0  0  0  # atno 17342 bound_to 10162
  140.1649  144.4991  150.6612 LP  0  0  0  0  0  0  0  0  0  0  0  0  # atno 17343 bound_to 10162
  156.5567  130.4245  149.6082 LP  0  0  0  0  0  0  0  0  0  0  0  0  # atno 17370 bound_to 10713
  156.2856  130.7095  151.1931 LP  0  0  0  0  0  0  0  0  0  0  0  0  # atno 17371 bound_to 10713
  139.9623  134.7432  156.0212 LP  0  0  0  0  0  0  0  0  0  0  0  0  # atno 17394 bound_to 11000
  141.1351  133.6577  156.3570 LP  0  0  0  0  0  0  0  0  0  0  0  0  # atno 17395 bound_to 11000

$$$$
