#       Name:                AV-unprocessed.smi:2061
#       Creating user name   scv26
#       Creation time:       Fri Mar 27 11:04:53 2020


#       File generated by GOLD software.
#

@<TRIPOS>MOLECULE
AV-unprocessed.smi:2061
    53    54     1
SMALL
NO_CHARGES


@<TRIPOS>ATOM
      1 ****        -3.6933   6.8151  -1.6729 C.3            1 S1                 0.0000
      2 ****        -3.2310   5.4370  -1.3433 C.2            1 S1                 0.0000
      3 ****        -3.1018   4.7564  -0.1654 C.2            1 S1                 0.0000
      4 ****        -2.6072   3.4913  -0.5799 C.2            1 S1                 0.0000
      5 ****        -2.3309   2.4728   0.3673 N.am           1 S1                 0.0000
      6 ****        -1.8466   1.2426   0.1282 C.2            1 S1                 0.0000
      7 ****        -1.5770   0.7877  -0.9841 O.2            1 S1                 0.0000
      8 ****        -1.6781   0.5537   1.2663 N.am           1 S1                 0.0000
      9 ****        -1.1457  -0.8036   1.3465 C.3            1 S1                 0.0000
     10 ****         0.3823  -0.8781   1.0762 C.3            1 S1                 0.0000
     11 ****         1.1381   0.0358   2.0714 C.3            1 S1                 0.0000
     12 ****         0.8558  -2.3036   1.1099 N.4            1 S1                 1.0000
     13 ****         0.4063  -3.1312  -0.0440 C.3            1 S1                 0.0000
     14 ****         1.2325  -2.8356  -1.3167 C.3            1 S1                 0.0000
     15 ****         0.8530  -3.7650  -2.4750 C.3            1 S1                 0.0000
     16 ****         2.6160  -3.0251  -1.0369 O.3            1 S1                 0.0000
     17 ****         3.0950  -2.1855   0.0085 C.3            1 S1                 0.0000
     18 ****         4.5995  -2.4311   0.1635 C.3            1 S1                 0.0000
     19 ****         2.3164  -2.5185   1.2974 C.3            1 S1                 0.0000
     20 ****        -2.4484   3.4068  -1.8919 N.2            1 S1                 0.0000
     21 ****        -2.8487   4.6532  -2.3881 O.3            1 S1                 0.0000
     22 ****        -3.7703   7.4258  -0.7732 H              1 S1                 0.0000
     23 ****        -4.6736   6.7896  -2.1490 H              1 S1                 0.0000
     24 ****        -2.9979   7.3051  -2.3545 H              1 S1                 0.0000
     25 ****        -3.3252   5.1100   0.8303 H              1 S1                 0.0000
     26 ****        -2.5112   2.7121   1.3310 H              1 S1                 0.0000
     27 ****        -1.9293   0.9992   2.1370 H              1 S1                 0.0000
     28 ****        -1.3613  -1.1899   2.3432 H              1 S1                 0.0000
     29 ****        -1.7188  -1.4188   0.6548 H              1 S1                 0.0000
     30 ****         0.5783  -0.4794   0.0817 H              1 S1                 0.0000
     31 ****         0.7409   1.0507   2.0741 H              1 S1                 0.0000
     32 ****         2.1915   0.1394   1.8128 H              1 S1                 0.0000
     33 ****         1.0699  -0.3433   3.0916 H              1 S1                 0.0000
     34 ****         0.5347  -4.1799   0.2285 H              1 S1                 0.0000
     35 ****        -0.6557  -3.0146  -0.2467 H              1 S1                 0.0000
     36 ****         1.0728  -1.8080  -1.6444 H              1 S1                 0.0000
     37 ****        -0.1982  -3.6518  -2.7407 H              1 S1                 0.0000
     38 ****         1.0220  -4.8104  -2.2158 H              1 S1                 0.0000
     39 ****         1.4451  -3.5431  -3.3632 H              1 S1                 0.0000
     40 ****         2.9436  -1.1409  -0.2676 H              1 S1                 0.0000
     41 ****         5.0202  -1.8038   0.9497 H              1 S1                 0.0000
     42 ****         5.1288  -2.2022  -0.7619 H              1 S1                 0.0000
     43 ****         4.8068  -3.4711   0.4175 H              1 S1                 0.0000
     44 ****         2.7088  -1.9792   2.1579 H              1 S1                 0.0000
     45 ****         2.4710  -3.5710   1.5405 H              1 S1                 0.0000
     46 ****         0.4201  -2.6987   1.9310 H              1 S1                 0.0000
     47 ****        -1.7158   1.3481  -1.8006 LP             1 S1                 0.0000
     48 ****        -1.2193  -0.1421  -1.0708 LP             1 S1                 0.0000
     49 ****         3.1382  -2.8292  -1.8669 LP             1 S1                 0.0000
     50 ****         2.7591  -3.9783  -0.7703 LP             1 S1                 0.0000
     51 ****        -2.1148   2.6225  -2.4150 LP             1 S1                 0.0000
     52 ****        -2.0859   5.0840  -2.8704 LP             1 S1                 0.0000
     53 ****        -3.6164   4.5338  -3.0177 LP             1 S1                 0.0000
@<TRIPOS>BOND
    1    1    2 1     
    2    1   22 1     
    3    1   23 1     
    4    1   24 1     
    5    2   21 1     
    6    2    3 2     
    7    3    4 1     
    8    3   25 1     
    9    4    5 1     
   10    4   20 2     
   11    5    6 am    
   12    5   26 1     
   13    6    7 2     
   14    6    8 am    
   15    8    9 1     
   16    8   27 1     
   17    9   10 1     
   18    9   28 1     
   19    9   29 1     
   20   10   11 1     
   21   10   12 1     
   22   10   30 1     
   23   11   31 1     
   24   11   32 1     
   25   11   33 1     
   26   12   19 1     
   27   12   13 1     
   28   12   46 1     
   29   13   14 1     
   30   13   34 1     
   31   13   35 1     
   32   14   15 1     
   33   14   16 1     
   34   14   36 1     
   35   15   37 1     
   36   15   38 1     
   37   15   39 1     
   38   16   17 1     
   39   17   18 1     
   40   17   19 1     
   41   17   40 1     
   42   18   41 1     
   43   18   42 1     
   44   18   43 1     
   45   19   44 1     
   46   19   45 1     
   47   20   21 1     
   48    7   47 1     
   49    7   48 1     
   50   16   49 1     
   51   16   50 1     
   52   20   51 1     
   53   21   52 1     
   54   21   53 1     
@<TRIPOS>SUBSTRUCTURE
      1 S1             1
@<TRIPOS>SET
LONE_PAIRS      STATIC     ATOMS    <user>   **** ""
7 47 48 49 50 51 52 53
DONOR_HYDROGENS      STATIC     ATOMS    <user>   **** ""
3 26 27 46
ATOM$BLUE        STATIC     ATOMS    COLORGROUP SYSTEM
7 47 48 49 50 51 52 53
ATOM$RED        STATIC     ATOMS    COLORGROUP SYSTEM
3 26 27 46
