AV-unprocessed.smi:523|AV-procd|sdf|2804|dock7
  -GOLD-   2262023283D 1   1.00000     0.00000
 Structure written by MMmdl.
 40 42  0  0  0  0  0  0  0  0  2 V2000
  145.1731  138.2319  160.9939 C   0  0  0  0  0  0  0  0  0  0  0  0
  146.1321  139.1729  160.5472 O   0  0  0  0  0  0  0  0  0  0  0  0
  146.2175  139.2354  159.1327 C   0  0  0  0  0  0  0  0  0  0  0  0
  146.7117  137.8885  158.5876 C   0  0  0  0  0  0  0  0  0  0  0  0
  148.1103  137.6387  158.9346 N   0  0  0  0  0  0  0  0  0  0  0  0
  148.6206  136.7650  159.8470 C   0  0  0  0  0  0  0  0  0  0  0  0
  147.8134  135.9648  160.6572 N   0  0  0  0  0  0  0  0  0  0  0  0
  147.0490  134.7908  160.2460 C   0  0  0  0  0  0  0  0  0  0  0  0
  147.2514  133.6326  161.2392 C   0  0  0  0  0  0  0  0  0  0  0  0
  146.8214  134.0483  162.5303 O   0  0  0  0  0  0  0  0  0  0  0  0
  147.5415  135.1884  162.9852 C   0  0  0  0  0  0  0  0  0  0  0  0
  147.3565  136.3479  161.9888 C   0  0  0  0  0  0  0  0  0  0  0  0
  149.9535  136.7051  159.8728 N   0  0  0  0  0  0  0  0  0  0  0  0
  150.3277  137.6387  158.9198 C   0  0  0  0  0  0  0  0  0  0  0  0
  149.2397  138.2086  158.3363 C   0  0  0  0  0  0  0  0  0  0  0  0
  149.3212  139.2155  157.2543 C   0  0  0  0  0  0  0  0  0  0  0  0
  148.3059  139.6836  156.7430 O   0  0  0  0  0  0  0  0  0  0  0  0
  150.6170  139.5214  156.9285 N   0  5  0  0  0  0  0  0  0  0  0  0
  151.7466  138.9737  157.4977 C   0  0  0  0  0  0  0  0  0  0  0  0
  152.8789  139.3026  157.1415 O   0  0  0  0  0  0  0  0  0  0  0  0
  151.6228  138.0345  158.4877 N   0  0  0  0  0  0  0  0  0  0  0  0
  152.8056  137.4276  159.1050 C   0  0  0  0  0  0  0  0  0  0  0  0
  145.1573  138.2158  162.0837 H   0  0  0  0  0  0  0  0  0  0  0  0
  145.4134  137.2268  160.6450 H   0  0  0  0  0  0  0  0  0  0  0  0
  144.1734  138.4946  160.6462 H   0  0  0  0  0  0  0  0  0  0  0  0
  145.2413  139.4782  158.7103 H   0  0  0  0  0  0  0  0  0  0  0  0
  146.9073  140.0267  158.8360 H   0  0  0  0  0  0  0  0  0  0  0  0
  146.0961  137.0722  158.9621 H   0  0  0  0  0  0  0  0  0  0  0  0
  146.5747  137.8673  157.5120 H   0  0  0  0  0  0  0  0  0  0  0  0
  145.9921  135.0566  160.2019 H   0  0  0  0  0  0  0  0  0  0  0  0
  147.3184  134.4905  159.2341 H   0  0  0  0  0  0  0  0  0  0  0  0
  146.6657  132.7659  160.9333 H   0  0  0  0  0  0  0  0  0  0  0  0
  148.2961  133.3191  161.2738 H   0  0  0  0  0  0  0  0  0  0  0  0
  147.1680  135.4735  163.9687 H   0  0  0  0  0  0  0  0  0  0  0  0
  148.5974  134.9414  163.1041 H   0  0  0  0  0  0  0  0  0  0  0  0
  147.9173  137.2178  162.3322 H   0  0  0  0  0  0  0  0  0  0  0  0
  146.3087  136.6476  161.9417 H   0  0  0  0  0  0  0  0  0  0  0  0
  153.4633  138.1949  159.5155 H   0  0  0  0  0  0  0  0  0  0  0  0
  153.3676  136.8558  158.3656 H   0  0  0  0  0  0  0  0  0  0  0  0
  152.5532  136.7500  159.9199 H   0  0  0  0  0  0  0  0  0  0  0  0
  1  2  1  0  0  0  0
  1 23  1  0  0  0  0
  1 24  1  0  0  0  0
  1 25  1  0  0  0  0
  2  3  1  0  0  0  0
  3  4  1  0  0  0  0
  3 26  1  0  0  0  0
  3 27  1  0  0  0  0
  4  5  1  0  0  0  0
  4 28  1  0  0  0  0
  4 29  1  0  0  0  0
  5 15  1  0  0  0  0
  5  6  1  0  0  0  0
  6  7  1  0  0  0  0
  6 13  2  0  0  0  0
  7 12  1  0  0  0  0
  7  8  1  0  0  0  0
  8  9  1  0  0  0  0
  8 30  1  0  0  0  0
  8 31  1  0  0  0  0
  9 10  1  0  0  0  0
  9 32  1  0  0  0  0
  9 33  1  0  0  0  0
 10 11  1  0  0  0  0
 11 12  1  0  0  0  0
 11 34  1  0  0  0  0
 11 35  1  0  0  0  0
 12 36  1  0  0  0  0
 12 37  1  0  0  0  0
 13 14  1  0  0  0  0
 14 21  1  0  0  0  0
 14 15  2  0  0  0  0
 15 16  1  0  0  0  0
 16 17  2  0  0  0  0
 16 18  1  0  0  0  0
 18 19  1  0  0  0  0
 19 20  2  0  0  0  0
 19 21  1  0  0  0  0
 21 22  1  0  0  0  0
 22 38  1  0  0  0  0
 22 39  1  0  0  0  0
 22 40  1  0  0  0  0
M  CHG  1  18  -1
M  END
> <s_m_source_file>
AV-unprocessed.smi

> <i_m_source_file_index>
523

> <i_lp_mmshare_version>
43012

> <i_f3d_flags>
0

> <s_epik_input>
W0NIM11uMWMoPU8pW25IXWMoPU8pYyhjMTIpbihbQ0gyXVtDSDJdT1tDSDNdKWMobjIpTjNbQ0gyXVtDSDJdT1tDSDJdW0NIMl0z

> <s_epik_cmdline>
J2VwaWtfcHl0aG9uJywgJy1waCcsICc3LjAnLCAnLXRuJywgJzgnLCAnLW1hJywgJzIwMCcsICctbWV0YWxfYmluZGluZycsICctaW1hZScsICc8aW5maWxlLm1hZT4nLCAnLW9tYWUnLCAnPG91dGZpbGUubWFlPic=

> <r_lp_tautomer_probability>
1

> <r_epik_Ionization_Penalty>
4.75788

> <r_epik_Ionization_Penalty_Charging>
0.0452179

> <r_epik_Ionization_Penalty_Neutral>
4.71266

> <r_epik_State_Penalty>
4.71244

> <r_epik_Charging_Adjusted_Penalty>
4.75766

> <i_epik_Tot_Q>
-1

> <i_epik_Tot_abs_Q>
1

> <r_epik_Metal_State_Penalty>
0.934872

> <b_epik_Metal_Only>
1

> <s_lp_Force_Field>
OPLS_2005

> <r_lp_Energy>
41.5278

> <b_lp_Chiralities_Consistent>
1

> <s_lp_Variant>
AV-unprocessed.smi:523-2

> <Gold.Version>
5.8.1

> <Gold.Id.Protein>
6NUR|6NUR_protein|mol2

> <Gold.PLP.Fitness>
34.9715

> <Gold.PLP.PLP>
-30.4809

> <Gold.PLP.part.hbond>
-3.9715

> <Gold.PLP.part.metal>
0.0000

> <Gold.PLP.part.buried>
-5.4040

> <Gold.PLP.part.nonpolar>
-21.6691

> <Gold.PLP.part.repulsive>
0.0004

> <Gold.PLP.ligand.clash>
0.0000

> <Gold.PLP.ligand.torsion>
1.6529

> <Gold.PLP.Chemscore.Hbond>
2.4713

> <Gold.PLP.Chemscore.CHOScore>
0.0000

> <Gold.PLP.Chemscore.Metal>
0.0000

> <Gold.Chemscore.Hbonds>
donor molecule, donor type, donor heavy atom, donor atom, acceptor molecule, acceptor atom, score
      P1  H  6896  6907       L1    13  1.00
      P1  H  7997  8010       L1    20  1.00

> <Gold.PLP.Chemscore.Internal.Correction>
0.3828

> <Gold.Rescore>
     Score         DG    S(hbond)    S(metal)    S(lipo)     H(rot)  DE(clash)    DE(int)     intcor
     12.18     -13.72       2.25        0.00      39.32       1.52       0.00       1.54       ----

> <Gold.Chemscore.Fitness>
12.1810

> <Gold.Chemscore.DG>
-13.7238

> <Gold.Chemscore.ZeroCoef>
-5.4800

> <Gold.Chemscore.Hbond>
2.2527

> <Gold.Chemscore.Metal>
0.0000

> <Gold.Chemscore.Lipo>
39.3192

> <Gold.Chemscore.Internal_Hbond>
0.0000

> <Gold.Chemscore.DEClash>
0.0000

> <Gold.Chemscore.DEInternal>
1.5428

> <Gold.Chemscore.Rot>
1.5159

> <Gold.Chemscore.Internal.Correction>
   9.000000E+99

> <Gold.Chemscore.Hbonds>
donor molecule, donor type, donor heavy atom, donor atom, acceptor molecule, acceptor atom, score
      P1  H  6896  6907       L1    13  0.86
      P1  H  7997  8010       L1    20  1.00

> <Gold.Chemscore.Hbond.Weighted>
-7.5241

> <Gold.Chemscore.Metal.Weighted>
-0.0000

> <Gold.Chemscore.Lipo.Weighted>
-4.6003

> <Gold.Chemscore.Internal_Hbond.Weighted>
0.0000

> <Gold.Chemscore.DEClash.Weighted>
0.0000

> <Gold.Chemscore.DEInternal.Weighted>
1.5428

> <Gold.Chemscore.Rot.Weighted>
3.8806

> <Gold.Chemscore.Internal.Correction.Weighted>
   9.000000E+99

> <Gold.Protein.RotatedTorsions>
[ 6907 6896 6895 6894 ] final  -32.88 input  -60.11 | X-H torsion
[ 7974 7965 7964 7962 ] final -108.36 input  175.53 | X-H torsion
[ 8008 7997 7996 7995 ] final   59.16 input   59.86 | X-H torsion
[ 10167 10162 10161 10158 ] final  152.81 input  -65.29 | X-H torsion
[ 10718 10713 10712 10709 ] final   42.59 input   66.30 | X-H torsion
[ 10763 10752 10751 10750 ] final  130.77 input  -60.55 | X-H torsion
[ 11005 11000 10999 10996 ] final -167.91 input  -57.11 | X-H torsion

> <Gold.Protein.ActiveResidues>
 VAL166  LYS551  ARG553  GLY616  TRP617  ASP618  TYR619  PRO620  LYS621  CYS622 
 ASP623  PHE694  ASN695  SER759  ASP760  ASP761  ALA762  ILE779  LEU786  VAL792 
 PHE793  MET794  SER795  GLU796  ALA797  LYS798  CYS799  TRP800  GLU811  SER814 

> <Gold.Protein.RotatedAtoms>
  151.0729  134.9810  159.8317 H   0  0  0  0  0  0  0  0  0  0  0  0  # atno 6907 bound_to 6896
  152.5410  134.2277  159.8822 H   0  0  0  0  0  0  0  0  0  0  0  0  # atno 6908 bound_to 6896
  151.2302  133.4411  159.2637 H   0  0  0  0  0  0  0  0  0  0  0  0  # atno 6909 bound_to 6896
  145.1939  140.9027  143.3409 H   0  0  0  0  0  0  0  0  0  0  0  0  # atno 7974 bound_to 7965
  155.5618  140.3488  155.4493 H   0  0  0  0  0  0  0  0  0  0  0  0  # atno 8008 bound_to 7997
  156.0509  140.1317  157.0077 H   0  0  0  0  0  0  0  0  0  0  0  0  # atno 8009 bound_to 7997
  154.4434  140.1005  156.6360 H   0  0  0  0  0  0  0  0  0  0  0  0  # atno 8010 bound_to 7997
  139.4830  144.5326  151.7697 H   0  0  0  0  0  0  0  0  0  0  0  0  # atno 10167 bound_to 10162
  157.4065  130.7889  149.7393 H   0  0  0  0  0  0  0  0  0  0  0  0  # atno 10718 bound_to 10713
  153.7634  135.3192  155.3341 H   0  0  0  0  0  0  0  0  0  0  0  0  # atno 10763 bound_to 10752
  154.8222  135.4595  154.0815 H   0  0  0  0  0  0  0  0  0  0  0  0  # atno 10764 bound_to 10752
  153.2053  135.6928  153.8264 H   0  0  0  0  0  0  0  0  0  0  0  0  # atno 10765 bound_to 10752
  140.5480  134.5457  157.5116 H   0  0  0  0  0  0  0  0  0  0  0  0  # atno 11005 bound_to 11000
  145.0014  139.3595  143.6165 LP  0  0  0  0  0  0  0  0  0  0  0  0  # atno 17320 bound_to 7965
  146.3431  139.9239  142.8763 LP  0  0  0  0  0  0  0  0  0  0  0  0  # atno 17321 bound_to 7965
  140.4855  144.1387  150.5940 LP  0  0  0  0  0  0  0  0  0  0  0  0  # atno 17342 bound_to 10162
  140.4230  143.2603  151.9691 LP  0  0  0  0  0  0  0  0  0  0  0  0  # atno 17343 bound_to 10162
  155.9838  130.3997  150.3345 LP  0  0  0  0  0  0  0  0  0  0  0  0  # atno 17370 bound_to 10713
  157.1478  131.0313  151.2898 LP  0  0  0  0  0  0  0  0  0  0  0  0  # atno 17371 bound_to 10713
  139.9470  134.7685  156.0539 LP  0  0  0  0  0  0  0  0  0  0  0  0  # atno 17394 bound_to 11000
  141.1188  133.6619  156.3163 LP  0  0  0  0  0  0  0  0  0  0  0  0  # atno 17395 bound_to 11000

$$$$
