AV-unprocessed.smi:2451|AV-procd|sdf|9673|dock4
  -GOLD-   2272013313D 1   1.00000     0.00000
 Structure written by MMmdl.
 38 39  0  0  0  0  0  0  0  0  1 V2000
  152.2448  143.4227  161.5310 C   0  0  0  0  0  0  0  0  0  0  0  0
  152.7983  143.7941  160.1395 C   0  0  2  0  0  0  0  0  0  0  0  0
  151.9571  144.9025  159.4749 C   0  0  0  0  0  0  0  0  0  0  0  0
  150.5901  144.3859  159.0002 C   0  0  0  0  0  0  0  0  0  0  0  0
  150.7535  143.1981  158.0424 C   0  0  0  0  0  0  0  0  0  0  0  0
  151.5988  142.0692  158.6629 C   0  0  1  0  0  0  0  0  0  0  0  0
  151.8018  141.0277  157.6511 N   0  0  0  0  0  0  0  0  0  0  0  0
  150.4223  140.3496  156.8697 S   0  0  0  0  0  0  0  0  0  0  0  0
  150.8507  139.1064  156.2097 O   0  0  0  0  0  0  0  0  0  0  0  0
  149.3276  140.3201  157.8515 O   0  0  0  0  0  0  0  0  0  0  0  0
  150.0428  141.6022  155.5735 C   0  0  0  0  0  0  0  0  0  0  0  0
  148.8346  141.1696  154.7935 C   0  0  0  0  0  0  0  0  0  0  0  0
  147.6394  141.8981  154.5398 C   0  0  0  0  0  0  0  0  0  0  0  0
  146.8920  141.0339  153.7929 C   0  0  0  0  0  0  0  0  0  0  0  0
  147.5617  139.8688  153.6030 O   0  0  0  0  0  0  0  0  0  0  0  0
  148.8005  139.9646  154.2471 N   0  0  0  0  0  0  0  0  0  0  0  0
  152.9660  142.5866  159.1774 C   0  0  2  0  0  0  0  0  0  0  0  0
  153.8273  141.4679  159.7970 C   0  0  0  0  0  0  0  0  0  0  0  0
  151.2780  142.9239  161.4701 H   0  0  0  0  0  0  0  0  0  0  0  0
  152.1156  144.3125  162.1475 H   0  0  0  0  0  0  0  0  0  0  0  0
  152.9238  142.7624  162.0700 H   0  0  0  0  0  0  0  0  0  0  0  0
  153.7909  144.2134  160.3102 H   0  0  0  0  0  0  0  0  0  0  0  0
  151.8220  145.7380  160.1626 H   0  0  0  0  0  0  0  0  0  0  0  0
  152.5024  145.3027  158.6192 H   0  0  0  0  0  0  0  0  0  0  0  0
  149.9819  144.0904  159.8555 H   0  0  0  0  0  0  0  0  0  0  0  0
  150.0453  145.1884  158.5023 H   0  0  0  0  0  0  0  0  0  0  0  0
  149.7714  142.8178  157.7583 H   0  0  0  0  0  0  0  0  0  0  0  0
  151.2253  143.5475  157.1226 H   0  0  0  0  0  0  0  0  0  0  0  0
  151.0457  141.6424  159.5003 H   0  0  0  0  0  0  0  0  0  0  0  0
  152.5149  141.3016  156.9756 H   0  0  0  0  0  0  0  0  0  0  0  0
  149.8850  142.5658  156.0586 H   0  0  0  0  0  0  0  0  0  0  0  0
  150.9119  141.6950  154.9223 H   0  0  0  0  0  0  0  0  0  0  0  0
  147.3755  142.8975  154.8523 H   0  0  0  0  0  0  0  0  0  0  0  0
  145.9117  141.0970  153.3440 H   0  0  0  0  0  0  0  0  0  0  0  0
  153.5164  142.9568  158.3106 H   0  0  0  0  0  0  0  0  0  0  0  0
  153.3017  140.9542  160.6021 H   0  0  0  0  0  0  0  0  0  0  0  0
  154.7574  141.8662  160.2026 H   0  0  0  0  0  0  0  0  0  0  0  0
  154.0959  140.7153  159.0553 H   0  0  0  0  0  0  0  0  0  0  0  0
  1  2  1  0  0  0  0
  1 19  1  0  0  0  0
  1 20  1  0  0  0  0
  1 21  1  0  0  0  0
  2 17  1  0  0  0  0
  2  3  1  0  0  0  0
  2 22  1  0  0  0  0
  3  4  1  0  0  0  0
  3 23  1  0  0  0  0
  3 24  1  0  0  0  0
  4  5  1  0  0  0  0
  4 25  1  0  0  0  0
  4 26  1  0  0  0  0
  5  6  1  0  0  0  0
  5 27  1  0  0  0  0
  5 28  1  0  0  0  0
  6  7  1  0  0  0  0
  6 17  1  0  0  0  0
  6 29  1  0  0  0  0
  7  8  1  0  0  0  0
  7 30  1  0  0  0  0
  8  9  2  0  0  0  0
  8 10  2  0  0  0  0
  8 11  1  0  0  0  0
 11 12  1  0  0  0  0
 11 31  1  0  0  0  0
 11 32  1  0  0  0  0
 12 16  2  0  0  0  0
 12 13  1  0  0  0  0
 13 14  2  0  0  0  0
 13 33  1  0  0  0  0
 14 15  1  0  0  0  0
 14 34  1  0  0  0  0
 15 16  1  0  0  0  0
 17 18  1  0  0  0  0
 17 35  1  0  0  0  0
 18 36  1  0  0  0  0
 18 37  1  0  0  0  0
 18 38  1  0  0  0  0
M  END
> <s_m_source_file>
AV-unprocessed.smi

> <i_m_source_file_index>
2451

> <i_lp_mmshare_version>
43012

> <i_f3d_flags>
0

> <s_epik_input>
W0NIM11bQ0BASF0xW0NIMl1bQ0gyXVtDSDJdW0NASF0oW0NASF0xW0NIM10pW05IXVMoPU8pKD1PKVtDSDJdYzJbY0hdW2NIXW9uMg==

> <s_epik_cmdline>
J2VwaWtfcHl0aG9uJywgJy1waCcsICc3LjAnLCAnLXRuJywgJzgnLCAnLW1hJywgJzIwMCcsICctbWV0YWxfYmluZGluZycsICctaW1hZScsICc8aW5maWxlLm1hZT4nLCAnLW9tYWUnLCAnPG91dGZpbGUubWFlPic=

> <r_lp_tautomer_probability>
1

> <r_epik_Ionization_Penalty>
8.73668e-05

> <r_epik_Ionization_Penalty_Charging>
0

> <r_epik_Ionization_Penalty_Neutral>
8.73668e-05

> <r_epik_State_Penalty>
-0

> <r_epik_Charging_Adjusted_Penalty>
0

> <i_epik_Tot_Q>
0

> <i_epik_Tot_abs_Q>
0

> <r_epik_Metal_State_Penalty>
0.0716439

> <b_epik_Metal_Only>
0

> <s_lp_Force_Field>
OPLS_2005

> <r_lp_Energy>
8.38809

> <b_lp_Chiralities_Consistent>
1

> <s_lp_Variant>
AV-unprocessed.smi:2451-5

> <Gold.Version>
5.8.1

> <Gold.Id.Protein>
6NUR|6NUR_protein|mol2

> <Gold.PLP.Fitness>
41.2818

> <Gold.PLP.PLP>
-39.2343

> <Gold.PLP.part.hbond>
0.0000

> <Gold.PLP.part.metal>
0.0000

> <Gold.PLP.part.buried>
-5.9252

> <Gold.PLP.part.nonpolar>
-33.9796

> <Gold.PLP.part.repulsive>
0.9631

> <Gold.PLP.ligand.clash>
0.0000

> <Gold.PLP.ligand.torsion>
0.5218

> <Gold.PLP.Chemscore.Hbond>
0.0000

> <Gold.PLP.Chemscore.CHOScore>
0.9850

> <Gold.PLP.Chemscore.Metal>
0.0000

> <Gold.Chemscore.Hbonds>
donor molecule, donor type, donor heavy atom, donor atom, acceptor molecule, acceptor atom, score
      L1  C    14    34       P1 10175  1.00

> <Gold.PLP.Chemscore.Internal.Correction>
0.1359

> <Gold.Rescore>
     Score         DG    S(hbond)    S(metal)    S(lipo)     H(rot)  DE(clash)    DE(int)     intcor
     14.26     -14.94       0.00        0.00     117.15       1.66       0.04       0.63       ----

> <Gold.Chemscore.Fitness>
14.2644

> <Gold.Chemscore.DG>
-14.9401

> <Gold.Chemscore.ZeroCoef>
-5.4800

> <Gold.Chemscore.Hbond>
0.0000

> <Gold.Chemscore.Metal>
0.0000

> <Gold.Chemscore.Lipo>
117.1513

> <Gold.Chemscore.Internal_Hbond>
0.0000

> <Gold.Chemscore.DEClash>
0.0429

> <Gold.Chemscore.DEInternal>
0.6329

> <Gold.Chemscore.Rot>
1.6588

> <Gold.Chemscore.Internal.Correction>
   9.000000E+99

> <Gold.Chemscore.Hbond.Weighted>
-0.0000

> <Gold.Chemscore.Metal.Weighted>
-0.0000

> <Gold.Chemscore.Lipo.Weighted>
-13.7067

> <Gold.Chemscore.Internal_Hbond.Weighted>
0.0000

> <Gold.Chemscore.DEClash.Weighted>
0.0429

> <Gold.Chemscore.DEInternal.Weighted>
0.6329

> <Gold.Chemscore.Rot.Weighted>
4.2466

> <Gold.Chemscore.Internal.Correction.Weighted>
   9.000000E+99

> <Gold.Protein.RotatedTorsions>
[ 6907 6896 6895 6894 ] final  175.12 input  -60.11 | X-H torsion
[ 7974 7965 7964 7962 ] final  145.26 input  175.53 | X-H torsion
[ 8008 7997 7996 7995 ] final  -15.92 input   59.86 | X-H torsion
[ 10167 10162 10161 10158 ] final -135.96 input  -65.29 | X-H torsion
[ 10718 10713 10712 10709 ] final  150.72 input   66.30 | X-H torsion
[ 10763 10752 10751 10750 ] final  101.85 input  -60.55 | X-H torsion
[ 11005 11000 10999 10996 ] final  139.39 input  -57.11 | X-H torsion

> <Gold.Protein.ActiveResidues>
 VAL166  LYS551  ARG553  GLY616  TRP617  ASP618  TYR619  PRO620  LYS621  CYS622 
 ASP623  PHE694  ASN695  SER759  ASP760  ASP761  ALA762  ILE779  LEU786  VAL792 
 PHE793  MET794  SER795  GLU796  ALA797  LYS798  CYS799  TRP800  GLU811  SER814 

> <Gold.Protein.RotatedAtoms>
  151.7414  133.3322  159.3366 H   0  0  0  0  0  0  0  0  0  0  0  0  # atno 6907 bound_to 6896
  150.7572  134.6275  159.6178 H   0  0  0  0  0  0  0  0  0  0  0  0  # atno 6908 bound_to 6896
  152.3528  134.6984  160.0283 H   0  0  0  0  0  0  0  0  0  0  0  0  # atno 6909 bound_to 6896
  144.8767  139.5761  143.5862 H   0  0  0  0  0  0  0  0  0  0  0  0  # atno 7974 bound_to 7965
  154.5093  140.2183  155.9188 H   0  0  0  0  0  0  0  0  0  0  0  0  # atno 8008 bound_to 7997
  156.1532  140.3157  155.8649 H   0  0  0  0  0  0  0  0  0  0  0  0  # atno 8009 bound_to 7997
  155.3897  140.0477  157.3032 H   0  0  0  0  0  0  0  0  0  0  0  0  # atno 8010 bound_to 7997
  139.8726  143.6938  152.2638 H   0  0  0  0  0  0  0  0  0  0  0  0  # atno 10167 bound_to 10162
  157.2799  131.0833  151.1539 H   0  0  0  0  0  0  0  0  0  0  0  0  # atno 10718 bound_to 10713
  153.3320  135.4030  155.1503 H   0  0  0  0  0  0  0  0  0  0  0  0  # atno 10763 bound_to 10752
  154.8625  135.3613  154.5458 H   0  0  0  0  0  0  0  0  0  0  0  0  # atno 10764 bound_to 10752
  153.5897  135.7074  153.5488 H   0  0  0  0  0  0  0  0  0  0  0  0  # atno 10765 bound_to 10752
  140.0252  134.9378  157.0553 H   0  0  0  0  0  0  0  0  0  0  0  0  # atno 11005 bound_to 11000
  146.2967  139.7301  142.9121 LP  0  0  0  0  0  0  0  0  0  0  0  0  # atno 17320 bound_to 7965
  145.4029  141.0387  143.3060 LP  0  0  0  0  0  0  0  0  0  0  0  0  # atno 17321 bound_to 7965
  139.7269  144.7591  151.0864 LP  0  0  0  0  0  0  0  0  0  0  0  0  # atno 17342 bound_to 10162
  140.7758  143.5136  150.9622 LP  0  0  0  0  0  0  0  0  0  0  0  0  # atno 17343 bound_to 10162
  157.2978  130.6827  149.6147 LP  0  0  0  0  0  0  0  0  0  0  0  0  # atno 17370 bound_to 10713
  155.9664  130.4401  150.5287 LP  0  0  0  0  0  0  0  0  0  0  0  0  # atno 17371 bound_to 10713
  140.4319  134.1771  155.7168 LP  0  0  0  0  0  0  0  0  0  0  0  0  # atno 17394 bound_to 11000
  141.1798  133.8438  157.1297 LP  0  0  0  0  0  0  0  0  0  0  0  0  # atno 17395 bound_to 11000

$$$$
