AV-unprocessed.smi:49|AV-procd|sdf|487|dock7
  -GOLD-   2262016353D 1   1.00000     0.00000
 Structure written by MMmdl.
 26 27  0  0  0  0  0  0  0  0  2 V2000
  152.7834  143.2326  160.2858 C   0  0  0  0  0  0  0  0  0  0  0  0
  153.4112  141.9614  159.7055 C   0  0  0  0  0  0  0  0  0  0  0  0
  152.5106  141.2955  158.6884 C   0  0  0  0  0  0  0  0  0  0  0  0
  151.3341  141.7531  158.2733 N   0  0  0  0  0  0  0  0  0  0  0  0
  150.9019  140.8742  157.3558 C   0  0  0  0  0  0  0  0  0  0  0  0
  149.6091  140.9933  156.5692 C   0  0  2  0  0  0  0  0  0  0  0  0
  149.2433  139.6698  155.8730 C   0  0  0  0  0  0  0  0  0  0  0  0
  149.4648  139.9578  154.3917 C   0  0  1  0  0  0  0  0  0  0  0  0
  148.6527  139.1669  153.5500 O   0  0  0  0  0  0  0  0  0  0  0  0
  149.1300  141.4405  154.2986 C   0  0  0  0  0  0  0  0  0  0  0  0
  149.6822  142.0147  155.5173 N   0  0  0  0  0  0  0  0  0  0  0  0
  151.8041  139.8973  157.1761 N   0  0  0  0  0  0  0  0  0  0  0  0
  152.7895  140.1704  158.0067 N   0  5  0  0  0  0  0  0  0  0  0  0
  148.8161  141.2516  157.2720 H   0  0  0  0  0  0  0  0  0  0  0  0
  150.5141  139.8004  154.1368 H   0  0  0  0  0  0  0  0  0  0  0  0
  153.4470  143.6968  161.0151 H   0  0  0  0  0  0  0  0  0  0  0  0
  151.8397  143.0108  160.7848 H   0  0  0  0  0  0  0  0  0  0  0  0
  152.5844  143.9633  159.5015 H   0  0  0  0  0  0  0  0  0  0  0  0
  154.3638  142.1985  159.2310 H   0  0  0  0  0  0  0  0  0  0  0  0
  153.6255  141.2521  160.5055 H   0  0  0  0  0  0  0  0  0  0  0  0
  149.8178  138.8134  156.2291 H   0  0  0  0  0  0  0  0  0  0  0  0
  148.1889  139.4549  156.0544 H   0  0  0  0  0  0  0  0  0  0  0  0
  148.8721  139.3661  152.6528 H   0  0  0  0  0  0  0  0  0  0  0  0
  149.5386  141.9104  153.4039 H   0  0  0  0  0  0  0  0  0  0  0  0
  148.0480  141.5780  154.2866 H   0  0  0  0  0  0  0  0  0  0  0  0
  149.1333  142.8254  155.7827 H   0  0  0  0  0  0  0  0  0  0  0  0
  1  2  1  0  0  0  0
  1 16  1  0  0  0  0
  1 17  1  0  0  0  0
  1 18  1  0  0  0  0
  2  3  1  0  0  0  0
  2 19  1  0  0  0  0
  2 20  1  0  0  0  0
  3 13  1  0  0  0  0
  3  4  2  0  0  0  0
  4  5  1  0  0  0  0
  5  6  1  0  0  0  0
  5 12  2  0  0  0  0
  6 14  1  0  0  0  0
  6 11  1  0  0  0  0
  6  7  1  0  0  0  0
  7  8  1  0  0  0  0
  7 21  1  0  0  0  0
  7 22  1  0  0  0  0
  8 15  1  0  0  0  0
  8  9  1  0  0  0  0
  8 10  1  0  0  0  0
  9 23  1  0  0  0  0
 10 11  1  0  0  0  0
 10 24  1  0  0  0  0
 10 25  1  0  0  0  0
 11 26  1  0  0  0  0
 12 13  1  0  0  0  0
M  CHG  1  13  -1
M  END
> <s_m_source_file>
AV-unprocessed.smi

> <i_m_source_file_index>
49

> <i_lp_mmshare_version>
43012

> <i_f3d_flags>
0

> <s_epik_input>
W0NIM11bQ0gyXWMxbmMobltuSF0xKVtDQEBIXTJbQ0gyXVtDQEBIXShbT0hdKVtDSDJdW05IXTI=

> <s_epik_cmdline>
J2VwaWtfcHl0aG9uJywgJy1waCcsICc3LjAnLCAnLXRuJywgJzgnLCAnLW1hJywgJzIwMCcsICctbWV0YWxfYmluZGluZycsICctaW1hZScsICc8aW5maWxlLm1hZT4nLCAnLW9tYWUnLCAnPG91dGZpbGUubWFlPic=

> <r_lp_tautomer_probability>
0.948284

> <r_epik_Ionization_Penalty>
20.726

> <r_epik_Ionization_Penalty_Charging>
17.6814

> <r_epik_Ionization_Penalty_Neutral>
3.04463

> <r_epik_State_Penalty>
7.95092

> <r_epik_Charging_Adjusted_Penalty>
25.6323

> <i_epik_Tot_Q>
-1

> <i_epik_Tot_abs_Q>
1

> <r_epik_Metal_State_Penalty>
4.146

> <b_epik_Metal_Only>
1

> <s_lp_Force_Field>
OPLS_2005

> <r_lp_Energy>
17.7922

> <b_lp_Chiralities_Consistent>
1

> <s_lp_Variant>
AV-unprocessed.smi:49-25

> <Gold.Version>
5.8.1

> <Gold.Id.Protein>
6NUR|6NUR_protein|mol2

> <Gold.PLP.Fitness>
34.6798

> <Gold.PLP.PLP>
-23.6696

> <Gold.PLP.part.hbond>
-3.0000

> <Gold.PLP.part.metal>
0.0000

> <Gold.PLP.part.buried>
-2.0752

> <Gold.PLP.part.nonpolar>
-17.2891

> <Gold.PLP.part.repulsive>
0.0131

> <Gold.PLP.ligand.clash>
0.0000

> <Gold.PLP.ligand.torsion>
0.4194

> <Gold.PLP.Chemscore.Hbond>
3.9440

> <Gold.PLP.Chemscore.CHOScore>
0.0000

> <Gold.PLP.Chemscore.Metal>
0.0000

> <Gold.Chemscore.Hbonds>
donor molecule, donor type, donor heavy atom, donor atom, acceptor molecule, acceptor atom, score
      L1  H     9    23       P1  7957  1.00
      L1  H    11    26       P1  8028  0.96
      P1  H  7997  8010       L1    13  1.97

> <Gold.PLP.Chemscore.Internal.Correction>
0.0170

> <Gold.Rescore>
     Score         DG    S(hbond)    S(metal)    S(lipo)     H(rot)  DE(clash)    DE(int)     intcor
     14.77     -15.08       2.64        0.00      46.68       1.82       0.01       0.31       ----

> <Gold.Chemscore.Fitness>
14.7663

> <Gold.Chemscore.DG>
-15.0841

> <Gold.Chemscore.ZeroCoef>
-5.4800

> <Gold.Chemscore.Hbond>
2.6373

> <Gold.Chemscore.Metal>
0.0000

> <Gold.Chemscore.Lipo>
46.6786

> <Gold.Chemscore.Internal_Hbond>
0.0000

> <Gold.Chemscore.DEClash>
0.0073

> <Gold.Chemscore.DEInternal>
0.3105

> <Gold.Chemscore.Rot>
1.8226

> <Gold.Chemscore.Internal.Correction>
   9.000000E+99

> <Gold.Chemscore.Hbonds>
donor molecule, donor type, donor heavy atom, donor atom, acceptor molecule, acceptor atom, score
      L1  H     9    23       P1  7957  1.00
      L1  H    11    26       P1  8028  0.92
      P1  H  7997  8010       L1    13  0.51

> <Gold.Chemscore.Hbond.Weighted>
-8.8085

> <Gold.Chemscore.Metal.Weighted>
-0.0000

> <Gold.Chemscore.Lipo.Weighted>
-5.4614

> <Gold.Chemscore.Internal_Hbond.Weighted>
0.0000

> <Gold.Chemscore.DEClash.Weighted>
0.0073

> <Gold.Chemscore.DEInternal.Weighted>
0.3105

> <Gold.Chemscore.Rot.Weighted>
4.6658

> <Gold.Chemscore.Internal.Correction.Weighted>
   9.000000E+99

> <Gold.Protein.RotatedTorsions>
[ 6907 6896 6895 6894 ] final   66.49 input  -60.11 | X-H torsion
[ 7974 7965 7964 7962 ] final   81.39 input  175.53 | X-H torsion
[ 8008 7997 7996 7995 ] final   40.82 input   59.86 | X-H torsion
[ 10167 10162 10161 10158 ] final   10.87 input  -65.29 | X-H torsion
[ 10718 10713 10712 10709 ] final   89.54 input   66.30 | X-H torsion
[ 10763 10752 10751 10750 ] final  -56.22 input  -60.55 | X-H torsion
[ 11005 11000 10999 10996 ] final  -62.40 input  -57.11 | X-H torsion

> <Gold.Protein.ActiveResidues>
 VAL166  LYS551  ARG553  GLY616  TRP617  ASP618  TYR619  PRO620  LYS621  CYS622 
 ASP623  PHE694  ASN695  SER759  ASP760  ASP761  ALA762  ILE779  LEU786  VAL792 
 PHE793  MET794  SER795  GLU796  ALA797  LYS798  CYS799  TRP800  GLU811  SER814 

> <Gold.Protein.RotatedAtoms>
  152.4484  134.5445  159.9848 H   0  0  0  0  0  0  0  0  0  0  0  0  # atno 6907 bound_to 6896
  151.5524  133.3409  159.2963 H   0  0  0  0  0  0  0  0  0  0  0  0  # atno 6908 bound_to 6896
  150.8406  134.7729  159.6993 H   0  0  0  0  0  0  0  0  0  0  0  0  # atno 6909 bound_to 6896
  145.6388  139.2421  143.2043 H   0  0  0  0  0  0  0  0  0  0  0  0  # atno 7974 bound_to 7965
  155.2594  140.3358  155.4274 H   0  0  0  0  0  0  0  0  0  0  0  0  # atno 8008 bound_to 7997
  156.2181  140.1797  156.7584 H   0  0  0  0  0  0  0  0  0  0  0  0  # atno 8009 bound_to 7997
  154.5784  140.0658  156.9053 H   0  0  0  0  0  0  0  0  0  0  0  0  # atno 8010 bound_to 7997
  140.6167  143.8292  150.7127 H   0  0  0  0  0  0  0  0  0  0  0  0  # atno 10167 bound_to 10162
  157.6955  131.0337  150.3441 H   0  0  0  0  0  0  0  0  0  0  0  0  # atno 10718 bound_to 10713
  154.2031  135.6407  153.5093 H   0  0  0  0  0  0  0  0  0  0  0  0  # atno 10763 bound_to 10752
  153.0007  135.5456  154.6294 H   0  0  0  0  0  0  0  0  0  0  0  0  # atno 10764 bound_to 10752
  154.5712  135.2917  155.0799 H   0  0  0  0  0  0  0  0  0  0  0  0  # atno 10765 bound_to 10752
  141.1358  133.6640  156.5522 H   0  0  0  0  0  0  0  0  0  0  0  0  # atno 11005 bound_to 11000
  146.1298  140.7201  142.9418 LP  0  0  0  0  0  0  0  0  0  0  0  0  # atno 17320 bound_to 7965
  144.7165  140.4228  143.7040 LP  0  0  0  0  0  0  0  0  0  0  0  0  # atno 17321 bound_to 7965
  140.1873  143.4066  152.1889 LP  0  0  0  0  0  0  0  0  0  0  0  0  # atno 17342 bound_to 10162
  139.5405  144.7251  151.4750 LP  0  0  0  0  0  0  0  0  0  0  0  0  # atno 17343 bound_to 10162
  156.3898  130.3896  149.7038 LP  0  0  0  0  0  0  0  0  0  0  0  0  # atno 17370 bound_to 10713
  156.4392  130.7853  151.2874 LP  0  0  0  0  0  0  0  0  0  0  0  0  # atno 17371 bound_to 10713
  140.4055  134.7319  157.4805 LP  0  0  0  0  0  0  0  0  0  0  0  0  # atno 17394 bound_to 11000
  140.0465  134.6192  155.8914 LP  0  0  0  0  0  0  0  0  0  0  0  0  # atno 17395 bound_to 11000

$$$$
