AV-unprocessed.smi:1703|AV-procd|sdf|6853|dock5
  -GOLD-   22720 8 33D 1   1.00000     0.00000
 Structure written by MMmdl.
 48 50  0  0  0  0  0  0  0  0  1 V2000
  148.6330  141.3727  156.4176 C   0  0  0  0  0  0  0  0  0  0  0  0
  149.2536  141.4126  155.0106 C   0  0  2  0  0  0  0  0  0  0  0  0
  148.2221  141.2052  153.8832 C   0  0  0  0  0  0  0  0  0  0  0  0
  147.7752  139.8173  153.7734 N   0  0  0  0  0  0  0  0  0  0  0  0
  146.8214  139.6131  152.6818 C   0  0  0  0  0  0  0  0  0  0  0  0
  146.7337  138.1751  152.1315 C   0  0  2  0  0  0  0  0  0  0  0  0
  146.4992  138.2356  150.7378 O   0  0  0  0  0  0  0  0  0  0  0  0
  145.5941  137.3849  152.8044 C   0  0  0  0  0  0  0  0  0  0  0  0
  145.8048  135.9425  152.7693 N   0  0  0  0  0  0  0  0  0  0  0  0
  146.5124  135.1719  153.6358 C   0  0  0  0  0  0  0  0  0  0  0  0
  147.2355  135.7532  154.8185 C   0  0  0  0  0  0  0  0  0  0  0  0
  148.6414  135.6366  154.7340 O   0  0  0  0  0  0  0  0  0  0  0  0
  146.5430  133.8675  153.3531 N   0  0  0  0  0  0  0  0  0  0  0  0
  145.7818  133.7831  152.2048 C   0  0  0  0  0  0  0  0  0  0  0  0
  145.4343  132.6641  151.4145 C   0  0  0  0  0  0  0  0  0  0  0  0
  144.6353  132.8237  150.2635 C   0  0  0  0  0  0  0  0  0  0  0  0
  144.1747  134.1018  149.8867 C   0  0  0  0  0  0  0  0  0  0  0  0
  144.5090  135.2297  150.6608 C   0  0  0  0  0  0  0  0  0  0  0  0
  145.3051  135.0650  151.8106 C   0  0  0  0  0  0  0  0  0  0  0  0
  148.9410  138.9581  153.6112 C   0  0  0  0  0  0  0  0  0  0  0  0
  149.9389  139.1141  154.7725 C   0  0  1  0  0  0  0  0  0  0  0  0
  151.2023  138.2725  154.5632 C   0  0  0  0  0  0  0  0  0  0  0  0
  150.3291  140.4819  154.8782 O   0  0  0  0  0  0  0  0  0  0  0  0
  147.8946  142.1658  156.5370 H   0  0  0  0  0  0  0  0  0  0  0  0
  149.3959  141.5137  157.1832 H   0  0  0  0  0  0  0  0  0  0  0  0
  148.1288  140.4274  156.6174 H   0  0  0  0  0  0  0  0  0  0  0  0
  149.6907  142.4037  154.8855 H   0  0  0  0  0  0  0  0  0  0  0  0
  147.3785  141.8707  154.0584 H   0  0  0  0  0  0  0  0  0  0  0  0
  148.6683  141.5163  152.9374 H   0  0  0  0  0  0  0  0  0  0  0  0
  145.8314  139.9298  153.0139 H   0  0  0  0  0  0  0  0  0  0  0  0
  147.0772  140.2743  151.8522 H   0  0  0  0  0  0  0  0  0  0  0  0
  147.6674  137.6412  152.2964 H   0  0  0  0  0  0  0  0  0  0  0  0
  145.5712  138.3387  150.5930 H   0  0  0  0  0  0  0  0  0  0  0  0
  145.4682  137.6978  153.8408 H   0  0  0  0  0  0  0  0  0  0  0  0
  144.6462  137.6100  152.3145 H   0  0  0  0  0  0  0  0  0  0  0  0
  146.9755  136.8083  154.9049 H   0  0  0  0  0  0  0  0  0  0  0  0
  146.9195  135.2638  155.7385 H   0  0  0  0  0  0  0  0  0  0  0  0
  148.8875  135.6210  153.8220 H   0  0  0  0  0  0  0  0  0  0  0  0
  145.7840  131.6814  151.6943 H   0  0  0  0  0  0  0  0  0  0  0  0
  144.3755  131.9618  149.6665 H   0  0  0  0  0  0  0  0  0  0  0  0
  143.5648  134.2157  149.0025 H   0  0  0  0  0  0  0  0  0  0  0  0
  144.1581  136.2087  150.3712 H   0  0  0  0  0  0  0  0  0  0  0  0
  148.6248  137.9160  153.5514 H   0  0  0  0  0  0  0  0  0  0  0  0
  149.4392  139.1867  152.6675 H   0  0  0  0  0  0  0  0  0  0  0  0
  149.4669  138.7985  155.7036 H   0  0  0  0  0  0  0  0  0  0  0  0
  150.9600  137.2121  154.4890 H   0  0  0  0  0  0  0  0  0  0  0  0
  151.8950  138.3972  155.3958 H   0  0  0  0  0  0  0  0  0  0  0  0
  151.7232  138.5623  153.6501 H   0  0  0  0  0  0  0  0  0  0  0  0
  1  2  1  0  0  0  0
  1 24  1  0  0  0  0
  1 25  1  0  0  0  0
  1 26  1  0  0  0  0
  2 23  1  0  0  0  0
  2  3  1  0  0  0  0
  2 27  1  0  0  0  0
  3  4  1  0  0  0  0
  3 28  1  0  0  0  0
  3 29  1  0  0  0  0
  4  5  1  0  0  0  0
  4 20  1  0  0  0  0
  5  6  1  0  0  0  0
  5 30  1  0  0  0  0
  5 31  1  0  0  0  0
  6  7  1  0  0  0  0
  6  8  1  0  0  0  0
  6 32  1  0  0  0  0
  7 33  1  0  0  0  0
  8  9  1  0  0  0  0
  8 34  1  0  0  0  0
  8 35  1  0  0  0  0
  9 19  1  0  0  0  0
  9 10  1  0  0  0  0
 10 11  1  0  0  0  0
 10 13  2  0  0  0  0
 11 12  1  0  0  0  0
 11 36  1  0  0  0  0
 11 37  1  0  0  0  0
 12 38  1  0  0  0  0
 13 14  1  0  0  0  0
 14 19  2  0  0  0  0
 14 15  1  0  0  0  0
 15 16  2  0  0  0  0
 15 39  1  0  0  0  0
 16 17  1  0  0  0  0
 16 40  1  0  0  0  0
 17 18  2  0  0  0  0
 17 41  1  0  0  0  0
 18 19  1  0  0  0  0
 18 42  1  0  0  0  0
 20 21  1  0  0  0  0
 20 43  1  0  0  0  0
 20 44  1  0  0  0  0
 21 22  1  0  0  0  0
 21 23  1  0  0  0  0
 21 45  1  0  0  0  0
 22 46  1  0  0  0  0
 22 47  1  0  0  0  0
 22 48  1  0  0  0  0
M  END
> <s_m_source_file>
AV-unprocessed.smi

> <i_m_source_file_index>
1703

> <i_lp_mmshare_version>
43012

> <i_f3d_flags>
0

> <s_epik_input>
W0NIM11bQ0BASF0xW0NIMl1OKFtDSDJdW0NASF0oTzEpW0NIM10pW0NIMl1bQ0BIXShbT0hdKVtDSDJdbihjKG4yKVtDSDJdW09IXSljKGMyMylbY0hdW2NIXVtjSF1bY0hdMw==

> <s_epik_cmdline>
J2VwaWtfcHl0aG9uJywgJy1waCcsICc3LjAnLCAnLXRuJywgJzgnLCAnLW1hJywgJzIwMCcsICctbWV0YWxfYmluZGluZycsICctaW1hZScsICc8aW5maWxlLm1hZT4nLCAnLW9tYWUnLCAnPG91dGZpbGUubWFlPic=

> <r_epik_Ionization_Penalty>
0.307685

> <r_epik_Ionization_Penalty_Charging>
0

> <r_epik_Ionization_Penalty_Neutral>
0.307685

> <r_epik_State_Penalty>
0.277856

> <r_epik_Charging_Adjusted_Penalty>
0.277856

> <i_epik_Tot_Q>
0

> <i_epik_Tot_abs_Q>
0

> <r_epik_Metal_State_Penalty>
0.238959

> <b_epik_Metal_Only>
0

> <s_lp_Force_Field>
OPLS_2005

> <r_lp_Energy>
33.4043

> <b_lp_Chiralities_Consistent>
1

> <s_lp_Variant>
AV-unprocessed.smi:1703-1

> <Gold.Version>
5.8.1

> <Gold.Id.Protein>
6NUR|6NUR_protein|mol2

> <Gold.PLP.Fitness>
46.3122

> <Gold.PLP.PLP>
-37.0814

> <Gold.PLP.part.hbond>
-4.0515

> <Gold.PLP.part.metal>
0.0000

> <Gold.PLP.part.buried>
2.8946

> <Gold.PLP.part.nonpolar>
-36.3144

> <Gold.PLP.part.repulsive>
0.3464

> <Gold.PLP.ligand.clash>
0.0000

> <Gold.PLP.ligand.torsion>
1.3954

> <Gold.PLP.Chemscore.Hbond>
3.9840

> <Gold.PLP.Chemscore.CHOScore>
0.0000

> <Gold.PLP.Chemscore.Metal>
0.0000

> <Gold.Chemscore.Hbonds>
donor molecule, donor type, donor heavy atom, donor atom, acceptor molecule, acceptor atom, score
      L1  H     7    33       P1 10171  1.00
      L1  H    12    38       P1  7948  0.99
      P1  H  7954  7966       L1     7  0.99
      P1  H  7989  7998       L1    23  0.99

> <Gold.PLP.Chemscore.Internal.Correction>
0.0696

> <Gold.Rescore>
     Score         DG    S(hbond)    S(metal)    S(lipo)     H(rot)  DE(clash)    DE(int)     intcor
     17.93     -20.85       3.32        0.00      99.43       2.88       1.32       1.59       ----

> <Gold.Chemscore.Fitness>
17.9302

> <Gold.Chemscore.DG>
-20.8476

> <Gold.Chemscore.ZeroCoef>
-5.4800

> <Gold.Chemscore.Hbond>
3.3237

> <Gold.Chemscore.Metal>
0.0000

> <Gold.Chemscore.Lipo>
99.4301

> <Gold.Chemscore.Internal_Hbond>
0.0000

> <Gold.Chemscore.DEClash>
1.3245

> <Gold.Chemscore.DEInternal>
1.5929

> <Gold.Chemscore.Rot>
2.8778

> <Gold.Chemscore.Internal.Correction>
   9.000000E+99

> <Gold.Chemscore.Hbonds>
donor molecule, donor type, donor heavy atom, donor atom, acceptor molecule, acceptor atom, score
      L1  H     7    33       P1 10171  1.00
      L1  H    12    38       P1  7948  0.85
      P1  H  7954  7966       L1     7  0.56
      P1  H  7989  7998       L1    23  0.61

> <Gold.Chemscore.Hbond.Weighted>
-11.1013

> <Gold.Chemscore.Metal.Weighted>
-0.0000

> <Gold.Chemscore.Lipo.Weighted>
-11.6333

> <Gold.Chemscore.Internal_Hbond.Weighted>
0.0000

> <Gold.Chemscore.DEClash.Weighted>
1.3245

> <Gold.Chemscore.DEInternal.Weighted>
1.5929

> <Gold.Chemscore.Rot.Weighted>
7.3671

> <Gold.Chemscore.Internal.Correction.Weighted>
   9.000000E+99

> <Gold.Protein.RotatedTorsions>
[ 6907 6896 6895 6894 ] final -100.66 input  -60.11 | X-H torsion
[ 7974 7965 7964 7962 ] final   77.39 input  175.53 | X-H torsion
[ 8008 7997 7996 7995 ] final  -87.99 input   59.86 | X-H torsion
[ 10167 10162 10161 10158 ] final  133.47 input  -65.29 | X-H torsion
[ 10718 10713 10712 10709 ] final  -35.81 input   66.30 | X-H torsion
[ 10763 10752 10751 10750 ] final   30.85 input  -60.55 | X-H torsion
[ 11005 11000 10999 10996 ] final  -16.98 input  -57.11 | X-H torsion

> <Gold.Protein.ActiveResidues>
 VAL166  LYS551  ARG553  GLY616  TRP617  ASP618  TYR619  PRO620  LYS621  CYS622 
 ASP623  PHE694  ASN695  SER759  ASP760  ASP761  ALA762  ILE779  LEU786  VAL792 
 PHE793  MET794  SER795  GLU796  ALA797  LYS798  CYS799  TRP800  GLU811  SER814 

> <Gold.Protein.RotatedAtoms>
  150.7124  134.0853  159.3912 H   0  0  0  0  0  0  0  0  0  0  0  0  # atno 6907 bound_to 6896
  151.8837  135.0441  160.0500 H   0  0  0  0  0  0  0  0  0  0  0  0  # atno 6908 bound_to 6896
  152.2547  133.5209  159.5382 H   0  0  0  0  0  0  0  0  0  0  0  0  # atno 6909 bound_to 6896
  145.6906  139.2551  143.1762 H   0  0  0  0  0  0  0  0  0  0  0  0  # atno 7974 bound_to 7965
  154.6696  140.0559  157.0151 H   0  0  0  0  0  0  0  0  0  0  0  0  # atno 8008 bound_to 7997
  155.1109  140.3238  155.4503 H   0  0  0  0  0  0  0  0  0  0  0  0  # atno 8009 bound_to 7997
  156.2652  140.2014  156.6233 H   0  0  0  0  0  0  0  0  0  0  0  0  # atno 8010 bound_to 7997
  139.5296  144.6614  151.5000 H   0  0  0  0  0  0  0  0  0  0  0  0  # atno 10167 bound_to 10162
  156.3342  130.4284  149.7845 H   0  0  0  0  0  0  0  0  0  0  0  0  # atno 10718 bound_to 10713
  153.0348  135.6454  154.1108 H   0  0  0  0  0  0  0  0  0  0  0  0  # atno 10763 bound_to 10752
  154.0825  135.2872  155.3289 H   0  0  0  0  0  0  0  0  0  0  0  0  # atno 10764 bound_to 10752
  154.6520  135.5422  153.7977 H   0  0  0  0  0  0  0  0  0  0  0  0  # atno 10765 bound_to 10752
  140.8122  133.8132  155.9575 H   0  0  0  0  0  0  0  0  0  0  0  0  # atno 11005 bound_to 11000
  146.0885  140.7683  142.9607 LP  0  0  0  0  0  0  0  0  0  0  0  0  # atno 17320 bound_to 7965
  144.6998  140.3599  143.7166 LP  0  0  0  0  0  0  0  0  0  0  0  0  # atno 17321 bound_to 7965
  140.6464  143.8785  150.6742 LP  0  0  0  0  0  0  0  0  0  0  0  0  # atno 17342 bound_to 10162
  140.2136  143.3864  152.1699 LP  0  0  0  0  0  0  0  0  0  0  0  0  # atno 17343 bound_to 10162
  156.5105  130.8170  151.3167 LP  0  0  0  0  0  0  0  0  0  0  0  0  # atno 17370 bound_to 10713
  157.7436  130.9915  150.2604 LP  0  0  0  0  0  0  0  0  0  0  0  0  # atno 17371 bound_to 10713
  140.9186  134.2170  157.4941 LP  0  0  0  0  0  0  0  0  0  0  0  0  # atno 17394 bound_to 11000
  139.8713  134.9782  156.4988 LP  0  0  0  0  0  0  0  0  0  0  0  0  # atno 17395 bound_to 11000

$$$$
