AV-unprocessed.smi:1431|AV-procd|sdf|5829|dock5
  -GOLD-   22720 5493D 1   1.00000     0.00000
 Structure written by MMmdl.
 33 34  0  0  0  0  0  0  0  0  1 V2000
  150.7648  141.1003  158.0120 O   0  0  0  0  0  0  0  0  0  0  0  0
  150.4258  142.0752  157.3404 C   0  0  0  0  0  0  0  0  0  0  0  0
  149.8163  141.9745  156.1504 N   0  0  0  0  0  0  0  0  0  0  0  0
  149.4393  140.7194  155.5081 C   0  0  0  0  0  0  0  0  0  0  0  0
  150.6461  140.0192  154.8526 C   0  0  2  0  0  0  0  0  0  0  0  0
  150.2549  138.7146  154.1326 C   0  0  0  0  0  0  0  0  0  0  0  0
  151.5359  137.9672  153.7476 C   0  0  0  0  0  0  0  0  0  0  0  0
  152.7384  138.3289  155.0814 S   0  0  0  0  0  0  0  0  0  0  0  0
  152.7895  137.1964  156.0181 O   0  0  0  0  0  0  0  0  0  0  0  0
  153.9669  138.8734  154.4838 O   0  0  0  0  0  0  0  0  0  0  0  0
  151.7738  139.6871  155.8445 C   0  0  0  0  0  0  0  0  0  0  0  0
  150.6015  143.3615  157.6904 N   0  0  0  0  0  0  0  0  0  0  0  0
  151.1703  143.8751  158.8863 C   0  0  0  0  0  0  0  0  0  0  0  0
  151.4144  145.2672  158.8836 C   0  0  0  0  0  0  0  0  0  0  0  0
  151.9742  145.8746  160.0242 C   0  0  0  0  0  0  0  0  0  0  0  0
  152.2770  145.0732  161.1392 C   0  0  0  0  0  0  0  0  0  0  0  0
  152.0032  143.6954  161.0593 C   0  0  0  0  0  0  0  0  0  0  0  0
  151.4660  143.1114  159.9675 N   0  0  0  0  0  0  0  0  0  0  0  0
  149.5766  142.8254  155.6628 H   0  0  0  0  0  0  0  0  0  0  0  0
  148.9981  140.0724  156.2669 H   0  0  0  0  0  0  0  0  0  0  0  0
  148.6585  140.9027  154.7682 H   0  0  0  0  0  0  0  0  0  0  0  0
  151.0650  140.6826  154.0945 H   0  0  0  0  0  0  0  0  0  0  0  0
  149.6728  138.0899  154.8112 H   0  0  0  0  0  0  0  0  0  0  0  0
  149.6296  138.9060  153.2600 H   0  0  0  0  0  0  0  0  0  0  0  0
  151.3917  136.8913  153.6479 H   0  0  0  0  0  0  0  0  0  0  0  0
  151.9426  138.3545  152.8132 H   0  0  0  0  0  0  0  0  0  0  0  0
  152.4232  140.5379  156.0512 H   0  0  0  0  0  0  0  0  0  0  0  0
  151.3716  139.3188  156.7887 H   0  0  0  0  0  0  0  0  0  0  0  0
  150.2731  144.0543  157.0344 H   0  0  0  0  0  0  0  0  0  0  0  0
  151.1751  145.8683  158.0182 H   0  0  0  0  0  0  0  0  0  0  0  0
  152.1672  146.9372  160.0428 H   0  0  0  0  0  0  0  0  0  0  0  0
  152.7072  145.5024  162.0320 H   0  0  0  0  0  0  0  0  0  0  0  0
  152.2207  143.0446  161.8932 H   0  0  0  0  0  0  0  0  0  0  0  0
  1  2  2  0  0  0  0
  2  3  1  0  0  0  0
  2 12  1  0  0  0  0
  3  4  1  0  0  0  0
  3 19  1  0  0  0  0
  4  5  1  0  0  0  0
  4 20  1  0  0  0  0
  4 21  1  0  0  0  0
  5 11  1  0  0  0  0
  5  6  1  0  0  0  0
  5 22  1  0  0  0  0
  6  7  1  0  0  0  0
  6 23  1  0  0  0  0
  6 24  1  0  0  0  0
  7  8  1  0  0  0  0
  7 25  1  0  0  0  0
  7 26  1  0  0  0  0
  8  9  2  0  0  0  0
  8 10  2  0  0  0  0
  8 11  1  0  0  0  0
 11 27  1  0  0  0  0
 11 28  1  0  0  0  0
 12 13  1  0  0  0  0
 12 29  1  0  0  0  0
 13 18  1  0  0  0  0
 13 14  2  0  0  0  0
 14 15  1  0  0  0  0
 14 30  1  0  0  0  0
 15 16  2  0  0  0  0
 15 31  1  0  0  0  0
 16 17  1  0  0  0  0
 16 32  1  0  0  0  0
 17 18  2  0  0  0  0
 17 33  1  0  0  0  0
M  END
> <s_m_source_file>
AV-unprocessed.smi

> <i_m_source_file_index>
1431

> <i_lp_mmshare_version>
43012

> <i_f3d_flags>
0

> <s_epik_input>
bjFbY0hdW2NIXVtjSF1bY0hdYzFbTkhdQyg9TylbTkhdW0NIMl1bQ0BASF0oW0NIMl0yKVtDSDJdW0NIMl1TMig9Tyk9Tw==

> <s_epik_cmdline>
J2VwaWtfcHl0aG9uJywgJy1waCcsICc3LjAnLCAnLXRuJywgJzgnLCAnLW1hJywgJzIwMCcsICctbWV0YWxfYmluZGluZycsICctaW1hZScsICc8aW5maWxlLm1hZT4nLCAnLW9tYWUnLCAnPG91dGZpbGUubWFlPic=

> <r_lp_tautomer_probability>
1

> <r_epik_Ionization_Penalty>
4.47006e-05

> <r_epik_Ionization_Penalty_Charging>
0

> <r_epik_Ionization_Penalty_Neutral>
4.47006e-05

> <r_epik_State_Penalty>
-0

> <r_epik_Charging_Adjusted_Penalty>
0

> <i_epik_Tot_Q>
0

> <i_epik_Tot_abs_Q>
0

> <r_epik_Metal_State_Penalty>
-0

> <b_epik_Metal_Only>
0

> <s_lp_Force_Field>
OPLS_2005

> <r_lp_Energy>
3.66515

> <b_lp_Chiralities_Consistent>
1

> <s_lp_Variant>
AV-unprocessed.smi:1431-1

> <Gold.Version>
5.8.1

> <Gold.Id.Protein>
6NUR|6NUR_protein|mol2

> <Gold.PLP.Fitness>
47.4234

> <Gold.PLP.PLP>
-36.7993

> <Gold.PLP.part.hbond>
-4.3478

> <Gold.PLP.part.metal>
0.0000

> <Gold.PLP.part.buried>
-0.7042

> <Gold.PLP.part.nonpolar>
-30.6737

> <Gold.PLP.part.repulsive>
0.1471

> <Gold.PLP.ligand.clash>
0.0000

> <Gold.PLP.ligand.torsion>
0.1441

> <Gold.PLP.Chemscore.Hbond>
3.6365

> <Gold.PLP.Chemscore.CHOScore>
0.0000

> <Gold.PLP.Chemscore.Metal>
0.0000

> <Gold.Chemscore.Hbonds>
donor molecule, donor type, donor heavy atom, donor atom, acceptor molecule, acceptor atom, score
      L1  H     3    19       P1  8028  1.00
      L1  H    12    29       P1  8028  0.98
      P1  H  7997  8008       L1    10  0.98
      P1  H 10752 10764       L1     9  0.69

> <Gold.PLP.Chemscore.Internal.Correction>
0.0030

> <Gold.Rescore>
     Score         DG    S(hbond)    S(metal)    S(lipo)     H(rot)  DE(clash)    DE(int)     intcor
     17.88     -22.36       3.17        0.00      82.70       1.33       1.71       2.76       ----

> <Gold.Chemscore.Fitness>
17.8823

> <Gold.Chemscore.DG>
-22.3562

> <Gold.Chemscore.ZeroCoef>
-5.4800

> <Gold.Chemscore.Hbond>
3.1735

> <Gold.Chemscore.Metal>
0.0000

> <Gold.Chemscore.Lipo>
82.7019

> <Gold.Chemscore.Internal_Hbond>
0.0000

> <Gold.Chemscore.DEClash>
1.7094

> <Gold.Chemscore.DEInternal>
2.7644

> <Gold.Chemscore.Rot>
1.3280

> <Gold.Chemscore.Internal.Correction>
   9.000000E+99

> <Gold.Chemscore.Hbonds>
donor molecule, donor type, donor heavy atom, donor atom, acceptor molecule, acceptor atom, score
      L1  H     3    19       P1  8028  0.90
      L1  H    12    29       P1  8028  0.84
      P1  H  7997  8008       L1    10  0.73
      P1  H 10752 10764       L1     9  0.56

> <Gold.Chemscore.Hbond.Weighted>
-10.5996

> <Gold.Chemscore.Metal.Weighted>
-0.0000

> <Gold.Chemscore.Lipo.Weighted>
-9.6761

> <Gold.Chemscore.Internal_Hbond.Weighted>
0.0000

> <Gold.Chemscore.DEClash.Weighted>
1.7094

> <Gold.Chemscore.DEInternal.Weighted>
2.7644

> <Gold.Chemscore.Rot.Weighted>
3.3996

> <Gold.Chemscore.Internal.Correction.Weighted>
   9.000000E+99

> <Gold.Protein.RotatedTorsions>
[ 6907 6896 6895 6894 ] final   38.79 input  -60.11 | X-H torsion
[ 7974 7965 7964 7962 ] final  140.09 input  175.53 | X-H torsion
[ 8008 7997 7996 7995 ] final    7.59 input   59.86 | X-H torsion
[ 10167 10162 10161 10158 ] final -177.87 input  -65.29 | X-H torsion
[ 10718 10713 10712 10709 ] final  121.86 input   66.30 | X-H torsion
[ 10763 10752 10751 10750 ] final  -21.47 input  -60.55 | X-H torsion
[ 11005 11000 10999 10996 ] final   15.36 input  -57.11 | X-H torsion

> <Gold.Protein.ActiveResidues>
 VAL166  LYS551  ARG553  GLY616  TRP617  ASP618  TYR619  PRO620  LYS621  CYS622 
 ASP623  PHE694  ASN695  SER759  ASP760  ASP761  ALA762  ILE779  LEU786  VAL792 
 PHE793  MET794  SER795  GLU796  ALA797  LYS798  CYS799  TRP800  GLU811  SER814 

> <Gold.Protein.RotatedAtoms>
  152.1611  134.8911  160.0541 H   0  0  0  0  0  0  0  0  0  0  0  0  # atno 6907 bound_to 6896
  151.9907  133.3785  159.4151 H   0  0  0  0  0  0  0  0  0  0  0  0  # atno 6908 bound_to 6896
  150.6888  134.3862  159.5100 H   0  0  0  0  0  0  0  0  0  0  0  0  # atno 6909 bound_to 6896
  144.9218  139.5157  143.5659 H   0  0  0  0  0  0  0  0  0  0  0  0  # atno 7974 bound_to 7965
  154.7558  140.2775  155.6254 H   0  0  0  0  0  0  0  0  0  0  0  0  # atno 8008 bound_to 7997
  156.2905  140.2669  156.2251 H   0  0  0  0  0  0  0  0  0  0  0  0  # atno 8009 bound_to 7997
  155.0079  140.0372  157.2377 H   0  0  0  0  0  0  0  0  0  0  0  0  # atno 8010 bound_to 7997
  139.5459  144.2236  152.0987 H   0  0  0  0  0  0  0  0  0  0  0  0  # atno 10167 bound_to 10162
  157.5786  131.1077  150.8232 H   0  0  0  0  0  0  0  0  0  0  0  0  # atno 10718 bound_to 10713
  153.6366  135.6987  153.5256 H   0  0  0  0  0  0  0  0  0  0  0  0  # atno 10763 bound_to 10752
  153.2816  135.4184  155.1083 H   0  0  0  0  0  0  0  0  0  0  0  0  # atno 10764 bound_to 10752
  154.8509  135.3603  154.5909 H   0  0  0  0  0  0  0  0  0  0  0  0  # atno 10765 bound_to 10752
  140.4591  134.1145  155.7714 H   0  0  0  0  0  0  0  0  0  0  0  0  # atno 11005 bound_to 11000
  146.3208  139.8104  142.8947 LP  0  0  0  0  0  0  0  0  0  0  0  0  # atno 17320 bound_to 7965
  145.3283  141.0260  143.3461 LP  0  0  0  0  0  0  0  0  0  0  0  0  # atno 17321 bound_to 7965
  140.1723  144.4924  150.6573 LP  0  0  0  0  0  0  0  0  0  0  0  0  # atno 17342 bound_to 10162
  140.6707  143.2285  151.5632 LP  0  0  0  0  0  0  0  0  0  0  0  0  # atno 17343 bound_to 10162
  156.8684  130.5137  149.5298 LP  0  0  0  0  0  0  0  0  0  0  0  0  # atno 17370 bound_to 10713
  156.0831  130.5836  150.9599 LP  0  0  0  0  0  0  0  0  0  0  0  0  # atno 17371 bound_to 10713
  141.1629  133.8758  157.1797 LP  0  0  0  0  0  0  0  0  0  0  0  0  # atno 17394 bound_to 11000
  139.9957  135.0048  157.0076 LP  0  0  0  0  0  0  0  0  0  0  0  0  # atno 17395 bound_to 11000

$$$$
