#       Name:                AV-unprocessed.smi:1020
#       Creating user name   scv26
#       Creation time:       Fri Mar 27 02:42:15 2020


#       File generated by GOLD software.
#

@<TRIPOS>MOLECULE
AV-unprocessed.smi:1020
    54    55     1
SMALL
NO_CHARGES


@<TRIPOS>ATOM
      1 ****        -2.3693   0.0186   1.6816 C.3            1 S1                 0.0000
      2 ****        -1.7768  -0.5677   2.9679 C.3            1 S1                 0.0000
      3 ****        -2.6565  -0.2539   4.1881 C.3            1 S1                 0.0000
      4 ****        -0.4849   0.0026   3.1294 O.3            1 S1                 0.0000
      5 ****         0.4120  -0.7758   3.9097 C.3            1 S1                 0.0000
      6 ****         1.7697  -0.0658   3.9856 C.3            1 S1                 0.0000
      7 ****         2.3743   0.1744   2.6418 C.2            1 S1                 0.0000
      8 ****         2.2942   1.2842   1.9120 N.2            1 S1                 0.0000
      9 ****         2.9486   0.9021   0.7804 C.2            1 S1                 0.0000
     10 ****         3.1382   1.8092  -0.3940 C.3            1 S1                 0.0000
     11 ****         1.8790   1.8413  -1.2626 C.2            1 S1                 0.0000
     12 ****         1.1844   2.8569  -1.3020 O.2            1 S1                 0.0000
     13 ****         1.5969   0.7247  -1.9534 N.am           1 S1                 0.0000
     14 ****         0.4316   0.5332  -2.8105 C.3            1 S1                 0.0000
     15 ****        -0.8093   0.1808  -1.9641 C.3            1 S1                 0.0000
     16 ****        -2.0326  -0.1098  -2.8478 C.3            1 S1                 0.0000
     17 ****        -1.7316  -1.2161  -3.8707 C.3            1 S1                 0.0000
     18 ****        -0.5009  -0.8644  -4.7213 C.3            1 S1                 0.0000
     19 ****         0.7241  -0.5767  -3.8379 C.3            1 S1                 0.0000
     20 ****         3.4139  -0.3422   0.7734 N.2            1 S1                 0.0000
     21 ****         3.0175  -0.8438   2.0214 O.3            1 S1                 0.0000
     22 ****        -3.3641  -0.3821   1.4861 H              1 S1                 0.0000
     23 ****        -1.7417  -0.2224   0.8244 H              1 S1                 0.0000
     24 ****        -2.4498   1.1045   1.7402 H              1 S1                 0.0000
     25 ****        -1.6983  -1.6487   2.8397 H              1 S1                 0.0000
     26 ****        -3.6658  -0.6427   4.0504 H              1 S1                 0.0000
     27 ****        -2.7340   0.8216   4.3505 H              1 S1                 0.0000
     28 ****        -2.2591  -0.7004   5.0991 H              1 S1                 0.0000
     29 ****         0.0203  -0.9231   4.9161 H              1 S1                 0.0000
     30 ****         0.5368  -1.7620   3.4596 H              1 S1                 0.0000
     31 ****         1.6587   0.8923   4.4946 H              1 S1                 0.0000
     32 ****         2.4659  -0.6568   4.5813 H              1 S1                 0.0000
     33 ****         3.3717   2.8148  -0.0416 H              1 S1                 0.0000
     34 ****         3.9883   1.4766  -0.9915 H              1 S1                 0.0000
     35 ****         2.2261  -0.0600  -1.8609 H              1 S1                 0.0000
     36 ****         0.2363   1.4586  -3.3561 H              1 S1                 0.0000
     37 ****        -0.5960  -0.6921  -1.3452 H              1 S1                 0.0000
     38 ****        -1.0428   0.9964  -1.2786 H              1 S1                 0.0000
     39 ****        -2.8795  -0.3989  -2.2249 H              1 S1                 0.0000
     40 ****        -2.3294   0.8007  -3.3703 H              1 S1                 0.0000
     41 ****        -1.5587  -2.1586  -3.3497 H              1 S1                 0.0000
     42 ****        -2.5970  -1.3728  -4.5153 H              1 S1                 0.0000
     43 ****        -0.2792  -1.6808  -5.4094 H              1 S1                 0.0000
     44 ****        -0.7197   0.0087  -5.3376 H              1 S1                 0.0000
     45 ****         1.5696  -0.2925  -4.4654 H              1 S1                 0.0000
     46 ****         1.0173  -1.4918  -3.3207 H              1 S1                 0.0000
     47 ****        -0.5902   0.8935   3.5712 LP             1 S1                 0.0000
     48 ****        -0.0827   0.1259   2.2221 LP             1 S1                 0.0000
     49 ****         1.8687   2.1614   2.1343 LP             1 S1                 0.0000
     50 ****         1.4432   3.6607  -0.7664 LP             1 S1                 0.0000
     51 ****         0.3614   2.8781  -1.8697 LP             1 S1                 0.0000
     52 ****         3.9244  -0.8091   0.0513 LP             1 S1                 0.0000
     53 ****         2.4028  -1.6237   1.9038 LP             1 S1                 0.0000
     54 ****         3.8163  -1.1262   2.5527 LP             1 S1                 0.0000
@<TRIPOS>BOND
    1    1    2 1     
    2    1   22 1     
    3    1   23 1     
    4    1   24 1     
    5    2    3 1     
    6    2    4 1     
    7    2   25 1     
    8    3   26 1     
    9    3   27 1     
   10    3   28 1     
   11    4    5 1     
   12    5    6 1     
   13    5   29 1     
   14    5   30 1     
   15    6    7 1     
   16    6   31 1     
   17    6   32 1     
   18    7   21 1     
   19    7    8 2     
   20    8    9 1     
   21    9   10 1     
   22    9   20 2     
   23   10   11 1     
   24   10   33 1     
   25   10   34 1     
   26   11   12 2     
   27   11   13 am    
   28   13   14 1     
   29   13   35 1     
   30   14   19 1     
   31   14   15 1     
   32   14   36 1     
   33   15   16 1     
   34   15   37 1     
   35   15   38 1     
   36   16   17 1     
   37   16   39 1     
   38   16   40 1     
   39   17   18 1     
   40   17   41 1     
   41   17   42 1     
   42   18   19 1     
   43   18   43 1     
   44   18   44 1     
   45   19   45 1     
   46   19   46 1     
   47   20   21 1     
   48    4   47 1     
   49    4   48 1     
   50    8   49 1     
   51   12   50 1     
   52   12   51 1     
   53   20   52 1     
   54   21   53 1     
   55   21   54 1     
@<TRIPOS>SUBSTRUCTURE
      1 S1             1
@<TRIPOS>SET
LONE_PAIRS      STATIC     ATOMS    <user>   **** ""
8 47 48 49 50 51 52 53 54
DONOR_HYDROGENS      STATIC     ATOMS    <user>   **** ""
1 35
ATOM$BLUE        STATIC     ATOMS    COLORGROUP SYSTEM
8 47 48 49 50 51 52 53 54
ATOM$RED        STATIC     ATOMS    COLORGROUP SYSTEM
1 35
