AV-unprocessed.smi:2746|AV-procd|sdf|10572|dock5
  -GOLD-   2272015 23D 1   1.00000     0.00000
 Structure written by MMmdl.
 38 39  0  0  0  0  0  0  0  0  1 V2000
  151.3603  144.8329  159.6143 C   0  0  0  0  0  0  0  0  0  0  0  0
  152.4927  144.2980  159.1338 C   0  0  0  0  0  0  0  0  0  0  0  0
  152.6968  142.8187  158.8633 C   0  0  1  0  0  0  0  0  0  0  0  0
  152.5516  141.9961  160.1499 C   0  0  0  0  0  0  0  0  0  0  0  0
  151.7331  142.3467  157.8753 N   0  0  0  0  0  0  0  0  0  0  0  0
  151.7409  141.1355  157.2921 C   0  0  0  0  0  0  0  0  0  0  0  0
  152.5946  140.2787  157.5256 O   0  0  0  0  0  0  0  0  0  0  0  0
  150.6519  140.8887  156.2824 C   0  0  0  0  0  0  0  0  0  0  0  0
  149.4190  141.5726  156.3960 C   0  0  0  0  0  0  0  0  0  0  0  0
  148.4129  141.3418  155.4313 C   0  0  0  0  0  0  0  0  0  0  0  0
  147.1692  141.9859  155.4822 N   0  0  0  0  0  0  0  0  0  0  0  0
  146.7417  142.5378  154.2030 C   0  0  0  0  0  0  0  0  0  0  0  0
  145.4321  143.3257  154.3823 C   0  0  0  0  0  0  0  0  0  0  0  0
  144.4433  142.4834  154.9683 O   0  0  0  0  0  0  0  0  0  0  0  0
  144.8393  142.0065  156.2514 C   0  0  0  0  0  0  0  0  0  0  0  0
  146.1328  141.1839  156.1191 C   0  0  0  0  0  0  0  0  0  0  0  0
  148.6819  140.4378  154.3856 C   0  0  0  0  0  0  0  0  0  0  0  0
  149.9386  139.8054  154.3509 C   0  0  0  0  0  0  0  0  0  0  0  0
  150.9023  140.0218  155.2701 N   0  0  0  0  0  0  0  0  0  0  0  0
  150.5028  144.2172  159.8437 H   0  0  0  0  0  0  0  0  0  0  0  0
  151.2772  145.8960  159.7853 H   0  0  0  0  0  0  0  0  0  0  0  0
  153.3294  144.9461  158.9162 H   0  0  0  0  0  0  0  0  0  0  0  0
  153.7069  142.6666  158.4780 H   0  0  0  0  0  0  0  0  0  0  0  0
  153.2772  142.3120  160.9002 H   0  0  0  0  0  0  0  0  0  0  0  0
  152.7195  140.9358  159.9579 H   0  0  0  0  0  0  0  0  0  0  0  0
  151.5562  142.1031  160.5832 H   0  0  0  0  0  0  0  0  0  0  0  0
  150.9979  142.9863  157.6101 H   0  0  0  0  0  0  0  0  0  0  0  0
  149.2451  142.2637  157.2084 H   0  0  0  0  0  0  0  0  0  0  0  0
  147.5191  143.1904  153.8039 H   0  0  0  0  0  0  0  0  0  0  0  0
  146.5917  141.7337  153.4813 H   0  0  0  0  0  0  0  0  0  0  0  0
  145.5904  144.2067  155.0064 H   0  0  0  0  0  0  0  0  0  0  0  0
  145.0707  143.6800  153.4170 H   0  0  0  0  0  0  0  0  0  0  0  0
  144.9802  142.8453  156.9350 H   0  0  0  0  0  0  0  0  0  0  0  0
  144.0412  141.3896  156.6641 H   0  0  0  0  0  0  0  0  0  0  0  0
  145.9422  140.2876  155.5268 H   0  0  0  0  0  0  0  0  0  0  0  0
  146.4705  140.8561  157.1030 H   0  0  0  0  0  0  0  0  0  0  0  0
  147.9430  140.2320  153.6250 H   0  0  0  0  0  0  0  0  0  0  0  0
  150.1770  139.1071  153.5625 H   0  0  0  0  0  0  0  0  0  0  0  0
  1  2  2  0  0  0  0
  1 20  1  0  0  0  0
  1 21  1  0  0  0  0
  2  3  1  0  0  0  0
  2 22  1  0  0  0  0
  3  4  1  0  0  0  0
  3  5  1  0  0  0  0
  3 23  1  0  0  0  0
  4 24  1  0  0  0  0
  4 25  1  0  0  0  0
  4 26  1  0  0  0  0
  5  6  1  0  0  0  0
  5 27  1  0  0  0  0
  6  7  2  0  0  0  0
  6  8  1  0  0  0  0
  8 19  1  0  0  0  0
  8  9  2  0  0  0  0
  9 10  1  0  0  0  0
  9 28  1  0  0  0  0
 10 11  1  0  0  0  0
 10 17  2  0  0  0  0
 11 16  1  0  0  0  0
 11 12  1  0  0  0  0
 12 13  1  0  0  0  0
 12 29  1  0  0  0  0
 12 30  1  0  0  0  0
 13 14  1  0  0  0  0
 13 31  1  0  0  0  0
 13 32  1  0  0  0  0
 14 15  1  0  0  0  0
 15 16  1  0  0  0  0
 15 33  1  0  0  0  0
 15 34  1  0  0  0  0
 16 35  1  0  0  0  0
 16 36  1  0  0  0  0
 17 18  1  0  0  0  0
 17 37  1  0  0  0  0
 18 19  2  0  0  0  0
 18 38  1  0  0  0  0
M  END
> <s_m_source_file>
AV-unprocessed.smi

> <i_m_source_file_index>
2746

> <i_lp_mmshare_version>
43012

> <i_f3d_flags>
0

> <s_epik_input>
W0NIMl09W0NIXVtDQEhdKFtDSDNdKVtOSF1DKD1PKWMxW2NIXWMoW2NIXVtjSF1uMSlOMltDSDJdW0NIMl1PW0NIMl1bQ0gyXTI=

> <s_epik_cmdline>
J2VwaWtfcHl0aG9uJywgJy1waCcsICc3LjAnLCAnLXRuJywgJzgnLCAnLW1hJywgJzIwMCcsICctbWV0YWxfYmluZGluZycsICctaW1hZScsICc8aW5maWxlLm1hZT4nLCAnLW9tYWUnLCAnPG91dGZpbGUubWFlPic=

> <r_lp_tautomer_probability>
1

> <r_epik_Ionization_Penalty>
0.373275

> <r_epik_Ionization_Penalty_Charging>
0

> <r_epik_Ionization_Penalty_Neutral>
0.373275

> <r_epik_State_Penalty>
0.370855

> <r_epik_Charging_Adjusted_Penalty>
0.370855

> <i_epik_Tot_Q>
0

> <i_epik_Tot_abs_Q>
0

> <r_epik_Metal_State_Penalty>
0.225885

> <b_epik_Metal_Only>
0

> <s_lp_Force_Field>
OPLS_2005

> <r_lp_Energy>
21.8565

> <b_lp_Chiralities_Consistent>
1

> <s_lp_Variant>
AV-unprocessed.smi:2746-2

> <Gold.Version>
5.8.1

> <Gold.Id.Protein>
6NUR|6NUR_protein|mol2

> <Gold.PLP.Fitness>
40.6613

> <Gold.PLP.PLP>
-37.7106

> <Gold.PLP.part.hbond>
-1.8836

> <Gold.PLP.part.metal>
0.0000

> <Gold.PLP.part.buried>
-3.1029

> <Gold.PLP.part.nonpolar>
-33.3183

> <Gold.PLP.part.repulsive>
0.4283

> <Gold.PLP.ligand.clash>
0.0000

> <Gold.PLP.ligand.torsion>
0.8594

> <Gold.PLP.Chemscore.Hbond>
0.9920

> <Gold.PLP.Chemscore.CHOScore>
0.5216

> <Gold.PLP.Chemscore.Metal>
0.0000

> <Gold.Chemscore.Hbonds>
donor molecule, donor type, donor heavy atom, donor atom, acceptor molecule, acceptor atom, score
      P1  H  7997  8009       L1     7  0.98
      L1  C    18    38       P1  7957  0.51

> <Gold.PLP.Chemscore.Internal.Correction>
0.1286

> <Gold.Rescore>
     Score         DG    S(hbond)    S(metal)    S(lipo)     H(rot)  DE(clash)    DE(int)     intcor
     15.54     -16.72       0.90        0.00      98.32       1.27       0.45       0.72       ----

> <Gold.Chemscore.Fitness>
15.5428

> <Gold.Chemscore.DG>
-16.7150

> <Gold.Chemscore.ZeroCoef>
-5.4800

> <Gold.Chemscore.Hbond>
0.8961

> <Gold.Chemscore.Metal>
0.0000

> <Gold.Chemscore.Lipo>
98.3235

> <Gold.Chemscore.Internal_Hbond>
0.0000

> <Gold.Chemscore.DEClash>
0.4475

> <Gold.Chemscore.DEInternal>
0.7247

> <Gold.Chemscore.Rot>
1.2742

> <Gold.Chemscore.Internal.Correction>
   9.000000E+99

> <Gold.Chemscore.Hbonds>
donor molecule, donor type, donor heavy atom, donor atom, acceptor molecule, acceptor atom, score
      P1  H  7997  8009       L1     7  0.91

> <Gold.Chemscore.Hbond.Weighted>
-2.9931

> <Gold.Chemscore.Metal.Weighted>
-0.0000

> <Gold.Chemscore.Lipo.Weighted>
-11.5038

> <Gold.Chemscore.Internal_Hbond.Weighted>
0.0000

> <Gold.Chemscore.DEClash.Weighted>
0.4475

> <Gold.Chemscore.DEInternal.Weighted>
0.7247

> <Gold.Chemscore.Rot.Weighted>
3.2619

> <Gold.Chemscore.Internal.Correction.Weighted>
   9.000000E+99

> <Gold.Protein.RotatedTorsions>
[ 6907 6896 6895 6894 ] final  156.27 input  -60.11 | X-H torsion
[ 7974 7965 7964 7962 ] final -142.84 input  175.53 | X-H torsion
[ 8008 7997 7996 7995 ] final  173.04 input   59.86 | X-H torsion
[ 10167 10162 10161 10158 ] final   68.35 input  -65.29 | X-H torsion
[ 10718 10713 10712 10709 ] final   -7.89 input   66.30 | X-H torsion
[ 10763 10752 10751 10750 ] final  -62.73 input  -60.55 | X-H torsion
[ 11005 11000 10999 10996 ] final -179.60 input  -57.11 | X-H torsion

> <Gold.Protein.ActiveResidues>
 VAL166  LYS551  ARG553  GLY616  TRP617  ASP618  TYR619  PRO620  LYS621  CYS622 
 ASP623  PHE694  ASN695  SER759  ASP760  ASP761  ALA762  ILE779  LEU786  VAL792 
 PHE793  MET794  SER795  GLU796  ALA797  LYS798  CYS799  TRP800  GLU811  SER814 

> <Gold.Protein.RotatedAtoms>
  152.0321  133.3941  159.4301 H   0  0  0  0  0  0  0  0  0  0  0  0  # atno 6907 bound_to 6896
  150.6881  134.3510  159.4918 H   0  0  0  0  0  0  0  0  0  0  0  0  # atno 6908 bound_to 6896
  152.1297  134.9143  160.0610 H   0  0  0  0  0  0  0  0  0  0  0  0  # atno 6909 bound_to 6896
  144.8413  140.5908  143.5450 H   0  0  0  0  0  0  0  0  0  0  0  0  # atno 7974 bound_to 7965
  156.1115  140.1470  156.9331 H   0  0  0  0  0  0  0  0  0  0  0  0  # atno 8008 bound_to 7997
  154.4770  140.0891  156.7330 H   0  0  0  0  0  0  0  0  0  0  0  0  # atno 8009 bound_to 7997
  155.4587  140.3437  155.4312 H   0  0  0  0  0  0  0  0  0  0  0  0  # atno 8010 bound_to 7997
  140.0796  144.5082  150.7171 H   0  0  0  0  0  0  0  0  0  0  0  0  # atno 10167 bound_to 10162
  156.7106  130.5121  149.5893 H   0  0  0  0  0  0  0  0  0  0  0  0  # atno 10718 bound_to 10713
  154.3043  135.6228  153.5438 H   0  0  0  0  0  0  0  0  0  0  0  0  # atno 10763 bound_to 10752
  152.9837  135.5686  154.5249 H   0  0  0  0  0  0  0  0  0  0  0  0  # atno 10764 bound_to 10752
  154.4886  135.2866  155.1491 H   0  0  0  0  0  0  0  0  0  0  0  0  # atno 10765 bound_to 10752
  140.4169  134.6641  157.4643 H   0  0  0  0  0  0  0  0  0  0  0  0  # atno 11005 bound_to 11000
  145.4688  139.1505  143.3825 LP  0  0  0  0  0  0  0  0  0  0  0  0  # atno 17320 bound_to 7965
  146.2705  140.4821  142.8816 LP  0  0  0  0  0  0  0  0  0  0  0  0  # atno 17321 bound_to 7965
  140.7084  143.2486  151.4655 LP  0  0  0  0  0  0  0  0  0  0  0  0  # atno 17342 bound_to 10162
  139.5787  144.1759  152.1939 LP  0  0  0  0  0  0  0  0  0  0  0  0  # atno 17343 bound_to 10162
  156.1664  130.6408  151.0783 LP  0  0  0  0  0  0  0  0  0  0  0  0  # atno 17370 bound_to 10713
  157.6937  131.0801  150.7031 LP  0  0  0  0  0  0  0  0  0  0  0  0  # atno 17371 bound_to 10713
  140.0228  134.6522  155.9216 LP  0  0  0  0  0  0  0  0  0  0  0  0  # atno 17394 bound_to 11000
  141.1799  133.6545  156.4979 LP  0  0  0  0  0  0  0  0  0  0  0  0  # atno 17395 bound_to 11000

$$$$
