#       Name:                AV-unprocessed.smi:3306
#       Creating user name   scv26
#       Creation time:       Fri Mar 27 19:03:38 2020


#       File generated by GOLD software.
#

@<TRIPOS>MOLECULE
AV-unprocessed.smi:3306
    46    47     1
SMALL
NO_CHARGES


@<TRIPOS>ATOM
      1 ****        -0.5637  -4.1840   0.7688 C.3            1 S1                 0.0000
      2 ****        -1.9364  -3.5911   1.1425 C.3            1 S1                 0.0000
      3 ****        -3.0703  -4.2252   0.3198 C.3            1 S1                 0.0000
      4 ****        -1.9827  -2.1010   1.0698 N.4            1 S1                 1.0000
      5 ****        -1.5356  -1.5134  -0.2222 C.3            1 S1                 0.0000
      6 ****        -1.8483  -0.0075  -0.2753 C.3            1 S1                 0.0000
      7 ****        -1.2207   0.7601   0.9075 C.3            1 S1                 0.0000
      8 ****         0.2545   0.8733   0.8040 N.4            1 S1                 1.0000
      9 ****         0.7488   1.8102  -0.2271 C.3            1 S1                 0.0000
     10 ****         2.2750   1.9539  -0.1507 C.3            1 S1                 0.0000
     11 ****         2.8134   2.9147  -1.1940 C.ar           1 S1                 0.0000
     12 ****         3.4407   2.4347  -2.3634 C.ar           1 S1                 0.0000
     13 ****         3.9190   3.3718  -3.3000 C.ar           1 S1                 0.0000
     14 ****         3.7509   4.7444  -3.0331 C.ar           1 S1                 0.0000
     15 ****         3.1099   5.1210  -1.8360 C.ar           1 S1                 0.0000
     16 ****         2.6473   4.2304  -0.9314 N.ar           1 S1                 0.0000
     17 ****        -1.6248   0.0812   2.2295 C.3            1 S1                 0.0000
     18 ****        -1.3338  -1.4317   2.2278 C.3            1 S1                 0.0000
     19 ****        -0.5524  -5.2606   0.9425 H              1 S1                 0.0000
     20 ****         0.2401  -3.7541   1.3661 H              1 S1                 0.0000
     21 ****        -0.3240  -4.0278  -0.2832 H              1 S1                 0.0000
     22 ****        -2.1357  -3.8649   2.1795 H              1 S1                 0.0000
     23 ****        -3.1159  -5.3013   0.4905 H              1 S1                 0.0000
     24 ****        -2.9355  -4.0749  -0.7511 H              1 S1                 0.0000
     25 ****        -4.0396  -3.8101   0.5976 H              1 S1                 0.0000
     26 ****        -0.4646  -1.6705  -0.3563 H              1 S1                 0.0000
     27 ****        -2.0341  -2.0073  -1.0557 H              1 S1                 0.0000
     28 ****        -1.5323   0.4090  -1.2311 H              1 S1                 0.0000
     29 ****        -2.9309   0.1242  -0.2439 H              1 S1                 0.0000
     30 ****        -1.6203   1.7754   0.9208 H              1 S1                 0.0000
     31 ****         0.5952   1.2106   1.6935 H              1 S1                 0.0000
     32 ****         0.4656   1.4565  -1.2185 H              1 S1                 0.0000
     33 ****         0.2783   2.7839  -0.0836 H              1 S1                 0.0000
     34 ****         2.5692   2.3088   0.8384 H              1 S1                 0.0000
     35 ****         2.7490   0.9800  -0.2810 H              1 S1                 0.0000
     36 ****         3.5564   1.3758  -2.5421 H              1 S1                 0.0000
     37 ****         4.4063   3.0439  -4.2065 H              1 S1                 0.0000
     38 ****         4.1053   5.4907  -3.7286 H              1 S1                 0.0000
     39 ****         2.9635   6.1646  -1.5994 H              1 S1                 0.0000
     40 ****        -1.1215   0.5593   3.0710 H              1 S1                 0.0000
     41 ****        -2.6927   0.2324   2.3942 H              1 S1                 0.0000
     42 ****        -1.7021  -1.8627   3.1595 H              1 S1                 0.0000
     43 ****        -0.2576  -1.6074   2.2039 H              1 S1                 0.0000
     44 ****        -2.9636  -1.8727   1.1510 H              1 S1                 0.0000
     45 ****         0.6502  -0.0408   0.6376 H              1 S1                 0.0000
     46 ****         2.1957   4.5352  -0.0929 LP             1 S1                 0.0000
@<TRIPOS>BOND
    1    1    2 1     
    2    1   19 1     
    3    1   20 1     
    4    1   21 1     
    5    2    3 1     
    6    2    4 1     
    7    2   22 1     
    8    3   23 1     
    9    3   24 1     
   10    3   25 1     
   11    4   18 1     
   12    4    5 1     
   13    4   44 1     
   14    5    6 1     
   15    5   26 1     
   16    5   27 1     
   17    6    7 1     
   18    6   28 1     
   19    6   29 1     
   20    7    8 1     
   21    7   17 1     
   22    7   30 1     
   23    8    9 1     
   24    8   31 1     
   25    8   45 1     
   26    9   10 1     
   27    9   32 1     
   28    9   33 1     
   29   10   11 1     
   30   10   34 1     
   31   10   35 1     
   32   11   16 ar    
   33   11   12 ar    
   34   12   13 ar    
   35   12   36 1     
   36   13   14 ar    
   37   13   37 1     
   38   14   15 ar    
   39   14   38 1     
   40   15   16 ar    
   41   15   39 1     
   42   17   18 1     
   43   17   40 1     
   44   17   41 1     
   45   18   42 1     
   46   18   43 1     
   47   16   46 1     
@<TRIPOS>SUBSTRUCTURE
      1 S1             1
@<TRIPOS>SET
LONE_PAIRS      STATIC     ATOMS    <user>   **** ""
1 46
DONOR_HYDROGENS      STATIC     ATOMS    <user>   **** ""
3 44 31 45
ATOM$BLUE        STATIC     ATOMS    COLORGROUP SYSTEM
1 46
ATOM$RED        STATIC     ATOMS    COLORGROUP SYSTEM
3 44 31 45
