#       Name:                AV-unprocessed.smi:1929
#       Creating user name   scv26
#       Creation time:       Fri Mar 27 09:54:14 2020


#       File generated by GOLD software.
#

@<TRIPOS>MOLECULE
AV-unprocessed.smi:1929
    48    49     1
SMALL
NO_CHARGES


@<TRIPOS>ATOM
      1 ****        -6.0267   2.8836   1.3266 C.3            1 S1                 0.0000
      2 ****        -5.3723   1.9494   0.4237 N.am           1 S1                 0.0000
      3 ****        -4.4563   2.3005  -0.4905 C.2            1 S1                 0.0000
      4 ****        -4.0782   3.4600  -0.6579 O.2            1 S1                 0.0000
      5 ****        -3.8670   1.1709  -1.3438 C.3            1 S1                 0.0000
      6 ****        -2.4067   0.9812  -1.1866 N.3            1 S1                 0.0000
      7 ****        -1.9477  -0.0390  -2.1348 C.3            1 S1                 0.0000
      8 ****        -0.4150  -0.1677  -2.0939 C.3            1 S1                 0.0000
      9 ****         0.0712  -0.5271  -0.6833 C.3            1 S1                 0.0000
     10 ****         1.5307  -0.5334  -0.6461 N.am           1 S1                 0.0000
     11 ****         2.2783  -1.2052   0.2414 C.2            1 S1                 0.0000
     12 ****         1.8027  -1.8973   1.1412 O.2            1 S1                 0.0000
     13 ****         3.5894  -1.0013   0.0234 N.am           1 S1                 0.0000
     14 ****         4.7038  -1.5375   0.7248 C.ar           1 S1                 0.0000
     15 ****         5.9445  -0.8820   0.5826 C.ar           1 S1                 0.0000
     16 ****         7.0691  -1.4022   1.2536 C.ar           1 S1                 0.0000
     17 ****         7.0263  -2.5089   2.0249 N.ar           1 S1                 0.0000
     18 ****         5.8413  -3.1433   2.1492 C.ar           1 S1                 0.0000
     19 ****         4.6569  -2.7069   1.5219 C.ar           1 S1                 0.0000
     20 ****        -0.5001   0.4930   0.3150 C.3            1 S1                 0.0000
     21 ****        -2.0294   0.6076   0.1847 C.3            1 S1                 0.0000
     22 ****        -6.7181   2.3486   1.9774 H              1 S1                 0.0000
     23 ****        -6.5917   3.6316   0.7691 H              1 S1                 0.0000
     24 ****        -5.2948   3.3947   1.9533 H              1 S1                 0.0000
     25 ****        -5.6273   0.9754   0.5004 H              1 S1                 0.0000
     26 ****        -4.3848   0.2344  -1.1263 H              1 S1                 0.0000
     27 ****        -4.0899   1.4112  -2.3843 H              1 S1                 0.0000
     28 ****        -2.4137  -1.0012  -1.9143 H              1 S1                 0.0000
     29 ****        -2.2492   0.2346  -3.1468 H              1 S1                 0.0000
     30 ****        -0.0904  -0.9278  -2.8054 H              1 S1                 0.0000
     31 ****         0.0355   0.7720  -2.4176 H              1 S1                 0.0000
     32 ****        -0.3023  -1.5223  -0.4335 H              1 S1                 0.0000
     33 ****         2.0041   0.0174  -1.3471 H              1 S1                 0.0000
     34 ****         3.8177  -0.3422  -0.7061 H              1 S1                 0.0000
     35 ****         6.0371   0.0070  -0.0242 H              1 S1                 0.0000
     36 ****         8.0298  -0.9164   1.1662 H              1 S1                 0.0000
     37 ****         5.8369  -4.0318   2.7632 H              1 S1                 0.0000
     38 ****         3.7524  -3.2798   1.6549 H              1 S1                 0.0000
     39 ****        -0.2410   0.2063   1.3349 H              1 S1                 0.0000
     40 ****        -0.0491   1.4723   0.1460 H              1 S1                 0.0000
     41 ****        -2.3711   1.3547   0.9009 H              1 S1                 0.0000
     42 ****        -2.5045  -0.3350   0.4617 H              1 S1                 0.0000
     43 ****        -4.4577   4.1957  -0.0968 LP             1 S1                 0.0000
     44 ****        -3.3915   3.6663  -1.3550 LP             1 S1                 0.0000
     45 ****        -1.9630   1.8567  -1.3781 LP             1 S1                 0.0000
     46 ****         0.8107  -1.9797   1.2375 LP             1 S1                 0.0000
     47 ****         2.4082  -2.3772   1.7761 LP             1 S1                 0.0000
     48 ****         7.8449  -2.8475   2.4888 LP             1 S1                 0.0000
@<TRIPOS>BOND
    1    1    2 1     
    2    1   22 1     
    3    1   23 1     
    4    1   24 1     
    5    2    3 am    
    6    2   25 1     
    7    3    4 2     
    8    3    5 1     
    9    5    6 1     
   10    5   26 1     
   11    5   27 1     
   12    6   21 1     
   13    6    7 1     
   14    7    8 1     
   15    7   28 1     
   16    7   29 1     
   17    8    9 1     
   18    8   30 1     
   19    8   31 1     
   20    9   10 1     
   21    9   20 1     
   22    9   32 1     
   23   10   11 am    
   24   10   33 1     
   25   11   12 2     
   26   11   13 am    
   27   13   14 1     
   28   13   34 1     
   29   14   19 ar    
   30   14   15 ar    
   31   15   16 ar    
   32   15   35 1     
   33   16   17 ar    
   34   16   36 1     
   35   17   18 ar    
   36   18   19 ar    
   37   18   37 1     
   38   19   38 1     
   39   20   21 1     
   40   20   39 1     
   41   20   40 1     
   42   21   41 1     
   43   21   42 1     
   44    4   43 1     
   45    4   44 1     
   46    6   45 1     
   47   12   46 1     
   48   12   47 1     
   49   17   48 1     
@<TRIPOS>SUBSTRUCTURE
      1 S1             1
@<TRIPOS>SET
LONE_PAIRS      STATIC     ATOMS    <user>   **** ""
6 43 44 45 46 47 48
DONOR_HYDROGENS      STATIC     ATOMS    <user>   **** ""
3 25 33 34
ATOM$BLUE        STATIC     ATOMS    COLORGROUP SYSTEM
6 43 44 45 46 47 48
ATOM$RED        STATIC     ATOMS    COLORGROUP SYSTEM
3 25 33 34
