AV-unprocessed.smi:295|AV-procd|sdf|2257|dock1
  -GOLD-   2262022143D 1   1.00000     0.00000
 Structure written by MMmdl.
 35 36  0  0  0  0  0  0  0  0  1 V2000
  153.4117  142.2117  161.4143 C   0  0  0  0  0  0  0  0  0  0  0  0
  152.3822  142.6390  160.3518 C   0  0  1  0  0  0  0  0  0  0  0  0
  152.4869  144.1510  160.0676 C   0  0  0  0  0  0  0  0  0  0  0  0
  151.4604  144.6075  159.0195 C   0  0  0  0  0  0  0  0  0  0  0  0
  151.6095  143.8086  157.7174 C   0  0  0  0  0  0  0  0  0  0  0  0
  151.4939  142.3004  157.9819 C   0  0  0  0  0  0  0  0  0  0  0  0
  152.5143  141.8289  159.0381 C   0  0  2  0  0  0  0  0  0  0  0  0
  152.3243  140.4062  159.3046 N   0  0  0  0  0  0  0  0  0  0  0  0
  152.5057  139.4110  158.4220 C   0  0  0  0  0  0  0  0  0  0  0  0
  152.8026  139.5960  157.2423 O   0  0  0  0  0  0  0  0  0  0  0  0
  152.3189  137.9850  158.9477 C   0  0  0  0  0  0  0  0  0  0  0  0
  150.9266  137.5720  158.9009 N   0  0  0  0  0  0  0  0  0  0  0  0
  150.0152  137.7016  157.9310 C   0  0  0  0  0  0  0  0  0  0  0  0
  148.8191  137.2212  158.2465 N   0  0  0  0  0  0  0  0  0  0  0  0
  149.0944  136.7805  159.5084 C   0  0  0  0  0  0  0  0  0  0  0  0
  148.0772  136.1465  160.3297 C   0  0  0  0  0  0  0  0  0  0  0  0
  147.2670  135.6416  160.9839 N   0  0  0  0  0  0  0  0  0  0  0  0
  150.3354  136.9598  159.9560 N   0  0  0  0  0  0  0  0  0  0  0  0
  154.4315  142.3430  161.0513 H   0  0  0  0  0  0  0  0  0  0  0  0
  153.2917  141.1654  161.6966 H   0  0  0  0  0  0  0  0  0  0  0  0
  153.3043  142.8041  162.3230 H   0  0  0  0  0  0  0  0  0  0  0  0
  151.3902  142.4520  160.7667 H   0  0  0  0  0  0  0  0  0  0  0  0
  152.3389  144.7150  160.9891 H   0  0  0  0  0  0  0  0  0  0  0  0
  153.4923  144.3910  159.7183 H   0  0  0  0  0  0  0  0  0  0  0  0
  150.4518  144.4796  159.4144 H   0  0  0  0  0  0  0  0  0  0  0  0
  151.5816  145.6725  158.8193 H   0  0  0  0  0  0  0  0  0  0  0  0
  150.8501  144.1197  156.9995 H   0  0  0  0  0  0  0  0  0  0  0  0
  152.5756  144.0274  157.2607 H   0  0  0  0  0  0  0  0  0  0  0  0
  150.4819  142.0701  158.3178 H   0  0  0  0  0  0  0  0  0  0  0  0
  151.6404  141.7547  157.0490 H   0  0  0  0  0  0  0  0  0  0  0  0
  153.5199  141.9904  158.6442 H   0  0  0  0  0  0  0  0  0  0  0  0
  152.0740  140.1559  160.2500 H   0  0  0  0  0  0  0  0  0  0  0  0
  152.9141  137.2954  158.3479 H   0  0  0  0  0  0  0  0  0  0  0  0
  152.6766  137.9111  159.9758 H   0  0  0  0  0  0  0  0  0  0  0  0
  150.2301  138.1636  156.9786 H   0  0  0  0  0  0  0  0  0  0  0  0
  1  2  1  0  0  0  0
  1 19  1  0  0  0  0
  1 20  1  0  0  0  0
  1 21  1  0  0  0  0
  2  7  1  0  0  0  0
  2  3  1  0  0  0  0
  2 22  1  0  0  0  0
  3  4  1  0  0  0  0
  3 23  1  0  0  0  0
  3 24  1  0  0  0  0
  4  5  1  0  0  0  0
  4 25  1  0  0  0  0
  4 26  1  0  0  0  0
  5  6  1  0  0  0  0
  5 27  1  0  0  0  0
  5 28  1  0  0  0  0
  6  7  1  0  0  0  0
  6 29  1  0  0  0  0
  6 30  1  0  0  0  0
  7  8  1  0  0  0  0
  7 31  1  0  0  0  0
  8  9  1  0  0  0  0
  8 32  1  0  0  0  0
  9 10  2  0  0  0  0
  9 11  1  0  0  0  0
 11 12  1  0  0  0  0
 11 33  1  0  0  0  0
 11 34  1  0  0  0  0
 12 18  1  0  0  0  0
 12 13  1  0  0  0  0
 13 14  2  0  0  0  0
 13 35  1  0  0  0  0
 14 15  1  0  0  0  0
 15 16  1  0  0  0  0
 15 18  2  0  0  0  0
 16 17  3  0  0  0  0
M  END
> <s_m_source_file>
AV-unprocessed.smi

> <i_m_source_file_index>
295

> <i_lp_mmshare_version>
43012

> <i_f3d_flags>
0

> <s_epik_input>
W0NIM11bQ0BASF0xW0NIMl1bQ0gyXVtDSDJdW0NIMl1bQ0BIXTFbTkhdQyg9TylbQ0gyXW4yW2NIXW5jKG4yKUMjTg==

> <s_epik_cmdline>
J2VwaWtfcHl0aG9uJywgJy1waCcsICc3LjAnLCAnLXRuJywgJzgnLCAnLW1hJywgJzIwMCcsICctbWV0YWxfYmluZGluZycsICctaW1hZScsICc8aW5maWxlLm1hZT4nLCAnLW9tYWUnLCAnPG91dGZpbGUubWFlPic=

> <r_lp_tautomer_probability>
1

> <r_epik_Ionization_Penalty>
5.31112e-08

> <r_epik_Ionization_Penalty_Charging>
0

> <r_epik_Ionization_Penalty_Neutral>
5.31112e-08

> <r_epik_State_Penalty>
-0

> <r_epik_Charging_Adjusted_Penalty>
0

> <i_epik_Tot_Q>
0

> <i_epik_Tot_abs_Q>
0

> <r_epik_Metal_State_Penalty>
-0

> <b_epik_Metal_Only>
0

> <s_lp_Force_Field>
OPLS_2005

> <r_lp_Energy>
13.6203

> <b_lp_Chiralities_Consistent>
1

> <s_lp_Variant>
AV-unprocessed.smi:295-4

> <Gold.Version>
5.8.1

> <Gold.Id.Protein>
6NUR|6NUR_protein|mol2

> <Gold.PLP.Fitness>
41.4762

> <Gold.PLP.PLP>
-36.6684

> <Gold.PLP.part.hbond>
-2.6586

> <Gold.PLP.part.metal>
0.0000

> <Gold.PLP.part.buried>
-5.7370

> <Gold.PLP.part.nonpolar>
-29.4203

> <Gold.PLP.part.repulsive>
0.1378

> <Gold.PLP.ligand.clash>
0.0000

> <Gold.PLP.ligand.torsion>
0.5626

> <Gold.PLP.Chemscore.Hbond>
1.9750

> <Gold.PLP.Chemscore.CHOScore>
0.0000

> <Gold.PLP.Chemscore.Metal>
0.0000

> <Gold.Chemscore.Hbonds>
donor molecule, donor type, donor heavy atom, donor atom, acceptor molecule, acceptor atom, score
      P1  H  6896  6909       L1    18  0.98
      P1  H  7997  8009       L1    10  1.00

> <Gold.PLP.Chemscore.Internal.Correction>
0.0081

> <Gold.Rescore>
     Score         DG    S(hbond)    S(metal)    S(lipo)     H(rot)  DE(clash)    DE(int)     intcor
     15.77     -16.43       1.95        0.00      80.56       1.95       0.00       0.66       ----

> <Gold.Chemscore.Fitness>
15.7716

> <Gold.Chemscore.DG>
-16.4342

> <Gold.Chemscore.ZeroCoef>
-5.4800

> <Gold.Chemscore.Hbond>
1.9501

> <Gold.Chemscore.Metal>
0.0000

> <Gold.Chemscore.Lipo>
80.5644

> <Gold.Chemscore.Internal_Hbond>
0.0000

> <Gold.Chemscore.DEClash>
0.0000

> <Gold.Chemscore.DEInternal>
0.6626

> <Gold.Chemscore.Rot>
1.9474

> <Gold.Chemscore.Internal.Correction>
   9.000000E+99

> <Gold.Chemscore.Hbonds>
donor molecule, donor type, donor heavy atom, donor atom, acceptor molecule, acceptor atom, score
      P1  H  6896  6909       L1    18  0.11
      P1  H  7997  8009       L1    10  1.00

> <Gold.Chemscore.Hbond.Weighted>
-6.5135

> <Gold.Chemscore.Metal.Weighted>
-0.0000

> <Gold.Chemscore.Lipo.Weighted>
-9.4260

> <Gold.Chemscore.Internal_Hbond.Weighted>
0.0000

> <Gold.Chemscore.DEClash.Weighted>
0.0000

> <Gold.Chemscore.DEInternal.Weighted>
0.6626

> <Gold.Chemscore.Rot.Weighted>
4.9852

> <Gold.Chemscore.Internal.Correction.Weighted>
   9.000000E+99

> <Gold.Protein.RotatedTorsions>
[ 6907 6896 6895 6894 ] final   87.81 input  -60.11 | X-H torsion
[ 7974 7965 7964 7962 ] final   48.82 input  175.53 | X-H torsion
[ 8008 7997 7996 7995 ] final -171.85 input   59.86 | X-H torsion
[ 10167 10162 10161 10158 ] final   33.87 input  -65.29 | X-H torsion
[ 10718 10713 10712 10709 ] final  -54.64 input   66.30 | X-H torsion
[ 10763 10752 10751 10750 ] final  142.06 input  -60.55 | X-H torsion
[ 11005 11000 10999 10996 ] final   92.12 input  -57.11 | X-H torsion

> <Gold.Protein.ActiveResidues>
 VAL166  LYS551  ARG553  GLY616  TRP617  ASP618  TYR619  PRO620  LYS621  CYS622 
 ASP623  PHE694  ASN695  SER759  ASP760  ASP761  ALA762  ILE779  LEU786  VAL792 
 PHE793  MET794  SER795  GLU796  ALA797  LYS798  CYS799  TRP800  GLU811  SER814 

> <Gold.Protein.RotatedAtoms>
  152.5416  134.2218  159.8790 H   0  0  0  0  0  0  0  0  0  0  0  0  # atno 6907 bound_to 6896
  151.2195  133.4504  159.2608 H   0  0  0  0  0  0  0  0  0  0  0  0  # atno 6908 bound_to 6896
  151.0819  134.9876  159.8416 H   0  0  0  0  0  0  0  0  0  0  0  0  # atno 6909 bound_to 6896
  146.0168  139.4606  142.9922 H   0  0  0  0  0  0  0  0  0  0  0  0  # atno 7974 bound_to 7965
  155.9370  140.1101  157.1087 H   0  0  0  0  0  0  0  0  0  0  0  0  # atno 8008 bound_to 7997
  154.4081  140.1226  156.4943 H   0  0  0  0  0  0  0  0  0  0  0  0  # atno 8009 bound_to 7997
  155.7009  140.3472  155.4935 H   0  0  0  0  0  0  0  0  0  0  0  0  # atno 8010 bound_to 7997
  140.4367  144.1247  150.6167 H   0  0  0  0  0  0  0  0  0  0  0  0  # atno 10167 bound_to 10162
  156.1434  130.4153  150.0065 H   0  0  0  0  0  0  0  0  0  0  0  0  # atno 10718 bound_to 10713
  153.9495  135.2971  155.3439 H   0  0  0  0  0  0  0  0  0  0  0  0  # atno 10763 bound_to 10752
  154.7434  135.5014  153.9165 H   0  0  0  0  0  0  0  0  0  0  0  0  # atno 10764 bound_to 10752
  153.1001  135.6732  153.9797 H   0  0  0  0  0  0  0  0  0  0  0  0  # atno 10765 bound_to 10752
  139.8828  134.8714  156.3526 H   0  0  0  0  0  0  0  0  0  0  0  0  # atno 11005 bound_to 11000
  145.7256  141.0060  143.1379 LP  0  0  0  0  0  0  0  0  0  0  0  0  # atno 17320 bound_to 7965
  144.6974  139.8922  143.7454 LP  0  0  0  0  0  0  0  0  0  0  0  0  # atno 17321 bound_to 7965
  140.4365  143.2545  151.9528 LP  0  0  0  0  0  0  0  0  0  0  0  0  # atno 17342 bound_to 10162
  139.4787  144.5695  151.8112 LP  0  0  0  0  0  0  0  0  0  0  0  0  # atno 17343 bound_to 10162
  156.7944  130.9268  151.3646 LP  0  0  0  0  0  0  0  0  0  0  0  0  # atno 17370 bound_to 10713
  157.6595  130.8954  149.9800 LP  0  0  0  0  0  0  0  0  0  0  0  0  # atno 17371 bound_to 10713
  140.9584  133.7405  156.0367 LP  0  0  0  0  0  0  0  0  0  0  0  0  # atno 17394 bound_to 11000
  140.8020  134.3497  157.5436 LP  0  0  0  0  0  0  0  0  0  0  0  0  # atno 17395 bound_to 11000

$$$$
