#       Name:                AV-unprocessed.smi:1473
#       Creating user name   scv26
#       Creation time:       Fri Mar 27 06:05:44 2020


#       File generated by GOLD software.
#

@<TRIPOS>MOLECULE
AV-unprocessed.smi:1473
    39    40     1
SMALL
NO_CHARGES


@<TRIPOS>ATOM
      1 ****        -4.4113   2.3013   1.5830 N.3            1 S1                 0.0000
      2 ****        -2.7729   1.7860   1.5645 S.o2           1 S1                 0.0000
      3 ****        -2.3783   1.7395   0.1473 O.2            1 S1                 0.0000
      4 ****        -2.0500   2.6989   2.4642 O.2            1 S1                 0.0000
      5 ****        -3.0450   0.3238   2.2081 N.pl3          1 S1                -1.0000
      6 ****        -1.9223  -0.5471   2.5151 C.3            1 S1                 0.0000
      7 ****        -1.2738  -1.1174   1.2608 C.ar           1 S1                 0.0000
      8 ****        -1.8027  -2.2712   0.6352 C.ar           1 S1                 0.0000
      9 ****        -1.1888  -2.7620  -0.5342 C.ar           1 S1                 0.0000
     10 ****        -0.1125  -2.1283  -1.0472 N.pl3          1 S1                 1.0000
     11 ****         0.4268  -1.0212  -0.4915 C.ar           1 S1                 0.0000
     12 ****         1.5336  -0.4532  -1.1349 N.3            1 S1                 0.0000
     13 ****         1.3107   0.9205  -1.5686 C.3            1 S1                 0.0000
     14 ****         2.5305   1.4249  -2.3584 C.3            1 S1                 0.0000
     15 ****         3.7030   1.2921  -1.5595 O.3            1 S1                 0.0000
     16 ****         3.9547  -0.0627  -1.1967 C.3            1 S1                 0.0000
     17 ****         2.7698  -0.6065  -0.3797 C.3            1 S1                 0.0000
     18 ****        -0.1397  -0.4919   0.6905 C.ar           1 S1                 0.0000
     19 ****        -4.7848   2.4433   0.6454 H              1 S1                 0.0000
     20 ****        -4.5631   3.0892   2.2118 H              1 S1                 0.0000
     21 ****        -1.1580  -0.0337   3.0997 H              1 S1                 0.0000
     22 ****        -2.2365  -1.3880   3.1340 H              1 S1                 0.0000
     23 ****        -2.6719  -2.7790   1.0313 H              1 S1                 0.0000
     24 ****        -1.5298  -3.6328  -1.0749 H              1 S1                 0.0000
     25 ****         0.4143   0.9712  -2.1881 H              1 S1                 0.0000
     26 ****         1.1426   1.5633  -0.7036 H              1 S1                 0.0000
     27 ****         2.6479   0.8699  -3.2908 H              1 S1                 0.0000
     28 ****         2.3988   2.4735  -2.6255 H              1 S1                 0.0000
     29 ****         4.1198  -0.6648  -2.0918 H              1 S1                 0.0000
     30 ****         4.8707  -0.1092  -0.6079 H              1 S1                 0.0000
     31 ****         2.6943  -0.0683   0.5663 H              1 S1                 0.0000
     32 ****         2.9301  -1.6587  -0.1414 H              1 S1                 0.0000
     33 ****         0.2867   0.3959   1.1379 H              1 S1                 0.0000
     34 ****         0.3085  -2.4989  -1.8994 H              1 S1                 0.0000
     35 ****        -4.9488   1.5510   1.9677 LP             1 S1                 0.0000
     36 ****        -3.9804   0.0223   2.3931 LP             1 S1                 0.0000
     37 ****         1.6501  -0.9852  -1.9736 LP             1 S1                 0.0000
     38 ****         3.5882   1.8330  -0.7263 LP             1 S1                 0.0000
     39 ****         4.4860   1.6382  -2.0763 LP             1 S1                 0.0000
@<TRIPOS>BOND
    1    1    2 1     
    2    1   19 1     
    3    1   20 1     
    4    2    3 2     
    5    2    4 2     
    6    2    5 1     
    7    5    6 1     
    8    6    7 1     
    9    6   21 1     
   10    6   22 1     
   11    7   18 ar    
   12    7    8 ar    
   13    8    9 ar    
   14    8   23 1     
   15    9   10 ar    
   16    9   24 1     
   17   10   11 ar    
   18   10   34 1     
   19   11   12 1     
   20   11   18 ar    
   21   12   17 1     
   22   12   13 1     
   23   13   14 1     
   24   13   25 1     
   25   13   26 1     
   26   14   15 1     
   27   14   27 1     
   28   14   28 1     
   29   15   16 1     
   30   16   17 1     
   31   16   29 1     
   32   16   30 1     
   33   17   31 1     
   34   17   32 1     
   35   18   33 1     
   36    1   35 1     
   37    5   36 1     
   38   12   37 1     
   39   15   38 1     
   40   15   39 1     
@<TRIPOS>SUBSTRUCTURE
      1 S1             1
@<TRIPOS>SET
LONE_PAIRS      STATIC     ATOMS    <user>   **** ""
7 35 3 4 36 37 38 39
DONOR_HYDROGENS      STATIC     ATOMS    <user>   **** ""
3 19 20 34
ATOM$BLUE        STATIC     ATOMS    COLORGROUP SYSTEM
7 35 3 4 36 37 38 39
ATOM$RED        STATIC     ATOMS    COLORGROUP SYSTEM
3 19 20 34
