#       Name:                AV-unprocessed.smi:916
#       Creating user name   scv26
#       Creation time:       Fri Mar 27 02:06:26 2020


#       File generated by GOLD software.
#

@<TRIPOS>MOLECULE
AV-unprocessed.smi:916
    48    49     1
SMALL
NO_CHARGES


@<TRIPOS>ATOM
      1 ****        -4.6723   4.7886   0.7235 C.3            1 S1                 0.0000
      2 ****        -4.9176   4.2502  -0.6903 C.3            1 S1                 0.0000
      3 ****        -4.7889   2.7588  -0.7635 C.2            1 S1                 0.0000
      4 ****        -5.8135   1.8445  -0.7939 C.2            1 S1                 0.0000
      5 ****        -5.2259   0.2059  -0.8877 S.3            1 S1                 0.0000
      6 ****        -3.5860   0.8347  -0.8739 C.2            1 S1                 0.0000
      7 ****        -2.4542  -0.0187  -0.9474 N.am           1 S1                 0.0000
      8 ****        -1.1542   0.3186  -0.8890 C.2            1 S1                 0.0000
      9 ****        -0.7222   1.4540  -0.6875 O.2            1 S1                 0.0000
     10 ****        -0.3682  -0.7529  -1.0687 N.am           1 S1                 0.0000
     11 ****         1.0915  -0.7449  -1.0622 C.3            1 S1                 0.0000
     12 ****         1.6574  -1.2458   0.2804 C.3            1 S1                 0.0000
     13 ****         1.3563  -0.3500   1.4673 C.3            1 S1                 0.0000
     14 ****         2.3962  -0.8100   2.4837 C.3            1 S1                 0.0000
     15 ****         3.5246  -1.2309   1.7233 O.3            1 S1                 0.0000
     16 ****         3.1919  -1.2857   0.3378 C.3            1 S1                 0.0000
     17 ****         3.8739  -2.4887  -0.3547 C.3            1 S1                 0.0000
     18 ****         3.5358  -3.8435   0.2933 C.3            1 S1                 0.0000
     19 ****         5.3958  -2.2882  -0.4242 C.3            1 S1                 0.0000
     20 ****        -3.5214   2.1693  -0.8068 N.2            1 S1                 0.0000
     21 ****        -4.7745   5.8736   0.7486 H              1 S1                 0.0000
     22 ****        -3.6689   4.5409   1.0713 H              1 S1                 0.0000
     23 ****        -5.3866   4.3699   1.4331 H              1 S1                 0.0000
     24 ****        -5.9103   4.5560  -1.0224 H              1 S1                 0.0000
     25 ****        -4.2150   4.7189  -1.3801 H              1 S1                 0.0000
     26 ****        -6.8759   2.0362  -0.7696 H              1 S1                 0.0000
     27 ****        -2.6588  -0.9985  -1.0774 H              1 S1                 0.0000
     28 ****        -0.8135  -1.6454  -1.2247 H              1 S1                 0.0000
     29 ****         1.4242  -1.3995  -1.8676 H              1 S1                 0.0000
     30 ****         1.4812   0.2469  -1.2983 H              1 S1                 0.0000
     31 ****         1.2497  -2.2330   0.4960 H              1 S1                 0.0000
     32 ****         1.5249   0.6962   1.2076 H              1 S1                 0.0000
     33 ****         0.3345  -0.4490   1.8349 H              1 S1                 0.0000
     34 ****         2.6618  -0.0245   3.1917 H              1 S1                 0.0000
     35 ****         2.0231  -1.6647   3.0489 H              1 S1                 0.0000
     36 ****         3.5677  -0.3621  -0.1062 H              1 S1                 0.0000
     37 ****         3.5166  -2.5225  -1.3842 H              1 S1                 0.0000
     38 ****         3.8301  -3.8679   1.3429 H              1 S1                 0.0000
     39 ****         4.0564  -4.6569  -0.2126 H              1 S1                 0.0000
     40 ****         2.4717  -4.0685   0.2384 H              1 S1                 0.0000
     41 ****         5.8374  -2.2527   0.5723 H              1 S1                 0.0000
     42 ****         5.6484  -1.3577  -0.9332 H              1 S1                 0.0000
     43 ****         5.8756  -3.1005  -0.9710 H              1 S1                 0.0000
     44 ****        -1.3577   2.2140  -0.5514 LP             1 S1                 0.0000
     45 ****         0.2642   1.6161  -0.6598 LP             1 S1                 0.0000
     46 ****         3.8101  -2.1387   2.0307 LP             1 S1                 0.0000
     47 ****         4.2740  -0.5826   1.8577 LP             1 S1                 0.0000
     48 ****        -2.6653   2.6859  -0.7895 LP             1 S1                 0.0000
@<TRIPOS>BOND
    1    1    2 1     
    2    1   21 1     
    3    1   22 1     
    4    1   23 1     
    5    2    3 1     
    6    2   24 1     
    7    2   25 1     
    8    3   20 1     
    9    3    4 2     
   10    4    5 1     
   11    4   26 1     
   12    5    6 1     
   13    6    7 1     
   14    6   20 2     
   15    7    8 am    
   16    7   27 1     
   17    8    9 2     
   18    8   10 am    
   19   10   11 1     
   20   10   28 1     
   21   11   12 1     
   22   11   29 1     
   23   11   30 1     
   24   12   16 1     
   25   12   13 1     
   26   12   31 1     
   27   13   14 1     
   28   13   32 1     
   29   13   33 1     
   30   14   15 1     
   31   14   34 1     
   32   14   35 1     
   33   15   16 1     
   34   16   17 1     
   35   16   36 1     
   36   17   18 1     
   37   17   19 1     
   38   17   37 1     
   39   18   38 1     
   40   18   39 1     
   41   18   40 1     
   42   19   41 1     
   43   19   42 1     
   44   19   43 1     
   45    9   44 1     
   46    9   45 1     
   47   15   46 1     
   48   15   47 1     
   49   20   48 1     
@<TRIPOS>SUBSTRUCTURE
      1 S1             1
@<TRIPOS>SET
LONE_PAIRS      STATIC     ATOMS    <user>   **** ""
5 44 45 46 47 48
DONOR_HYDROGENS      STATIC     ATOMS    <user>   **** ""
2 27 28
ATOM$BLUE        STATIC     ATOMS    COLORGROUP SYSTEM
5 44 45 46 47 48
ATOM$RED        STATIC     ATOMS    COLORGROUP SYSTEM
2 27 28
