AV-unprocessed.smi:2066|AV-procd|sdf|8422|dock2
  -GOLD-   2272011113D 1   1.00000     0.00000
 Structure written by MMmdl.
 39 40  0  0  0  0  0  0  0  0  3 V2000
  152.2277  138.1252  159.5026 C   0  0  0  0  0  0  0  0  0  0  0  0
  151.7447  138.8028  158.1955 C   0  0  0  0  0  0  0  0  0  0  0  0
  152.8688  138.5708  157.1544 C   0  0  0  0  0  0  0  0  0  0  0  0
  150.4216  138.1501  157.6920 C   0  0  0  0  0  0  0  0  0  0  0  0
  149.3872  138.0650  158.7224 N   0  0  0  0  0  0  0  0  0  0  0  0
  148.9496  136.9486  159.3222 C   0  0  0  0  0  0  0  0  0  0  0  0
  149.4365  135.8558  159.0234 O   0  0  0  0  0  0  0  0  0  0  0  0
  147.9654  137.1681  160.2222 N   0  5  0  0  0  0  0  0  0  0  0  0
  147.5992  136.1900  161.0665 C   0  0  0  0  0  0  0  0  0  0  0  0
  147.0307  136.4246  162.2547 N   0  0  0  0  0  0  0  0  0  0  0  0
  146.7316  135.2611  162.9658 C   0  0  0  0  0  0  0  0  0  0  0  0
  147.0706  134.1137  162.2989 C   0  0  0  0  0  0  0  0  0  0  0  0
  147.7813  134.4624  160.7488 S   0  0  0  0  0  0  0  0  0  0  0  0
  151.5674  140.2794  158.4406 N   0  3  0  0  0  0  0  0  0  0  0  0
  152.7589  141.0002  158.9715 C   0  0  0  0  0  0  0  0  0  0  0  0
  152.3907  142.4435  159.3541 C   0  0  0  0  0  0  0  0  0  0  0  0
  151.8554  143.1196  158.2253 O   0  0  0  0  0  0  0  0  0  0  0  0
  150.6677  142.4974  157.7561 C   0  0  0  0  0  0  0  0  0  0  0  0
  150.9776  141.0578  157.3144 C   0  0  0  0  0  0  0  0  0  0  0  0
  152.5726  137.1058  159.3262 H   0  0  0  0  0  0  0  0  0  0  0  0
  151.4373  138.0513  160.2489 H   0  0  0  0  0  0  0  0  0  0  0  0
  153.0620  138.6681  159.9481 H   0  0  0  0  0  0  0  0  0  0  0  0
  153.1592  137.5207  157.1017 H   0  0  0  0  0  0  0  0  0  0  0  0
  153.7663  139.1377  157.4045 H   0  0  0  0  0  0  0  0  0  0  0  0
  152.5637  138.8488  156.1459 H   0  0  0  0  0  0  0  0  0  0  0  0
  150.0266  138.6752  156.8224 H   0  0  0  0  0  0  0  0  0  0  0  0
  150.6054  137.1284  157.3617 H   0  0  0  0  0  0  0  0  0  0  0  0
  148.9578  138.9335  159.0060 H   0  0  0  0  0  0  0  0  0  0  0  0
  146.2759  135.3429  163.9413 H   0  0  0  0  0  0  0  0  0  0  0  0
  146.9463  133.0911  162.6215 H   0  0  0  0  0  0  0  0  0  0  0  0
  153.1578  140.5173  159.8611 H   0  0  0  0  0  0  0  0  0  0  0  0
  153.5551  141.0140  158.2270 H   0  0  0  0  0  0  0  0  0  0  0  0
  151.6736  142.4579  160.1767 H   0  0  0  0  0  0  0  0  0  0  0  0
  153.2768  142.9780  159.6968 H   0  0  0  0  0  0  0  0  0  0  0  0
  149.9006  142.5116  158.5320 H   0  0  0  0  0  0  0  0  0  0  0  0
  150.2796  143.0719  156.9149 H   0  0  0  0  0  0  0  0  0  0  0  0
  151.6666  141.0856  156.4701 H   0  0  0  0  0  0  0  0  0  0  0  0
  150.0516  140.6106  156.9585 H   0  0  0  0  0  0  0  0  0  0  0  0
  150.8817  140.3282  159.1803 H   0  0  0  0  0  0  0  0  0  0  0  0
  1  2  1  0  0  0  0
  1 20  1  0  0  0  0
  1 21  1  0  0  0  0
  1 22  1  0  0  0  0
  2  3  1  0  0  0  0
  2  4  1  0  0  0  0
  2 14  1  0  0  0  0
  3 23  1  0  0  0  0
  3 24  1  0  0  0  0
  3 25  1  0  0  0  0
  4  5  1  0  0  0  0
  4 26  1  0  0  0  0
  4 27  1  0  0  0  0
  5  6  1  0  0  0  0
  5 28  1  0  0  0  0
  6  7  2  0  0  0  0
  6  8  1  0  0  0  0
  8  9  1  0  0  0  0
  9 13  1  0  0  0  0
  9 10  2  0  0  0  0
 10 11  1  0  0  0  0
 11 12  2  0  0  0  0
 11 29  1  0  0  0  0
 12 13  1  0  0  0  0
 12 30  1  0  0  0  0
 14 19  1  0  0  0  0
 14 15  1  0  0  0  0
 14 39  1  0  0  0  0
 15 16  1  0  0  0  0
 15 31  1  0  0  0  0
 15 32  1  0  0  0  0
 16 17  1  0  0  0  0
 16 33  1  0  0  0  0
 16 34  1  0  0  0  0
 17 18  1  0  0  0  0
 18 19  1  0  0  0  0
 18 35  1  0  0  0  0
 18 36  1  0  0  0  0
 19 37  1  0  0  0  0
 19 38  1  0  0  0  0
M  CHG  1   8  -1
M  CHG  1  14   1
M  END
> <s_m_source_file>
AV-unprocessed.smi

> <i_m_source_file_index>
2066

> <i_lp_mmshare_version>
43012

> <i_f3d_flags>
0

> <s_epik_input>
W0NIMl0xW0NIMl1PW0NIMl1bQ0gyXU4xQyhbQ0gzXSkoW0NIM10pW0NIMl1bTkhdQyg9TylbTkhdYzJuW2NIXVtjSF1zMg==

> <s_epik_cmdline>
J2VwaWtfcHl0aG9uJywgJy1waCcsICc3LjAnLCAnLXRuJywgJzgnLCAnLW1hJywgJzIwMCcsICctbWV0YWxfYmluZGluZycsICctaW1hZScsICc8aW5maWxlLm1hZT4nLCAnLW9tYWUnLCAnPG91dGZpbGUubWFlPic=

> <r_lp_tautomer_probability>
0.999

> <r_epik_Ionization_Penalty>
6.71078

> <r_epik_Ionization_Penalty_Charging>
5.8797

> <r_epik_Ionization_Penalty_Neutral>
0.831074

> <r_epik_State_Penalty>
6.07743

> <r_epik_Charging_Adjusted_Penalty>
11.9571

> <i_epik_Tot_Q>
0

> <i_epik_Tot_abs_Q>
2

> <r_epik_Metal_State_Penalty>
2.08929

> <b_epik_Metal_Only>
1

> <s_lp_Force_Field>
OPLS_2005

> <r_lp_Energy>
15.1529

> <b_lp_Chiralities_Consistent>
1

> <s_lp_Variant>
AV-unprocessed.smi:2066-4

> <Gold.Version>
5.8.1

> <Gold.Id.Protein>
6NUR|6NUR_protein|mol2

> <Gold.PLP.Fitness>
42.9931

> <Gold.PLP.PLP>
-32.8193

> <Gold.PLP.part.hbond>
-3.0000

> <Gold.PLP.part.metal>
0.0000

> <Gold.PLP.part.buried>
-4.8310

> <Gold.PLP.part.nonpolar>
-25.8146

> <Gold.PLP.part.repulsive>
0.3711

> <Gold.PLP.ligand.clash>
0.0000

> <Gold.PLP.ligand.torsion>
0.3694

> <Gold.PLP.Chemscore.Hbond>
3.5453

> <Gold.PLP.Chemscore.CHOScore>
0.0000

> <Gold.PLP.Chemscore.Metal>
0.0000

> <Gold.Chemscore.Hbonds>
donor molecule, donor type, donor heavy atom, donor atom, acceptor molecule, acceptor atom, score
      P1  H  6896  6907       L1     7  1.00
      P1  H  6931  6943       L1     8  0.32
      P1  H  6934  6947       L1     8  1.17

> <Gold.PLP.Chemscore.Internal.Correction>
0.2769

> <Gold.Rescore>
     Score         DG    S(hbond)    S(metal)    S(lipo)     H(rot)  DE(clash)    DE(int)     intcor
     13.76     -15.72       1.56        0.00      77.71       1.59       0.10       1.86       ----

> <Gold.Chemscore.Fitness>
13.7601

> <Gold.Chemscore.DG>
-15.7199

> <Gold.Chemscore.ZeroCoef>
-5.4800

> <Gold.Chemscore.Hbond>
1.5644

> <Gold.Chemscore.Metal>
0.0000

> <Gold.Chemscore.Lipo>
77.7089

> <Gold.Chemscore.Internal_Hbond>
0.0000

> <Gold.Chemscore.DEClash>
0.0991

> <Gold.Chemscore.DEInternal>
1.8607

> <Gold.Chemscore.Rot>
1.5926

> <Gold.Chemscore.Internal.Correction>
   9.000000E+99

> <Gold.Chemscore.Hbonds>
donor molecule, donor type, donor heavy atom, donor atom, acceptor molecule, acceptor atom, score
      P1  H  6896  6907       L1     7  1.00
      P1  H  6934  6947       L1     8  0.42

> <Gold.Chemscore.Hbond.Weighted>
-5.2250

> <Gold.Chemscore.Metal.Weighted>
-0.0000

> <Gold.Chemscore.Lipo.Weighted>
-9.0919

> <Gold.Chemscore.Internal_Hbond.Weighted>
0.0000

> <Gold.Chemscore.DEClash.Weighted>
0.0991

> <Gold.Chemscore.DEInternal.Weighted>
1.8607

> <Gold.Chemscore.Rot.Weighted>
4.0770

> <Gold.Chemscore.Internal.Correction.Weighted>
   9.000000E+99

> <Gold.Protein.RotatedTorsions>
[ 6907 6896 6895 6894 ] final  -57.35 input  -60.11 | X-H torsion
[ 7974 7965 7964 7962 ] final  -51.92 input  175.53 | X-H torsion
[ 8008 7997 7996 7995 ] final  -24.11 input   59.86 | X-H torsion
[ 10167 10162 10161 10158 ] final  139.44 input  -65.29 | X-H torsion
[ 10718 10713 10712 10709 ] final -113.13 input   66.30 | X-H torsion
[ 10763 10752 10751 10750 ] final -142.37 input  -60.55 | X-H torsion
[ 11005 11000 10999 10996 ] final -175.97 input  -57.11 | X-H torsion

> <Gold.Protein.ActiveResidues>
 VAL166  LYS551  ARG553  GLY616  TRP617  ASP618  TYR619  PRO620  LYS621  CYS622 
 ASP623  PHE694  ASN695  SER759  ASP760  ASP761  ALA762  ILE779  LEU786  VAL792 
 PHE793  MET794  SER795  GLU796  ALA797  LYS798  CYS799  TRP800  GLU811  SER814 

> <Gold.Protein.RotatedAtoms>
  150.8093  134.7237  159.6672 H   0  0  0  0  0  0  0  0  0  0  0  0  # atno 6907 bound_to 6896
  152.4213  134.5947  159.9993 H   0  0  0  0  0  0  0  0  0  0  0  0  # atno 6908 bound_to 6896
  151.6162  133.3306  159.3114 H   0  0  0  0  0  0  0  0  0  0  0  0  # atno 6909 bound_to 6896
  145.9137  140.7893  142.9682 H   0  0  0  0  0  0  0  0  0  0  0  0  # atno 7974 bound_to 7965
  154.4547  140.1962  156.0414 H   0  0  0  0  0  0  0  0  0  0  0  0  # atno 8008 bound_to 7997
  156.0722  140.3283  155.7562 H   0  0  0  0  0  0  0  0  0  0  0  0  # atno 8009 bound_to 7997
  155.5245  140.0572  157.2891 H   0  0  0  0  0  0  0  0  0  0  0  0  # atno 8010 bound_to 7997
  139.5079  144.6295  151.5854 H   0  0  0  0  0  0  0  0  0  0  0  0  # atno 10167 bound_to 10162
  156.0747  130.5956  150.8601 H   0  0  0  0  0  0  0  0  0  0  0  0  # atno 10718 bound_to 10713
  154.8511  135.3498  154.6017 H   0  0  0  0  0  0  0  0  0  0  0  0  # atno 10763 bound_to 10752
  153.6626  135.6989  153.5177 H   0  0  0  0  0  0  0  0  0  0  0  0  # atno 10764 bound_to 10752
  153.2805  135.4265  155.1032 H   0  0  0  0  0  0  0  0  0  0  0  0  # atno 10765 bound_to 10752
  140.4573  134.6287  157.4827 H   0  0  0  0  0  0  0  0  0  0  0  0  # atno 11005 bound_to 11000
  144.6745  140.1865  143.7401 LP  0  0  0  0  0  0  0  0  0  0  0  0  # atno 17320 bound_to 7965
  145.8639  139.2237  143.1700 LP  0  0  0  0  0  0  0  0  0  0  0  0  # atno 17321 bound_to 7965
  140.6022  143.9588  150.6394 LP  0  0  0  0  0  0  0  0  0  0  0  0  # atno 17342 bound_to 10162
  140.2804  143.3393  152.1157 LP  0  0  0  0  0  0  0  0  0  0  0  0  # atno 17343 bound_to 10162
  157.5837  131.0946  150.9230 LP  0  0  0  0  0  0  0  0  0  0  0  0  # atno 17370 bound_to 10713
  156.9421  130.5388  149.5280 LP  0  0  0  0  0  0  0  0  0  0  0  0  # atno 17371 bound_to 10713
  139.9968  134.6899  155.9597 LP  0  0  0  0  0  0  0  0  0  0  0  0  # atno 17394 bound_to 11000
  141.1637  133.6537  156.4406 LP  0  0  0  0  0  0  0  0  0  0  0  0  # atno 17395 bound_to 11000

$$$$
