AV-unprocessed.smi:1006|AV-procd|sdf|4391|dock2
  -GOLD-   22720 2323D 1   1.00000     0.00000
 Structure written by MMmdl.
 45 47  0  0  0  0  0  0  0  0  1 V2000
  146.9406  137.5314  163.4057 C   0  0  0  0  0  0  0  0  0  0  0  0
  146.9291  136.6128  162.2020 C   0  0  0  0  0  0  0  0  0  0  0  0
  146.0966  135.4744  162.1518 C   0  0  0  0  0  0  0  0  0  0  0  0
  146.1732  134.6979  160.9762 C   0  0  0  0  0  0  0  0  0  0  0  0
  145.3935  133.5540  160.8257 N   0  0  0  0  0  0  0  0  0  0  0  0
  146.9968  135.0265  159.9574 N   0  0  0  0  0  0  0  0  0  0  0  0
  147.7361  136.1266  160.1181 C   0  0  0  0  0  0  0  0  0  0  0  0
  148.8181  136.5247  158.7525 S   0  0  0  0  0  0  0  0  0  0  0  0
  149.8441  137.8582  159.4449 C   0  0  0  0  0  0  0  0  0  0  0  0
  151.2456  137.9251  158.8107 C   0  0  1  0  0  0  0  0  0  0  0  0
  151.9934  136.7931  159.2064 O   0  0  0  0  0  0  0  0  0  0  0  0
  151.2216  137.9591  157.2688 C   0  0  0  0  0  0  0  0  0  0  0  0
  151.0522  139.3000  156.7377 N   0  0  0  0  0  0  0  0  0  0  0  0
  150.5944  139.6352  155.5164 C   0  0  0  0  0  0  0  0  0  0  0  0
  150.5289  140.9313  155.2255 N   0  0  0  0  0  0  0  0  0  0  0  0
  150.9998  141.5043  156.3944 C   0  0  0  0  0  0  0  0  0  0  0  0
  151.1912  142.8604  156.7390 C   0  0  0  0  0  0  0  0  0  0  0  0
  151.6993  143.2217  158.0072 C   0  0  0  0  0  0  0  0  0  0  0  0
  151.8911  144.6921  158.3345 C   0  0  0  0  0  0  0  0  0  0  0  0
  152.0244  142.2180  158.9546 C   0  0  0  0  0  0  0  0  0  0  0  0
  152.5765  142.5809  160.3216 C   0  0  0  0  0  0  0  0  0  0  0  0
  151.8352  140.8591  158.6284 C   0  0  0  0  0  0  0  0  0  0  0  0
  151.3312  140.5117  157.3622 C   0  0  0  0  0  0  0  0  0  0  0  0
  147.7489  136.9391  161.1795 N   0  0  0  0  0  0  0  0  0  0  0  0
  146.1477  138.2743  163.3195 H   0  0  0  0  0  0  0  0  0  0  0  0
  147.8940  138.0542  163.4907 H   0  0  0  0  0  0  0  0  0  0  0  0
  146.7830  136.9652  164.3239 H   0  0  0  0  0  0  0  0  0  0  0  0
  145.4386  135.2139  162.9680 H   0  0  0  0  0  0  0  0  0  0  0  0
  144.7560  133.2488  161.5466 H   0  0  0  0  0  0  0  0  0  0  0  0
  145.4433  132.9922  159.9881 H   0  0  0  0  0  0  0  0  0  0  0  0
  149.3287  138.8111  159.3180 H   0  0  0  0  0  0  0  0  0  0  0  0
  149.9321  137.6751  160.5155 H   0  0  0  0  0  0  0  0  0  0  0  0
  151.7608  138.8132  159.1787 H   0  0  0  0  0  0  0  0  0  0  0  0
  152.3857  136.4109  158.4359 H   0  0  0  0  0  0  0  0  0  0  0  0
  152.1472  137.5447  156.8669 H   0  0  0  0  0  0  0  0  0  0  0  0
  150.4119  137.3353  156.8879 H   0  0  0  0  0  0  0  0  0  0  0  0
  150.2969  138.8843  154.7990 H   0  0  0  0  0  0  0  0  0  0  0  0
  150.9462  143.6244  156.0160 H   0  0  0  0  0  0  0  0  0  0  0  0
  151.3246  144.9632  159.2258 H   0  0  0  0  0  0  0  0  0  0  0  0
  151.5521  145.3297  157.5173 H   0  0  0  0  0  0  0  0  0  0  0  0
  152.9446  144.9080  158.5137 H   0  0  0  0  0  0  0  0  0  0  0  0
  152.8354  141.6902  160.8947 H   0  0  0  0  0  0  0  0  0  0  0  0
  151.8389  143.1457  160.8920 H   0  0  0  0  0  0  0  0  0  0  0  0
  153.4774  143.1868  160.2235 H   0  0  0  0  0  0  0  0  0  0  0  0
  152.0815  140.0845  159.3394 H   0  0  0  0  0  0  0  0  0  0  0  0
  1  2  1  0  0  0  0
  1 25  1  0  0  0  0
  1 26  1  0  0  0  0
  1 27  1  0  0  0  0
  2 24  1  0  0  0  0
  2  3  2  0  0  0  0
  3  4  1  0  0  0  0
  3 28  1  0  0  0  0
  4  5  1  0  0  0  0
  4  6  2  0  0  0  0
  5 29  1  0  0  0  0
  5 30  1  0  0  0  0
  6  7  1  0  0  0  0
  7  8  1  0  0  0  0
  7 24  2  0  0  0  0
  8  9  1  0  0  0  0
  9 10  1  0  0  0  0
  9 31  1  0  0  0  0
  9 32  1  0  0  0  0
 10 11  1  0  0  0  0
 10 12  1  0  0  0  0
 10 33  1  0  0  0  0
 11 34  1  0  0  0  0
 12 13  1  0  0  0  0
 12 35  1  0  0  0  0
 12 36  1  0  0  0  0
 13 23  1  0  0  0  0
 13 14  1  0  0  0  0
 14 15  2  0  0  0  0
 14 37  1  0  0  0  0
 15 16  1  0  0  0  0
 16 23  2  0  0  0  0
 16 17  1  0  0  0  0
 17 18  2  0  0  0  0
 17 38  1  0  0  0  0
 18 19  1  0  0  0  0
 18 20  1  0  0  0  0
 19 39  1  0  0  0  0
 19 40  1  0  0  0  0
 19 41  1  0  0  0  0
 20 21  1  0  0  0  0
 20 22  2  0  0  0  0
 21 42  1  0  0  0  0
 21 43  1  0  0  0  0
 21 44  1  0  0  0  0
 22 23  1  0  0  0  0
 22 45  1  0  0  0  0
M  END
> <s_m_source_file>
AV-unprocessed.smi

> <i_m_source_file_index>
1006

> <i_lp_mmshare_version>
43012

> <i_f3d_flags>
0

> <s_epik_input>
W0NIM11jMVtjSF1jKFtOSDJdKW5jKG4xKVNbQ0gyXVtDQEhdKFtPSF0pW0NIMl1uKFtjSF1uMiljKGMyMylbY0hdYyhbQ0gzXSljKFtjSF0zKVtDSDNd

> <s_epik_cmdline>
J2VwaWtfcHl0aG9uJywgJy1waCcsICc3LjAnLCAnLXRuJywgJzgnLCAnLW1hJywgJzIwMCcsICctbWV0YWxfYmluZGluZycsICctaW1hZScsICc8aW5maWxlLm1hZT4nLCAnLW9tYWUnLCAnPG91dGZpbGUubWFlPic=

> <r_lp_tautomer_probability>
1

> <r_epik_Ionization_Penalty>
0.490208

> <r_epik_Ionization_Penalty_Charging>
0

> <r_epik_Ionization_Penalty_Neutral>
0.490208

> <r_epik_State_Penalty>
0.473203

> <r_epik_Charging_Adjusted_Penalty>
0.473203

> <i_epik_Tot_Q>
0

> <i_epik_Tot_abs_Q>
0

> <r_epik_Metal_State_Penalty>
0.354099

> <b_epik_Metal_Only>
0

> <s_lp_Force_Field>
OPLS_2005

> <r_lp_Energy>
2.6746

> <b_lp_Chiralities_Consistent>
1

> <s_lp_Variant>
AV-unprocessed.smi:1006-2

> <Gold.Version>
5.8.1

> <Gold.Id.Protein>
6NUR|6NUR_protein|mol2

> <Gold.PLP.Fitness>
52.9475

> <Gold.PLP.PLP>
-46.3420

> <Gold.PLP.part.hbond>
-3.0000

> <Gold.PLP.part.metal>
0.0000

> <Gold.PLP.part.buried>
-3.3277

> <Gold.PLP.part.nonpolar>
-40.0552

> <Gold.PLP.part.repulsive>
0.0787

> <Gold.PLP.ligand.clash>
0.0607

> <Gold.PLP.ligand.torsion>
0.9043

> <Gold.PLP.Chemscore.Hbond>
2.7847

> <Gold.PLP.Chemscore.CHOScore>
0.0000

> <Gold.PLP.Chemscore.Metal>
0.0000

> <Gold.Chemscore.Hbonds>
donor molecule, donor type, donor heavy atom, donor atom, acceptor molecule, acceptor atom, score
      P1  H  6896  6907       L1    11  0.50
      P1  H  6931  6943       L1    24  1.00
      P1  H  6934  6947       L1    24  0.53
      P1  H  7989  7998       L1    15  0.67

> <Gold.PLP.Chemscore.Internal.Correction>
0.1206

> <Gold.Rescore>
     Score         DG    S(hbond)    S(metal)    S(lipo)     H(rot)  DE(clash)    DE(int)     intcor
     15.95     -16.75       1.14        0.00     125.50       2.82       0.06       0.73       ----

> <Gold.Chemscore.Fitness>
15.9547

> <Gold.Chemscore.DG>
-16.7466

> <Gold.Chemscore.ZeroCoef>
-5.4800

> <Gold.Chemscore.Hbond>
1.1390

> <Gold.Chemscore.Metal>
0.0000

> <Gold.Chemscore.Lipo>
125.5040

> <Gold.Chemscore.Internal_Hbond>
0.0000

> <Gold.Chemscore.DEClash>
0.0639

> <Gold.Chemscore.DEInternal>
0.7280

> <Gold.Chemscore.Rot>
2.8209

> <Gold.Chemscore.Internal.Correction>
   9.000000E+99

> <Gold.Chemscore.Hbonds>
donor molecule, donor type, donor heavy atom, donor atom, acceptor molecule, acceptor atom, score
      P1  H  6896  6907       L1    11  0.03
      P1  H  6931  6943       L1    24  0.52
      P1  H  6934  6947       L1    24  0.12
      P1  H  7989  7998       L1    15  0.12

> <Gold.Chemscore.Hbond.Weighted>
-3.8041

> <Gold.Chemscore.Metal.Weighted>
-0.0000

> <Gold.Chemscore.Lipo.Weighted>
-14.6840

> <Gold.Chemscore.Internal_Hbond.Weighted>
0.0000

> <Gold.Chemscore.DEClash.Weighted>
0.0639

> <Gold.Chemscore.DEInternal.Weighted>
0.7280

> <Gold.Chemscore.Rot.Weighted>
7.2215

> <Gold.Chemscore.Internal.Correction.Weighted>
   9.000000E+99

> <Gold.Protein.RotatedTorsions>
[ 6907 6896 6895 6894 ] final   19.33 input  -60.11 | X-H torsion
[ 7974 7965 7964 7962 ] final -168.37 input  175.53 | X-H torsion
[ 8008 7997 7996 7995 ] final  123.20 input   59.86 | X-H torsion
[ 10167 10162 10161 10158 ] final    7.44 input  -65.29 | X-H torsion
[ 10718 10713 10712 10709 ] final  -13.71 input   66.30 | X-H torsion
[ 10763 10752 10751 10750 ] final  136.77 input  -60.55 | X-H torsion
[ 11005 11000 10999 10996 ] final  147.43 input  -57.11 | X-H torsion

> <Gold.Protein.ActiveResidues>
 VAL166  LYS551  ARG553  GLY616  TRP617  ASP618  TYR619  PRO620  LYS621  CYS622 
 ASP623  PHE694  ASN695  SER759  ASP760  ASP761  ALA762  ILE779  LEU786  VAL792 
 PHE793  MET794  SER795  GLU796  ALA797  LYS798  CYS799  TRP800  GLU811  SER814 

> <Gold.Protein.RotatedAtoms>
  151.8793  135.0460  160.0486 H   0  0  0  0  0  0  0  0  0  0  0  0  # atno 6907 bound_to 6896
  152.2526  133.5223  159.5342 H   0  0  0  0  0  0  0  0  0  0  0  0  # atno 6908 bound_to 6896
  150.7089  134.0856  159.3956 H   0  0  0  0  0  0  0  0  0  0  0  0  # atno 6909 bound_to 6896
  144.7204  140.2380  143.6295 H   0  0  0  0  0  0  0  0  0  0  0  0  # atno 7974 bound_to 7965
  156.2757  140.2768  156.1590 H   0  0  0  0  0  0  0  0  0  0  0  0  # atno 8008 bound_to 7997
  155.0774  140.0387  157.2646 H   0  0  0  0  0  0  0  0  0  0  0  0  # atno 8009 bound_to 7997
  154.6991  140.2645  155.6742 H   0  0  0  0  0  0  0  0  0  0  0  0  # atno 8010 bound_to 7997
  140.6371  143.7860  150.7375 H   0  0  0  0  0  0  0  0  0  0  0  0  # atno 10167 bound_to 10162
  156.6264  130.4889  149.6145 H   0  0  0  0  0  0  0  0  0  0  0  0  # atno 10718 bound_to 10713
  153.8620  135.3066  155.3438 H   0  0  0  0  0  0  0  0  0  0  0  0  # atno 10763 bound_to 10752
  154.7845  135.4817  153.9918 H   0  0  0  0  0  0  0  0  0  0  0  0  # atno 10764 bound_to 10752
  153.1456  135.6833  153.9054 H   0  0  0  0  0  0  0  0  0  0  0  0  # atno 10765 bound_to 10752
  140.0875  134.9061  157.1599 H   0  0  0  0  0  0  0  0  0  0  0  0  # atno 11005 bound_to 11000
  145.8347  139.2102  143.1862 LP  0  0  0  0  0  0  0  0  0  0  0  0  # atno 17320 bound_to 7965
  146.0400  140.8174  142.9833 LP  0  0  0  0  0  0  0  0  0  0  0  0  # atno 17321 bound_to 7965
  140.1484  143.4380  152.2148 LP  0  0  0  0  0  0  0  0  0  0  0  0  # atno 17342 bound_to 10162
  139.5581  144.7387  151.4234 LP  0  0  0  0  0  0  0  0  0  0  0  0  # atno 17343 bound_to 10162
  156.2270  130.6771  151.1425 LP  0  0  0  0  0  0  0  0  0  0  0  0  # atno 17370 bound_to 10713
  157.7213  131.0680  150.6124 LP  0  0  0  0  0  0  0  0  0  0  0  0  # atno 17371 bound_to 10713
  140.3399  134.2715  155.7214 LP  0  0  0  0  0  0  0  0  0  0  0  0  # atno 17394 bound_to 11000
  141.2067  133.7825  157.0160 LP  0  0  0  0  0  0  0  0  0  0  0  0  # atno 17395 bound_to 11000

$$$$
