AV-unprocessed.smi:1492|AV-procd|sdf|6038|dock2
  -GOLD-   22720 6143D 1   1.00000     0.00000
 Structure written by MMmdl.
 53 54  0  0  0  0  0  0  0  0  2 V2000
  146.9511  133.6847  155.9098 C   0  0  0  0  0  0  0  0  0  0  0  0
  146.3052  135.0455  155.5915 C   0  0  0  0  0  0  0  0  0  0  0  0
  147.0740  135.9330  154.5643 C   0  0  1  0  0  0  0  0  0  0  0  0
  146.5180  137.3754  154.6961 C   0  0  0  0  0  0  0  0  0  0  0  0
  148.5938  135.9253  154.9190 C   0  0  0  0  0  0  0  0  0  0  0  0
  149.2823  137.1680  154.5746 N   0  0  0  0  0  0  0  0  0  0  0  0
  150.6122  137.3408  154.5204 C   0  0  0  0  0  0  0  0  0  0  0  0
  151.4247  136.4453  154.7478 O   0  0  0  0  0  0  0  0  0  0  0  0
  151.0969  138.7386  154.1357 C   0  0  0  0  0  0  0  0  0  0  0  0
  151.1378  139.7551  155.2753 C   0  0  0  0  0  0  0  0  0  0  0  0
  150.1512  140.6745  155.4876 C   0  0  0  0  0  0  0  0  0  0  0  0
  148.9166  140.7757  154.6089 C   0  0  0  0  0  0  0  0  0  0  0  0
  150.2155  141.5895  156.5479 N   0  0  0  0  0  0  0  0  0  0  0  0
  151.2377  141.5549  157.3379 C   0  0  0  0  0  0  0  0  0  0  0  0
  151.4239  142.4834  158.5193 C   0  0  0  0  0  0  0  0  0  0  0  0
  152.2814  140.6459  157.1727 N   0  0  0  0  0  0  0  0  0  0  0  0
  152.3061  139.7323  156.1768 C   0  0  0  0  0  0  0  0  0  0  0  0
  153.2601  138.9644  156.0600 O   0  0  0  0  0  0  0  0  0  0  0  0
  146.8529  135.4220  153.1616 N   0  3  0  0  0  0  0  0  0  0  0  0
  147.1685  133.9832  152.9318 C   0  0  0  0  0  0  0  0  0  0  0  0
  147.0866  133.6436  151.4336 C   0  0  0  0  0  0  0  0  0  0  0  0
  145.7960  133.9665  150.9357 O   0  0  0  0  0  0  0  0  0  0  0  0
  145.5152  135.3528  151.0653 C   0  0  0  0  0  0  0  0  0  0  0  0
  145.5311  135.7434  152.5518 C   0  0  0  0  0  0  0  0  0  0  0  0
  153.0580  140.6699  157.8174 H   0  0  0  0  0  0  0  0  0  0  0  0
  146.3499  133.1406  156.6383 H   0  0  0  0  0  0  0  0  0  0  0  0
  147.9492  133.7956  156.3335 H   0  0  0  0  0  0  0  0  0  0  0  0
  147.0288  133.0557  155.0235 H   0  0  0  0  0  0  0  0  0  0  0  0
  145.2977  134.8495  155.2224 H   0  0  0  0  0  0  0  0  0  0  0  0
  146.1475  135.5882  156.5231 H   0  0  0  0  0  0  0  0  0  0  0  0
  146.4433  137.6863  155.7384 H   0  0  0  0  0  0  0  0  0  0  0  0
  145.5216  137.4674  154.2633 H   0  0  0  0  0  0  0  0  0  0  0  0
  147.1586  138.1080  154.2050 H   0  0  0  0  0  0  0  0  0  0  0  0
  148.7343  135.7949  155.9915 H   0  0  0  0  0  0  0  0  0  0  0  0
  149.1012  135.0821  154.4500 H   0  0  0  0  0  0  0  0  0  0  0  0
  148.6995  137.9663  154.3655 H   0  0  0  0  0  0  0  0  0  0  0  0
  152.0930  138.6492  153.7018 H   0  0  0  0  0  0  0  0  0  0  0  0
  150.4774  139.1102  153.3182 H   0  0  0  0  0  0  0  0  0  0  0  0
  149.1965  140.9276  153.5665 H   0  0  0  0  0  0  0  0  0  0  0  0
  148.2844  141.6124  154.9084 H   0  0  0  0  0  0  0  0  0  0  0  0
  148.3206  139.8657  154.6801 H   0  0  0  0  0  0  0  0  0  0  0  0
  150.6104  142.3501  159.2327 H   0  0  0  0  0  0  0  0  0  0  0  0
  151.4206  143.5213  158.1858 H   0  0  0  0  0  0  0  0  0  0  0  0
  152.3655  142.2942  159.0366 H   0  0  0  0  0  0  0  0  0  0  0  0
  148.1716  133.7310  153.2705 H   0  0  0  0  0  0  0  0  0  0  0  0
  146.4734  133.3502  153.4837 H   0  0  0  0  0  0  0  0  0  0  0  0
  147.8521  134.1793  150.8700 H   0  0  0  0  0  0  0  0  0  0  0  0
  147.2663  132.5794  151.2804 H   0  0  0  0  0  0  0  0  0  0  0  0
  146.2389  135.9409  150.4984 H   0  0  0  0  0  0  0  0  0  0  0  0
  144.5340  135.5542  150.6349 H   0  0  0  0  0  0  0  0  0  0  0  0
  144.7340  135.2087  153.0687 H   0  0  0  0  0  0  0  0  0  0  0  0
  145.3036  136.8051  152.6213 H   0  0  0  0  0  0  0  0  0  0  0  0
  147.5280  135.9268  152.6050 H   0  0  0  0  0  0  0  0  0  0  0  0
  1  2  1  0  0  0  0
  1 26  1  0  0  0  0
  1 27  1  0  0  0  0
  1 28  1  0  0  0  0
  2  3  1  0  0  0  0
  2 29  1  0  0  0  0
  2 30  1  0  0  0  0
  3  4  1  0  0  0  0
  3  5  1  0  0  0  0
  3 19  1  0  0  0  0
  4 31  1  0  0  0  0
  4 32  1  0  0  0  0
  4 33  1  0  0  0  0
  5  6  1  0  0  0  0
  5 34  1  0  0  0  0
  5 35  1  0  0  0  0
  6  7  1  0  0  0  0
  6 36  1  0  0  0  0
  7  8  2  0  0  0  0
  7  9  1  0  0  0  0
  9 10  1  0  0  0  0
  9 37  1  0  0  0  0
  9 38  1  0  0  0  0
 10 17  1  0  0  0  0
 10 11  2  0  0  0  0
 11 12  1  0  0  0  0
 11 13  1  0  0  0  0
 12 39  1  0  0  0  0
 12 40  1  0  0  0  0
 12 41  1  0  0  0  0
 13 14  2  0  0  0  0
 14 15  1  0  0  0  0
 14 16  1  0  0  0  0
 15 42  1  0  0  0  0
 15 43  1  0  0  0  0
 15 44  1  0  0  0  0
 16 25  1  0  0  0  0
 16 17  1  0  0  0  0
 17 18  2  0  0  0  0
 19 24  1  0  0  0  0
 19 20  1  0  0  0  0
 19 53  1  0  0  0  0
 20 21  1  0  0  0  0
 20 45  1  0  0  0  0
 20 46  1  0  0  0  0
 21 22  1  0  0  0  0
 21 47  1  0  0  0  0
 21 48  1  0  0  0  0
 22 23  1  0  0  0  0
 23 24  1  0  0  0  0
 23 49  1  0  0  0  0
 23 50  1  0  0  0  0
 24 51  1  0  0  0  0
 24 52  1  0  0  0  0
M  CHG  1  19   1
M  END
> <s_m_source_file>
AV-unprocessed.smi

> <i_m_source_file_index>
1492

> <i_lp_mmshare_version>
43012

> <i_f3d_flags>
0

> <s_epik_input>
W0NIMl0xW0NIMl1PW0NIMl1bQ0gyXU4xW0NAQF0oW0NIM10pKFtDSDJdW0NIM10pW0NIMl1bTkhdQyg9TylbQ0gyXWMyYyhbQ0gzXSluYyhbQ0gzXSlbbkhdYzI9Tw==

> <s_epik_cmdline>
J2VwaWtfcHl0aG9uJywgJy1waCcsICc3LjAnLCAnLXRuJywgJzgnLCAnLW1hJywgJzIwMCcsICctbWV0YWxfYmluZGluZycsICctaW1hZScsICc8aW5maWxlLm1hZT4nLCAnLW9tYWUnLCAnPG91dGZpbGUubWFlPic=

> <r_lp_tautomer_probability>
0.839158

> <r_epik_Ionization_Penalty>
0.506959

> <r_epik_Ionization_Penalty_Charging>
0.506936

> <r_epik_Ionization_Penalty_Neutral>
2.27768e-05

> <r_epik_State_Penalty>
0.6046

> <r_epik_Charging_Adjusted_Penalty>
1.11154

> <i_epik_Tot_Q>
1

> <i_epik_Tot_abs_Q>
1

> <r_epik_Metal_State_Penalty>
0.783136

> <b_epik_Metal_Only>
0

> <s_lp_Force_Field>
OPLS_2005

> <r_lp_Energy>
29.8272

> <b_lp_Chiralities_Consistent>
1

> <s_lp_Variant>
AV-unprocessed.smi:1492-3

> <Gold.Version>
5.8.1

> <Gold.Id.Protein>
6NUR|6NUR_protein|mol2

> <Gold.PLP.Fitness>
40.3033

> <Gold.PLP.PLP>
-33.9587

> <Gold.PLP.part.hbond>
-4.0000

> <Gold.PLP.part.metal>
0.0000

> <Gold.PLP.part.buried>
-3.2057

> <Gold.PLP.part.nonpolar>
-26.3166

> <Gold.PLP.part.repulsive>
0.4896

> <Gold.PLP.ligand.clash>
0.0000

> <Gold.PLP.ligand.torsion>
1.6998

> <Gold.PLP.Chemscore.Hbond>
3.1680

> <Gold.PLP.Chemscore.CHOScore>
0.0000

> <Gold.PLP.Chemscore.Metal>
0.0000

> <Gold.Chemscore.Hbonds>
donor molecule, donor type, donor heavy atom, donor atom, acceptor molecule, acceptor atom, score
      L1  H    19    53       P1  7948  2.00
      P1  H  7997  8008       L1    18  0.05
      P1  H  7997  8010       L1    18  0.05
      P1  H 10752 10763       L1     8  1.00

> <Gold.PLP.Chemscore.Internal.Correction>
0.2404

> <Gold.Rescore>
     Score         DG    S(hbond)    S(metal)    S(lipo)     H(rot)  DE(clash)    DE(int)     intcor
     12.60     -13.90       2.00        0.00      62.88       2.19       0.01       1.28       ----

> <Gold.Chemscore.Fitness>
12.5972

> <Gold.Chemscore.DG>
-13.8951

> <Gold.Chemscore.ZeroCoef>
-5.4800

> <Gold.Chemscore.Hbond>
1.9975

> <Gold.Chemscore.Metal>
0.0000

> <Gold.Chemscore.Lipo>
62.8761

> <Gold.Chemscore.Internal_Hbond>
0.0000

> <Gold.Chemscore.DEClash>
0.0137

> <Gold.Chemscore.DEInternal>
1.2842

> <Gold.Chemscore.Rot>
2.1926

> <Gold.Chemscore.Internal.Correction>
   9.000000E+99

> <Gold.Chemscore.Hbonds>
donor molecule, donor type, donor heavy atom, donor atom, acceptor molecule, acceptor atom, score
      L1  H    19    53       P1  7948  0.98
      P1  H  7997  8008       L1    18  0.03
      P1  H  7997  8010       L1    18  0.02
      P1  H 10752 10763       L1     8  1.00

> <Gold.Chemscore.Hbond.Weighted>
-6.6716

> <Gold.Chemscore.Metal.Weighted>
-0.0000

> <Gold.Chemscore.Lipo.Weighted>
-7.3565

> <Gold.Chemscore.Internal_Hbond.Weighted>
0.0000

> <Gold.Chemscore.DEClash.Weighted>
0.0137

> <Gold.Chemscore.DEInternal.Weighted>
1.2842

> <Gold.Chemscore.Rot.Weighted>
5.6129

> <Gold.Chemscore.Internal.Correction.Weighted>
   9.000000E+99

> <Gold.Protein.RotatedTorsions>
[ 6907 6896 6895 6894 ] final   90.24 input  -60.11 | X-H torsion
[ 7974 7965 7964 7962 ] final -110.35 input  175.53 | X-H torsion
[ 8008 7997 7996 7995 ] final   19.57 input   59.86 | X-H torsion
[ 10167 10162 10161 10158 ] final  -86.31 input  -65.29 | X-H torsion
[ 10718 10713 10712 10709 ] final   49.31 input   66.30 | X-H torsion
[ 10763 10752 10751 10750 ] final   61.95 input  -60.55 | X-H torsion
[ 11005 11000 10999 10996 ] final   41.63 input  -57.11 | X-H torsion

> <Gold.Protein.ActiveResidues>
 VAL166  LYS551  ARG553  GLY616  TRP617  ASP618  TYR619  PRO620  LYS621  CYS622 
 ASP623  PHE694  ASN695  SER759  ASP760  ASP761  ALA762  ILE779  LEU786  VAL792 
 PHE793  MET794  SER795  GLU796  ALA797  LYS798  CYS799  TRP800  GLU811  SER814 

> <Gold.Protein.RotatedAtoms>
  152.5443  134.1841  159.8647 H   0  0  0  0  0  0  0  0  0  0  0  0  # atno 6907 bound_to 6896
  151.1842  133.4700  159.2602 H   0  0  0  0  0  0  0  0  0  0  0  0  # atno 6908 bound_to 6896
  151.1148  135.0058  159.8566 H   0  0  0  0  0  0  0  0  0  0  0  0  # atno 6909 bound_to 6896
  145.1693  140.8918  143.3545 H   0  0  0  0  0  0  0  0  0  0  0  0  # atno 7974 bound_to 7965
  154.9227  140.3029  155.5208 H   0  0  0  0  0  0  0  0  0  0  0  0  # atno 8008 bound_to 7997
  156.3009  140.2368  156.4215 H   0  0  0  0  0  0  0  0  0  0  0  0  # atno 8009 bound_to 7997
  154.8315  140.0418  157.1469 H   0  0  0  0  0  0  0  0  0  0  0  0  # atno 8010 bound_to 7997
  140.3953  143.2686  151.9212 H   0  0  0  0  0  0  0  0  0  0  0  0  # atno 10167 bound_to 10162
  157.4774  130.8293  149.8055 H   0  0  0  0  0  0  0  0  0  0  0  0  # atno 10718 bound_to 10713
  152.9967  135.5482  154.6115 H   0  0  0  0  0  0  0  0  0  0  0  0  # atno 10763 bound_to 10752
  154.5435  135.2821  155.1076 H   0  0  0  0  0  0  0  0  0  0  0  0  # atno 10764 bound_to 10752
  154.2344  135.6428  153.5238 H   0  0  0  0  0  0  0  0  0  0  0  0  # atno 10765 bound_to 10752
  140.1816  134.4097  155.8197 H   0  0  0  0  0  0  0  0  0  0  0  0  # atno 11005 bound_to 11000
  145.0249  139.3391  143.6053 LP  0  0  0  0  0  0  0  0  0  0  0  0  # atno 17320 bound_to 7965
  146.3471  139.9565  142.8722 LP  0  0  0  0  0  0  0  0  0  0  0  0  # atno 17321 bound_to 7965
  139.4787  144.5687  151.8123 LP  0  0  0  0  0  0  0  0  0  0  0  0  # atno 17342 bound_to 10162
  140.4797  144.1468  150.5930 LP  0  0  0  0  0  0  0  0  0  0  0  0  # atno 17343 bound_to 10162
  156.0104  130.3836  150.2285 LP  0  0  0  0  0  0  0  0  0  0  0  0  # atno 17370 bound_to 10713
  157.0470  131.0052  151.3265 LP  0  0  0  0  0  0  0  0  0  0  0  0  # atno 17371 bound_to 10713
  141.2223  133.7003  156.7940 LP  0  0  0  0  0  0  0  0  0  0  0  0  # atno 17394 bound_to 11000
  140.2261  134.8721  157.3428 LP  0  0  0  0  0  0  0  0  0  0  0  0  # atno 17395 bound_to 11000

$$$$
