AV-unprocessed.smi:2562|AV-procd|sdf|10046|dock6
  -GOLD-   2272014 93D 1   1.00000     0.00000
 Structure written by MMmdl.
 30 31  0  0  0  0  0  0  0  0  1 V2000
  152.1623  145.1562  158.8808 C   0  0  0  0  0  0  0  0  0  0  0  0
  151.8891  144.1929  157.7208 C   0  0  0  0  0  0  0  0  0  0  0  0
  150.9454  143.0479  158.1158 C   0  0  0  0  0  0  0  0  0  0  0  0
  150.9016  141.9610  157.0924 C   0  0  0  0  0  0  0  0  0  0  0  0
  150.3499  142.1337  155.8896 N   0  0  0  0  0  0  0  0  0  0  0  0
  150.4479  140.9867  155.1855 N   0  0  0  0  0  0  0  0  0  0  0  0
  151.0505  140.1750  156.0561 C   0  0  0  0  0  0  0  0  0  0  0  0
  151.4196  138.7671  155.7027 C   0  0  2  0  0  0  0  0  0  0  0  0
  151.0090  138.4039  154.2622 C   0  0  0  0  0  0  0  0  0  0  0  0
  151.3026  136.9973  153.9909 N   0  0  0  0  0  0  0  0  0  0  0  0
  150.6747  136.1253  154.9828 C   0  0  0  0  0  0  0  0  0  0  0  0
  151.0896  136.5443  156.4049 C   0  0  0  0  0  0  0  0  0  0  0  0
  150.7452  137.9087  156.6208 O   0  0  0  0  0  0  0  0  0  0  0  0
  151.3738  140.7311  157.2631 N   0  0  0  0  0  0  0  0  0  0  0  0
  149.9245  142.9725  155.5213 H   0  0  0  0  0  0  0  0  0  0  0  0
  152.8339  145.9570  158.5707 H   0  0  0  0  0  0  0  0  0  0  0  0
  152.6263  144.6389  159.7211 H   0  0  0  0  0  0  0  0  0  0  0  0
  151.2395  145.6150  159.2367 H   0  0  0  0  0  0  0  0  0  0  0  0
  151.4602  144.7495  156.8866 H   0  0  0  0  0  0  0  0  0  0  0  0
  152.8343  143.7822  157.3638 H   0  0  0  0  0  0  0  0  0  0  0  0
  151.2517  142.6211  159.0720 H   0  0  0  0  0  0  0  0  0  0  0  0
  149.9336  143.4301  158.2566 H   0  0  0  0  0  0  0  0  0  0  0  0
  152.4982  138.6516  155.8263 H   0  0  0  0  0  0  0  0  0  0  0  0
  149.9435  138.5915  154.1229 H   0  0  0  0  0  0  0  0  0  0  0  0
  151.5352  139.0400  153.5502 H   0  0  0  0  0  0  0  0  0  0  0  0
  150.9693  136.7534  153.0637 H   0  0  0  0  0  0  0  0  0  0  0  0
  149.5895  136.1773  154.8887 H   0  0  0  0  0  0  0  0  0  0  0  0
  150.9555  135.0878  154.8008 H   0  0  0  0  0  0  0  0  0  0  0  0
  150.5727  135.9300  157.1421 H   0  0  0  0  0  0  0  0  0  0  0  0
  152.1593  136.3949  156.5608 H   0  0  0  0  0  0  0  0  0  0  0  0
  1  2  1  0  0  0  0
  1 16  1  0  0  0  0
  1 17  1  0  0  0  0
  1 18  1  0  0  0  0
  2  3  1  0  0  0  0
  2 19  1  0  0  0  0
  2 20  1  0  0  0  0
  3 21  1  0  0  0  0
  3 22  1  0  0  0  0
  3  4  1  0  0  0  0
  4 14  2  0  0  0  0
  4  5  1  0  0  0  0
  5  6  1  0  0  0  0
  5 15  1  0  0  0  0
  6  7  2  0  0  0  0
  7 14  1  0  0  0  0
  7  8  1  0  0  0  0
  8 13  1  0  0  0  0
  8  9  1  0  0  0  0
  8 23  1  0  0  0  0
  9 10  1  0  0  0  0
  9 24  1  0  0  0  0
  9 25  1  0  0  0  0
 10 11  1  0  0  0  0
 10 26  1  0  0  0  0
 11 12  1  0  0  0  0
 11 27  1  0  0  0  0
 11 28  1  0  0  0  0
 12 13  1  0  0  0  0
 12 29  1  0  0  0  0
 12 30  1  0  0  0  0
M  END
> <s_m_source_file>
AV-unprocessed.smi

> <i_m_source_file_index>
2562

> <i_lp_mmshare_version>
43012

> <i_f3d_flags>
0

> <s_epik_input>
W0NIM11bQ0gyXVtDSDJdYzFuW25IXWMobjEpW0NAQEhdMltDSDJdW05IXVtDSDJdW0NIMl1PMg==

> <s_epik_cmdline>
J2VwaWtfcHl0aG9uJywgJy1waCcsICc3LjAnLCAnLXRuJywgJzgnLCAnLW1hJywgJzIwMCcsICctbWV0YWxfYmluZGluZycsICctaW1hZScsICc8aW5maWxlLm1hZT4nLCAnLW9tYWUnLCAnPG91dGZpbGUubWFlPic=

> <r_epik_Ionization_Penalty>
1.10136

> <r_epik_Ionization_Penalty_Charging>
0

> <r_epik_Ionization_Penalty_Neutral>
1.10136

> <r_epik_State_Penalty>
1.43987

> <r_epik_Charging_Adjusted_Penalty>
1.43987

> <i_epik_Tot_Q>
0

> <i_epik_Tot_abs_Q>
0

> <r_epik_Metal_State_Penalty>
1.55976

> <b_epik_Metal_Only>
0

> <s_lp_Force_Field>
OPLS_2005

> <r_lp_Energy>
11.7633

> <b_lp_Chiralities_Consistent>
1

> <s_lp_Variant>
AV-unprocessed.smi:2562-5

> <Gold.Version>
5.8.1

> <Gold.Id.Protein>
6NUR|6NUR_protein|mol2

> <Gold.PLP.Fitness>
37.8684

> <Gold.PLP.PLP>
-29.1365

> <Gold.PLP.part.hbond>
-4.1545

> <Gold.PLP.part.metal>
0.0000

> <Gold.PLP.part.buried>
-3.7178

> <Gold.PLP.part.nonpolar>
-21.8330

> <Gold.PLP.part.repulsive>
0.2219

> <Gold.PLP.ligand.clash>
0.0000

> <Gold.PLP.ligand.torsion>
0.1133

> <Gold.PLP.Chemscore.Hbond>
2.9815

> <Gold.PLP.Chemscore.CHOScore>
0.0000

> <Gold.PLP.Chemscore.Metal>
0.0000

> <Gold.Chemscore.Hbonds>
donor molecule, donor type, donor heavy atom, donor atom, acceptor molecule, acceptor atom, score
      L1  H     5    15       P1  8028  0.99
      L1  H    10    26       P1  7949  0.95
      P1  H  7989  7998       L1     6  0.69
      P1  H 10752 10764       L1    10  0.25

> <Gold.PLP.Chemscore.Internal.Correction>
0.0142

> <Gold.Rescore>
     Score         DG    S(hbond)    S(metal)    S(lipo)     H(rot)  DE(clash)    DE(int)     intcor
     16.11     -16.29       2.30        0.00      59.01       1.48       0.05       0.13       ----

> <Gold.Chemscore.Fitness>
16.1079

> <Gold.Chemscore.DG>
-16.2877

> <Gold.Chemscore.ZeroCoef>
-5.4800

> <Gold.Chemscore.Hbond>
2.3006

> <Gold.Chemscore.Metal>
0.0000

> <Gold.Chemscore.Lipo>
59.0113

> <Gold.Chemscore.Internal_Hbond>
0.0000

> <Gold.Chemscore.DEClash>
0.0462

> <Gold.Chemscore.DEInternal>
0.1336

> <Gold.Chemscore.Rot>
1.4769

> <Gold.Chemscore.Internal.Correction>
   9.000000E+99

> <Gold.Chemscore.Hbonds>
donor molecule, donor type, donor heavy atom, donor atom, acceptor molecule, acceptor atom, score
      L1  H     5    15       P1  8028  0.91
      L1  H    10    26       P1  7949  0.21
      P1  H  7989  7998       L1     6  0.32

> <Gold.Chemscore.Hbond.Weighted>
-7.6841

> <Gold.Chemscore.Metal.Weighted>
-0.0000

> <Gold.Chemscore.Lipo.Weighted>
-6.9043

> <Gold.Chemscore.Internal_Hbond.Weighted>
0.0000

> <Gold.Chemscore.DEClash.Weighted>
0.0462

> <Gold.Chemscore.DEInternal.Weighted>
0.1336

> <Gold.Chemscore.Rot.Weighted>
3.7808

> <Gold.Chemscore.Internal.Correction.Weighted>
   9.000000E+99

> <Gold.Protein.RotatedTorsions>
[ 6907 6896 6895 6894 ] final   78.00 input  -60.11 | X-H torsion
[ 7974 7965 7964 7962 ] final -108.09 input  175.53 | X-H torsion
[ 8008 7997 7996 7995 ] final  122.06 input   59.86 | X-H torsion
[ 10167 10162 10161 10158 ] final   45.52 input  -65.29 | X-H torsion
[ 10718 10713 10712 10709 ] final   58.58 input   66.30 | X-H torsion
[ 10763 10752 10751 10750 ] final -101.57 input  -60.55 | X-H torsion
[ 11005 11000 10999 10996 ] final   13.45 input  -57.11 | X-H torsion

> <Gold.Protein.ActiveResidues>
 VAL166  LYS551  ARG553  GLY616  TRP617  ASP618  TYR619  PRO620  LYS621  CYS622 
 ASP623  PHE694  ASN695  SER759  ASP760  ASP761  ALA762  ILE779  LEU786  VAL792 
 PHE793  MET794  SER795  GLU796  ALA797  LYS798  CYS799  TRP800  GLU811  SER814 

> <Gold.Protein.RotatedAtoms>
  152.5141  134.3731  159.9324 H   0  0  0  0  0  0  0  0  0  0  0  0  # atno 6907 bound_to 6896
  151.3686  133.3857  159.2705 H   0  0  0  0  0  0  0  0  0  0  0  0  # atno 6908 bound_to 6896
  150.9596  134.9005  159.7780 H   0  0  0  0  0  0  0  0  0  0  0  0  # atno 6909 bound_to 6896
  145.1972  140.9040  143.3390 H   0  0  0  0  0  0  0  0  0  0  0  0  # atno 7974 bound_to 7965
  156.2712  140.2794  156.1408 H   0  0  0  0  0  0  0  0  0  0  0  0  # atno 8008 bound_to 7997
  155.0956  140.0389  157.2699 H   0  0  0  0  0  0  0  0  0  0  0  0  # atno 8009 bound_to 7997
  154.6855  140.2618  155.6870 H   0  0  0  0  0  0  0  0  0  0  0  0  # atno 8010 bound_to 7997
  140.3233  144.2678  150.6179 H   0  0  0  0  0  0  0  0  0  0  0  0  # atno 10167 bound_to 10162
  157.5607  130.8834  149.9107 H   0  0  0  0  0  0  0  0  0  0  0  0  # atno 10718 bound_to 10713
  154.7668  135.4893  153.9570 H   0  0  0  0  0  0  0  0  0  0  0  0  # atno 10763 bound_to 10752
  153.1317  135.6754  153.9174 H   0  0  0  0  0  0  0  0  0  0  0  0  # atno 10764 bound_to 10752
  153.8876  135.3125  155.3425 H   0  0  0  0  0  0  0  0  0  0  0  0  # atno 10765 bound_to 10752
  140.4806  134.0939  155.7750 H   0  0  0  0  0  0  0  0  0  0  0  0  # atno 11005 bound_to 11000
  144.9983  139.3623  143.6180 LP  0  0  0  0  0  0  0  0  0  0  0  0  # atno 17320 bound_to 7965
  146.3425  139.9195  142.8768 LP  0  0  0  0  0  0  0  0  0  0  0  0  # atno 17321 bound_to 7965
  140.5463  143.2214  151.8001 LP  0  0  0  0  0  0  0  0  0  0  0  0  # atno 17342 bound_to 10162
  139.4870  144.4534  151.9627 LP  0  0  0  0  0  0  0  0  0  0  0  0  # atno 17343 bound_to 10162
  156.0660  130.3692  150.0877 LP  0  0  0  0  0  0  0  0  0  0  0  0  # atno 17370 bound_to 10713
  156.9041  130.9630  151.3572 LP  0  0  0  0  0  0  0  0  0  0  0  0  # atno 17371 bound_to 10713
  141.1533  133.8929  157.2042 LP  0  0  0  0  0  0  0  0  0  0  0  0  # atno 17394 bound_to 11000
  139.9829  135.0092  156.9792 LP  0  0  0  0  0  0  0  0  0  0  0  0  # atno 17395 bound_to 11000

$$$$
