AV-unprocessed.smi:1047|AV-procd|sdf|4591|dock1
  -GOLD-   22720 3 73D 1   1.00000     0.00000
 Structure written by MMmdl.
 57 59  0  0  0  0  0  0  0  0  3 V2000
  142.0141  146.1560  154.5317 C   0  0  0  0  0  0  0  0  0  0  0  0
  142.9632  146.1071  155.7380 C   0  0  0  0  0  0  0  0  0  0  0  0
  143.6151  144.8171  155.9581 N   0  0  0  0  0  0  0  0  0  0  0  0
  144.3414  144.8079  157.2232 C   0  0  0  0  0  0  0  0  0  0  0  0
  145.0405  143.4612  157.4742 C   0  0  0  0  0  0  0  0  0  0  0  0
  145.9062  143.1650  156.3832 O   0  0  0  0  0  0  0  0  0  0  0  0
  145.2255  143.1065  155.1319 C   0  0  2  0  0  0  0  0  0  0  0  0
  146.2533  142.7748  154.0416 C   0  0  0  0  0  0  0  0  0  0  0  0
  147.5413  142.3614  154.6325 N   0  3  0  0  0  0  0  0  0  0  0  0
  148.2758  141.3588  153.8347 C   0  0  0  0  0  0  0  0  0  0  0  0
  149.3046  140.6037  154.6930 C   0  0  1  0  0  0  0  0  0  0  0  0
  150.1804  139.8937  153.8382 O   0  0  0  0  0  0  0  0  0  0  0  0
  150.1169  141.5568  155.5924 C   0  0  0  0  0  0  0  0  0  0  0  0
  150.9427  140.8441  156.5785 N   0  0  0  0  0  0  0  0  0  0  0  0
  151.3325  139.5403  156.6007 C   0  0  0  0  0  0  0  0  0  0  0  0
  152.0895  139.3555  157.7169 N   0  3  0  0  0  0  0  0  0  0  0  0
  152.1851  140.5580  158.4197 C   0  0  0  0  0  0  0  0  0  0  0  0
  152.8433  140.8682  159.6036 C   0  0  0  0  0  0  0  0  0  0  0  0
  152.7492  142.2008  160.0639 C   0  0  0  0  0  0  0  0  0  0  0  0
  153.4581  142.5739  161.3549 C   0  0  0  0  0  0  0  0  0  0  0  0
  152.0107  143.1721  159.3400 C   0  0  0  0  0  0  0  0  0  0  0  0
  151.9163  144.6021  159.8449 C   0  0  0  0  0  0  0  0  0  0  0  0
  151.3483  142.8367  158.1372 C   0  0  0  0  0  0  0  0  0  0  0  0
  151.4505  141.5187  157.6967 C   0  0  0  0  0  0  0  0  0  0  0  0
  144.5353  144.4626  154.8805 C   0  0  0  0  0  0  0  0  0  0  0  0
  141.4870  147.1096  154.4987 H   0  0  0  0  0  0  0  0  0  0  0  0
  141.2643  145.3664  154.5890 H   0  0  0  0  0  0  0  0  0  0  0  0
  142.5472  146.0496  153.5873 H   0  0  0  0  0  0  0  0  0  0  0  0
  143.7148  146.8919  155.6423 H   0  0  0  0  0  0  0  0  0  0  0  0
  142.3779  146.3599  156.6232 H   0  0  0  0  0  0  0  0  0  0  0  0
  145.0858  145.6058  157.2287 H   0  0  0  0  0  0  0  0  0  0  0  0
  143.6558  145.0159  158.0454 H   0  0  0  0  0  0  0  0  0  0  0  0
  145.6253  143.5022  158.3931 H   0  0  0  0  0  0  0  0  0  0  0  0
  144.3083  142.6613  157.5956 H   0  0  0  0  0  0  0  0  0  0  0  0
  144.4696  142.3195  155.1673 H   0  0  0  0  0  0  0  0  0  0  0  0
  145.8800  141.9613  153.4183 H   0  0  0  0  0  0  0  0  0  0  0  0
  146.4048  143.6369  153.3904 H   0  0  0  0  0  0  0  0  0  0  0  0
  148.1224  143.1813  154.7344 H   0  0  0  0  0  0  0  0  0  0  0  0
  147.5737  140.6610  153.3756 H   0  0  0  0  0  0  0  0  0  0  0  0
  148.7863  141.8776  153.0223 H   0  0  0  0  0  0  0  0  0  0  0  0
  148.7862  139.8810  155.3249 H   0  0  0  0  0  0  0  0  0  0  0  0
  149.7699  139.7994  152.9922 H   0  0  0  0  0  0  0  0  0  0  0  0
  150.7474  142.2219  155.0019 H   0  0  0  0  0  0  0  0  0  0  0  0
  149.4395  142.2013  156.1540 H   0  0  0  0  0  0  0  0  0  0  0  0
  151.0868  138.7872  155.8657 H   0  0  0  0  0  0  0  0  0  0  0  0
  153.4041  140.1234  160.1494 H   0  0  0  0  0  0  0  0  0  0  0  0
  152.7389  142.9082  162.1029 H   0  0  0  0  0  0  0  0  0  0  0  0
  154.1762  143.3756  161.1808 H   0  0  0  0  0  0  0  0  0  0  0  0
  154.0021  141.7255  161.7711 H   0  0  0  0  0  0  0  0  0  0  0  0
  151.2951  145.2166  159.1927 H   0  0  0  0  0  0  0  0  0  0  0  0
  152.9056  145.0582  159.8890 H   0  0  0  0  0  0  0  0  0  0  0  0
  151.4774  144.6281  160.8426 H   0  0  0  0  0  0  0  0  0  0  0  0
  150.7900  143.5801  157.5886 H   0  0  0  0  0  0  0  0  0  0  0  0
  143.9997  144.4100  153.9328 H   0  0  0  0  0  0  0  0  0  0  0  0
  145.2909  145.2422  154.7696 H   0  0  0  0  0  0  0  0  0  0  0  0
  147.3679  141.9758  155.5501 H   0  0  0  0  0  0  0  0  0  0  0  0
  152.5094  138.4725  157.9781 H   0  0  0  0  0  0  0  0  0  0  0  0
  1  2  1  0  0  0  0
  1 26  1  0  0  0  0
  1 27  1  0  0  0  0
  1 28  1  0  0  0  0
  2  3  1  0  0  0  0
  2 29  1  0  0  0  0
  2 30  1  0  0  0  0
  3 25  1  0  0  0  0
  3  4  1  0  0  0  0
  4  5  1  0  0  0  0
  4 31  1  0  0  0  0
  4 32  1  0  0  0  0
  5  6  1  0  0  0  0
  5 33  1  0  0  0  0
  5 34  1  0  0  0  0
  6  7  1  0  0  0  0
  7  8  1  0  0  0  0
  7 25  1  0  0  0  0
  7 35  1  0  0  0  0
  8  9  1  0  0  0  0
  8 36  1  0  0  0  0
  8 37  1  0  0  0  0
  9 10  1  0  0  0  0
  9 38  1  0  0  0  0
  9 56  1  0  0  0  0
 10 11  1  0  0  0  0
 10 39  1  0  0  0  0
 10 40  1  0  0  0  0
 11 12  1  0  0  0  0
 11 13  1  0  0  0  0
 11 41  1  0  0  0  0
 12 42  1  0  0  0  0
 13 14  1  0  0  0  0
 13 43  1  0  0  0  0
 13 44  1  0  0  0  0
 14 24  1  0  0  0  0
 14 15  1  0  0  0  0
 15 16  2  0  0  0  0
 15 45  1  0  0  0  0
 16 17  1  0  0  0  0
 16 57  1  0  0  0  0
 17 24  2  0  0  0  0
 17 18  1  0  0  0  0
 18 19  2  0  0  0  0
 18 46  1  0  0  0  0
 19 20  1  0  0  0  0
 19 21  1  0  0  0  0
 20 47  1  0  0  0  0
 20 48  1  0  0  0  0
 20 49  1  0  0  0  0
 21 22  1  0  0  0  0
 21 23  2  0  0  0  0
 22 50  1  0  0  0  0
 22 51  1  0  0  0  0
 22 52  1  0  0  0  0
 23 24  1  0  0  0  0
 23 53  1  0  0  0  0
 25 54  1  0  0  0  0
 25 55  1  0  0  0  0
M  CHG  1   9   1
M  CHG  1  16   1
M  END
> <s_m_source_file>
AV-unprocessed.smi

> <i_m_source_file_index>
1047

> <i_lp_mmshare_version>
43012

> <i_f3d_flags>
0

> <s_epik_input>
W0NIM11bQ0gyXU4xW0NIMl1bQ0gyXU9bQ0BIXShbQ0gyXTEpW0NIMl1bTkhdW0NIMl1bQ0BIXShbT0hdKVtDSDJdbihbY0hdbjIpYyhjMjMpW2NIXWMoW0NIM10pYyhbY0hdMylbQ0gzXQ==

> <s_epik_cmdline>
J2VwaWtfcHl0aG9uJywgJy1waCcsICc3LjAnLCAnLXRuJywgJzgnLCAnLW1hJywgJzIwMCcsICctbWV0YWxfYmluZGluZycsICctaW1hZScsICc8aW5maWxlLm1hZT4nLCAnLW9tYWUnLCAnPG91dGZpbGUubWFlPic=

> <r_epik_Ionization_Penalty>
1.75732

> <r_epik_Ionization_Penalty_Charging>
1.18089

> <r_epik_Ionization_Penalty_Neutral>
0.576429

> <r_epik_State_Penalty>
1.69377

> <r_epik_Charging_Adjusted_Penalty>
2.87466

> <i_epik_Tot_Q>
2

> <i_epik_Tot_abs_Q>
2

> <r_epik_Metal_State_Penalty>
5.70174

> <b_epik_Metal_Only>
0

> <s_lp_Force_Field>
OPLS_2005

> <r_lp_Energy>
38.6305

> <b_lp_Chiralities_Consistent>
1

> <s_lp_Variant>
AV-unprocessed.smi:1047-32

> <Gold.Version>
5.8.1

> <Gold.Id.Protein>
6NUR|6NUR_protein|mol2

> <Gold.PLP.Fitness>
63.0184

> <Gold.PLP.PLP>
-53.5849

> <Gold.PLP.part.hbond>
-3.0000

> <Gold.PLP.part.metal>
0.0000

> <Gold.PLP.part.buried>
-6.8452

> <Gold.PLP.part.nonpolar>
-42.7803

> <Gold.PLP.part.repulsive>
0.4292

> <Gold.PLP.ligand.clash>
0.0000

> <Gold.PLP.ligand.torsion>
1.4027

> <Gold.PLP.Chemscore.Hbond>
3.9280

> <Gold.PLP.Chemscore.CHOScore>
0.0000

> <Gold.PLP.Chemscore.Metal>
0.0000

> <Gold.Chemscore.Hbonds>
donor molecule, donor type, donor heavy atom, donor atom, acceptor molecule, acceptor atom, score
      L1  H     9    38       P1  8028  2.00
      L1  H    12    42       P1  7957  1.00
      P1  H  7989  7998       L1    12  0.91

> <Gold.PLP.Chemscore.Internal.Correction>
0.4548

> <Gold.Rescore>
     Score         DG    S(hbond)    S(metal)    S(lipo)     H(rot)  DE(clash)    DE(int)     intcor
     18.78     -22.36       2.37        0.00     135.43       2.69       1.09       2.49       ----

> <Gold.Chemscore.Fitness>
18.7768

> <Gold.Chemscore.DG>
-22.3556

> <Gold.Chemscore.ZeroCoef>
-5.4800

> <Gold.Chemscore.Hbond>
2.3715

> <Gold.Chemscore.Metal>
0.0000

> <Gold.Chemscore.Lipo>
135.4312

> <Gold.Chemscore.Internal_Hbond>
0.0000

> <Gold.Chemscore.DEClash>
1.0908

> <Gold.Chemscore.DEInternal>
2.4881

> <Gold.Chemscore.Rot>
2.6917

> <Gold.Chemscore.Internal.Correction>
   9.000000E+99

> <Gold.Chemscore.Hbonds>
donor molecule, donor type, donor heavy atom, donor atom, acceptor molecule, acceptor atom, score
      L1  H     9    38       P1  8028  0.94
      L1  H    12    42       P1  7957  0.98
      P1  H  7989  7998       L1    12  0.24

> <Gold.Chemscore.Hbond.Weighted>
-7.9209

> <Gold.Chemscore.Metal.Weighted>
-0.0000

> <Gold.Chemscore.Lipo.Weighted>
-15.8454

> <Gold.Chemscore.Internal_Hbond.Weighted>
0.0000

> <Gold.Chemscore.DEClash.Weighted>
1.0908

> <Gold.Chemscore.DEInternal.Weighted>
2.4881

> <Gold.Chemscore.Rot.Weighted>
6.8907

> <Gold.Chemscore.Internal.Correction.Weighted>
   9.000000E+99

> <Gold.Protein.RotatedTorsions>
[ 6907 6896 6895 6894 ] final  -86.72 input  -60.11 | X-H torsion
[ 7974 7965 7964 7962 ] final   23.19 input  175.53 | X-H torsion
[ 8008 7997 7996 7995 ] final  161.09 input   59.86 | X-H torsion
[ 10167 10162 10161 10158 ] final   30.15 input  -65.29 | X-H torsion
[ 10718 10713 10712 10709 ] final   37.61 input   66.30 | X-H torsion
[ 10763 10752 10751 10750 ] final  155.03 input  -60.55 | X-H torsion
[ 11005 11000 10999 10996 ] final   63.79 input  -57.11 | X-H torsion

> <Gold.Protein.ActiveResidues>
 VAL166  LYS551  ARG553  GLY616  TRP617  ASP618  TYR619  PRO620  LYS621  CYS622 
 ASP623  PHE694  ASN695  SER759  ASP760  ASP761  ALA762  ILE779  LEU786  VAL792 
 PHE793  MET794  SER795  GLU796  ALA797  LYS798  CYS799  TRP800  GLU811  SER814 

> <Gold.Protein.RotatedAtoms>
  150.6866  134.3007  159.4704 H   0  0  0  0  0  0  0  0  0  0  0  0  # atno 6907 bound_to 6896
  152.0903  134.9409  160.0581 H   0  0  0  0  0  0  0  0  0  0  0  0  # atno 6908 bound_to 6896
  152.0728  133.4080  159.4503 H   0  0  0  0  0  0  0  0  0  0  0  0  # atno 6909 bound_to 6896
  146.1995  139.7779  142.8772 H   0  0  0  0  0  0  0  0  0  0  0  0  # atno 7974 bound_to 7965
  156.2127  140.1786  156.7659 H   0  0  0  0  0  0  0  0  0  0  0  0  # atno 8008 bound_to 7997
  154.5746  140.0676  156.9044 H   0  0  0  0  0  0  0  0  0  0  0  0  # atno 8009 bound_to 7997
  155.2612  140.3336  155.4275 H   0  0  0  0  0  0  0  0  0  0  0  0  # atno 8010 bound_to 7997
  140.4703  144.0773  150.6235 H   0  0  0  0  0  0  0  0  0  0  0  0  # atno 10167 bound_to 10162
  157.3490  130.7588  149.6965 H   0  0  0  0  0  0  0  0  0  0  0  0  # atno 10718 bound_to 10713
  154.1618  135.2809  155.3106 H   0  0  0  0  0  0  0  0  0  0  0  0  # atno 10763 bound_to 10752
  154.6141  135.5489  153.7508 H   0  0  0  0  0  0  0  0  0  0  0  0  # atno 10764 bound_to 10752
  153.0190  135.6422  154.1760 H   0  0  0  0  0  0  0  0  0  0  0  0  # atno 10765 bound_to 10752
  140.0001  134.6455  155.9945 H   0  0  0  0  0  0  0  0  0  0  0  0  # atno 11005 bound_to 11000
  145.3531  141.0311  143.3327 LP  0  0  0  0  0  0  0  0  0  0  0  0  # atno 17320 bound_to 7965
  144.8653  139.5117  143.6793 LP  0  0  0  0  0  0  0  0  0  0  0  0  # atno 17321 bound_to 7965
  140.3985  143.2716  151.9976 LP  0  0  0  0  0  0  0  0  0  0  0  0  # atno 17342 bound_to 10162
  139.4817  144.6017  151.7593 LP  0  0  0  0  0  0  0  0  0  0  0  0  # atno 17343 bound_to 10162
  155.9718  130.4146  150.4140 LP  0  0  0  0  0  0  0  0  0  0  0  0  # atno 17370 bound_to 10713
  157.2200  131.0480  151.2552 LP  0  0  0  0  0  0  0  0  0  0  0  0  # atno 17371 bound_to 10713
  141.1635  133.6538  156.4400 LP  0  0  0  0  0  0  0  0  0  0  0  0  # atno 17394 bound_to 11000
  140.4744  134.6723  157.5143 LP  0  0  0  0  0  0  0  0  0  0  0  0  # atno 17395 bound_to 11000

$$$$
