#       Name:                AV-unprocessed.smi:1867
#       Creating user name   scv26
#       Creation time:       Fri Mar 27 09:28:18 2020


#       File generated by GOLD software.
#

@<TRIPOS>MOLECULE
AV-unprocessed.smi:1867
    55    58     1
SMALL
NO_CHARGES


@<TRIPOS>ATOM
      1 ****        -0.3250   2.9077  -0.4230 O.2            1 S1                 0.0000
      2 ****        -0.6945   1.7625  -0.1750 C.2            1 S1                 0.0000
      3 ****         0.1265   0.7390   0.1318 N.am           1 S1                 0.0000
      4 ****         1.5472   0.7213   0.1640 C.ar           1 S1                 0.0000
      5 ****         2.3728   1.6425  -0.5217 C.ar           1 S1                 0.0000
      6 ****         3.7710   1.5048  -0.4314 C.ar           1 S1                 0.0000
      7 ****         4.3128   0.4436   0.3318 C.ar           1 S1                 0.0000
      8 ****         5.7068   0.2722   0.4469 N.pl3          1 S1                 0.0000
      9 ****         6.6329   0.8518  -0.5165 C.3            1 S1                 0.0000
     10 ****         7.8793  -0.0403  -0.4827 C.3            1 S1                 0.0000
     11 ****         7.7905  -0.7558   0.8653 C.3            1 S1                 0.0000
     12 ****         6.2850  -0.9028   1.0804 C.3            1 S1                 0.0000
     13 ****         3.5201  -0.4395   0.9847 N.ar           1 S1                 0.0000
     14 ****         2.1807  -0.3033   0.8949 C.ar           1 S1                 0.0000
     15 ****        -2.0013   1.4465  -0.1585 N.am           1 S1                 0.0000
     16 ****        -3.1457   2.3132  -0.4408 C.3            1 S1                 0.0000
     17 ****        -3.3863   2.5693  -1.9425 C.3            1 S1                 0.0000
     18 ****        -4.9155   2.5149  -2.1304 C.3            1 S1                 0.0000
     19 ****        -5.4702   2.3855  -0.7699 N.4            1 S1                 1.0000
     20 ****        -6.8188   1.7901  -0.6437 C.3            1 S1                 0.0000
     21 ****        -7.2474   1.8144   0.8377 C.3            1 S1                 0.0000
     22 ****        -6.1939   1.1519   1.7495 C.3            1 S1                 0.0000
     23 ****        -4.7929   1.7461   1.5049 C.3            1 S1                 0.0000
     24 ****        -4.4539   1.6612   0.0077 C.3            1 S1                 0.0000
     25 ****        -0.3216  -0.1210   0.4113 H              1 S1                 0.0000
     26 ****         1.9672   2.4403  -1.1241 H              1 S1                 0.0000
     27 ****         4.4041   2.2122  -0.9459 H              1 S1                 0.0000
     28 ****         6.2123   0.8934  -1.5216 H              1 S1                 0.0000
     29 ****         6.8760   1.8671  -0.2027 H              1 S1                 0.0000
     30 ****         7.8248  -0.7744  -1.2877 H              1 S1                 0.0000
     31 ****         8.8051   0.5223  -0.6060 H              1 S1                 0.0000
     32 ****         8.3169  -1.7104   0.8783 H              1 S1                 0.0000
     33 ****         8.2160  -0.1239   1.6462 H              1 S1                 0.0000
     34 ****         6.0321  -0.9562   2.1398 H              1 S1                 0.0000
     35 ****         5.9119  -1.8023   0.5888 H              1 S1                 0.0000
     36 ****         1.5955  -1.0379   1.4290 H              1 S1                 0.0000
     37 ****        -2.2251   0.4992   0.1108 H              1 S1                 0.0000
     38 ****        -3.0338   3.2678   0.0777 H              1 S1                 0.0000
     39 ****        -2.9780   3.5351  -2.2422 H              1 S1                 0.0000
     40 ****        -2.9093   1.8074  -2.5609 H              1 S1                 0.0000
     41 ****        -5.3074   3.4022  -2.6281 H              1 S1                 0.0000
     42 ****        -5.1861   1.6430  -2.7282 H              1 S1                 0.0000
     43 ****        -7.5277   2.3540  -1.2508 H              1 S1                 0.0000
     44 ****        -6.8111   0.7667  -1.0223 H              1 S1                 0.0000
     45 ****        -7.3941   2.8484   1.1529 H              1 S1                 0.0000
     46 ****        -8.2108   1.3178   0.9570 H              1 S1                 0.0000
     47 ****        -6.4751   1.2703   2.7964 H              1 S1                 0.0000
     48 ****        -6.1713   0.0787   1.5555 H              1 S1                 0.0000
     49 ****        -4.7674   2.7842   1.8390 H              1 S1                 0.0000
     50 ****        -4.0488   1.2085   2.0933 H              1 S1                 0.0000
     51 ****        -4.4594   0.6146  -0.3071 H              1 S1                 0.0000
     52 ****        -5.5149   3.3186  -0.3861 H              1 S1                 0.0000
     53 ****         0.6490   3.1337  -0.4053 LP             1 S1                 0.0000
     54 ****        -0.9982   3.6138  -0.6426 LP             1 S1                 0.0000
     55 ****         3.9208  -1.1800   1.5242 LP             1 S1                 0.0000
@<TRIPOS>BOND
    1    1    2 2     
    2    2    3 am    
    3    2   15 am    
    4    3    4 1     
    5    3   25 1     
    6    4   14 ar    
    7    4    5 ar    
    8    5    6 ar    
    9    5   26 1     
   10    6    7 ar    
   11    6   27 1     
   12    7    8 1     
   13    7   13 ar    
   14    8   12 1     
   15    8    9 1     
   16    9   10 1     
   17    9   28 1     
   18    9   29 1     
   19   10   11 1     
   20   10   30 1     
   21   10   31 1     
   22   11   12 1     
   23   11   32 1     
   24   11   33 1     
   25   12   34 1     
   26   12   35 1     
   27   13   14 ar    
   28   14   36 1     
   29   15   16 1     
   30   15   37 1     
   31   16   24 1     
   32   16   17 1     
   33   16   38 1     
   34   17   18 1     
   35   17   39 1     
   36   17   40 1     
   37   18   19 1     
   38   18   41 1     
   39   18   42 1     
   40   19   24 1     
   41   19   20 1     
   42   19   52 1     
   43   20   21 1     
   44   20   43 1     
   45   20   44 1     
   46   21   22 1     
   47   21   45 1     
   48   21   46 1     
   49   22   23 1     
   50   22   47 1     
   51   22   48 1     
   52   23   24 1     
   53   23   49 1     
   54   23   50 1     
   55   24   51 1     
   56    1   53 1     
   57    1   54 1     
   58   13   55 1     
@<TRIPOS>SUBSTRUCTURE
      1 S1             1
@<TRIPOS>SET
LONE_PAIRS      STATIC     ATOMS    <user>   **** ""
3 53 54 55
DONOR_HYDROGENS      STATIC     ATOMS    <user>   **** ""
3 25 37 52
ATOM$BLUE        STATIC     ATOMS    COLORGROUP SYSTEM
3 53 54 55
ATOM$RED        STATIC     ATOMS    COLORGROUP SYSTEM
3 25 37 52
