AV-unprocessed.smi:66|AV-procd|sdf|624|dock7
  -GOLD-   2262016513D 1   1.00000     0.00000
 Structure written by MMmdl.
 28 30  0  0  0  0  0  0  0  0  2 V2000
  152.7960  137.4787  157.8846 O   0  0  0  0  0  0  0  0  0  0  0  0
  152.3665  137.6050  156.7171 C   0  0  0  0  0  0  0  0  0  0  0  0
  151.8426  136.6945  156.0372 O   0  5  0  0  0  0  0  0  0  0  0  0
  152.5041  138.9979  156.0800 C   0  0  1  0  0  0  0  0  0  0  0  0
  151.7834  139.0779  154.7223 C   0  0  0  0  0  0  0  0  0  0  0  0
  150.4213  139.6776  155.0705 C   0  0  2  0  0  0  0  0  0  0  0  0
  149.8143  140.3220  153.9702 O   0  0  0  0  0  0  0  0  0  0  0  0
  150.7595  140.6487  156.2022 C   0  0  0  0  0  0  0  0  0  0  0  0
  151.8802  140.0338  156.9045 N   0  0  0  0  0  0  0  0  0  0  0  0
  152.5669  140.7377  157.9190 C   0  0  0  0  0  0  0  0  0  0  0  0
  153.5928  140.1151  158.5488 N   0  0  0  0  0  0  0  0  0  0  0  0
  154.2456  140.7737  159.5147 C   0  0  0  0  0  0  0  0  0  0  0  0
  154.0381  142.0134  159.9826 N   0  0  0  0  0  0  0  0  0  0  0  0
  153.0325  142.6509  159.3694 C   0  0  0  0  0  0  0  0  0  0  0  0
  152.6034  143.9424  159.6442 N   0  0  0  0  0  0  0  0  0  0  0  0
  151.6090  144.0926  158.7717 C   0  0  0  0  0  0  0  0  0  0  0  0
  151.3516  143.0433  157.9753 N   0  0  0  0  0  0  0  0  0  0  0  0
  152.2602  142.0567  158.3250 C   0  0  0  0  0  0  0  0  0  0  0  0
  150.6434  143.0116  157.2537 H   0  0  0  0  0  0  0  0  0  0  0  0
  153.5613  139.2179  155.9290 H   0  0  0  0  0  0  0  0  0  0  0  0
  152.3336  139.7535  154.0656 H   0  0  0  0  0  0  0  0  0  0  0  0
  151.7009  138.1188  154.2084 H   0  0  0  0  0  0  0  0  0  0  0  0
  149.7580  138.8947  155.4406 H   0  0  0  0  0  0  0  0  0  0  0  0
  149.7993  139.7189  153.2433 H   0  0  0  0  0  0  0  0  0  0  0  0
  151.0729  141.6152  155.8033 H   0  0  0  0  0  0  0  0  0  0  0  0
  149.9057  140.8078  156.8618 H   0  0  0  0  0  0  0  0  0  0  0  0
  155.0516  140.2293  159.9839 H   0  0  0  0  0  0  0  0  0  0  0  0
  151.0429  145.0101  158.7046 H   0  0  0  0  0  0  0  0  0  0  0  0
  1  2  2  0  0  0  0
  2  3  1  0  0  0  0
  2  4  1  0  0  0  0
  4  9  1  0  0  0  0
  4  5  1  0  0  0  0
  4 20  1  0  0  0  0
  5  6  1  0  0  0  0
  5 21  1  0  0  0  0
  5 22  1  0  0  0  0
  6  7  1  0  0  0  0
  6  8  1  0  0  0  0
  6 23  1  0  0  0  0
  7 24  1  0  0  0  0
  8  9  1  0  0  0  0
  8 25  1  0  0  0  0
  8 26  1  0  0  0  0
  9 10  1  0  0  0  0
 10 18  1  0  0  0  0
 10 11  2  0  0  0  0
 11 12  1  0  0  0  0
 12 13  2  0  0  0  0
 12 27  1  0  0  0  0
 13 14  1  0  0  0  0
 14 18  2  0  0  0  0
 14 15  1  0  0  0  0
 15 16  2  0  0  0  0
 16 17  1  0  0  0  0
 16 28  1  0  0  0  0
 17 19  1  0  0  0  0
 17 18  1  0  0  0  0
M  CHG  1   3  -1
M  END
> <s_m_source_file>
AV-unprocessed.smi

> <i_m_source_file_index>
66

> <i_lp_mmshare_version>
43012

> <i_f3d_flags>
0

> <s_epik_input>
Tz1DKFtPSF0pW0NAQEhdMVtDSDJdW0NAQEhdKFtPSF0pW0NIMl1OMWMobltjSF1uMiljKGMyMylbbkhdW2NIXW4z

> <s_epik_cmdline>
J2VwaWtfcHl0aG9uJywgJy1waCcsICc3LjAnLCAnLXRuJywgJzgnLCAnLW1hJywgJzIwMCcsICctbWV0YWxfYmluZGluZycsICctaW1hZScsICc8aW5maWxlLm1hZT4nLCAnLW9tYWUnLCAnPG91dGZpbGUubWFlPic=

> <r_lp_tautomer_probability>
0.0419193

> <r_epik_Ionization_Penalty>
0.0157405

> <r_epik_Ionization_Penalty_Charging>
0.000248217

> <r_epik_Ionization_Penalty_Neutral>
0.0154923

> <r_epik_State_Penalty>
1.99742

> <r_epik_Charging_Adjusted_Penalty>
1.99767

> <i_epik_Tot_Q>
-1

> <i_epik_Tot_abs_Q>
1

> <r_epik_Metal_State_Penalty>
2.31035

> <b_epik_Metal_Only>
0

> <s_lp_Force_Field>
OPLS_2005

> <r_lp_Energy>
19.7313

> <b_lp_Chiralities_Consistent>
1

> <s_lp_Variant>
AV-unprocessed.smi:66-8

> <Gold.Version>
5.8.1

> <Gold.Id.Protein>
6NUR|6NUR_protein|mol2

> <Gold.PLP.Fitness>
42.4152

> <Gold.PLP.PLP>
-31.3747

> <Gold.PLP.part.hbond>
-4.0000

> <Gold.PLP.part.metal>
0.0000

> <Gold.PLP.part.buried>
-3.5671

> <Gold.PLP.part.nonpolar>
-22.9648

> <Gold.PLP.part.repulsive>
0.0613

> <Gold.PLP.ligand.clash>
0.0000

> <Gold.PLP.ligand.torsion>
0.2508

> <Gold.PLP.Chemscore.Hbond>
3.7866

> <Gold.PLP.Chemscore.CHOScore>
0.0000

> <Gold.PLP.Chemscore.Metal>
0.0000

> <Gold.Chemscore.Hbonds>
donor molecule, donor type, donor heavy atom, donor atom, acceptor molecule, acceptor atom, score
      L1  H     7    24       P1  7957  0.51
      P1  H  7989  7998       L1     7  0.13
      P1  H  7997  8009       L1    11  0.98
      P1  H 10752 10764       L1     3  2.00

> <Gold.PLP.Chemscore.Internal.Correction>
0.1824

> <Gold.Rescore>
     Score         DG    S(hbond)    S(metal)    S(lipo)     H(rot)  DE(clash)    DE(int)     intcor
      9.21     -12.65       2.20        0.00      37.57       1.78       1.16       2.28       ----

> <Gold.Chemscore.Fitness>
9.2107

> <Gold.Chemscore.DG>
-12.6513

> <Gold.Chemscore.ZeroCoef>
-5.4800

> <Gold.Chemscore.Hbond>
2.1986

> <Gold.Chemscore.Metal>
0.0000

> <Gold.Chemscore.Lipo>
37.5694

> <Gold.Chemscore.Internal_Hbond>
0.0000

> <Gold.Chemscore.DEClash>
1.1619

> <Gold.Chemscore.DEInternal>
2.2787

> <Gold.Chemscore.Rot>
1.7842

> <Gold.Chemscore.Internal.Correction>
   9.000000E+99

> <Gold.Chemscore.Hbonds>
donor molecule, donor type, donor heavy atom, donor atom, acceptor molecule, acceptor atom, score
      L1  H     7    24       P1  7957  0.50
      P1  H  7997  8009       L1    11  0.11
      P1  H 10752 10764       L1     3  0.88

> <Gold.Chemscore.Hbond.Weighted>
-7.3433

> <Gold.Chemscore.Metal.Weighted>
-0.0000

> <Gold.Chemscore.Lipo.Weighted>
-4.3956

> <Gold.Chemscore.Internal_Hbond.Weighted>
0.0000

> <Gold.Chemscore.DEClash.Weighted>
1.1619

> <Gold.Chemscore.DEInternal.Weighted>
2.2787

> <Gold.Chemscore.Rot.Weighted>
4.5676

> <Gold.Chemscore.Internal.Correction.Weighted>
   9.000000E+99

> <Gold.Protein.RotatedTorsions>
[ 6907 6896 6895 6894 ] final -147.73 input  -60.11 | X-H torsion
[ 7974 7965 7964 7962 ] final   26.22 input  175.53 | X-H torsion
[ 8008 7997 7996 7995 ] final  139.78 input   59.86 | X-H torsion
[ 10167 10162 10161 10158 ] final    6.36 input  -65.29 | X-H torsion
[ 10718 10713 10712 10709 ] final   64.29 input   66.30 | X-H torsion
[ 10763 10752 10751 10750 ] final  -34.24 input  -60.55 | X-H torsion
[ 11005 11000 10999 10996 ] final  110.00 input  -57.11 | X-H torsion

> <Gold.Protein.ActiveResidues>
 VAL166  LYS551  ARG553  GLY616  TRP617  ASP618  TYR619  PRO620  LYS621  CYS622 
 ASP623  PHE694  ASN695  SER759  ASP760  ASP761  ALA762  ILE779  LEU786  VAL792 
 PHE793  MET794  SER795  GLU796  ALA797  LYS798  CYS799  TRP800  GLU811  SER814 

> <Gold.Protein.RotatedAtoms>
  151.1598  133.4852  159.2594 H   0  0  0  0  0  0  0  0  0  0  0  0  # atno 6907 bound_to 6896
  151.1466  135.0206  159.8659 H   0  0  0  0  0  0  0  0  0  0  0  0  # atno 6908 bound_to 6896
  152.5463  134.1486  159.8562 H   0  0  0  0  0  0  0  0  0  0  0  0  # atno 6909 bound_to 6896
  146.1849  139.7358  142.8874 H   0  0  0  0  0  0  0  0  0  0  0  0  # atno 7974 bound_to 7965
  156.2986  140.2358  156.4294 H   0  0  0  0  0  0  0  0  0  0  0  0  # atno 8008 bound_to 7997
  154.8284  140.0434  157.1480 H   0  0  0  0  0  0  0  0  0  0  0  0  # atno 8009 bound_to 7997
  154.9236  140.3007  155.5207 H   0  0  0  0  0  0  0  0  0  0  0  0  # atno 8010 bound_to 7997
  140.6432  143.7725  150.7459 H   0  0  0  0  0  0  0  0  0  0  0  0  # atno 10167 bound_to 10162
  157.6029  130.9152  149.9826 H   0  0  0  0  0  0  0  0  0  0  0  0  # atno 10718 bound_to 10713
  153.8434  135.6855  153.4800 H   0  0  0  0  0  0  0  0  0  0  0  0  # atno 10763 bound_to 10752
  153.1440  135.4645  154.9536 H   0  0  0  0  0  0  0  0  0  0  0  0  # atno 10764 bound_to 10752
  154.7834  135.3276  154.7886 H   0  0  0  0  0  0  0  0  0  0  0  0  # atno 10765 bound_to 10752
  139.8873  134.9473  156.6212 H   0  0  0  0  0  0  0  0  0  0  0  0  # atno 11005 bound_to 11000
  145.3969  141.0380  143.3092 LP  0  0  0  0  0  0  0  0  0  0  0  0  # atno 17320 bound_to 7965
  144.8379  139.5520  143.6914 LP  0  0  0  0  0  0  0  0  0  0  0  0  # atno 17321 bound_to 7965
  140.1360  143.4483  152.2224 LP  0  0  0  0  0  0  0  0  0  0  0  0  # atno 17342 bound_to 10162
  139.5641  144.7424  151.4070 LP  0  0  0  0  0  0  0  0  0  0  0  0  # atno 17343 bound_to 10162
  156.1108  130.3650  150.0053 LP  0  0  0  0  0  0  0  0  0  0  0  0  # atno 17370 bound_to 10713
  156.8152  130.9339  151.3643 LP  0  0  0  0  0  0  0  0  0  0  0  0  # atno 17371 bound_to 10713
  140.7738  133.8716  155.8513 LP  0  0  0  0  0  0  0  0  0  0  0  0  # atno 17394 bound_to 11000
  140.9819  134.1394  157.4486 LP  0  0  0  0  0  0  0  0  0  0  0  0  # atno 17395 bound_to 11000

$$$$
