AV-unprocessed.smi:931|AV-procd|sdf|4198|dock3
  -GOLD-   22720 2103D 1   1.00000     0.00000
 Structure written by MMmdl.
 36 37  0  0  0  0  0  0  0  0  1 V2000
  151.7474  144.6541  160.8693 C   0  0  0  0  0  0  0  0  0  0  0  0
  152.1278  144.3692  159.4094 C   0  0  0  0  0  0  0  0  0  0  0  0
  151.1039  144.9132  158.4025 C   0  0  0  0  0  0  0  0  0  0  0  0
  152.4315  142.9220  159.1789 C   0  0  0  0  0  0  0  0  0  0  0  0
  151.8661  142.1887  158.2147 N   0  0  0  0  0  0  0  0  0  0  0  0
  152.3136  140.8641  158.2100 C   0  0  0  0  0  0  0  0  0  0  0  0
  151.7939  139.9011  157.1866 C   0  0  0  0  0  0  0  0  0  0  0  0
  150.3466  139.4721  157.4804 C   0  0  0  0  0  0  0  0  0  0  0  0
  149.3858  140.2152  156.6731 N   0  0  0  0  0  0  0  0  0  0  0  0
  149.4989  140.4395  155.3544 C   0  0  0  0  0  0  0  0  0  0  0  0
  150.4216  140.0074  154.6637 O   0  0  0  0  0  0  0  0  0  0  0  0
  148.4584  141.1180  154.8448 N   0  0  0  0  0  0  0  0  0  0  0  0
  147.7845  140.9961  153.5554 C   0  0  0  0  0  0  0  0  0  0  0  0
  146.7039  141.9037  154.1381 C   0  0  0  0  0  0  0  0  0  0  0  0
  147.2764  141.6308  155.5269 C   0  0  0  0  0  0  0  0  0  0  0  0
  153.2356  140.6013  159.1919 C   0  0  0  0  0  0  0  0  0  0  0  0
  153.5732  142.0093  160.1602 S   0  0  0  0  0  0  0  0  0  0  0  0
  152.5346  144.3287  161.5498 H   0  0  0  0  0  0  0  0  0  0  0  0
  150.8294  144.1362  161.1487 H   0  0  0  0  0  0  0  0  0  0  0  0
  151.5900  145.7204  161.0329 H   0  0  0  0  0  0  0  0  0  0  0  0
  153.0567  144.9099  159.2237 H   0  0  0  0  0  0  0  0  0  0  0  0
  151.4494  144.7730  157.3779 H   0  0  0  0  0  0  0  0  0  0  0  0
  150.9359  145.9802  158.5510 H   0  0  0  0  0  0  0  0  0  0  0  0
  150.1423  144.4084  158.5025 H   0  0  0  0  0  0  0  0  0  0  0  0
  151.8503  140.3535  156.1959 H   0  0  0  0  0  0  0  0  0  0  0  0
  152.4348  139.0192  157.1476 H   0  0  0  0  0  0  0  0  0  0  0  0
  150.2217  138.4111  157.2626 H   0  0  0  0  0  0  0  0  0  0  0  0
  150.1189  139.6007  158.5399 H   0  0  0  0  0  0  0  0  0  0  0  0
  148.5778  140.5877  157.1502 H   0  0  0  0  0  0  0  0  0  0  0  0
  148.3212  141.4367  152.7145 H   0  0  0  0  0  0  0  0  0  0  0  0
  147.4355  139.9859  153.3345 H   0  0  0  0  0  0  0  0  0  0  0  0
  146.8138  142.9453  153.8318 H   0  0  0  0  0  0  0  0  0  0  0  0
  145.6850  141.5437  153.9920 H   0  0  0  0  0  0  0  0  0  0  0  0
  146.7268  140.8721  156.0864 H   0  0  0  0  0  0  0  0  0  0  0  0
  147.4462  142.5311  156.1185 H   0  0  0  0  0  0  0  0  0  0  0  0
  153.7376  139.6681  159.4008 H   0  0  0  0  0  0  0  0  0  0  0  0
  1  2  1  0  0  0  0
  1 18  1  0  0  0  0
  1 19  1  0  0  0  0
  1 20  1  0  0  0  0
  2  3  1  0  0  0  0
  2  4  1  0  0  0  0
  2 21  1  0  0  0  0
  3 22  1  0  0  0  0
  3 23  1  0  0  0  0
  3 24  1  0  0  0  0
  4 17  1  0  0  0  0
  4  5  2  0  0  0  0
  5  6  1  0  0  0  0
  6  7  1  0  0  0  0
  6 16  2  0  0  0  0
  7  8  1  0  0  0  0
  7 25  1  0  0  0  0
  7 26  1  0  0  0  0
  8  9  1  0  0  0  0
  8 27  1  0  0  0  0
  8 28  1  0  0  0  0
  9 10  1  0  0  0  0
  9 29  1  0  0  0  0
 10 11  2  0  0  0  0
 10 12  1  0  0  0  0
 12 15  1  0  0  0  0
 12 13  1  0  0  0  0
 13 14  1  0  0  0  0
 13 30  1  0  0  0  0
 13 31  1  0  0  0  0
 14 15  1  0  0  0  0
 14 32  1  0  0  0  0
 14 33  1  0  0  0  0
 15 34  1  0  0  0  0
 15 35  1  0  0  0  0
 16 17  1  0  0  0  0
 16 36  1  0  0  0  0
M  END
> <s_m_source_file>
AV-unprocessed.smi

> <i_m_source_file_index>
931

> <i_lp_mmshare_version>
43012

> <i_f3d_flags>
0

> <s_epik_input>
W0NIM11bQ0hdKFtDSDNdKWMxbmMoW2NIXXMxKVtDSDJdW0NIMl1bTkhdQyg9TylOMltDSDJdW0NIMl1bQ0gyXTI=

> <s_epik_cmdline>
J2VwaWtfcHl0aG9uJywgJy1waCcsICc3LjAnLCAnLXRuJywgJzgnLCAnLW1hJywgJzIwMCcsICctbWV0YWxfYmluZGluZycsICctaW1hZScsICc8aW5maWxlLm1hZT4nLCAnLW9tYWUnLCAnPG91dGZpbGUubWFlPic=

> <r_epik_Ionization_Penalty>
0.00159927

> <r_epik_Ionization_Penalty_Charging>
0

> <r_epik_Ionization_Penalty_Neutral>
0.00159927

> <r_epik_State_Penalty>
0.00102964

> <r_epik_Charging_Adjusted_Penalty>
0.00102964

> <i_epik_Tot_Q>
0

> <i_epik_Tot_abs_Q>
0

> <r_epik_Metal_State_Penalty>
-0

> <b_epik_Metal_Only>
0

> <s_lp_Force_Field>
OPLS_2005

> <r_lp_Energy>
8.94744

> <b_lp_Chiralities_Consistent>
1

> <s_lp_Variant>
AV-unprocessed.smi:931-1

> <Gold.Version>
5.8.1

> <Gold.Id.Protein>
6NUR|6NUR_protein|mol2

> <Gold.PLP.Fitness>
40.9217

> <Gold.PLP.PLP>
-39.1563

> <Gold.PLP.part.hbond>
-1.0000

> <Gold.PLP.part.metal>
0.0000

> <Gold.PLP.part.buried>
-3.7818

> <Gold.PLP.part.nonpolar>
-34.0728

> <Gold.PLP.part.repulsive>
0.1141

> <Gold.PLP.ligand.clash>
0.0000

> <Gold.PLP.ligand.torsion>
0.8223

> <Gold.PLP.Chemscore.Hbond>
1.0000

> <Gold.PLP.Chemscore.CHOScore>
0.0000

> <Gold.PLP.Chemscore.Metal>
0.0000

> <Gold.Chemscore.Hbonds>
donor molecule, donor type, donor heavy atom, donor atom, acceptor molecule, acceptor atom, score
      P1  H  7989  7998       L1    11  1.00

> <Gold.PLP.Chemscore.Internal.Correction>
0.4100

> <Gold.Rescore>
     Score         DG    S(hbond)    S(metal)    S(lipo)     H(rot)  DE(clash)    DE(int)     intcor
     14.89     -17.21       0.98        0.00     104.72       1.48       0.07       2.25       ----

> <Gold.Chemscore.Fitness>
14.8865

> <Gold.Chemscore.DG>
-17.2065

> <Gold.Chemscore.ZeroCoef>
-5.4800

> <Gold.Chemscore.Hbond>
0.9804

> <Gold.Chemscore.Metal>
0.0000

> <Gold.Chemscore.Lipo>
104.7248

> <Gold.Chemscore.Internal_Hbond>
0.0000

> <Gold.Chemscore.DEClash>
0.0657

> <Gold.Chemscore.DEInternal>
2.2544

> <Gold.Chemscore.Rot>
1.4847

> <Gold.Chemscore.Internal.Correction>
   9.000000E+99

> <Gold.Chemscore.Hbonds>
donor molecule, donor type, donor heavy atom, donor atom, acceptor molecule, acceptor atom, score
      P1  H  7989  7998       L1    11  1.00

> <Gold.Chemscore.Hbond.Weighted>
-3.2746

> <Gold.Chemscore.Metal.Weighted>
-0.0000

> <Gold.Chemscore.Lipo.Weighted>
-12.2528

> <Gold.Chemscore.Internal_Hbond.Weighted>
0.0000

> <Gold.Chemscore.DEClash.Weighted>
0.0657

> <Gold.Chemscore.DEInternal.Weighted>
2.2544

> <Gold.Chemscore.Rot.Weighted>
3.8009

> <Gold.Chemscore.Internal.Correction.Weighted>
   9.000000E+99

> <Gold.Protein.RotatedTorsions>
[ 6907 6896 6895 6894 ] final  -47.46 input  -60.11 | X-H torsion
[ 7974 7965 7964 7962 ] final   41.36 input  175.53 | X-H torsion
[ 8008 7997 7996 7995 ] final  -18.74 input   59.86 | X-H torsion
[ 10167 10162 10161 10158 ] final   72.27 input  -65.29 | X-H torsion
[ 10718 10713 10712 10709 ] final  -75.44 input   66.30 | X-H torsion
[ 10763 10752 10751 10750 ] final  159.90 input  -60.55 | X-H torsion
[ 11005 11000 10999 10996 ] final   32.09 input  -57.11 | X-H torsion

> <Gold.Protein.ActiveResidues>
 VAL166  LYS551  ARG553  GLY616  TRP617  ASP618  TYR619  PRO620  LYS621  CYS622 
 ASP623  PHE694  ASN695  SER759  ASP760  ASP761  ALA762  ILE779  LEU786  VAL792 
 PHE793  MET794  SER795  GLU796  ALA797  LYS798  CYS799  TRP800  GLU811  SER814 

> <Gold.Protein.RotatedAtoms>
  150.9006  134.8417  159.7356 H   0  0  0  0  0  0  0  0  0  0  0  0  # atno 6907 bound_to 6896
  152.4890  134.4509  159.9584 H   0  0  0  0  0  0  0  0  0  0  0  0  # atno 6908 bound_to 6896
  151.4561  133.3565  159.2837 H   0  0  0  0  0  0  0  0  0  0  0  0  # atno 6909 bound_to 6896
  146.0830  139.5425  142.9525 H   0  0  0  0  0  0  0  0  0  0  0  0  # atno 7974 bound_to 7965
  154.4885  140.2108  155.9601 H   0  0  0  0  0  0  0  0  0  0  0  0  # atno 8008 bound_to 7997
  156.1271  140.3203  155.8262 H   0  0  0  0  0  0  0  0  0  0  0  0  # atno 8009 bound_to 7997
  155.4363  140.0507  157.3005 H   0  0  0  0  0  0  0  0  0  0  0  0  # atno 8010 bound_to 7997
  140.0371  144.5419  150.7462 H   0  0  0  0  0  0  0  0  0  0  0  0  # atno 10167 bound_to 10162
  156.0208  130.4441  150.3043 H   0  0  0  0  0  0  0  0  0  0  0  0  # atno 10718 bound_to 10713
  154.2391  135.2775  155.2861 H   0  0  0  0  0  0  0  0  0  0  0  0  # atno 10763 bound_to 10752
  154.5560  135.5661  153.6968 H   0  0  0  0  0  0  0  0  0  0  0  0  # atno 10764 bound_to 10752
  153.0003  135.6286  154.2534 H   0  0  0  0  0  0  0  0  0  0  0  0  # atno 10765 bound_to 10752
  140.2771  134.3016  155.7811 H   0  0  0  0  0  0  0  0  0  0  0  0  # atno 11005 bound_to 11000
  145.6182  141.0327  143.1929 LP  0  0  0  0  0  0  0  0  0  0  0  0  # atno 17320 bound_to 7965
  144.7306  139.7737  143.7348 LP  0  0  0  0  0  0  0  0  0  0  0  0  # atno 17321 bound_to 7965
  140.7276  143.2653  151.4064 LP  0  0  0  0  0  0  0  0  0  0  0  0  # atno 17342 bound_to 10162
  139.6038  144.1240  152.2227 LP  0  0  0  0  0  0  0  0  0  0  0  0  # atno 17343 bound_to 10162
  157.1145  131.0230  151.3034 LP  0  0  0  0  0  0  0  0  0  0  0  0  # atno 17370 bound_to 10713
  157.4678  130.7691  149.7295 LP  0  0  0  0  0  0  0  0  0  0  0  0  # atno 17371 bound_to 10713
  141.2168  133.7502  156.9423 LP  0  0  0  0  0  0  0  0  0  0  0  0  # atno 17394 bound_to 11000
  140.1319  134.9350  157.2348 LP  0  0  0  0  0  0  0  0  0  0  0  0  # atno 17395 bound_to 11000

$$$$
