#       Name:                AV-unprocessed.smi:148
#       Creating user name   scv26
#       Creation time:       Thu Mar 26 18:38:16 2020


#       File generated by GOLD software.
#

@<TRIPOS>MOLECULE
AV-unprocessed.smi:148
    73    77     1
SMALL
NO_CHARGES


@<TRIPOS>ATOM
      1 ****        -2.7036  -2.0362   5.0410 O.3            1 S1                 0.0000
      2 ****        -2.8482  -2.9441   3.9690 C.3            1 S1                 0.0000
      3 ****        -2.4155  -2.2889   2.6361 C.3            1 S1                 0.0000
      4 ****        -0.8845  -2.0507   2.6232 C.3            1 S1                 0.0000
      5 ****        -0.4108  -1.4146   1.4069 N.pl3          1 S1                 0.0000
      6 ****         0.3497  -1.9920   0.4143 C.2            1 S1                 0.0000
      7 ****         0.6414  -1.2101  -0.5893 N.2            1 S1                 0.0000
      8 ****         0.0419  -0.0024  -0.2568 C.ar           1 S1                 0.0000
      9 ****        -0.0352   1.2663  -0.8871 C.ar           1 S1                 0.0000
     10 ****         0.5474   1.5041  -2.0819 N.3            1 S1                 0.0000
     11 ****        -0.4690   1.7951  -3.0949 C.3            1 S1                 0.0000
     12 ****         0.1233   1.7499  -4.5065 C.3            1 S1                 0.0000
     13 ****         1.3084   2.7122  -4.6019 C.3            1 S1                 0.0000
     14 ****         2.3429   2.3790  -3.5184 C.3            1 S1                 0.0000
     15 ****         1.7373   2.3798  -2.0882 C.3            1 S1                 0.0000
     16 ****         2.8238   1.9793  -1.0284 C.3            1 S1                 0.0000
     17 ****         4.2238   2.5785  -1.2592 C.3            1 S1                 0.0000
     18 ****         4.9816   2.4256   0.0645 C.3            1 S1                 0.0000
     19 ****         3.9162   2.1976   1.1427 C.3            1 S1                 0.0000
     20 ****         2.5618   2.3673   0.4460 C.3            1 S1                 0.0000
     21 ****         2.1588   3.7197   0.5580 O.3            1 S1                 0.0000
     22 ****        -0.7241   2.2538  -0.2559 N.ar           1 S1                 0.0000
     23 ****        -1.2936   2.0136   0.9293 C.ar           1 S1                 0.0000
     24 ****        -1.3012   0.8821   1.6386 N.ar           1 S1                 0.0000
     25 ****        -0.6161  -0.1091   0.9989 C.ar           1 S1                 0.0000
     26 ****        -2.9137  -3.0543   1.3777 C.3            1 S1                 0.0000
     27 ****        -4.4325  -3.1405   1.2138 C.3            1 S1                 0.0000
     28 ****        -4.6989  -4.6265   0.9754 C.3            1 S1                 0.0000
     29 ****        -3.4654  -5.1214   0.4806 O.3            1 S1                 0.0000
     30 ****        -2.4470  -4.5108   1.2549 C.3            1 S1                 0.0000
     31 ****        -1.7979  -1.7711   5.0920 H              1 S1                 0.0000
     32 ****        -2.2563  -3.8342   4.1822 H              1 S1                 0.0000
     33 ****        -3.8910  -3.2567   3.9451 H              1 S1                 0.0000
     34 ****        -2.8941  -1.3092   2.5931 H              1 S1                 0.0000
     35 ****        -0.5883  -1.4216   3.4631 H              1 S1                 0.0000
     36 ****        -0.3552  -2.9965   2.7454 H              1 S1                 0.0000
     37 ****         0.6760  -3.0211   0.4529 H              1 S1                 0.0000
     38 ****        -1.2862   1.0752  -3.0220 H              1 S1                 0.0000
     39 ****        -0.8965   2.7818  -2.9096 H              1 S1                 0.0000
     40 ****         0.4484   0.7349  -4.7387 H              1 S1                 0.0000
     41 ****        -0.6373   2.0131  -5.2419 H              1 S1                 0.0000
     42 ****         1.7644   2.6501  -5.5902 H              1 S1                 0.0000
     43 ****         0.9624   3.7392  -4.4790 H              1 S1                 0.0000
     44 ****         2.7803   1.4019  -3.7289 H              1 S1                 0.0000
     45 ****         3.1520   3.1042  -3.5982 H              1 S1                 0.0000
     46 ****         1.3991   3.3960  -1.8834 H              1 S1                 0.0000
     47 ****         2.9434   0.8949  -1.0697 H              1 S1                 0.0000
     48 ****         4.7549   2.0972  -2.0812 H              1 S1                 0.0000
     49 ****         4.1377   3.6394  -1.4994 H              1 S1                 0.0000
     50 ****         5.6601   1.5726   0.0239 H              1 S1                 0.0000
     51 ****         5.5819   3.3114   0.2735 H              1 S1                 0.0000
     52 ****         4.0026   1.1768   1.5175 H              1 S1                 0.0000
     53 ****         4.0379   2.8616   1.9995 H              1 S1                 0.0000
     54 ****         1.8174   1.7410   0.9328 H              1 S1                 0.0000
     55 ****         2.8242   4.2640   0.1658 H              1 S1                 0.0000
     56 ****        -1.8161   2.8479   1.3736 H              1 S1                 0.0000
     57 ****        -2.5610  -2.5315   0.4882 H              1 S1                 0.0000
     58 ****        -4.9966  -2.7618   2.0656 H              1 S1                 0.0000
     59 ****        -4.7413  -2.5591   0.3439 H              1 S1                 0.0000
     60 ****        -4.9400  -5.1300   1.9129 H              1 S1                 0.0000
     61 ****        -5.5148  -4.8011   0.2739 H              1 S1                 0.0000
     62 ****        -1.4730  -4.5994   0.7734 H              1 S1                 0.0000
     63 ****        -2.3940  -5.0133   2.2205 H              1 S1                 0.0000
     64 ****        -2.9736  -2.4789   5.8961 LP             1 S1                 0.0000
     65 ****        -3.2808  -1.2348   4.8839 LP             1 S1                 0.0000
     66 ****         1.1729  -1.4296  -1.4074 LP             1 S1                 0.0000
     67 ****         0.9928   0.6481  -2.3444 LP             1 S1                 0.0000
     68 ****         2.0509   3.9609   1.5225 LP             1 S1                 0.0000
     69 ****         1.2897   3.8533   0.0818 LP             1 S1                 0.0000
     70 ****        -0.8046   3.1572  -0.6770 LP             1 S1                 0.0000
     71 ****        -1.7514   0.7751   2.5251 LP             1 S1                 0.0000
     72 ****        -3.3581  -4.8796  -0.4837 LP             1 S1                 0.0000
     73 ****        -3.4268  -6.1156   0.5813 LP             1 S1                 0.0000
@<TRIPOS>BOND
    1    1    2 1     
    2    1   31 1     
    3    2    3 1     
    4    2   32 1     
    5    2   33 1     
    6    3    4 1     
    7    3   26 1     
    8    3   34 1     
    9    4    5 1     
   10    4   35 1     
   11    4   36 1     
   12    5   25 1     
   13    5    6 1     
   14    6    7 2     
   15    6   37 1     
   16    7    8 1     
   17    8   25 ar    
   18    8    9 ar    
   19    9   10 1     
   20    9   22 ar    
   21   10   15 1     
   22   10   11 1     
   23   11   12 1     
   24   11   38 1     
   25   11   39 1     
   26   12   13 1     
   27   12   40 1     
   28   12   41 1     
   29   13   14 1     
   30   13   42 1     
   31   13   43 1     
   32   14   15 1     
   33   14   44 1     
   34   14   45 1     
   35   15   16 1     
   36   15   46 1     
   37   16   20 1     
   38   16   17 1     
   39   16   47 1     
   40   17   18 1     
   41   17   48 1     
   42   17   49 1     
   43   18   19 1     
   44   18   50 1     
   45   18   51 1     
   46   19   20 1     
   47   19   52 1     
   48   19   53 1     
   49   20   21 1     
   50   20   54 1     
   51   21   55 1     
   52   22   23 ar    
   53   23   24 ar    
   54   23   56 1     
   55   24   25 ar    
   56   26   30 1     
   57   26   27 1     
   58   26   57 1     
   59   27   28 1     
   60   27   58 1     
   61   27   59 1     
   62   28   29 1     
   63   28   60 1     
   64   28   61 1     
   65   29   30 1     
   66   30   62 1     
   67   30   63 1     
   68    1   64 1     
   69    1   65 1     
   70    7   66 1     
   71   10   67 1     
   72   21   68 1     
   73   21   69 1     
   74   22   70 1     
   75   24   71 1     
   76   29   72 1     
   77   29   73 1     
@<TRIPOS>SUBSTRUCTURE
      1 S1             1
@<TRIPOS>SET
LONE_PAIRS      STATIC     ATOMS    <user>   **** ""
10 64 65 66 67 68 69 70 71 72 73
DONOR_HYDROGENS      STATIC     ATOMS    <user>   **** ""
2 31 55
ATOM$BLUE        STATIC     ATOMS    COLORGROUP SYSTEM
10 64 65 66 67 68 69 70 71 72 73
ATOM$RED        STATIC     ATOMS    COLORGROUP SYSTEM
2 31 55
