AV-unprocessed.smi:277|AV-procd|sdf|2086|dock5
  -GOLD-   2262021363D 1   1.00000     0.00000
 Structure written by MMmdl.
 54 58  0  0  0  0  0  0  0  0  1 V2000
  152.7432  139.6281  157.3328 O   0  0  0  0  0  0  0  0  0  0  0  0
  151.8069  140.3870  157.0877 C   0  0  0  0  0  0  0  0  0  0  0  0
  150.8978  140.2145  155.8852 C   0  0  0  0  0  0  0  0  0  0  0  0
  149.9760  141.3321  156.0526 N   0  0  0  0  0  0  0  0  0  0  0  0
  148.8311  141.4539  155.3309 C   0  0  0  0  0  0  0  0  0  0  0  0
  148.7849  140.8812  154.0990 N   0  0  0  0  0  0  0  0  0  0  0  0
  147.6827  140.9652  153.3498 C   0  0  0  0  0  0  0  0  0  0  0  0
  146.5271  141.5661  153.6334 N   0  0  0  0  0  0  0  0  0  0  0  0
  146.5626  142.1496  154.8651 C   0  0  0  0  0  0  0  0  0  0  0  0
  147.6644  142.1494  155.7694 C   0  0  0  0  0  0  0  0  0  0  0  0
  147.3234  142.8643  156.9131 N   0  0  0  0  0  0  0  0  0  0  0  0
  146.0975  143.2557  156.6997 C   0  0  0  0  0  0  0  0  0  0  0  0
  145.5536  142.8518  155.5021 N   0  0  0  0  0  0  0  0  0  0  0  0
  144.2154  143.1423  155.0054 C   0  0  0  0  0  0  0  0  0  0  0  0
  143.9002  144.6501  154.7523 C   0  0  0  0  0  0  0  0  0  0  0  0
  144.8602  145.1504  153.6352 C   0  0  0  0  0  0  0  0  0  0  0  0
  144.4096  144.8074  152.3396 O   0  0  0  0  0  0  0  0  0  0  0  0
  142.4148  144.8700  154.3610 C   0  0  0  0  0  0  0  0  0  0  0  0
  142.0320  146.3597  154.3006 C   0  0  0  0  0  0  0  0  0  0  0  0
  142.2922  146.9760  155.5557 O   0  0  0  0  0  0  0  0  0  0  0  0
  143.6658  146.9365  155.9218 C   0  0  0  0  0  0  0  0  0  0  0  0
  144.1392  145.4751  156.0439 C   0  0  0  0  0  0  0  0  0  0  0  0
  150.2445  142.0910  157.2668 C   0  0  0  0  0  0  0  0  0  0  0  0
  151.4277  141.4465  157.8123 N   0  0  0  0  0  0  0  0  0  0  0  0
  152.0082  141.9045  159.0720 C   0  0  0  0  0  0  0  0  0  0  0  0
  152.6651  143.2726  159.0378 C   0  0  0  0  0  0  0  0  0  0  0  0
  151.8615  144.5360  159.2493 C   0  0  0  0  0  0  0  0  0  0  0  0
  152.4022  144.2077  157.8802 C   0  0  0  0  0  0  0  0  0  0  0  0
  151.4594  140.2973  154.9539 H   0  0  0  0  0  0  0  0  0  0  0  0
  150.3887  139.2504  155.9280 H   0  0  0  0  0  0  0  0  0  0  0  0
  147.7332  140.4795  152.3864 H   0  0  0  0  0  0  0  0  0  0  0  0
  145.5493  143.8462  157.4192 H   0  0  0  0  0  0  0  0  0  0  0  0
  144.0728  142.5747  154.0848 H   0  0  0  0  0  0  0  0  0  0  0  0
  143.5089  142.7222  155.7221 H   0  0  0  0  0  0  0  0  0  0  0  0
  144.9878  146.2308  153.6560 H   0  0  0  0  0  0  0  0  0  0  0  0
  145.8549  144.7250  153.7730 H   0  0  0  0  0  0  0  0  0  0  0  0
  143.6549  144.2448  152.4221 H   0  0  0  0  0  0  0  0  0  0  0  0
  142.1873  144.3856  153.4113 H   0  0  0  0  0  0  0  0  0  0  0  0
  141.7609  144.4049  155.0976 H   0  0  0  0  0  0  0  0  0  0  0  0
  142.5612  146.8817  153.5030 H   0  0  0  0  0  0  0  0  0  0  0  0
  140.9685  146.4578  154.0825 H   0  0  0  0  0  0  0  0  0  0  0  0
  144.2643  147.5007  155.2066 H   0  0  0  0  0  0  0  0  0  0  0  0
  143.7803  147.4407  156.8815 H   0  0  0  0  0  0  0  0  0  0  0  0
  143.5922  145.0365  156.8770 H   0  0  0  0  0  0  0  0  0  0  0  0
  145.1929  145.4468  156.3241 H   0  0  0  0  0  0  0  0  0  0  0  0
  150.4480  143.1381  157.0393 H   0  0  0  0  0  0  0  0  0  0  0  0
  149.4155  142.0228  157.9726 H   0  0  0  0  0  0  0  0  0  0  0  0
  151.2242  141.9316  159.8298 H   0  0  0  0  0  0  0  0  0  0  0  0
  152.7325  141.1639  159.4134 H   0  0  0  0  0  0  0  0  0  0  0  0
  153.6865  143.2779  159.4142 H   0  0  0  0  0  0  0  0  0  0  0  0
  150.7895  144.4336  159.4056 H   0  0  0  0  0  0  0  0  0  0  0  0
  152.3367  145.3450  159.8002 H   0  0  0  0  0  0  0  0  0  0  0  0
  153.2378  144.8005  157.5137 H   0  0  0  0  0  0  0  0  0  0  0  0
  151.6884  143.8894  157.1227 H   0  0  0  0  0  0  0  0  0  0  0  0
  1  2  2  0  0  0  0
  2 24  1  0  0  0  0
  2  3  1  0  0  0  0
  3  4  1  0  0  0  0
  3 29  1  0  0  0  0
  3 30  1  0  0  0  0
  4  5  1  0  0  0  0
  4 23  1  0  0  0  0
  5 10  1  0  0  0  0
  5  6  2  0  0  0  0
  6  7  1  0  0  0  0
  7  8  2  0  0  0  0
  7 31  1  0  0  0  0
  8  9  1  0  0  0  0
  9 13  1  0  0  0  0
  9 10  2  0  0  0  0
 10 11  1  0  0  0  0
 11 12  2  0  0  0  0
 12 13  1  0  0  0  0
 12 32  1  0  0  0  0
 13 14  1  0  0  0  0
 14 15  1  0  0  0  0
 14 33  1  0  0  0  0
 14 34  1  0  0  0  0
 15 22  1  0  0  0  0
 15 16  1  0  0  0  0
 15 18  1  0  0  0  0
 16 17  1  0  0  0  0
 16 35  1  0  0  0  0
 16 36  1  0  0  0  0
 17 37  1  0  0  0  0
 18 19  1  0  0  0  0
 18 38  1  0  0  0  0
 18 39  1  0  0  0  0
 19 20  1  0  0  0  0
 19 40  1  0  0  0  0
 19 41  1  0  0  0  0
 20 21  1  0  0  0  0
 21 22  1  0  0  0  0
 21 42  1  0  0  0  0
 21 43  1  0  0  0  0
 22 44  1  0  0  0  0
 22 45  1  0  0  0  0
 23 24  1  0  0  0  0
 23 46  1  0  0  0  0
 23 47  1  0  0  0  0
 24 25  1  0  0  0  0
 25 26  1  0  0  0  0
 25 48  1  0  0  0  0
 25 49  1  0  0  0  0
 26 28  1  0  0  0  0
 26 27  1  0  0  0  0
 26 50  1  0  0  0  0
 27 28  1  0  0  0  0
 27 51  1  0  0  0  0
 27 52  1  0  0  0  0
 28 53  1  0  0  0  0
 28 54  1  0  0  0  0
M  END
> <s_m_source_file>
AV-unprocessed.smi

> <i_m_source_file_index>
277

> <i_lp_mmshare_version>
43012

> <i_f3d_flags>
0

> <s_epik_input>
W0NIMl0xW0NIMl1bQ0hdMVtDSDJdTjJbQ0gyXU4oW0NIMl1DMj1PKWMobltjSF1uMyljKGMzNCluW2NIXW40W0NIMl1DNShbQ0gyXVtPSF0pW0NIMl1bQ0gyXU9bQ0gyXVtDSDJdNQ==

> <s_epik_cmdline>
J2VwaWtfcHl0aG9uJywgJy1waCcsICc3LjAnLCAnLXRuJywgJzgnLCAnLW1hJywgJzIwMCcsICctbWV0YWxfYmluZGluZycsICctaW1hZScsICc8aW5maWxlLm1hZT4nLCAnLW9tYWUnLCAnPG91dGZpbGUubWFlPic=

> <r_lp_tautomer_probability>
1

> <r_epik_Ionization_Penalty>
0.00033977

> <r_epik_Ionization_Penalty_Charging>
0

> <r_epik_Ionization_Penalty_Neutral>
0.00033977

> <r_epik_State_Penalty>
-0

> <r_epik_Charging_Adjusted_Penalty>
0

> <i_epik_Tot_Q>
0

> <i_epik_Tot_abs_Q>
0

> <r_epik_Metal_State_Penalty>
-0

> <b_epik_Metal_Only>
0

> <s_epik_Chemistry_Notes>
This compound contains an acetal/aminal-like group ( X-CH(R)-Y where X, Y are N, S, or O) that may be acid/base labile, releasing an aldehyde.

> <s_lp_Force_Field>
OPLS_2005

> <r_lp_Energy>
42.4244

> <b_lp_Chiralities_Consistent>
1

> <s_lp_Variant>
AV-unprocessed.smi:277-1

> <Gold.Version>
5.8.1

> <Gold.Id.Protein>
6NUR|6NUR_protein|mol2

> <Gold.PLP.Fitness>
56.1710

> <Gold.PLP.PLP>
-48.5044

> <Gold.PLP.part.hbond>
-3.0000

> <Gold.PLP.part.metal>
0.0000

> <Gold.PLP.part.buried>
-6.0547

> <Gold.PLP.part.nonpolar>
-42.2242

> <Gold.PLP.part.repulsive>
1.4557

> <Gold.PLP.ligand.clash>
0.0000

> <Gold.PLP.ligand.torsion>
1.0131

> <Gold.PLP.Chemscore.Hbond>
2.0000

> <Gold.PLP.Chemscore.CHOScore>
1.0000

> <Gold.PLP.Chemscore.Metal>
0.0000

> <Gold.Chemscore.Hbonds>
donor molecule, donor type, donor heavy atom, donor atom, acceptor molecule, acceptor atom, score
      L1  H    17    37       P1 10174  1.00
      P1  H  7997  8008       L1     1  1.00
      L1  C     7    31       P1  7957  0.96

> <Gold.PLP.Chemscore.Internal.Correction>
0.6928

> <Gold.Rescore>
     Score         DG    S(hbond)    S(metal)    S(lipo)     H(rot)  DE(clash)    DE(int)     intcor
     12.05     -15.95       1.94        0.00      95.32       2.80       1.35       2.55       ----

> <Gold.Chemscore.Fitness>
12.0462

> <Gold.Chemscore.DG>
-15.9528

> <Gold.Chemscore.ZeroCoef>
-5.4800

> <Gold.Chemscore.Hbond>
1.9440

> <Gold.Chemscore.Metal>
0.0000

> <Gold.Chemscore.Lipo>
95.3226

> <Gold.Chemscore.Internal_Hbond>
0.0000

> <Gold.Chemscore.DEClash>
1.3528

> <Gold.Chemscore.DEInternal>
2.5538

> <Gold.Chemscore.Rot>
2.8019

> <Gold.Chemscore.Internal.Correction>
   9.000000E+99

> <Gold.Chemscore.Hbonds>
donor molecule, donor type, donor heavy atom, donor atom, acceptor molecule, acceptor atom, score
      L1  H    17    37       P1 10174  0.89
      P1  H  7997  8008       L1     1  0.98

> <Gold.Chemscore.Hbond.Weighted>
-6.4930

> <Gold.Chemscore.Metal.Weighted>
-0.0000

> <Gold.Chemscore.Lipo.Weighted>
-11.1527

> <Gold.Chemscore.Internal_Hbond.Weighted>
0.0000

> <Gold.Chemscore.DEClash.Weighted>
1.3528

> <Gold.Chemscore.DEInternal.Weighted>
2.5538

> <Gold.Chemscore.Rot.Weighted>
7.1729

> <Gold.Chemscore.Internal.Correction.Weighted>
   9.000000E+99

> <Gold.Protein.RotatedTorsions>
[ 6907 6896 6895 6894 ] final -110.33 input  -60.11 | X-H torsion
[ 7974 7965 7964 7962 ] final   44.68 input  175.53 | X-H torsion
[ 8008 7997 7996 7995 ] final  -72.34 input   59.86 | X-H torsion
[ 10167 10162 10161 10158 ] final  -16.22 input  -65.29 | X-H torsion
[ 10718 10713 10712 10709 ] final  111.21 input   66.30 | X-H torsion
[ 10763 10752 10751 10750 ] final   35.10 input  -60.55 | X-H torsion
[ 11005 11000 10999 10996 ] final -134.50 input  -57.11 | X-H torsion

> <Gold.Protein.ActiveResidues>
 VAL166  LYS551  ARG553  GLY616  TRP617  ASP618  TYR619  PRO620  LYS621  CYS622 
 ASP623  PHE694  ASN695  SER759  ASP760  ASP761  ALA762  ILE779  LEU786  VAL792 
 PHE793  MET794  SER795  GLU796  ALA797  LYS798  CYS799  TRP800  GLU811  SER814 

> <Gold.Protein.RotatedAtoms>
  150.7618  133.9398  159.3452 H   0  0  0  0  0  0  0  0  0  0  0  0  # atno 6907 bound_to 6896
  151.7305  135.0874  160.0308 H   0  0  0  0  0  0  0  0  0  0  0  0  # atno 6908 bound_to 6896
  152.3593  133.6239  159.6039 H   0  0  0  0  0  0  0  0  0  0  0  0  # atno 6909 bound_to 6896
  146.0547  139.5048  142.9696 H   0  0  0  0  0  0  0  0  0  0  0  0  # atno 7974 bound_to 7965
  154.5159  140.0799  156.8079 H   0  0  0  0  0  0  0  0  0  0  0  0  # atno 8008 bound_to 7997
  155.3682  140.3421  155.4224 H   0  0  0  0  0  0  0  0  0  0  0  0  # atno 8009 bound_to 7997
  156.1627  140.1593  156.8572 H   0  0  0  0  0  0  0  0  0  0  0  0  # atno 8010 bound_to 7997
  140.7230  143.5138  150.9717 H   0  0  0  0  0  0  0  0  0  0  0  0  # atno 10167 bound_to 10162
  157.6456  131.0946  150.6716 H   0  0  0  0  0  0  0  0  0  0  0  0  # atno 10718 bound_to 10713
  153.0134  135.6342  154.1774 H   0  0  0  0  0  0  0  0  0  0  0  0  # atno 10763 bound_to 10752
  154.1514  135.2829  155.3136 H   0  0  0  0  0  0  0  0  0  0  0  0  # atno 10764 bound_to 10752
  154.6050  135.5575  153.7474 H   0  0  0  0  0  0  0  0  0  0  0  0  # atno 10765 bound_to 10752
  140.8985  134.1721  157.4478 H   0  0  0  0  0  0  0  0  0  0  0  0  # atno 11005 bound_to 11000
  145.6664  141.0228  143.1681 LP  0  0  0  0  0  0  0  0  0  0  0  0  # atno 17320 bound_to 7965
  144.7141  139.8259  143.7404 LP  0  0  0  0  0  0  0  0  0  0  0  0  # atno 17321 bound_to 7965
  139.8853  143.7021  152.3152 LP  0  0  0  0  0  0  0  0  0  0  0  0  # atno 17342 bound_to 10162
  139.7317  144.7580  151.0791 LP  0  0  0  0  0  0  0  0  0  0  0  0  # atno 17343 bound_to 10162
  156.7033  130.4630  149.5567 LP  0  0  0  0  0  0  0  0  0  0  0  0  # atno 17370 bound_to 10713
  156.1780  130.6480  151.0917 LP  0  0  0  0  0  0  0  0  0  0  0  0  # atno 17371 bound_to 10713
  139.8739  134.9888  156.5428 LP  0  0  0  0  0  0  0  0  0  0  0  0  # atno 17394 bound_to 11000
  140.8260  133.8316  155.8939 LP  0  0  0  0  0  0  0  0  0  0  0  0  # atno 17395 bound_to 11000

$$$$
