#       Name:                AV-unprocessed.smi:406
#       Creating user name   scv26
#       Creation time:       Thu Mar 26 22:44:35 2020


#       File generated by GOLD software.
#

@<TRIPOS>MOLECULE
AV-unprocessed.smi:406
    40    41     1
SMALL
NO_CHARGES


@<TRIPOS>ATOM
      1 ****        11.8168   2.5278   6.8431 C.3            1 S1                 0.0000
      2 ****        10.4004   2.0283   7.1464 C.3            1 S1                 0.0000
      3 ****         9.7770   1.2748   5.9603 C.3            1 S1                 0.0000
      4 ****         8.4439   0.7778   6.2795 N.am           1 S1                 0.0000
      5 ****         7.3186   1.5091   6.2446 C.2            1 S1                 0.0000
      6 ****         7.2932   2.7009   5.9377 O.2            1 S1                 0.0000
      7 ****         6.0213   0.7857   6.6089 C.3            1 S1                 0.0000
      8 ****         5.3133   0.3406   5.3628 C.2            1 S1                 0.0000
      9 ****         5.4671  -0.8571   4.7068 C.2            1 S1                 0.0000
     10 ****         4.4455  -0.9678   3.2981 S.3            1 S1                 0.0000
     11 ****         3.8589   0.6512   3.6441 C.2            1 S1                 0.0000
     12 ****         2.8596   1.2773   2.8534 N.am           1 S1                 0.0000
     13 ****         2.5637   2.5851   2.7098 C.2            1 S1                 0.0000
     14 ****         3.2152   3.4302   3.3221 O.2            1 S1                 0.0000
     15 ****         1.4388   2.9691   1.7939 C.3            1 S1                 0.0000
     16 ****         1.7977   3.7896   0.5733 C.3            1 S1                 0.0000
     17 ****         1.0438   4.4320   1.7087 C.3            1 S1                 0.0000
     18 ****         4.3756   1.1826   4.7571 N.2            1 S1                 0.0000
     19 ****        12.2347   3.0550   7.7010 H              1 S1                 0.0000
     20 ****        11.8189   3.2152   5.9968 H              1 S1                 0.0000
     21 ****        12.4837   1.6988   6.6047 H              1 S1                 0.0000
     22 ****        10.4287   1.3776   8.0211 H              1 S1                 0.0000
     23 ****         9.7738   2.8795   7.4157 H              1 S1                 0.0000
     24 ****         9.7366   1.9149   5.0773 H              1 S1                 0.0000
     25 ****        10.4000   0.4202   5.6952 H              1 S1                 0.0000
     26 ****         8.3706  -0.1942   6.5428 H              1 S1                 0.0000
     27 ****         6.2387  -0.0663   7.2546 H              1 S1                 0.0000
     28 ****         5.3925   1.4596   7.1922 H              1 S1                 0.0000
     29 ****         6.1167  -1.6795   4.9674 H              1 S1                 0.0000
     30 ****         2.2629   0.6426   2.3432 H              1 S1                 0.0000
     31 ****         0.6193   2.2596   1.6970 H              1 S1                 0.0000
     32 ****         2.8382   4.0789   0.4359 H              1 S1                 0.0000
     33 ****         1.2564   3.5670  -0.3439 H              1 S1                 0.0000
     34 ****        -0.0119   4.6492   1.5600 H              1 S1                 0.0000
     35 ****         1.5801   5.1630   2.3110 H              1 S1                 0.0000
     36 ****         8.1410   3.1735   5.6973 LP             1 S1                 0.0000
     37 ****         6.4247   3.1965   5.9286 LP             1 S1                 0.0000
     38 ****         3.9616   3.1465   3.9241 LP             1 S1                 0.0000
     39 ****         2.9983   4.4008   3.2178 LP             1 S1                 0.0000
     40 ****         4.1202   2.0805   5.1156 LP             1 S1                 0.0000
@<TRIPOS>BOND
    1    1    2 1     
    2    1   19 1     
    3    1   20 1     
    4    1   21 1     
    5    2    3 1     
    6    2   22 1     
    7    2   23 1     
    8    3    4 1     
    9    3   24 1     
   10    3   25 1     
   11    4    5 am    
   12    4   26 1     
   13    5    6 2     
   14    5    7 1     
   15    7    8 1     
   16    7   27 1     
   17    7   28 1     
   18    8   18 1     
   19    8    9 2     
   20    9   10 1     
   21    9   29 1     
   22   10   11 1     
   23   11   12 1     
   24   11   18 2     
   25   12   13 am    
   26   12   30 1     
   27   13   14 2     
   28   13   15 1     
   29   15   17 1     
   30   15   16 1     
   31   15   31 1     
   32   16   17 1     
   33   16   32 1     
   34   16   33 1     
   35   17   34 1     
   36   17   35 1     
   37    6   36 1     
   38    6   37 1     
   39   14   38 1     
   40   14   39 1     
   41   18   40 1     
@<TRIPOS>SUBSTRUCTURE
      1 S1             1
@<TRIPOS>SET
LONE_PAIRS      STATIC     ATOMS    <user>   **** ""
5 36 37 38 39 40
DONOR_HYDROGENS      STATIC     ATOMS    <user>   **** ""
2 26 30
ATOM$BLUE        STATIC     ATOMS    COLORGROUP SYSTEM
5 36 37 38 39 40
ATOM$RED        STATIC     ATOMS    COLORGROUP SYSTEM
2 26 30
