AV-unprocessed.smi:1116|AV-procd|sdf|4808|dock7
  -GOLD-   22720 3363D 1   1.00000     0.00000
 Structure written by MMmdl.
 36 37  0  0  0  0  0  0  0  0  1 V2000
  153.7328  141.6907  161.3254 C   0  0  0  0  0  0  0  0  0  0  0  0
  152.9475  142.6476  160.4952 C   0  0  0  0  0  0  0  0  0  0  0  0
  152.7020  142.4698  159.1945 N   0  0  0  0  0  0  0  0  0  0  0  0
  151.9409  143.5055  158.6433 C   0  0  0  0  0  0  0  0  0  0  0  0
  151.5700  143.4718  157.1915 C   0  0  0  0  0  0  0  0  0  0  0  0
  150.9905  142.1114  156.7684 C   0  0  0  0  0  0  0  0  0  0  0  0
  149.8395  142.2687  155.8862 N   0  0  0  0  0  0  0  0  0  0  0  0
  149.4867  141.4107  154.9168 C   0  0  0  0  0  0  0  0  0  0  0  0
  150.1199  140.3860  154.6617 O   0  0  0  0  0  0  0  0  0  0  0  0
  148.2197  141.7659  154.1314 C   0  0  0  0  0  0  0  0  0  0  0  0
  146.9243  141.2699  154.8042 C   0  0  0  0  0  0  0  0  0  0  0  0
  146.5387  139.8363  154.3904 C   0  0  1  0  0  0  0  0  0  0  0  0
  146.1289  139.7394  152.9995 N   0  0  0  0  0  0  0  0  0  0  0  0
  146.9034  138.9040  152.2940 C   0  0  0  0  0  0  0  0  0  0  0  0
  146.7760  138.6355  151.1019 O   0  0  0  0  0  0  0  0  0  0  0  0
  147.8385  138.4149  153.1155 N   0  0  0  0  0  0  0  0  0  0  0  0
  147.7294  138.8944  154.3533 C   0  0  0  0  0  0  0  0  0  0  0  0
  148.4530  138.6369  155.3132 O   0  0  0  0  0  0  0  0  0  0  0  0
  151.6123  144.4787  159.5541 C   0  0  0  0  0  0  0  0  0  0  0  0
  152.2482  144.1284  161.1378 S   0  0  0  0  0  0  0  0  0  0  0  0
  154.0849  140.8547  160.7203 H   0  0  0  0  0  0  0  0  0  0  0  0
  153.1115  141.3013  162.1321 H   0  0  0  0  0  0  0  0  0  0  0  0
  154.5959  142.1956  161.7595 H   0  0  0  0  0  0  0  0  0  0  0  0
  150.8485  144.2619  156.9789 H   0  0  0  0  0  0  0  0  0  0  0  0
  152.4457  143.6969  156.5817 H   0  0  0  0  0  0  0  0  0  0  0  0
  151.7476  141.5374  156.2335 H   0  0  0  0  0  0  0  0  0  0  0  0
  150.7148  141.5210  157.6440 H   0  0  0  0  0  0  0  0  0  0  0  0
  149.2647  143.0866  156.0283 H   0  0  0  0  0  0  0  0  0  0  0  0
  148.1843  142.8496  154.0154 H   0  0  0  0  0  0  0  0  0  0  0  0
  148.2982  141.3458  153.1277 H   0  0  0  0  0  0  0  0  0  0  0  0
  147.0320  141.3280  155.8891 H   0  0  0  0  0  0  0  0  0  0  0  0
  146.1016  141.9382  154.5440 H   0  0  0  0  0  0  0  0  0  0  0  0
  145.7614  139.4302  155.0389 H   0  0  0  0  0  0  0  0  0  0  0  0
  145.3393  140.2427  152.6219 H   0  0  0  0  0  0  0  0  0  0  0  0
  148.5527  137.7623  152.8277 H   0  0  0  0  0  0  0  0  0  0  0  0
  151.0368  145.3776  159.3900 H   0  0  0  0  0  0  0  0  0  0  0  0
  1  2  1  0  0  0  0
  1 21  1  0  0  0  0
  1 22  1  0  0  0  0
  1 23  1  0  0  0  0
  2 20  1  0  0  0  0
  2  3  2  0  0  0  0
  3  4  1  0  0  0  0
  4  5  1  0  0  0  0
  4 19  2  0  0  0  0
  5  6  1  0  0  0  0
  5 24  1  0  0  0  0
  5 25  1  0  0  0  0
  6  7  1  0  0  0  0
  6 26  1  0  0  0  0
  6 27  1  0  0  0  0
  7  8  1  0  0  0  0
  7 28  1  0  0  0  0
  8  9  2  0  0  0  0
  8 10  1  0  0  0  0
 10 11  1  0  0  0  0
 10 29  1  0  0  0  0
 10 30  1  0  0  0  0
 11 12  1  0  0  0  0
 11 31  1  0  0  0  0
 11 32  1  0  0  0  0
 12 17  1  0  0  0  0
 12 13  1  0  0  0  0
 12 33  1  0  0  0  0
 13 14  1  0  0  0  0
 13 34  1  0  0  0  0
 14 15  2  0  0  0  0
 14 16  1  0  0  0  0
 16 17  1  0  0  0  0
 16 35  1  0  0  0  0
 17 18  2  0  0  0  0
 19 20  1  0  0  0  0
 19 36  1  0  0  0  0
M  END
> <s_m_source_file>
AV-unprocessed.smi

> <i_m_source_file_index>
1116

> <i_lp_mmshare_version>
43012

> <i_f3d_flags>
0

> <s_epik_input>
W0NIM11jMW5jKFtjSF1zMSlbQ0gyXVtDSDJdW05IXUMoPU8pW0NIMl1bQ0gyXVtDQEBIXTJbTkhdQyg9TylbTkhdQzI9Tw==

> <s_epik_cmdline>
J2VwaWtfcHl0aG9uJywgJy1waCcsICc3LjAnLCAnLXRuJywgJzgnLCAnLW1hJywgJzIwMCcsICctbWV0YWxfYmluZGluZycsICctaW1hZScsICc8aW5maWxlLm1hZT4nLCAnLW9tYWUnLCAnPG91dGZpbGUubWFlPic=

> <r_lp_tautomer_probability>
1

> <r_epik_Ionization_Penalty>
0.00889251

> <r_epik_Ionization_Penalty_Charging>
0

> <r_epik_Ionization_Penalty_Neutral>
0.00889251

> <r_epik_State_Penalty>
0.00583796

> <r_epik_Charging_Adjusted_Penalty>
0.00583796

> <i_epik_Tot_Q>
0

> <i_epik_Tot_abs_Q>
0

> <r_epik_Metal_State_Penalty>
0.408839

> <b_epik_Metal_Only>
0

> <s_lp_Force_Field>
OPLS_2005

> <r_lp_Energy>
13.0769

> <b_lp_Chiralities_Consistent>
1

> <s_lp_Variant>
AV-unprocessed.smi:1116-2

> <Gold.Version>
5.8.1

> <Gold.Id.Protein>
6NUR|6NUR_protein|mol2

> <Gold.PLP.Fitness>
57.2701

> <Gold.PLP.PLP>
-44.8941

> <Gold.PLP.part.hbond>
-5.8659

> <Gold.PLP.part.metal>
0.0000

> <Gold.PLP.part.buried>
-6.6849

> <Gold.PLP.part.nonpolar>
-33.8831

> <Gold.PLP.part.repulsive>
0.9772

> <Gold.PLP.ligand.clash>
0.0000

> <Gold.PLP.ligand.torsion>
1.2236

> <Gold.PLP.Chemscore.Hbond>
4.9200

> <Gold.PLP.Chemscore.CHOScore>
0.0000

> <Gold.PLP.Chemscore.Metal>
0.0000

> <Gold.Chemscore.Hbonds>
donor molecule, donor type, donor heavy atom, donor atom, acceptor molecule, acceptor atom, score
      L1  H     7    28       P1  8028  1.00
      L1  H    13    34       P1 10175  1.00
      L1  H    16    35       P1  7948  0.94
      P1  H  7954  7966       L1    15  1.00
      P1  H  7989  7998       L1     9  0.98

> <Gold.PLP.Chemscore.Internal.Correction>
0.0632

> <Gold.Rescore>
     Score         DG    S(hbond)    S(metal)    S(lipo)     H(rot)  DE(clash)    DE(int)     intcor
     19.51     -23.44       4.32        0.00      92.04       2.83       0.20       3.73       ----

> <Gold.Chemscore.Fitness>
19.5074

> <Gold.Chemscore.DG>
-23.4350

> <Gold.Chemscore.ZeroCoef>
-5.4800

> <Gold.Chemscore.Hbond>
4.3224

> <Gold.Chemscore.Metal>
0.0000

> <Gold.Chemscore.Lipo>
92.0430

> <Gold.Chemscore.Internal_Hbond>
0.0000

> <Gold.Chemscore.DEClash>
0.1964

> <Gold.Chemscore.DEInternal>
3.7312

> <Gold.Chemscore.Rot>
2.8324

> <Gold.Chemscore.Internal.Correction>
   9.000000E+99

> <Gold.Chemscore.Hbonds>
donor molecule, donor type, donor heavy atom, donor atom, acceptor molecule, acceptor atom, score
      L1  H     7    28       P1  8028  0.94
      L1  H    13    34       P1 10175  0.85
      L1  H    16    35       P1  7948  0.91
      P1  H  7954  7966       L1    15  0.91
      P1  H  7989  7998       L1     9  0.60

> <Gold.Chemscore.Hbond.Weighted>
-14.4370

> <Gold.Chemscore.Metal.Weighted>
-0.0000

> <Gold.Chemscore.Lipo.Weighted>
-10.7690

> <Gold.Chemscore.Internal_Hbond.Weighted>
0.0000

> <Gold.Chemscore.DEClash.Weighted>
0.1964

> <Gold.Chemscore.DEInternal.Weighted>
3.7312

> <Gold.Chemscore.Rot.Weighted>
7.2510

> <Gold.Chemscore.Internal.Correction.Weighted>
   9.000000E+99

> <Gold.Protein.RotatedTorsions>
[ 6907 6896 6895 6894 ] final  -65.95 input  -60.11 | X-H torsion
[ 7974 7965 7964 7962 ] final  -34.44 input  175.53 | X-H torsion
[ 8008 7997 7996 7995 ] final   34.04 input   59.86 | X-H torsion
[ 10167 10162 10161 10158 ] final  128.09 input  -65.29 | X-H torsion
[ 10718 10713 10712 10709 ] final    6.51 input   66.30 | X-H torsion
[ 10763 10752 10751 10750 ] final -137.58 input  -60.55 | X-H torsion
[ 11005 11000 10999 10996 ] final  -89.47 input  -57.11 | X-H torsion

> <Gold.Protein.ActiveResidues>
 VAL166  LYS551  ARG553  GLY616  TRP617  ASP618  TYR619  PRO620  LYS621  CYS622 
 ASP623  PHE694  ASN695  SER759  ASP760  ASP761  ALA762  ILE779  LEU786  VAL792 
 PHE793  MET794  SER795  GLU796  ALA797  LYS798  CYS799  TRP800  GLU811  SER814 

> <Gold.Protein.RotatedAtoms>
  150.7493  134.6088  159.6075 H   0  0  0  0  0  0  0  0  0  0  0  0  # atno 6907 bound_to 6896
  152.3428  134.7108  160.0268 H   0  0  0  0  0  0  0  0  0  0  0  0  # atno 6908 bound_to 6896
  151.7554  133.3294  159.3439 H   0  0  0  0  0  0  0  0  0  0  0  0  # atno 6909 bound_to 6896
  146.0829  140.6039  142.8900 H   0  0  0  0  0  0  0  0  0  0  0  0  # atno 7974 bound_to 7965
  155.1483  140.3272  155.4437 H   0  0  0  0  0  0  0  0  0  0  0  0  # atno 8008 bound_to 7997
  156.2582  140.1981  156.6546 H   0  0  0  0  0  0  0  0  0  0  0  0  # atno 8009 bound_to 7997
  154.6492  140.0560  156.9922 H   0  0  0  0  0  0  0  0  0  0  0  0  # atno 8010 bound_to 7997
  139.5545  144.6838  151.4225 H   0  0  0  0  0  0  0  0  0  0  0  0  # atno 10167 bound_to 10162
  156.9232  130.5798  149.5648 H   0  0  0  0  0  0  0  0  0  0  0  0  # atno 10718 bound_to 10713
  154.8658  135.3638  154.5246 H   0  0  0  0  0  0  0  0  0  0  0  0  # atno 10763 bound_to 10752
  153.5874  135.7016  153.5442 H   0  0  0  0  0  0  0  0  0  0  0  0  # atno 10764 bound_to 10752
  153.3403  135.4100  155.1528 H   0  0  0  0  0  0  0  0  0  0  0  0  # atno 10765 bound_to 10752
  141.1584  133.7632  156.9600 H   0  0  0  0  0  0  0  0  0  0  0  0  # atno 11005 bound_to 11000
  144.7305  140.4658  143.6941 LP  0  0  0  0  0  0  0  0  0  0  0  0  # atno 17320 bound_to 7965
  145.6184  139.1521  143.3036 LP  0  0  0  0  0  0  0  0  0  0  0  0  # atno 17321 bound_to 7965
  140.6814  143.8072  150.7127 LP  0  0  0  0  0  0  0  0  0  0  0  0  # atno 17342 bound_to 10162
  140.1527  143.4344  152.2120 LP  0  0  0  0  0  0  0  0  0  0  0  0  # atno 17343 bound_to 10162
  156.0481  130.5555  150.8927 LP  0  0  0  0  0  0  0  0  0  0  0  0  # atno 17370 bound_to 10713
  157.5894  131.0945  150.9143 LP  0  0  0  0  0  0  0  0  0  0  0  0  # atno 17371 bound_to 10713
  140.1200  134.9423  157.2189 LP  0  0  0  0  0  0  0  0  0  0  0  0  # atno 17394 bound_to 11000
  140.3085  134.3051  155.7272 LP  0  0  0  0  0  0  0  0  0  0  0  0  # atno 17395 bound_to 11000

$$$$
