AV-unprocessed.smi:246|AV-procd|sdf|1883|dock8
  -GOLD-   2262020533D 1   1.00000     0.00000
 Structure written by MMmdl.
 57 60  0  0  0  0  0  0  0  0  1 V2000
  146.5680  128.9454  151.6364 C   0  0  0  0  0  0  0  0  0  0  0  0
  146.7669  130.2406  152.4361 C   0  0  0  0  0  0  0  0  0  0  0  0
  147.8305  130.1288  153.3715 O   0  0  0  0  0  0  0  0  0  0  0  0
  148.6891  131.2591  153.4210 C   0  0  0  0  0  0  0  0  0  0  0  0
  149.6683  131.0830  154.5848 C   0  0  0  0  0  0  0  0  0  0  0  0
  150.6045  132.1500  154.5661 O   0  0  0  0  0  0  0  0  0  0  0  0
  150.2148  133.2605  155.3603 C   0  0  2  0  0  0  0  0  0  0  0  0
  149.2638  134.1762  154.5876 C   0  0  0  0  0  0  0  0  0  0  0  0
  149.4405  135.5382  155.2646 C   0  0  0  0  0  0  0  0  0  0  0  0
  150.7858  135.5110  155.8216 N   0  0  0  0  0  0  0  0  0  0  0  0
  151.4683  136.6291  156.1771 C   0  0  0  0  0  0  0  0  0  0  0  0
  152.8099  136.5261  156.3695 N   0  0  0  0  0  0  0  0  0  0  0  0
  153.5318  137.5970  156.7099 C   0  0  0  0  0  0  0  0  0  0  0  0
  153.1213  138.8498  156.9073 N   0  0  0  0  0  0  0  0  0  0  0  0
  151.7754  138.9642  156.7217 C   0  0  0  0  0  0  0  0  0  0  0  0
  150.8801  137.9167  156.3579 C   0  0  0  0  0  0  0  0  0  0  0  0
  149.5878  138.4238  156.2643 N   0  0  0  0  0  0  0  0  0  0  0  0
  149.7120  139.6888  156.5570 C   0  0  0  0  0  0  0  0  0  0  0  0
  150.9921  140.0982  156.8484 N   0  0  0  0  0  0  0  0  0  0  0  0
  151.4128  141.4441  157.2061 C   0  0  0  0  0  0  0  0  0  0  0  0
  151.8347  141.5910  158.6849 C   0  0  1  0  0  0  0  0  0  0  0  0
  152.9542  140.7616  158.9309 O   0  0  0  0  0  0  0  0  0  0  0  0
  152.1879  143.0358  159.0932 C   0  0  2  0  0  0  0  0  0  0  0  0
  152.2091  143.2867  160.6022 C   0  0  0  0  0  0  0  0  0  0  0  0
  151.9141  144.7748  160.7238 C   0  0  0  0  0  0  0  0  0  0  0  0
  151.3953  145.1668  159.3381 C   0  0  0  0  0  0  0  0  0  0  0  0
  151.1747  143.9341  158.6694 O   0  0  0  0  0  0  0  0  0  0  0  0
  151.3832  134.1918  155.7034 C   0  0  0  0  0  0  0  0  0  0  0  0
  149.7163  132.9312  156.2740 H   0  0  0  0  0  0  0  0  0  0  0  0
  145.6833  129.0166  151.0034 H   0  0  0  0  0  0  0  0  0  0  0  0
  146.4322  128.0924  152.3015 H   0  0  0  0  0  0  0  0  0  0  0  0
  147.4168  128.7339  150.9869 H   0  0  0  0  0  0  0  0  0  0  0  0
  146.9183  131.0933  151.7725 H   0  0  0  0  0  0  0  0  0  0  0  0
  145.8574  130.4470  153.0007 H   0  0  0  0  0  0  0  0  0  0  0  0
  149.2344  131.3946  152.4870 H   0  0  0  0  0  0  0  0  0  0  0  0
  148.0915  132.1566  153.5864 H   0  0  0  0  0  0  0  0  0  0  0  0
  149.1216  131.1056  155.5286 H   0  0  0  0  0  0  0  0  0  0  0  0
  150.1628  130.1131  154.5165 H   0  0  0  0  0  0  0  0  0  0  0  0
  149.5853  134.2457  153.5473 H   0  0  0  0  0  0  0  0  0  0  0  0
  148.2312  133.8265  154.5970 H   0  0  0  0  0  0  0  0  0  0  0  0
  149.3032  136.3538  154.5534 H   0  0  0  0  0  0  0  0  0  0  0  0
  148.7238  135.6637  156.0771 H   0  0  0  0  0  0  0  0  0  0  0  0
  154.5899  137.4259  156.8421 H   0  0  0  0  0  0  0  0  0  0  0  0
  148.8674  140.3624  156.5732 H   0  0  0  0  0  0  0  0  0  0  0  0
  152.2384  141.7304  156.5538 H   0  0  0  0  0  0  0  0  0  0  0  0
  150.5962  142.1305  156.9789 H   0  0  0  0  0  0  0  0  0  0  0  0
  151.0172  141.2319  159.3113 H   0  0  0  0  0  0  0  0  0  0  0  0
  153.3688  141.0480  159.7303 H   0  0  0  0  0  0  0  0  0  0  0  0
  153.1410  143.3436  158.6585 H   0  0  0  0  0  0  0  0  0  0  0  0
  151.4172  142.7180  161.0916 H   0  0  0  0  0  0  0  0  0  0  0  0
  153.1576  143.0051  161.0607 H   0  0  0  0  0  0  0  0  0  0  0  0
  151.1696  144.9598  161.4991 H   0  0  0  0  0  0  0  0  0  0  0  0
  152.8099  145.3444  160.9747 H   0  0  0  0  0  0  0  0  0  0  0  0
  150.4816  145.7598  159.3831 H   0  0  0  0  0  0  0  0  0  0  0  0
  152.1473  145.7397  158.7932 H   0  0  0  0  0  0  0  0  0  0  0  0
  151.8783  133.8851  156.6249 H   0  0  0  0  0  0  0  0  0  0  0  0
  152.1181  134.2051  154.8974 H   0  0  0  0  0  0  0  0  0  0  0  0
  1  2  1  0  0  0  0
  1 30  1  0  0  0  0
  1 31  1  0  0  0  0
  1 32  1  0  0  0  0
  2  3  1  0  0  0  0
  2 33  1  0  0  0  0
  2 34  1  0  0  0  0
  3  4  1  0  0  0  0
  4  5  1  0  0  0  0
  4 35  1  0  0  0  0
  4 36  1  0  0  0  0
  5  6  1  0  0  0  0
  5 37  1  0  0  0  0
  5 38  1  0  0  0  0
  6  7  1  0  0  0  0
  7 29  1  0  0  0  0
  7 28  1  0  0  0  0
  7  8  1  0  0  0  0
  8  9  1  0  0  0  0
  8 39  1  0  0  0  0
  8 40  1  0  0  0  0
  9 10  1  0  0  0  0
  9 41  1  0  0  0  0
  9 42  1  0  0  0  0
 10 11  1  0  0  0  0
 10 28  1  0  0  0  0
 11 16  1  0  0  0  0
 11 12  2  0  0  0  0
 12 13  1  0  0  0  0
 13 14  2  0  0  0  0
 13 43  1  0  0  0  0
 14 15  1  0  0  0  0
 15 19  1  0  0  0  0
 15 16  2  0  0  0  0
 16 17  1  0  0  0  0
 17 18  2  0  0  0  0
 18 19  1  0  0  0  0
 18 44  1  0  0  0  0
 19 20  1  0  0  0  0
 20 21  1  0  0  0  0
 20 45  1  0  0  0  0
 20 46  1  0  0  0  0
 21 22  1  0  0  0  0
 21 23  1  0  0  0  0
 21 47  1  0  0  0  0
 22 48  1  0  0  0  0
 23 27  1  0  0  0  0
 23 24  1  0  0  0  0
 23 49  1  0  0  0  0
 24 25  1  0  0  0  0
 24 50  1  0  0  0  0
 24 51  1  0  0  0  0
 25 26  1  0  0  0  0
 25 52  1  0  0  0  0
 25 53  1  0  0  0  0
 26 27  1  0  0  0  0
 26 54  1  0  0  0  0
 26 55  1  0  0  0  0
 28 56  1  0  0  0  0
 28 57  1  0  0  0  0
M  END
> <s_m_source_file>
AV-unprocessed.smi

> <i_m_source_file_index>
246

> <i_lp_mmshare_version>
43012

> <i_f3d_flags>
0

> <s_epik_input>
W0NIM11bQ0gyXU9bQ0gyXVtDSDJdT1tDQEhdMVtDSDJdW0NIMl1OKFtDSDJdMSljKG5bY0hdbjIpYyhjMjMpbltjSF1uM1tDSDJdW0NASF0oW09IXSlbQ0BASF00W0NIMl1bQ0gyXVtDSDJdTzQ=

> <s_epik_cmdline>
J2VwaWtfcHl0aG9uJywgJy1waCcsICc3LjAnLCAnLXRuJywgJzgnLCAnLW1hJywgJzIwMCcsICctbWV0YWxfYmluZGluZycsICctaW1hZScsICc8aW5maWxlLm1hZT4nLCAnLW9tYWUnLCAnPG91dGZpbGUubWFlPic=

> <r_lp_tautomer_probability>
1

> <r_epik_Ionization_Penalty>
0.0024631

> <r_epik_Ionization_Penalty_Charging>
0

> <r_epik_Ionization_Penalty_Neutral>
0.0024631

> <r_epik_State_Penalty>
0.00162428

> <r_epik_Charging_Adjusted_Penalty>
0.00162428

> <i_epik_Tot_Q>
0

> <i_epik_Tot_abs_Q>
0

> <r_epik_Metal_State_Penalty>
-0

> <b_epik_Metal_Only>
0

> <s_lp_Force_Field>
OPLS_2005

> <r_lp_Energy>
48.0332

> <b_lp_Chiralities_Consistent>
1

> <s_lp_Variant>
AV-unprocessed.smi:246-4

> <Gold.Version>
5.8.1

> <Gold.Id.Protein>
6NUR|6NUR_protein|mol2

> <Gold.PLP.Fitness>
48.1622

> <Gold.PLP.PLP>
-44.0336

> <Gold.PLP.part.hbond>
-2.0000

> <Gold.PLP.part.metal>
0.0000

> <Gold.PLP.part.buried>
-8.0403

> <Gold.PLP.part.nonpolar>
-33.8984

> <Gold.PLP.part.repulsive>
0.2122

> <Gold.PLP.ligand.clash>
0.0000

> <Gold.PLP.ligand.torsion>
1.0895

> <Gold.PLP.Chemscore.Hbond>
1.9760

> <Gold.PLP.Chemscore.CHOScore>
0.0000

> <Gold.PLP.Chemscore.Metal>
0.0000

> <Gold.Chemscore.Hbonds>
donor molecule, donor type, donor heavy atom, donor atom, acceptor molecule, acceptor atom, score
      P1  H  7997  8009       L1    14  1.00
      P1  H 10752 10764       L1    12  0.72

> <Gold.PLP.Chemscore.Internal.Correction>
0.3795

> <Gold.Rescore>
     Score         DG    S(hbond)    S(metal)    S(lipo)     H(rot)  DE(clash)    DE(int)     intcor
     12.94     -15.05       1.25        0.00     113.96       3.10       0.04       2.07       ----

> <Gold.Chemscore.Fitness>
12.9388

> <Gold.Chemscore.DG>
-15.0545

> <Gold.Chemscore.ZeroCoef>
-5.4800

> <Gold.Chemscore.Hbond>
1.2527

> <Gold.Chemscore.Metal>
0.0000

> <Gold.Chemscore.Lipo>
113.9591

> <Gold.Chemscore.Internal_Hbond>
0.0000

> <Gold.Chemscore.DEClash>
0.0431

> <Gold.Chemscore.DEInternal>
2.0726

> <Gold.Chemscore.Rot>
3.1026

> <Gold.Chemscore.Internal.Correction>
   9.000000E+99

> <Gold.Chemscore.Hbonds>
donor molecule, donor type, donor heavy atom, donor atom, acceptor molecule, acceptor atom, score
      P1  H  7997  8009       L1    14  0.79
      P1  H 10752 10764       L1    12  0.12

> <Gold.Chemscore.Hbond.Weighted>
-4.1839

> <Gold.Chemscore.Metal.Weighted>
-0.0000

> <Gold.Chemscore.Lipo.Weighted>
-13.3332

> <Gold.Chemscore.Internal_Hbond.Weighted>
0.0000

> <Gold.Chemscore.DEClash.Weighted>
0.0431

> <Gold.Chemscore.DEInternal.Weighted>
2.0726

> <Gold.Chemscore.Rot.Weighted>
7.9426

> <Gold.Chemscore.Internal.Correction.Weighted>
   9.000000E+99

> <Gold.Protein.RotatedTorsions>
[ 6907 6896 6895 6894 ] final   48.63 input  -60.11 | X-H torsion
[ 7974 7965 7964 7962 ] final  -83.18 input  175.53 | X-H torsion
[ 8008 7997 7996 7995 ] final  162.63 input   59.86 | X-H torsion
[ 10167 10162 10161 10158 ] final  168.04 input  -65.29 | X-H torsion
[ 10718 10713 10712 10709 ] final  -41.17 input   66.30 | X-H torsion
[ 10763 10752 10751 10750 ] final  -34.07 input  -60.55 | X-H torsion
[ 11005 11000 10999 10996 ] final   -9.10 input  -57.11 | X-H torsion

> <Gold.Protein.ActiveResidues>
 VAL166  LYS551  ARG553  GLY616  TRP617  ASP618  TYR619  PRO620  LYS621  CYS622 
 ASP623  PHE694  ASN695  SER759  ASP760  ASP761  ALA762  ILE779  LEU786  VAL792 
 PHE793  MET794  SER795  GLU796  ALA797  LYS798  CYS799  TRP800  GLU811  SER814 

> <Gold.Protein.RotatedAtoms>
  152.2817  134.7821  160.0395 H   0  0  0  0  0  0  0  0  0  0  0  0  # atno 6907 bound_to 6896
  151.8398  133.3416  159.3647 H   0  0  0  0  0  0  0  0  0  0  0  0  # atno 6908 bound_to 6896
  150.7192  134.5331  159.5754 H   0  0  0  0  0  0  0  0  0  0  0  0  # atno 6909 bound_to 6896
  145.5234  140.9529  143.1643 H   0  0  0  0  0  0  0  0  0  0  0  0  # atno 7974 bound_to 7965
  156.2017  140.1745  156.7885 H   0  0  0  0  0  0  0  0  0  0  0  0  # atno 8008 bound_to 7997
  154.5601  140.0701  156.8836 H   0  0  0  0  0  0  0  0  0  0  0  0  # atno 8009 bound_to 7997
  155.2864  140.3352  155.4257 H   0  0  0  0  0  0  0  0  0  0  0  0  # atno 8010 bound_to 7997
  139.4959  144.3857  151.9573 H   0  0  0  0  0  0  0  0  0  0  0  0  # atno 10167 bound_to 10162
  156.2733  130.4209  149.8414 H   0  0  0  0  0  0  0  0  0  0  0  0  # atno 10718 bound_to 10713
  153.8407  135.6858  153.4803 H   0  0  0  0  0  0  0  0  0  0  0  0  # atno 10763 bound_to 10752
  153.1455  135.4639  154.9558 H   0  0  0  0  0  0  0  0  0  0  0  0  # atno 10764 bound_to 10752
  154.7846  135.3280  154.7861 H   0  0  0  0  0  0  0  0  0  0  0  0  # atno 10765 bound_to 10752
  140.7305  133.8753  155.8889 H   0  0  0  0  0  0  0  0  0  0  0  0  # atno 11005 bound_to 11000
  144.7664  139.6836  143.7213 LP  0  0  0  0  0  0  0  0  0  0  0  0  # atno 17320 bound_to 7965
  146.2091  139.5435  142.9693 LP  0  0  0  0  0  0  0  0  0  0  0  0  # atno 17321 bound_to 7965
  140.3294  144.3334  150.5991 LP  0  0  0  0  0  0  0  0  0  0  0  0  # atno 17342 bound_to 10162
  140.5657  143.2186  151.7687 LP  0  0  0  0  0  0  0  0  0  0  0  0  # atno 17343 bound_to 10162
  156.5888  130.8497  151.3402 LP  0  0  0  0  0  0  0  0  0  0  0  0  # atno 17370 bound_to 10713
  157.7291  130.9666  150.1772 LP  0  0  0  0  0  0  0  0  0  0  0  0  # atno 17371 bound_to 10713
  140.9925  134.1260  157.4395 LP  0  0  0  0  0  0  0  0  0  0  0  0  # atno 17394 bound_to 11000
  139.8827  135.0044  156.6250 LP  0  0  0  0  0  0  0  0  0  0  0  0  # atno 17395 bound_to 11000

$$$$
