#       Name:                AV-unprocessed.smi:1056
#       Creating user name   scv26
#       Creation time:       Fri Mar 27 03:14:09 2020


#       File generated by GOLD software.
#

@<TRIPOS>MOLECULE
AV-unprocessed.smi:1056
    50    52     1
SMALL
NO_CHARGES


@<TRIPOS>ATOM
      1 ****        -3.9528   3.7539  -3.1980 C.3            1 S1                 0.0000
      2 ****        -3.2698   2.9544  -2.1013 C.ar           1 S1                 0.0000
      3 ****        -2.9453   3.6082  -0.8914 C.ar           1 S1                 0.0000
      4 ****        -2.3220   2.8495   0.0922 C.ar           1 S1                 0.0000
      5 ****        -1.8830   3.1963   1.3714 N.pl3          1 S1                 1.0000
      6 ****        -1.3298   2.1076   1.9732 C.2            1 S1                 0.0000
      7 ****        -1.4054   1.0694   1.0963 N.pl3          1 S1                 0.0000
      8 ****        -0.9561  -0.3226   1.2506 C.3            1 S1                 0.0000
      9 ****         0.5495  -0.5027   0.9710 C.3            1 S1                 0.0000
     10 ****         0.8453  -0.0721  -0.3439 O.3            1 S1                 0.0000
     11 ****         0.9860  -1.9737   1.1180 C.3            1 S1                 0.0000
     12 ****         2.4582  -2.1424   1.0177 N.4            1 S1                 1.0000
     13 ****         3.1796  -1.8171   2.2713 C.3            1 S1                 0.0000
     14 ****         4.6981  -1.8084   2.0226 C.3            1 S1                 0.0000
     15 ****         5.1490  -2.9322   1.2050 N.am           1 S1                 0.0000
     16 ****         4.3550  -3.7307   0.4731 C.2            1 S1                 0.0000
     17 ****         4.8083  -4.6526  -0.2001 O.2            1 S1                 0.0000
     18 ****         2.8395  -3.4779   0.4913 C.3            1 S1                 0.0000
     19 ****        -2.0194   1.4860  -0.0923 C.ar           1 S1                 0.0000
     20 ****        -2.3312   0.8277  -1.2803 C.ar           1 S1                 0.0000
     21 ****        -2.9669   1.5816  -2.2927 C.ar           1 S1                 0.0000
     22 ****        -3.3207   0.8885  -3.5975 C.3            1 S1                 0.0000
     23 ****        -4.0799   4.7980  -2.9110 H              1 S1                 0.0000
     24 ****        -4.9403   3.3440  -3.4112 H              1 S1                 0.0000
     25 ****        -3.3625   3.7312  -4.1143 H              1 S1                 0.0000
     26 ****        -3.1730   4.6530  -0.7383 H              1 S1                 0.0000
     27 ****        -0.9077   2.0757   2.9674 H              1 S1                 0.0000
     28 ****        -1.1783  -0.6165   2.2771 H              1 S1                 0.0000
     29 ****        -1.5584  -0.9710   0.6142 H              1 S1                 0.0000
     30 ****         1.1057   0.1289   1.6634 H              1 S1                 0.0000
     31 ****         0.3234  -0.5721  -0.9531 H              1 S1                 0.0000
     32 ****         0.6435  -2.3842   2.0692 H              1 S1                 0.0000
     33 ****         0.4927  -2.5605   0.3409 H              1 S1                 0.0000
     34 ****         2.8713  -0.8494   2.6655 H              1 S1                 0.0000
     35 ****         2.9292  -2.5608   3.0298 H              1 S1                 0.0000
     36 ****         4.9787  -0.8911   1.5039 H              1 S1                 0.0000
     37 ****         5.2379  -1.8104   2.9700 H              1 S1                 0.0000
     38 ****         6.1427  -3.1146   1.1885 H              1 S1                 0.0000
     39 ****         2.3761  -4.2545   1.1016 H              1 S1                 0.0000
     40 ****         2.4510  -3.5911  -0.5217 H              1 S1                 0.0000
     41 ****        -2.1003  -0.2157  -1.4327 H              1 S1                 0.0000
     42 ****        -3.0601  -0.1700  -3.5716 H              1 S1                 0.0000
     43 ****        -2.7835   1.3442  -4.4294 H              1 S1                 0.0000
     44 ****        -4.3906   0.9620  -3.7936 H              1 S1                 0.0000
     45 ****         2.7722  -1.4762   0.3261 H              1 S1                 0.0000
     46 ****        -1.9561   4.1083   1.8045 H              1 S1                 0.0000
     47 ****         1.8161  -0.2176  -0.5348 LP             1 S1                 0.0000
     48 ****         0.6296   0.9001  -0.4357 LP             1 S1                 0.0000
     49 ****         5.7933  -4.8249  -0.2131 LP             1 S1                 0.0000
     50 ****         4.1924  -5.2308  -0.7353 LP             1 S1                 0.0000
@<TRIPOS>BOND
    1    1    2 1     
    2    1   23 1     
    3    1   24 1     
    4    1   25 1     
    5    2   21 ar    
    6    2    3 ar    
    7    3    4 ar    
    8    3   26 1     
    9    4   19 ar    
   10    4    5 1     
   11    5    6 2     
   12    5   46 1     
   13    6    7 1     
   14    6   27 1     
   15    7    8 1     
   16    7   19 1     
   17    8    9 1     
   18    8   28 1     
   19    8   29 1     
   20    9   10 1     
   21    9   11 1     
   22    9   30 1     
   23   10   31 1     
   24   11   12 1     
   25   11   32 1     
   26   11   33 1     
   27   12   18 1     
   28   12   13 1     
   29   12   45 1     
   30   13   14 1     
   31   13   34 1     
   32   13   35 1     
   33   14   15 1     
   34   14   36 1     
   35   14   37 1     
   36   15   16 am    
   37   15   38 1     
   38   16   17 2     
   39   16   18 1     
   40   18   39 1     
   41   18   40 1     
   42   19   20 ar    
   43   20   21 ar    
   44   20   41 1     
   45   21   22 1     
   46   22   42 1     
   47   22   43 1     
   48   22   44 1     
   49   10   47 1     
   50   10   48 1     
   51   17   49 1     
   52   17   50 1     
@<TRIPOS>SUBSTRUCTURE
      1 S1             1
@<TRIPOS>SET
LONE_PAIRS      STATIC     ATOMS    <user>   **** ""
4 47 48 49 50
DONOR_HYDROGENS      STATIC     ATOMS    <user>   **** ""
4 46 31 45 38
ATOM$BLUE        STATIC     ATOMS    COLORGROUP SYSTEM
4 47 48 49 50
ATOM$RED        STATIC     ATOMS    COLORGROUP SYSTEM
4 46 31 45 38
