AV-unprocessed.smi:2305|AV-procd|sdf|9246|dock6
  -GOLD-   2272012463D 1   1.00000     0.00000
 Structure written by MMmdl.
 40 41  0  0  0  0  0  0  0  0  1 V2000
  152.2591  143.0277  161.2253 C   0  0  0  0  0  0  0  0  0  0  0  0
  151.8950  142.5823  159.8199 C   0  0  0  0  0  0  0  0  0  0  0  0
  150.8703  143.3062  159.2038 N   0  0  0  0  0  0  0  0  0  0  0  0
  150.4938  142.9989  158.0056 C   0  0  0  0  0  0  0  0  0  0  0  0
  151.0849  141.9414  157.2951 N   0  0  0  0  0  0  0  0  0  0  0  0
  150.5645  141.6937  155.9398 C   0  0  0  0  0  0  0  0  0  0  0  0
  150.3104  140.1918  155.6795 C   0  0  2  0  0  0  0  0  0  0  0  0
  151.4570  139.6469  155.0563 O   0  0  0  0  0  0  0  0  0  0  0  0
  149.1120  139.9682  154.7374 C   0  0  0  0  0  0  0  0  0  0  0  0
  147.9298  140.8614  155.0696 C   0  0  0  0  0  0  0  0  0  0  0  0
  147.3291  140.7936  156.3432 C   0  0  0  0  0  0  0  0  0  0  0  0
  146.2304  141.6184  156.6527 C   0  0  0  0  0  0  0  0  0  0  0  0
  145.7226  142.5211  155.6939 C   0  0  0  0  0  0  0  0  0  0  0  0
  144.5295  143.4008  156.0371 C   0  0  0  0  0  0  0  0  0  0  0  0
  144.2177  144.2146  155.0277 F   0  0  0  0  0  0  0  0  0  0  0  0
  143.4771  142.6288  156.3051 F   0  0  0  0  0  0  0  0  0  0  0  0
  144.7977  144.1485  157.1080 F   0  0  0  0  0  0  0  0  0  0  0  0
  146.3231  142.5825  154.4169 C   0  0  0  0  0  0  0  0  0  0  0  0
  147.4228  141.7586  154.1073 C   0  0  0  0  0  0  0  0  0  0  0  0
  152.0957  141.1891  157.8190 C   0  0  0  0  0  0  0  0  0  0  0  0
  152.6170  140.2724  157.1806 O   0  0  0  0  0  0  0  0  0  0  0  0
  152.5148  141.5517  159.1825 C   0  0  0  0  0  0  0  0  0  0  0  0
  153.6400  140.7315  159.8010 C   0  0  0  0  0  0  0  0  0  0  0  0
  152.1265  142.2087  161.9327 H   0  0  0  0  0  0  0  0  0  0  0  0
  151.6322  143.8575  161.5542 H   0  0  0  0  0  0  0  0  0  0  0  0
  153.2974  143.3581  161.2639 H   0  0  0  0  0  0  0  0  0  0  0  0
  149.7053  143.5379  157.4774 H   0  0  0  0  0  0  0  0  0  0  0  0
  149.6300  142.2470  155.8320 H   0  0  0  0  0  0  0  0  0  0  0  0
  151.2108  142.1121  155.1651 H   0  0  0  0  0  0  0  0  0  0  0  0
  150.1269  139.6744  156.6221 H   0  0  0  0  0  0  0  0  0  0  0  0
  151.5710  138.7603  155.3637 H   0  0  0  0  0  0  0  0  0  0  0  0
  149.4056  140.1936  153.7113 H   0  0  0  0  0  0  0  0  0  0  0  0
  148.8065  138.9206  154.7381 H   0  0  0  0  0  0  0  0  0  0  0  0
  147.7081  140.1063  157.0856 H   0  0  0  0  0  0  0  0  0  0  0  0
  145.7757  141.5546  157.6304 H   0  0  0  0  0  0  0  0  0  0  0  0
  145.9437  143.2595  153.6661 H   0  0  0  0  0  0  0  0  0  0  0  0
  147.8736  141.8156  153.1272 H   0  0  0  0  0  0  0  0  0  0  0  0
  154.5378  140.8014  159.1859 H   0  0  0  0  0  0  0  0  0  0  0  0
  153.3514  139.6815  159.8599 H   0  0  0  0  0  0  0  0  0  0  0  0
  153.9063  141.0561  160.8056 H   0  0  0  0  0  0  0  0  0  0  0  0
  1  2  1  0  0  0  0
  1 24  1  0  0  0  0
  1 25  1  0  0  0  0
  1 26  1  0  0  0  0
  2 22  2  0  0  0  0
  2  3  1  0  0  0  0
  3  4  2  0  0  0  0
  4  5  1  0  0  0  0
  4 27  1  0  0  0  0
  5  6  1  0  0  0  0
  5 20  1  0  0  0  0
  6  7  1  0  0  0  0
  6 28  1  0  0  0  0
  6 29  1  0  0  0  0
  7  8  1  0  0  0  0
  7  9  1  0  0  0  0
  7 30  1  0  0  0  0
  8 31  1  0  0  0  0
  9 10  1  0  0  0  0
  9 32  1  0  0  0  0
  9 33  1  0  0  0  0
 10 19  1  0  0  0  0
 10 11  2  0  0  0  0
 11 12  1  0  0  0  0
 11 34  1  0  0  0  0
 12 13  2  0  0  0  0
 12 35  1  0  0  0  0
 13 14  1  0  0  0  0
 13 18  1  0  0  0  0
 14 15  1  0  0  0  0
 14 16  1  0  0  0  0
 14 17  1  0  0  0  0
 18 19  2  0  0  0  0
 18 36  1  0  0  0  0
 19 37  1  0  0  0  0
 20 21  2  0  0  0  0
 20 22  1  0  0  0  0
 22 23  1  0  0  0  0
 23 38  1  0  0  0  0
 23 39  1  0  0  0  0
 23 40  1  0  0  0  0
M  END
> <s_m_source_file>
AV-unprocessed.smi

> <i_m_source_file_index>
2305

> <i_lp_mmshare_version>
43012

> <i_f3d_flags>
0

> <s_epik_input>
W0NIM11jMW5bY0hdbihjKD1PKWMxW0NIM10pW0NIMl1bQ0BIXShbT0hdKVtDSDJdYzJbY0hdW2NIXWMoQyhGKShGKUYpW2NIXVtjSF0y

> <s_epik_cmdline>
J2VwaWtfcHl0aG9uJywgJy1waCcsICc3LjAnLCAnLXRuJywgJzgnLCAnLW1hJywgJzIwMCcsICctbWV0YWxfYmluZGluZycsICctaW1hZScsICc8aW5maWxlLm1hZT4nLCAnLW9tYWUnLCAnPG91dGZpbGUubWFlPic=

> <r_lp_tautomer_probability>
1

> <r_epik_Ionization_Penalty>
8.92636e-05

> <r_epik_Ionization_Penalty_Charging>
8.63033e-08

> <r_epik_Ionization_Penalty_Neutral>
8.91773e-05

> <r_epik_State_Penalty>
-0

> <r_epik_Charging_Adjusted_Penalty>
8.63033e-08

> <i_epik_Tot_Q>
0

> <i_epik_Tot_abs_Q>
0

> <r_epik_Metal_State_Penalty>
-0

> <b_epik_Metal_Only>
0

> <s_lp_Force_Field>
OPLS_2005

> <r_lp_Energy>
20.2426

> <b_lp_Chiralities_Consistent>
1

> <s_lp_Variant>
AV-unprocessed.smi:2305-1

> <Gold.Version>
5.8.1

> <Gold.Id.Protein>
6NUR|6NUR_protein|mol2

> <Gold.PLP.Fitness>
50.0595

> <Gold.PLP.PLP>
-42.6967

> <Gold.PLP.part.hbond>
-2.0000

> <Gold.PLP.part.metal>
0.0000

> <Gold.PLP.part.buried>
-6.0184

> <Gold.PLP.part.nonpolar>
-34.2840

> <Gold.PLP.part.repulsive>
0.0678

> <Gold.PLP.ligand.clash>
0.6198

> <Gold.PLP.ligand.torsion>
0.7729

> <Gold.PLP.Chemscore.Hbond>
1.9500

> <Gold.PLP.Chemscore.CHOScore>
1.0000

> <Gold.PLP.Chemscore.Metal>
0.0000

> <Gold.Chemscore.Hbonds>
donor molecule, donor type, donor heavy atom, donor atom, acceptor molecule, acceptor atom, score
      P1  H  7989  7998       L1     8  1.00
      P1  H  7997  8009       L1    21  0.99
      L1  C     4    27       P1  8028  1.00

> <Gold.PLP.Chemscore.Internal.Correction>
0.6785

> <Gold.Rescore>
     Score         DG    S(hbond)    S(metal)    S(lipo)     H(rot)  DE(clash)    DE(int)     intcor
     11.14     -15.09       1.67        0.00      86.16       2.37       0.07       3.87       ----

> <Gold.Chemscore.Fitness>
11.1448

> <Gold.Chemscore.DG>
-15.0878

> <Gold.Chemscore.ZeroCoef>
-5.4800

> <Gold.Chemscore.Hbond>
1.6734

> <Gold.Chemscore.Metal>
0.0000

> <Gold.Chemscore.Lipo>
86.1622

> <Gold.Chemscore.Internal_Hbond>
0.0000

> <Gold.Chemscore.DEClash>
0.0682

> <Gold.Chemscore.DEInternal>
3.8747

> <Gold.Chemscore.Rot>
2.3681

> <Gold.Chemscore.Internal.Correction>
   9.000000E+99

> <Gold.Chemscore.Hbonds>
donor molecule, donor type, donor heavy atom, donor atom, acceptor molecule, acceptor atom, score
      P1  H  7989  7998       L1     8  0.29
      P1  H  7997  8009       L1    21  0.94

> <Gold.Chemscore.Hbond.Weighted>
-5.5892

> <Gold.Chemscore.Metal.Weighted>
-0.0000

> <Gold.Chemscore.Lipo.Weighted>
-10.0810

> <Gold.Chemscore.Internal_Hbond.Weighted>
0.0000

> <Gold.Chemscore.DEClash.Weighted>
0.0682

> <Gold.Chemscore.DEInternal.Weighted>
3.8747

> <Gold.Chemscore.Rot.Weighted>
6.0624

> <Gold.Chemscore.Internal.Correction.Weighted>
   9.000000E+99

> <Gold.Protein.RotatedTorsions>
[ 6907 6896 6895 6894 ] final  -70.49 input  -60.11 | X-H torsion
[ 7974 7965 7964 7962 ] final -122.98 input  175.53 | X-H torsion
[ 8008 7997 7996 7995 ] final -176.25 input   59.86 | X-H torsion
[ 10167 10162 10161 10158 ] final  128.97 input  -65.29 | X-H torsion
[ 10718 10713 10712 10709 ] final  -73.09 input   66.30 | X-H torsion
[ 10763 10752 10751 10750 ] final  -25.34 input  -60.55 | X-H torsion
[ 11005 11000 10999 10996 ] final  -71.88 input  -57.11 | X-H torsion

> <Gold.Protein.ActiveResidues>
 VAL166  LYS551  ARG553  GLY616  TRP617  ASP618  TYR619  PRO620  LYS621  CYS622 
 ASP623  PHE694  ASN695  SER759  ASP760  ASP761  ALA762  ILE779  LEU786  VAL792 
 PHE793  MET794  SER795  GLU796  ALA797  LYS798  CYS799  TRP800  GLU811  SER814 

> <Gold.Protein.RotatedAtoms>
  150.7255  134.5445  159.5763 H   0  0  0  0  0  0  0  0  0  0  0  0  # atno 6907 bound_to 6896
  152.2947  134.7677  160.0379 H   0  0  0  0  0  0  0  0  0  0  0  0  # atno 6908 bound_to 6896
  151.8279  133.3368  159.3641 H   0  0  0  0  0  0  0  0  0  0  0  0  # atno 6909 bound_to 6896
  145.0236  140.8009  143.4366 H   0  0  0  0  0  0  0  0  0  0  0  0  # atno 7974 bound_to 7965
  155.9925  140.1204  157.0624 H   0  0  0  0  0  0  0  0  0  0  0  0  # atno 8008 bound_to 7997
  154.4216  140.1123  156.5654 H   0  0  0  0  0  0  0  0  0  0  0  0  # atno 8009 bound_to 7997
  155.6323  140.3473  155.4689 H   0  0  0  0  0  0  0  0  0  0  0  0  # atno 8010 bound_to 7997
  139.5501  144.6806  151.4351 H   0  0  0  0  0  0  0  0  0  0  0  0  # atno 10167 bound_to 10162
  156.0294  130.4386  150.2691 H   0  0  0  0  0  0  0  0  0  0  0  0  # atno 10718 bound_to 10713
  153.6982  135.6958  153.5070 H   0  0  0  0  0  0  0  0  0  0  0  0  # atno 10763 bound_to 10752
  153.2362  135.4321  155.0648 H   0  0  0  0  0  0  0  0  0  0  0  0  # atno 10764 bound_to 10752
  154.8352  135.3496  154.6522 H   0  0  0  0  0  0  0  0  0  0  0  0  # atno 10765 bound_to 10752
  141.1599  133.6830  156.6973 H   0  0  0  0  0  0  0  0  0  0  0  0  # atno 11005 bound_to 11000
  145.1862  139.2325  143.5266 LP  0  0  0  0  0  0  0  0  0  0  0  0  # atno 17320 bound_to 7965
  146.3489  140.1648  142.8590 LP  0  0  0  0  0  0  0  0  0  0  0  0  # atno 17321 bound_to 7965
  140.6761  143.8187  150.7060 LP  0  0  0  0  0  0  0  0  0  0  0  0  # atno 17342 bound_to 10162
  140.1626  143.4262  152.2056 LP  0  0  0  0  0  0  0  0  0  0  0  0  # atno 17343 bound_to 10162
  157.0793  131.0139  151.3162 LP  0  0  0  0  0  0  0  0  0  0  0  0  # atno 17370 bound_to 10713
  157.4939  130.7839  149.7536 LP  0  0  0  0  0  0  0  0  0  0  0  0  # atno 17371 bound_to 10713
  140.2985  134.8183  157.4078 LP  0  0  0  0  0  0  0  0  0  0  0  0  # atno 17394 bound_to 11000
  140.1283  134.5129  155.8126 LP  0  0  0  0  0  0  0  0  0  0  0  0  # atno 17395 bound_to 11000

$$$$
