AV-unprocessed.smi:2947|AV-procd|sdf|11282|dock4
  -GOLD-   2272016173D 1   1.00000     0.00000
 Structure written by MMmdl.
 33 34  0  0  0  0  0  0  0  0  1 V2000
  150.8451  140.8252  156.5062 O   0  0  0  0  0  0  0  0  0  0  0  0
  150.2637  141.8882  156.2864 C   0  0  0  0  0  0  0  0  0  0  0  0
  149.2400  142.0528  155.4300 N   0  0  0  0  0  0  0  0  0  0  0  0
  148.6174  141.0764  154.6073 C   0  0  0  0  0  0  0  0  0  0  0  0
  147.5566  141.5571  153.8067 C   0  0  0  0  0  0  0  0  0  0  0  0
  146.8735  140.6679  152.9544 C   0  0  0  0  0  0  0  0  0  0  0  0
  147.2695  139.3188  152.9242 C   0  0  0  0  0  0  0  0  0  0  0  0
  148.3352  138.9221  153.7529 C   0  0  0  0  0  0  0  0  0  0  0  0
  148.9910  139.7726  154.5706 N   0  0  0  0  0  0  0  0  0  0  0  0
  150.5830  143.0439  156.8877 N   0  0  0  0  0  0  0  0  0  0  0  0
  151.6482  143.2173  157.8710 C   0  0  0  0  0  0  0  0  0  0  0  0
  151.6854  142.0249  158.8497 C   0  0  0  0  0  0  0  0  0  0  0  0
  152.7490  142.2260  159.9412 C   0  0  0  0  0  0  0  0  0  0  0  0
  152.5343  143.5489  160.6931 C   0  0  0  0  0  0  0  0  0  0  0  0
  152.5036  144.7394  159.7219 C   0  0  0  0  0  0  0  0  0  0  0  0
  151.4391  144.5413  158.6305 C   0  0  0  0  0  0  0  0  0  0  0  0
  148.8624  142.9859  155.3571 H   0  0  0  0  0  0  0  0  0  0  0  0
  147.2655  142.5969  153.8419 H   0  0  0  0  0  0  0  0  0  0  0  0
  146.0605  141.0161  152.3347 H   0  0  0  0  0  0  0  0  0  0  0  0
  146.7704  138.6068  152.2837 H   0  0  0  0  0  0  0  0  0  0  0  0
  148.6702  137.8954  153.7597 H   0  0  0  0  0  0  0  0  0  0  0  0
  150.0512  143.8674  156.6469 H   0  0  0  0  0  0  0  0  0  0  0  0
  152.6061  143.2749  157.3497 H   0  0  0  0  0  0  0  0  0  0  0  0
  150.7075  141.8997  159.3171 H   0  0  0  0  0  0  0  0  0  0  0  0
  151.8895  141.0994  158.3098 H   0  0  0  0  0  0  0  0  0  0  0  0
  152.7244  141.3912  160.6421 H   0  0  0  0  0  0  0  0  0  0  0  0
  153.7413  142.2200  159.4884 H   0  0  0  0  0  0  0  0  0  0  0  0
  151.5967  143.5058  161.2487 H   0  0  0  0  0  0  0  0  0  0  0  0
  153.3252  143.6904  161.4304 H   0  0  0  0  0  0  0  0  0  0  0  0
  152.3072  145.6612  160.2701 H   0  0  0  0  0  0  0  0  0  0  0  0
  153.4839  144.8584  159.2584 H   0  0  0  0  0  0  0  0  0  0  0  0
  151.4680  145.3806  157.9347 H   0  0  0  0  0  0  0  0  0  0  0  0
  150.4485  144.5534  159.0881 H   0  0  0  0  0  0  0  0  0  0  0  0
  1  2  2  0  0  0  0
  2  3  1  0  0  0  0
  2 10  1  0  0  0  0
  3  4  1  0  0  0  0
  3 17  1  0  0  0  0
  4  9  1  0  0  0  0
  4  5  2  0  0  0  0
  5  6  1  0  0  0  0
  5 18  1  0  0  0  0
  6  7  2  0  0  0  0
  6 19  1  0  0  0  0
  7  8  1  0  0  0  0
  7 20  1  0  0  0  0
  8  9  2  0  0  0  0
  8 21  1  0  0  0  0
 10 11  1  0  0  0  0
 10 22  1  0  0  0  0
 11 16  1  0  0  0  0
 11 12  1  0  0  0  0
 11 23  1  0  0  0  0
 12 13  1  0  0  0  0
 12 24  1  0  0  0  0
 12 25  1  0  0  0  0
 13 14  1  0  0  0  0
 13 26  1  0  0  0  0
 13 27  1  0  0  0  0
 14 15  1  0  0  0  0
 14 28  1  0  0  0  0
 14 29  1  0  0  0  0
 15 16  1  0  0  0  0
 15 30  1  0  0  0  0
 15 31  1  0  0  0  0
 16 32  1  0  0  0  0
 16 33  1  0  0  0  0
M  END
> <s_m_source_file>
AV-unprocessed.smi

> <i_m_source_file_index>
2947

> <i_lp_mmshare_version>
43012

> <i_f3d_flags>
0

> <s_epik_input>
W0NIMl0xW0NIMl1bQ0gyXVtDSDJdW0NIMl1bQ0hdMVtOSF1DKD1PKVtOSF1jMltjSF1bY0hdW2NIXVtjSF1uMg==

> <s_epik_cmdline>
J2VwaWtfcHl0aG9uJywgJy1waCcsICc3LjAnLCAnLXRuJywgJzgnLCAnLW1hJywgJzIwMCcsICctbWV0YWxfYmluZGluZycsICctaW1hZScsICc8aW5maWxlLm1hZT4nLCAnLW9tYWUnLCAnPG91dGZpbGUubWFlPic=

> <r_lp_tautomer_probability>
1

> <r_epik_Ionization_Penalty>
5.26121e-05

> <r_epik_Ionization_Penalty_Charging>
0

> <r_epik_Ionization_Penalty_Neutral>
5.26121e-05

> <r_epik_State_Penalty>
-0

> <r_epik_Charging_Adjusted_Penalty>
0

> <i_epik_Tot_Q>
0

> <i_epik_Tot_abs_Q>
0

> <r_epik_Metal_State_Penalty>
-0

> <b_epik_Metal_Only>
0

> <s_lp_Force_Field>
OPLS_2005

> <r_lp_Energy>
11.3585

> <b_lp_Chiralities_Consistent>
1

> <s_lp_Variant>
AV-unprocessed.smi:2947-1

> <Gold.Version>
5.8.1

> <Gold.Id.Protein>
6NUR|6NUR_protein|mol2

> <Gold.PLP.Fitness>
43.9847

> <Gold.PLP.PLP>
-35.4743

> <Gold.PLP.part.hbond>
-2.0000

> <Gold.PLP.part.metal>
0.0000

> <Gold.PLP.part.buried>
-2.5026

> <Gold.PLP.part.nonpolar>
-30.8333

> <Gold.PLP.part.repulsive>
0.3270

> <Gold.PLP.ligand.clash>
0.0000

> <Gold.PLP.ligand.torsion>
0.2464

> <Gold.PLP.Chemscore.Hbond>
2.0000

> <Gold.PLP.Chemscore.CHOScore>
1.0000

> <Gold.PLP.Chemscore.Metal>
0.0000

> <Gold.Chemscore.Hbonds>
donor molecule, donor type, donor heavy atom, donor atom, acceptor molecule, acceptor atom, score
      L1  H     3    17       P1  8028  1.00
      L1  H    10    22       P1  8028  1.00
      L1  C     8    21       P1  7948  1.00

> <Gold.PLP.Chemscore.Internal.Correction>
0.0031

> <Gold.Rescore>
     Score         DG    S(hbond)    S(metal)    S(lipo)     H(rot)  DE(clash)    DE(int)     intcor
     17.88     -20.78       1.95        0.00      97.14       1.00       0.04       2.87       ----

> <Gold.Chemscore.Fitness>
17.8757

> <Gold.Chemscore.DG>
-20.7846

> <Gold.Chemscore.ZeroCoef>
-5.4800

> <Gold.Chemscore.Hbond>
1.9458

> <Gold.Chemscore.Metal>
0.0000

> <Gold.Chemscore.Lipo>
97.1408

> <Gold.Chemscore.Internal_Hbond>
0.0000

> <Gold.Chemscore.DEClash>
0.0398

> <Gold.Chemscore.DEInternal>
2.8691

> <Gold.Chemscore.Rot>
1.0000

> <Gold.Chemscore.Internal.Correction>
   9.000000E+99

> <Gold.Chemscore.Hbonds>
donor molecule, donor type, donor heavy atom, donor atom, acceptor molecule, acceptor atom, score
      L1  H     3    17       P1  8028  0.98
      L1  H    10    22       P1  8028  0.97

> <Gold.Chemscore.Hbond.Weighted>
-6.4991

> <Gold.Chemscore.Metal.Weighted>
-0.0000

> <Gold.Chemscore.Lipo.Weighted>
-11.3655

> <Gold.Chemscore.Internal_Hbond.Weighted>
0.0000

> <Gold.Chemscore.DEClash.Weighted>
0.0398

> <Gold.Chemscore.DEInternal.Weighted>
2.8691

> <Gold.Chemscore.Rot.Weighted>
2.5600

> <Gold.Chemscore.Internal.Correction.Weighted>
   9.000000E+99

> <Gold.Protein.RotatedTorsions>
[ 6907 6896 6895 6894 ] final   17.03 input  -60.11 | X-H torsion
[ 7974 7965 7964 7962 ] final   96.65 input  175.53 | X-H torsion
[ 8008 7997 7996 7995 ] final   24.70 input   59.86 | X-H torsion
[ 10167 10162 10161 10158 ] final  -36.98 input  -65.29 | X-H torsion
[ 10718 10713 10712 10709 ] final  -29.80 input   66.30 | X-H torsion
[ 10763 10752 10751 10750 ] final  101.90 input  -60.55 | X-H torsion
[ 11005 11000 10999 10996 ] final  142.51 input  -57.11 | X-H torsion

> <Gold.Protein.ActiveResidues>
 VAL166  LYS551  ARG553  GLY616  TRP617  ASP618  TYR619  PRO620  LYS621  CYS622 
 ASP623  PHE694  ASN695  SER759  ASP760  ASP761  ALA762  ILE779  LEU786  VAL792 
 PHE793  MET794  SER795  GLU796  ALA797  LYS798  CYS799  TRP800  GLU811  SER814 

> <Gold.Protein.RotatedAtoms>
  151.8432  135.0583  160.0450 H   0  0  0  0  0  0  0  0  0  0  0  0  # atno 6907 bound_to 6896
  152.2793  133.5451  159.5496 H   0  0  0  0  0  0  0  0  0  0  0  0  # atno 6908 bound_to 6896
  150.7183  134.0503  159.3838 H   0  0  0  0  0  0  0  0  0  0  0  0  # atno 6909 bound_to 6896
  145.4360  139.2306  143.3118 H   0  0  0  0  0  0  0  0  0  0  0  0  # atno 7974 bound_to 7965
  155.0003  140.3124  155.4870 H   0  0  0  0  0  0  0  0  0  0  0  0  # atno 8008 bound_to 7997
  156.2926  140.2233  156.5053 H   0  0  0  0  0  0  0  0  0  0  0  0  # atno 8009 bound_to 7997
  154.7624  140.0458  157.0973 H   0  0  0  0  0  0  0  0  0  0  0  0  # atno 8010 bound_to 7997
  140.7129  143.3372  151.2437 H   0  0  0  0  0  0  0  0  0  0  0  0  # atno 10167 bound_to 10162
  156.4079  130.4402  149.7274 H   0  0  0  0  0  0  0  0  0  0  0  0  # atno 10718 bound_to 10713
  153.3326  135.4029  155.1508 H   0  0  0  0  0  0  0  0  0  0  0  0  # atno 10763 bound_to 10752
  154.8626  135.3614  154.5450 H   0  0  0  0  0  0  0  0  0  0  0  0  # atno 10764 bound_to 10752
  153.5890  135.7074  153.5490 H   0  0  0  0  0  0  0  0  0  0  0  0  # atno 10765 bound_to 10752
  140.0483  134.9269  157.0970 H   0  0  0  0  0  0  0  0  0  0  0  0  # atno 11005 bound_to 11000
  146.2582  140.5102  142.8864 LP  0  0  0  0  0  0  0  0  0  0  0  0  # atno 17320 bound_to 7965
  144.8152  140.6456  143.6389 LP  0  0  0  0  0  0  0  0  0  0  0  0  # atno 17321 bound_to 7965
  139.6870  143.9756  152.2839 LP  0  0  0  0  0  0  0  0  0  0  0  0  # atno 17342 bound_to 10162
  139.9405  144.6684  150.8271 LP  0  0  0  0  0  0  0  0  0  0  0  0  # atno 17343 bound_to 10162
  156.4264  130.7794  151.2812 LP  0  0  0  0  0  0  0  0  0  0  0  0  # atno 17370 bound_to 10713
  157.7506  131.0167  150.3556 LP  0  0  0  0  0  0  0  0  0  0  0  0  # atno 17371 bound_to 10713
  140.3959  134.2135  155.7164 LP  0  0  0  0  0  0  0  0  0  0  0  0  # atno 17394 bound_to 11000
  141.1918  133.8188  157.0866 LP  0  0  0  0  0  0  0  0  0  0  0  0  # atno 17395 bound_to 11000

$$$$
