#       Name:                AV-unprocessed.smi:21
#       Creating user name   scv26
#       Creation time:       Thu Mar 26 15:30:37 2020


#       File generated by GOLD software.
#

@<TRIPOS>MOLECULE
AV-unprocessed.smi:21
    71    74     1
SMALL
NO_CHARGES


@<TRIPOS>ATOM
      1 ****        -5.5881  -0.9062  -3.5884 C.3            1 S1                 0.0000
      2 ****        -4.3356  -0.2961  -3.3222 O.3            1 S1                 0.0000
      3 ****        -4.1053  -0.0536  -1.9423 C.3            1 S1                 0.0000
      4 ****        -2.8430   0.7800  -1.7498 C.3            1 S1                 0.0000
      5 ****        -2.3457   0.4275  -0.3356 C.3            1 S1                 0.0000
      6 ****        -2.6676   1.5088   0.7228 C.3            1 S1                 0.0000
      7 ****        -1.8764   2.7329   0.5797 N.pl3          1 S1                 0.0000
      8 ****        -2.4887   3.8951  -0.0598 C.3            1 S1                 0.0000
      9 ****        -0.5164   2.6558   0.6333 C.ar           1 S1                 0.0000
     10 ****         0.2168   3.4637  -0.1791 N.ar           1 S1                 0.0000
     11 ****         1.5490   3.3744  -0.2099 C.ar           1 S1                 0.0000
     12 ****         2.3438   2.5494   0.4714 N.ar           1 S1                 0.0000
     13 ****         1.6230   1.7483   1.3052 C.ar           1 S1                 0.0000
     14 ****         0.2072   1.7470   1.4638 C.ar           1 S1                 0.0000
     15 ****        -0.1495   0.8085   2.4272 N.2            1 S1                 0.0000
     16 ****         0.9801   0.2695   2.7933 C.2            1 S1                 0.0000
     17 ****         2.0904   0.7459   2.1367 N.pl3          1 S1                 0.0000
     18 ****         3.4590   0.2957   2.3083 C.3            1 S1                 0.0000
     19 ****         4.0761  -0.3867   1.0540 C.3            1 S1                 0.0000
     20 ****         5.5535  -0.7429   1.3488 C.3            1 S1                 0.0000
     21 ****         6.3195   0.4145   1.6128 O.3            1 S1                 0.0000
     22 ****         3.2729  -1.6321   0.5645 C.3            1 S1                 0.0000
     23 ****         3.9447  -2.4412  -0.5360 C.3            1 S1                 0.0000
     24 ****         2.7870  -3.2482  -1.1048 C.3            1 S1                 0.0000
     25 ****         1.6855  -2.3549  -1.0774 O.3            1 S1                 0.0000
     26 ****         1.9181  -1.3391  -0.1072 C.3            1 S1                 0.0000
     27 ****        -3.0178  -0.8456   0.0256 N.4            1 S1                 1.0000
     28 ****        -2.1241  -1.8676   0.6122 C.3            1 S1                 0.0000
     29 ****        -3.7768  -1.3174  -1.1500 C.3            1 S1                 0.0000
     30 ****        -4.9501   0.4697  -1.4900 H              1 S1                 0.0000
     31 ****        -1.2691   0.2582  -0.3835 H              1 S1                 0.0000
     32 ****        -5.7076  -1.0379  -4.6637 H              1 S1                 0.0000
     33 ****        -6.4123  -0.2861  -3.2336 H              1 S1                 0.0000
     34 ****        -5.6631  -1.8889  -3.1223 H              1 S1                 0.0000
     35 ****        -2.0903   0.4721  -2.4772 H              1 S1                 0.0000
     36 ****        -3.0234   1.8426  -1.9054 H              1 S1                 0.0000
     37 ****        -3.7273   1.7597   0.6641 H              1 S1                 0.0000
     38 ****        -2.5342   1.1131   1.7282 H              1 S1                 0.0000
     39 ****        -2.1162   4.8179   0.3864 H              1 S1                 0.0000
     40 ****        -3.5720   3.8854   0.0613 H              1 S1                 0.0000
     41 ****        -2.2688   3.9170  -1.1276 H              1 S1                 0.0000
     42 ****         2.0482   4.0515  -0.8877 H              1 S1                 0.0000
     43 ****         1.0303  -0.5169   3.5324 H              1 S1                 0.0000
     44 ****         4.0451   1.1679   2.5987 H              1 S1                 0.0000
     45 ****         3.4927  -0.3897   3.1560 H              1 S1                 0.0000
     46 ****         4.0830   0.3371   0.2379 H              1 S1                 0.0000
     47 ****         5.6269  -1.4261   2.1954 H              1 S1                 0.0000
     48 ****         6.0245  -1.2340   0.4984 H              1 S1                 0.0000
     49 ****         7.2144   0.1543   1.7702 H              1 S1                 0.0000
     50 ****         3.1040  -2.3008   1.4103 H              1 S1                 0.0000
     51 ****         4.3518  -1.7812  -1.3038 H              1 S1                 0.0000
     52 ****         4.7476  -3.0826  -0.1715 H              1 S1                 0.0000
     53 ****         2.9818  -3.6152  -2.1128 H              1 S1                 0.0000
     54 ****         2.5659  -4.1037  -0.4650 H              1 S1                 0.0000
     55 ****         1.0966  -1.3286   0.6069 H              1 S1                 0.0000
     56 ****         1.9304  -0.3795  -0.6249 H              1 S1                 0.0000
     57 ****        -1.3484  -2.1666  -0.0945 H              1 S1                 0.0000
     58 ****        -2.6930  -2.7542   0.8929 H              1 S1                 0.0000
     59 ****        -1.6392  -1.4820   1.5092 H              1 S1                 0.0000
     60 ****        -4.6649  -1.8767  -0.8548 H              1 S1                 0.0000
     61 ****        -3.1475  -1.9743  -1.7534 H              1 S1                 0.0000
     62 ****        -3.7045  -0.6077   0.7271 H              1 S1                 0.0000
     63 ****        -4.2997   0.5776  -3.8074 LP             1 S1                 0.0000
     64 ****        -3.6123  -0.8966  -3.6630 LP             1 S1                 0.0000
     65 ****        -0.2472   4.1324  -0.7602 LP             1 S1                 0.0000
     66 ****         3.3394   2.5220   0.3822 LP             1 S1                 0.0000
     67 ****        -1.0668   0.5951   2.7635 LP             1 S1                 0.0000
     68 ****         5.9574   0.8813   2.4196 LP             1 S1                 0.0000
     69 ****         6.2811   1.0306   0.8260 LP             1 S1                 0.0000
     70 ****         0.8547  -2.8582  -0.8397 LP             1 S1                 0.0000
     71 ****         1.5747  -1.9354  -1.9784 LP             1 S1                 0.0000
@<TRIPOS>BOND
    1    1    2 1     
    2    1   32 1     
    3    1   33 1     
    4    1   34 1     
    5    2    3 1     
    6    3   30 1     
    7    3   29 1     
    8    3    4 1     
    9    4    5 1     
   10    4   35 1     
   11    4   36 1     
   12    5   31 1     
   13    5    6 1     
   14    5   27 1     
   15    6    7 1     
   16    6   37 1     
   17    6   38 1     
   18    7    8 1     
   19    7    9 1     
   20    8   39 1     
   21    8   40 1     
   22    8   41 1     
   23    9   14 ar    
   24    9   10 ar    
   25   10   11 ar    
   26   11   12 ar    
   27   11   42 1     
   28   12   13 ar    
   29   13   17 1     
   30   13   14 ar    
   31   14   15 1     
   32   15   16 2     
   33   16   17 1     
   34   16   43 1     
   35   17   18 1     
   36   18   19 1     
   37   18   44 1     
   38   18   45 1     
   39   19   20 1     
   40   19   22 1     
   41   19   46 1     
   42   20   21 1     
   43   20   47 1     
   44   20   48 1     
   45   21   49 1     
   46   22   26 1     
   47   22   23 1     
   48   22   50 1     
   49   23   24 1     
   50   23   51 1     
   51   23   52 1     
   52   24   25 1     
   53   24   53 1     
   54   24   54 1     
   55   25   26 1     
   56   26   55 1     
   57   26   56 1     
   58   27   28 1     
   59   27   29 1     
   60   27   62 1     
   61   28   57 1     
   62   28   58 1     
   63   28   59 1     
   64   29   60 1     
   65   29   61 1     
   66    2   63 1     
   67    2   64 1     
   68   10   65 1     
   69   12   66 1     
   70   15   67 1     
   71   21   68 1     
   72   21   69 1     
   73   25   70 1     
   74   25   71 1     
@<TRIPOS>SUBSTRUCTURE
      1 S1             1
@<TRIPOS>SET
LONE_PAIRS      STATIC     ATOMS    <user>   **** ""
9 63 64 65 66 67 68 69 70 71
DONOR_HYDROGENS      STATIC     ATOMS    <user>   **** ""
2 49 62
ATOM$BLUE        STATIC     ATOMS    COLORGROUP SYSTEM
9 63 64 65 66 67 68 69 70 71
ATOM$RED        STATIC     ATOMS    COLORGROUP SYSTEM
2 49 62
