AV-unprocessed.smi:2390|AV-procd|sdf|9476|dock7
  -GOLD-   2272013103D 1   1.00000     0.00000
 Structure written by MMmdl.
 45 46  0  0  0  0  0  0  0  0  1 V2000
  153.8158  141.8071  160.5108 C   0  0  0  0  0  0  0  0  0  0  0  0
  152.8134  142.8512  160.0664 C   0  0  0  0  0  0  0  0  0  0  0  0
  152.6899  144.0761  160.7512 C   0  0  0  0  0  0  0  0  0  0  0  0
  151.7395  145.0026  160.2861 C   0  0  0  0  0  0  0  0  0  0  0  0
  150.9578  144.6688  159.1633 C   0  0  0  0  0  0  0  0  0  0  0  0
  151.1429  143.4170  158.5343 C   0  0  0  0  0  0  0  0  0  0  0  0
  150.3074  143.1777  157.4111 N   0  0  0  0  0  0  0  0  0  0  0  0
  150.1664  142.0402  156.7081 C   0  0  0  0  0  0  0  0  0  0  0  0
  150.7416  140.9786  156.9504 O   0  0  0  0  0  0  0  0  0  0  0  0
  149.3101  142.2055  155.6893 N   0  0  0  0  0  0  0  0  0  0  0  0
  148.9574  141.1925  154.6943 C   0  0  1  0  0  0  0  0  0  0  0  0
  148.7970  139.8244  155.3820 C   0  0  0  0  0  0  0  0  0  0  0  0
  147.7214  141.6498  153.8569 C   0  0  1  0  0  0  0  0  0  0  0  0
  147.0593  140.4206  153.1822 C   0  0  0  0  0  0  0  0  0  0  0  0
  146.7491  142.4690  154.6246 N   0  0  0  0  0  0  0  0  0  0  0  0
  146.0185  141.6869  155.6289 C   0  0  0  0  0  0  0  0  0  0  0  0
  145.0008  142.5279  156.4188 C   0  0  0  0  0  0  0  0  0  0  0  0
  144.0886  143.1449  155.5213 O   0  0  0  0  0  0  0  0  0  0  0  0
  144.7504  143.9770  154.5792 C   0  0  0  0  0  0  0  0  0  0  0  0
  145.7625  143.1451  153.7734 C   0  0  0  0  0  0  0  0  0  0  0  0
  152.0621  142.5301  158.9911 N   0  0  0  0  0  0  0  0  0  0  0  0
  154.4760  142.1976  161.2857 H   0  0  0  0  0  0  0  0  0  0  0  0
  154.4320  141.4880  159.6696 H   0  0  0  0  0  0  0  0  0  0  0  0
  153.2997  140.9337  160.9100 H   0  0  0  0  0  0  0  0  0  0  0  0
  153.3054  144.3021  161.6097 H   0  0  0  0  0  0  0  0  0  0  0  0
  151.6124  145.9540  160.7813 H   0  0  0  0  0  0  0  0  0  0  0  0
  150.2244  145.3702  158.7921 H   0  0  0  0  0  0  0  0  0  0  0  0
  149.7643  143.9684  157.0977 H   0  0  0  0  0  0  0  0  0  0  0  0
  148.8889  143.1151  155.5700 H   0  0  0  0  0  0  0  0  0  0  0  0
  149.7903  141.0361  154.0105 H   0  0  0  0  0  0  0  0  0  0  0  0
  148.4384  139.0704  154.6808 H   0  0  0  0  0  0  0  0  0  0  0  0
  148.1074  139.8592  156.2250 H   0  0  0  0  0  0  0  0  0  0  0  0
  149.7546  139.4775  155.7719 H   0  0  0  0  0  0  0  0  0  0  0  0
  148.1109  142.2738  153.0511 H   0  0  0  0  0  0  0  0  0  0  0  0
  147.7786  139.8005  152.6511 H   0  0  0  0  0  0  0  0  0  0  0  0
  146.3317  140.7092  152.4253 H   0  0  0  0  0  0  0  0  0  0  0  0
  146.5514  139.7883  153.9109 H   0  0  0  0  0  0  0  0  0  0  0  0
  145.5033  140.8550  155.1461 H   0  0  0  0  0  0  0  0  0  0  0  0
  146.7045  141.2566  156.3561 H   0  0  0  0  0  0  0  0  0  0  0  0
  144.4444  141.8963  157.1115 H   0  0  0  0  0  0  0  0  0  0  0  0
  145.5072  143.2883  157.0155 H   0  0  0  0  0  0  0  0  0  0  0  0
  144.0096  144.4201  153.9137 H   0  0  0  0  0  0  0  0  0  0  0  0
  145.2506  144.7989  155.0944 H   0  0  0  0  0  0  0  0  0  0  0  0
  146.2500  143.8330  153.0861 H   0  0  0  0  0  0  0  0  0  0  0  0
  145.2304  142.4111  153.1668 H   0  0  0  0  0  0  0  0  0  0  0  0
  1  2  1  0  0  0  0
  1 22  1  0  0  0  0
  1 23  1  0  0  0  0
  1 24  1  0  0  0  0
  2 21  1  0  0  0  0
  2  3  2  0  0  0  0
  3  4  1  0  0  0  0
  3 25  1  0  0  0  0
  4  5  2  0  0  0  0
  4 26  1  0  0  0  0
  5  6  1  0  0  0  0
  5 27  1  0  0  0  0
  6  7  1  0  0  0  0
  6 21  2  0  0  0  0
  7  8  1  0  0  0  0
  7 28  1  0  0  0  0
  8  9  2  0  0  0  0
  8 10  1  0  0  0  0
 10 11  1  0  0  0  0
 10 29  1  0  0  0  0
 11 12  1  0  0  0  0
 11 13  1  0  0  0  0
 11 30  1  0  0  0  0
 12 31  1  0  0  0  0
 12 32  1  0  0  0  0
 12 33  1  0  0  0  0
 13 14  1  0  0  0  0
 13 15  1  0  0  0  0
 13 34  1  0  0  0  0
 14 35  1  0  0  0  0
 14 36  1  0  0  0  0
 14 37  1  0  0  0  0
 15 20  1  0  0  0  0
 15 16  1  0  0  0  0
 16 17  1  0  0  0  0
 16 38  1  0  0  0  0
 16 39  1  0  0  0  0
 17 18  1  0  0  0  0
 17 40  1  0  0  0  0
 17 41  1  0  0  0  0
 18 19  1  0  0  0  0
 19 20  1  0  0  0  0
 19 42  1  0  0  0  0
 19 43  1  0  0  0  0
 20 44  1  0  0  0  0
 20 45  1  0  0  0  0
M  END
> <s_m_source_file>
AV-unprocessed.smi

> <i_m_source_file_index>
2390

> <i_lp_mmshare_version>
43012

> <i_f3d_flags>
0

> <s_epik_input>
W0NIM11jMVtjSF1bY0hdW2NIXWMobjEpW05IXUMoPU8pW05IXVtDQEhdKFtDSDNdKVtDQEhdKFtDSDNdKU4yW0NIMl1bQ0gyXU9bQ0gyXVtDSDJdMg==

> <s_epik_cmdline>
J2VwaWtfcHl0aG9uJywgJy1waCcsICc3LjAnLCAnLXRuJywgJzgnLCAnLW1hJywgJzIwMCcsICctbWV0YWxfYmluZGluZycsICctaW1hZScsICc8aW5maWxlLm1hZT4nLCAnLW9tYWUnLCAnPG91dGZpbGUubWFlPic=

> <r_epik_Ionization_Penalty>
0.266074

> <r_epik_Ionization_Penalty_Charging>
0

> <r_epik_Ionization_Penalty_Neutral>
0.266074

> <r_epik_State_Penalty>
0.257924

> <r_epik_Charging_Adjusted_Penalty>
0.257924

> <i_epik_Tot_Q>
0

> <i_epik_Tot_abs_Q>
0

> <r_epik_Metal_State_Penalty>
0.257919

> <b_epik_Metal_Only>
0

> <s_lp_Force_Field>
OPLS_2005

> <r_lp_Energy>
36.7319

> <b_lp_Chiralities_Consistent>
1

> <s_lp_Variant>
AV-unprocessed.smi:2390-4

> <Gold.Version>
5.8.1

> <Gold.Id.Protein>
6NUR|6NUR_protein|mol2

> <Gold.PLP.Fitness>
48.5040

> <Gold.PLP.PLP>
-44.2871

> <Gold.PLP.part.hbond>
-2.0000

> <Gold.PLP.part.metal>
0.0000

> <Gold.PLP.part.buried>
-7.9233

> <Gold.PLP.part.nonpolar>
-33.9335

> <Gold.PLP.part.repulsive>
0.4893

> <Gold.PLP.ligand.clash>
0.0000

> <Gold.PLP.ligand.torsion>
0.8834

> <Gold.PLP.Chemscore.Hbond>
1.9600

> <Gold.PLP.Chemscore.CHOScore>
0.0000

> <Gold.PLP.Chemscore.Metal>
0.0000

> <Gold.Chemscore.Hbonds>
donor molecule, donor type, donor heavy atom, donor atom, acceptor molecule, acceptor atom, score
      L1  H     7    28       P1  8028  0.93
      L1  H    10    29       P1  8028  1.00

> <Gold.PLP.Chemscore.Internal.Correction>
0.1038

> <Gold.Rescore>
     Score         DG    S(hbond)    S(metal)    S(lipo)     H(rot)  DE(clash)    DE(int)     intcor
     16.89     -20.39       1.97        0.00     102.64       1.44       0.08       3.42       ----

> <Gold.Chemscore.Fitness>
16.8890

> <Gold.Chemscore.DG>
-20.3899

> <Gold.Chemscore.ZeroCoef>
-5.4800

> <Gold.Chemscore.Hbond>
1.9721

> <Gold.Chemscore.Metal>
0.0000

> <Gold.Chemscore.Lipo>
102.6368

> <Gold.Chemscore.Internal_Hbond>
0.0000

> <Gold.Chemscore.DEClash>
0.0821

> <Gold.Chemscore.DEInternal>
3.4189

> <Gold.Chemscore.Rot>
1.4396

> <Gold.Chemscore.Internal.Correction>
   9.000000E+99

> <Gold.Chemscore.Hbonds>
donor molecule, donor type, donor heavy atom, donor atom, acceptor molecule, acceptor atom, score
      L1  H     7    28       P1  8028  0.74
      L1  H    10    29       P1  8028  0.96

> <Gold.Chemscore.Hbond.Weighted>
-6.5869

> <Gold.Chemscore.Metal.Weighted>
-0.0000

> <Gold.Chemscore.Lipo.Weighted>
-12.0085

> <Gold.Chemscore.Internal_Hbond.Weighted>
0.0000

> <Gold.Chemscore.DEClash.Weighted>
0.0821

> <Gold.Chemscore.DEInternal.Weighted>
3.4189

> <Gold.Chemscore.Rot.Weighted>
3.6855

> <Gold.Chemscore.Internal.Correction.Weighted>
   9.000000E+99

> <Gold.Protein.RotatedTorsions>
[ 6907 6896 6895 6894 ] final  173.10 input  -60.11 | X-H torsion
[ 7974 7965 7964 7962 ] final  -97.95 input  175.53 | X-H torsion
[ 8008 7997 7996 7995 ] final   71.29 input   59.86 | X-H torsion
[ 10167 10162 10161 10158 ] final  124.07 input  -65.29 | X-H torsion
[ 10718 10713 10712 10709 ] final  155.72 input   66.30 | X-H torsion
[ 10763 10752 10751 10750 ] final  -98.95 input  -60.55 | X-H torsion
[ 11005 11000 10999 10996 ] final  110.30 input  -57.11 | X-H torsion

> <Gold.Protein.ActiveResidues>
 VAL166  LYS551  ARG553  GLY616  TRP617  ASP618  TYR619  PRO620  LYS621  CYS622 
 ASP623  PHE694  ASN695  SER759  ASP760  ASP761  ALA762  ILE779  LEU786  VAL792 
 PHE793  MET794  SER795  GLU796  ALA797  LYS798  CYS799  TRP800  GLU811  SER814 

> <Gold.Protein.RotatedAtoms>
  151.7737  133.3343  159.3451 H   0  0  0  0  0  0  0  0  0  0  0  0  # atno 6907 bound_to 6896
  150.7452  134.5995  159.6038 H   0  0  0  0  0  0  0  0  0  0  0  0  # atno 6908 bound_to 6896
  152.3324  134.7244  160.0337 H   0  0  0  0  0  0  0  0  0  0  0  0  # atno 6909 bound_to 6896
  145.3270  140.9434  143.2683 H   0  0  0  0  0  0  0  0  0  0  0  0  # atno 7974 bound_to 7965
  155.7516  140.3488  155.5153 H   0  0  0  0  0  0  0  0  0  0  0  0  # atno 8008 bound_to 7997
  155.8999  140.1032  157.1379 H   0  0  0  0  0  0  0  0  0  0  0  0  # atno 8009 bound_to 7997
  154.4042  140.1288  156.4410 H   0  0  0  0  0  0  0  0  0  0  0  0  # atno 8010 bound_to 7997
  139.5762  144.6964  151.3646 H   0  0  0  0  0  0  0  0  0  0  0  0  # atno 10167 bound_to 10162
  157.2145  131.0705  151.1949 H   0  0  0  0  0  0  0  0  0  0  0  0  # atno 10718 bound_to 10713
  154.7457  135.4990  153.9201 H   0  0  0  0  0  0  0  0  0  0  0  0  # atno 10763 bound_to 10752
  153.1090  135.6704  153.9543 H   0  0  0  0  0  0  0  0  0  0  0  0  # atno 10764 bound_to 10752
  153.9307  135.3078  155.3425 H   0  0  0  0  0  0  0  0  0  0  0  0  # atno 10765 bound_to 10752
  139.8879  134.9480  156.6257 H   0  0  0  0  0  0  0  0  0  0  0  0  # atno 11005 bound_to 11000
  144.8894  139.4795  143.6685 LP  0  0  0  0  0  0  0  0  0  0  0  0  # atno 17320 bound_to 7965
  146.3060  139.7582  142.9056 LP  0  0  0  0  0  0  0  0  0  0  0  0  # atno 17321 bound_to 7965
  140.7045  143.7549  150.7458 LP  0  0  0  0  0  0  0  0  0  0  0  0  # atno 17342 bound_to 10162
  140.1070  143.4735  152.2392 LP  0  0  0  0  0  0  0  0  0  0  0  0  # atno 17343 bound_to 10162
  157.3638  130.7145  149.6519 LP  0  0  0  0  0  0  0  0  0  0  0  0  # atno 17370 bound_to 10713
  155.9687  130.4218  150.4486 LP  0  0  0  0  0  0  0  0  0  0  0  0  # atno 17371 bound_to 10713
  140.7705  133.8742  155.8488 LP  0  0  0  0  0  0  0  0  0  0  0  0  # atno 17394 bound_to 11000
  140.9846  134.1360  157.4464 LP  0  0  0  0  0  0  0  0  0  0  0  0  # atno 17395 bound_to 11000

$$$$
