#       Name:                AV-unprocessed.smi:2079
#       Creating user name   scv26
#       Creation time:       Fri Mar 27 11:19:02 2020


#       File generated by GOLD software.
#

@<TRIPOS>MOLECULE
AV-unprocessed.smi:2079
    47    48     1
SMALL
NO_CHARGES


@<TRIPOS>ATOM
      1 ****        -7.2301   3.9133   0.4080 C.3            1 S1                 0.0000
      2 ****        -5.8486   3.3559   0.4432 C.2            1 S1                 0.0000
      3 ****        -5.3142   2.2278   0.9990 C.2            1 S1                 0.0000
      4 ****        -3.9388   2.3211   0.6563 C.2            1 S1                 0.0000
      5 ****        -3.0213   1.3163   1.0626 N.am           1 S1                 0.0000
      6 ****        -1.6921   1.2580   0.8619 C.2            1 S1                 0.0000
      7 ****        -1.1140   2.1555   0.2369 O.2            1 S1                 0.0000
      8 ****        -1.1360   0.1411   1.4084 N.pl3          1 S1                -1.0000
      9 ****         0.2931  -0.1682   1.4021 C.3            1 S1                 0.0000
     10 ****         0.6972  -0.8198   0.0636 C.3            1 S1                 0.0000
     11 ****         2.1521  -1.1289   0.0138 N.4            1 S1                 1.0000
     12 ****         2.5046  -2.4956   0.4964 C.3            1 S1                 0.0000
     13 ****         4.0272  -2.6522   0.6409 C.3            1 S1                 0.0000
     14 ****         4.7465  -2.3272  -0.6743 C.3            1 S1                 0.0000
     15 ****         4.3336  -0.9337  -1.1726 C.3            1 S1                 0.0000
     16 ****         2.8015  -0.7887  -1.2878 C.3            1 S1                 0.0000
     17 ****         2.2243  -1.5767  -2.4843 C.3            1 S1                 0.0000
     18 ****        -3.6610   3.4076  -0.0493 N.2            1 S1                 0.0000
     19 ****        -4.8827   4.0765  -0.1882 O.3            1 S1                 0.0000
     20 ****        -7.9520   3.1902   0.7880 H              1 S1                 0.0000
     21 ****        -7.5169   4.1737  -0.6109 H              1 S1                 0.0000
     22 ****        -7.2979   4.8131   1.0196 H              1 S1                 0.0000
     23 ****        -5.8256   1.4616   1.5626 H              1 S1                 0.0000
     24 ****        -3.4187   0.5484   1.5830 H              1 S1                 0.0000
     25 ****         0.9077   0.7179   1.5671 H              1 S1                 0.0000
     26 ****         0.5461  -0.8486   2.2153 H              1 S1                 0.0000
     27 ****         0.1154  -1.7230  -0.1274 H              1 S1                 0.0000
     28 ****         0.4458  -0.1216  -0.7362 H              1 S1                 0.0000
     29 ****         2.0410  -2.6832   1.4652 H              1 S1                 0.0000
     30 ****         2.1061  -3.2496  -0.1829 H              1 S1                 0.0000
     31 ****         4.3883  -1.9889   1.4280 H              1 S1                 0.0000
     32 ****         4.2695  -3.6671   0.9572 H              1 S1                 0.0000
     33 ****         5.8266  -2.3695  -0.5309 H              1 S1                 0.0000
     34 ****         4.5060  -3.0812  -1.4242 H              1 S1                 0.0000
     35 ****         4.7115  -0.1828  -0.4771 H              1 S1                 0.0000
     36 ****         4.8083  -0.7225  -2.1314 H              1 S1                 0.0000
     37 ****         2.6019   0.2674  -1.4757 H              1 S1                 0.0000
     38 ****         2.7039  -1.2684  -3.4136 H              1 S1                 0.0000
     39 ****         1.1552  -1.4035  -2.6062 H              1 S1                 0.0000
     40 ****         2.3735  -2.6514  -2.3867 H              1 S1                 0.0000
     41 ****         2.5650  -0.4911   0.6794 H              1 S1                 0.0000
     42 ****        -1.6348   2.9299  -0.1224 LP             1 S1                 0.0000
     43 ****        -0.1260   2.1065   0.0910 LP             1 S1                 0.0000
     44 ****        -1.7503  -0.5156   1.8461 LP             1 S1                 0.0000
     45 ****        -2.7702   3.6891  -0.4059 LP             1 S1                 0.0000
     46 ****        -4.8175   4.9853   0.2238 LP             1 S1                 0.0000
     47 ****        -5.1093   4.1656  -1.1581 LP             1 S1                 0.0000
@<TRIPOS>BOND
    1    1    2 1     
    2    1   20 1     
    3    1   21 1     
    4    1   22 1     
    5    2   19 1     
    6    2    3 2     
    7    3    4 1     
    8    3   23 1     
    9    4    5 1     
   10    4   18 2     
   11    5    6 am    
   12    5   24 1     
   13    6    7 2     
   14    6    8 1     
   15    8    9 1     
   16    9   10 1     
   17    9   25 1     
   18    9   26 1     
   19   10   11 1     
   20   10   27 1     
   21   10   28 1     
   22   11   16 1     
   23   11   12 1     
   24   11   41 1     
   25   12   13 1     
   26   12   29 1     
   27   12   30 1     
   28   13   14 1     
   29   13   31 1     
   30   13   32 1     
   31   14   15 1     
   32   14   33 1     
   33   14   34 1     
   34   15   16 1     
   35   15   35 1     
   36   15   36 1     
   37   16   17 1     
   38   16   37 1     
   39   17   38 1     
   40   17   39 1     
   41   17   40 1     
   42   18   19 1     
   43    7   42 1     
   44    7   43 1     
   45    8   44 1     
   46   18   45 1     
   47   19   46 1     
   48   19   47 1     
@<TRIPOS>SUBSTRUCTURE
      1 S1             1
@<TRIPOS>SET
LONE_PAIRS      STATIC     ATOMS    <user>   **** ""
6 42 43 44 45 46 47
DONOR_HYDROGENS      STATIC     ATOMS    <user>   **** ""
2 24 41
ATOM$BLUE        STATIC     ATOMS    COLORGROUP SYSTEM
6 42 43 44 45 46 47
ATOM$RED        STATIC     ATOMS    COLORGROUP SYSTEM
2 24 41
