#       Name:                AV-unprocessed.smi:1762
#       Creating user name   scv26
#       Creation time:       Fri Mar 27 08:33:35 2020


#       File generated by GOLD software.
#

@<TRIPOS>MOLECULE
AV-unprocessed.smi:1762
    58    59     1
SMALL
NO_CHARGES


@<TRIPOS>ATOM
      1 ****        -4.3351  -1.5904   3.0811 C.3            1 S1                 0.0000
      2 ****        -2.8271  -1.7299   2.8442 C.3            1 S1                 0.0000
      3 ****        -2.3809  -1.0470   1.5390 C.3            1 S1                 0.0000
      4 ****        -0.9285  -1.0956   1.3380 N.3            1 S1                 0.0000
      5 ****        -0.5101  -0.5107   0.0322 C.3            1 S1                 0.0000
      6 ****         1.0142  -0.2616  -0.0773 C.2            1 S1                 0.0000
      7 ****         1.7972  -1.2028  -0.2023 O.2            1 S1                 0.0000
      8 ****         1.4221   1.0150   0.0097 N.am           1 S1                 0.0000
      9 ****         2.8153   1.4511   0.0046 C.3            1 S1                 0.0000
     10 ****         3.4386   1.4838  -1.4043 C.3            1 S1                 0.0000
     11 ****         2.6940   2.3781  -2.3799 C.ar           1 S1                 0.0000
     12 ****         3.0076   3.7465  -2.5284 C.ar           1 S1                 0.0000
     13 ****         2.2721   4.5270  -3.4446 C.ar           1 S1                 0.0000
     14 ****         1.2385   3.9243  -4.1913 C.ar           1 S1                 0.0000
     15 ****         0.9670   2.5540  -4.0029 C.ar           1 S1                 0.0000
     16 ****         1.6942   1.8407  -3.1155 N.pl3          1 S1                 1.0000
     17 ****        -1.0619  -1.2678  -1.2241 C.3            1 S1                 0.0000
     18 ****        -0.7510  -2.7780  -1.2355 C.3            1 S1                 0.0000
     19 ****        -0.6526  -0.6266  -2.5641 C.3            1 S1                 0.0000
     20 ****        -0.2743  -0.5108   2.5222 C.3            1 S1                 0.0000
     21 ****        -0.7301  -1.1433   3.8527 C.3            1 S1                 0.0000
     22 ****        -0.1461  -2.5467   4.0931 C.3            1 S1                 0.0000
     23 ****        -2.1524  -1.1354   3.9474 O.3            1 S1                 0.0000
     24 ****        -4.9035  -2.0480   2.2711 H              1 S1                 0.0000
     25 ****        -4.6295  -0.5425   3.1463 H              1 S1                 0.0000
     26 ****        -4.6305  -2.0777   4.0104 H              1 S1                 0.0000
     27 ****        -2.5868  -2.7924   2.7994 H              1 S1                 0.0000
     28 ****        -2.9031  -1.5490   0.7276 H              1 S1                 0.0000
     29 ****        -2.7203  -0.0096   1.5346 H              1 S1                 0.0000
     30 ****        -0.9569   0.4848  -0.0176 H              1 S1                 0.0000
     31 ****         0.7186   1.7295   0.1301 H              1 S1                 0.0000
     32 ****         2.8521   2.4486   0.4430 H              1 S1                 0.0000
     33 ****         3.4059   0.8093   0.6602 H              1 S1                 0.0000
     34 ****         4.4720   1.8253  -1.3351 H              1 S1                 0.0000
     35 ****         3.4853   0.4734  -1.8134 H              1 S1                 0.0000
     36 ****         3.8003   4.1944  -1.9468 H              1 S1                 0.0000
     37 ****         2.4978   5.5757  -3.5720 H              1 S1                 0.0000
     38 ****         0.6632   4.5047  -4.8979 H              1 S1                 0.0000
     39 ****         0.1961   2.0109  -4.5300 H              1 S1                 0.0000
     40 ****        -2.1464  -1.1742  -1.2127 H              1 S1                 0.0000
     41 ****         0.3145  -2.9776  -1.3412 H              1 S1                 0.0000
     42 ****        -1.2542  -3.2701  -2.0684 H              1 S1                 0.0000
     43 ****        -1.0920  -3.2658  -0.3225 H              1 S1                 0.0000
     44 ****         0.4102  -0.7536  -2.7709 H              1 S1                 0.0000
     45 ****        -0.8766   0.4402  -2.5727 H              1 S1                 0.0000
     46 ****        -1.1967  -1.0797  -3.3932 H              1 S1                 0.0000
     47 ****         0.8092  -0.6183   2.4776 H              1 S1                 0.0000
     48 ****        -0.4775   0.5610   2.5536 H              1 S1                 0.0000
     49 ****        -0.3699  -0.5101   4.6639 H              1 S1                 0.0000
     50 ****         0.9419  -2.5086   4.1492 H              1 S1                 0.0000
     51 ****        -0.4048  -3.2421   3.2948 H              1 S1                 0.0000
     52 ****        -0.5095  -2.9637   5.0324 H              1 S1                 0.0000
     53 ****         1.4799   0.8505  -2.9936 H              1 S1                 0.0000
     54 ****        -0.6221  -2.0446   1.2635 LP             1 S1                 0.0000
     55 ****         1.4510  -2.1404  -0.2341 LP             1 S1                 0.0000
     56 ****         2.7797  -1.0300  -0.2721 LP             1 S1                 0.0000
     57 ****        -2.4119  -1.6325   4.7754 LP             1 S1                 0.0000
     58 ****        -2.4540  -0.1848   4.0210 LP             1 S1                 0.0000
@<TRIPOS>BOND
    1    1    2 1     
    2    1   24 1     
    3    1   25 1     
    4    1   26 1     
    5    2   23 1     
    6    2    3 1     
    7    2   27 1     
    8    3    4 1     
    9    3   28 1     
   10    3   29 1     
   11    4    5 1     
   12    4   20 1     
   13    5    6 1     
   14    5   17 1     
   15    5   30 1     
   16    6    7 2     
   17    6    8 am    
   18    8    9 1     
   19    8   31 1     
   20    9   10 1     
   21    9   32 1     
   22    9   33 1     
   23   10   11 1     
   24   10   34 1     
   25   10   35 1     
   26   11   16 ar    
   27   11   12 ar    
   28   12   13 ar    
   29   12   36 1     
   30   13   14 ar    
   31   13   37 1     
   32   14   15 ar    
   33   14   38 1     
   34   15   16 ar    
   35   15   39 1     
   36   16   53 1     
   37   17   18 1     
   38   17   19 1     
   39   17   40 1     
   40   18   41 1     
   41   18   42 1     
   42   18   43 1     
   43   19   44 1     
   44   19   45 1     
   45   19   46 1     
   46   20   21 1     
   47   20   47 1     
   48   20   48 1     
   49   21   22 1     
   50   21   23 1     
   51   21   49 1     
   52   22   50 1     
   53   22   51 1     
   54   22   52 1     
   55    4   54 1     
   56    7   55 1     
   57    7   56 1     
   58   23   57 1     
   59   23   58 1     
@<TRIPOS>SUBSTRUCTURE
      1 S1             1
@<TRIPOS>SET
LONE_PAIRS      STATIC     ATOMS    <user>   **** ""
5 54 55 56 57 58
DONOR_HYDROGENS      STATIC     ATOMS    <user>   **** ""
2 31 53
ATOM$BLUE        STATIC     ATOMS    COLORGROUP SYSTEM
5 54 55 56 57 58
ATOM$RED        STATIC     ATOMS    COLORGROUP SYSTEM
2 31 53
