AV-unprocessed.smi:1084|AV-procd|sdf|4718|dock8
  -GOLD-   22720 3243D 1   1.00000     0.00000
 Structure written by MMmdl.
 53 55  0  0  0  0  0  0  0  0  2 V2000
  143.9296  137.0941  152.4884 C   0  0  0  0  0  0  0  0  0  0  0  0
  145.4636  137.0634  152.6782 C   0  0  2  0  0  0  0  0  0  0  0  0
  146.1482  138.1393  151.7898 C   0  0  0  0  0  0  0  0  0  0  0  0
  147.4352  138.5834  152.3209 N   0  0  0  0  0  0  0  0  0  0  0  0
  147.6151  139.2829  153.4509 C   0  0  0  0  0  0  0  0  0  0  0  0
  146.6929  139.6182  154.1927 O   0  0  0  0  0  0  0  0  0  0  0  0
  148.9174  139.5542  153.6441 N   0  0  0  0  0  0  0  0  0  0  0  0
  149.5519  140.2486  154.7115 C   0  0  0  0  0  0  0  0  0  0  0  0
  148.9177  141.1734  155.5747 C   0  0  0  0  0  0  0  0  0  0  0  0
  149.6717  141.7788  156.5988 C   0  0  0  0  0  0  0  0  0  0  0  0
  151.0399  141.4490  156.7422 C   0  0  0  0  0  0  0  0  0  0  0  0
  151.8116  142.0417  157.7654 N   0  0  0  0  0  0  0  0  0  0  0  0
  151.9729  143.4945  157.7470 C   0  0  0  0  0  0  0  0  0  0  0  0
  153.0624  143.9260  158.7429 C   0  0  0  0  0  0  0  0  0  0  0  0
  152.7509  143.4260  160.0388 O   0  0  0  0  0  0  0  0  0  0  0  0
  152.7074  142.0031  160.0600 C   0  0  0  0  0  0  0  0  0  0  0  0
  151.6103  141.4983  159.1063 C   0  0  0  0  0  0  0  0  0  0  0  0
  151.6416  140.5569  155.9184 N   0  0  0  0  0  0  0  0  0  0  0  0
  150.9168  139.9809  154.9375 C   0  0  0  0  0  0  0  0  0  0  0  0
  145.9798  135.6736  152.4449 N   0  3  0  0  0  0  0  0  0  0  0  0
  145.9143  134.7527  153.6138 C   0  0  0  0  0  0  0  0  0  0  0  0
  146.5043  133.3745  153.2674 C   0  0  0  0  0  0  0  0  0  0  0  0
  145.8210  132.8228  152.1521 O   0  0  0  0  0  0  0  0  0  0  0  0
  145.9683  133.6373  150.9987 C   0  0  0  0  0  0  0  0  0  0  0  0
  145.3499  135.0195  151.2647 C   0  0  0  0  0  0  0  0  0  0  0  0
  143.5121  138.0725  152.7236 H   0  0  0  0  0  0  0  0  0  0  0  0
  143.4095  136.3894  153.1344 H   0  0  0  0  0  0  0  0  0  0  0  0
  143.6577  136.8602  151.4588 H   0  0  0  0  0  0  0  0  0  0  0  0
  145.6838  137.3251  153.7147 H   0  0  0  0  0  0  0  0  0  0  0  0
  146.3746  137.7345  150.8035 H   0  0  0  0  0  0  0  0  0  0  0  0
  145.4772  138.9854  151.6321 H   0  0  0  0  0  0  0  0  0  0  0  0
  148.2529  138.3520  151.7757 H   0  0  0  0  0  0  0  0  0  0  0  0
  149.5430  139.2278  152.9220 H   0  0  0  0  0  0  0  0  0  0  0  0
  147.8742  141.4289  155.4885 H   0  0  0  0  0  0  0  0  0  0  0  0
  149.1882  142.4724  157.2706 H   0  0  0  0  0  0  0  0  0  0  0  0
  152.2452  143.8319  156.7461 H   0  0  0  0  0  0  0  0  0  0  0  0
  151.0240  143.9672  158.0046 H   0  0  0  0  0  0  0  0  0  0  0  0
  154.0431  143.5657  158.4276 H   0  0  0  0  0  0  0  0  0  0  0  0
  153.1220  145.0136  158.7857 H   0  0  0  0  0  0  0  0  0  0  0  0
  153.6808  141.5948  159.7832 H   0  0  0  0  0  0  0  0  0  0  0  0
  152.5013  141.6702  161.0773 H   0  0  0  0  0  0  0  0  0  0  0  0
  150.6302  141.8112  159.4682 H   0  0  0  0  0  0  0  0  0  0  0  0
  151.6148  140.4092  159.1061 H   0  0  0  0  0  0  0  0  0  0  0  0
  151.4482  139.2788  154.3116 H   0  0  0  0  0  0  0  0  0  0  0  0
  146.4857  135.1466  154.4535 H   0  0  0  0  0  0  0  0  0  0  0  0
  144.8784  134.6459  153.9399 H   0  0  0  0  0  0  0  0  0  0  0  0
  147.5719  133.4510  153.0544 H   0  0  0  0  0  0  0  0  0  0  0  0
  146.3983  132.6979  154.1155 H   0  0  0  0  0  0  0  0  0  0  0  0
  147.0213  133.7242  150.7264 H   0  0  0  0  0  0  0  0  0  0  0  0
  145.4626  133.1553  150.1620 H   0  0  0  0  0  0  0  0  0  0  0  0
  144.2775  134.9141  151.4363 H   0  0  0  0  0  0  0  0  0  0  0  0
  145.4663  135.6253  150.3683 H   0  0  0  0  0  0  0  0  0  0  0  0
  146.9629  135.7734  152.2345 H   0  0  0  0  0  0  0  0  0  0  0  0
  1  2  1  0  0  0  0
  1 26  1  0  0  0  0
  1 27  1  0  0  0  0
  1 28  1  0  0  0  0
  2  3  1  0  0  0  0
  2 20  1  0  0  0  0
  2 29  1  0  0  0  0
  3  4  1  0  0  0  0
  3 30  1  0  0  0  0
  3 31  1  0  0  0  0
  4  5  1  0  0  0  0
  4 32  1  0  0  0  0
  5  6  2  0  0  0  0
  5  7  1  0  0  0  0
  7  8  1  0  0  0  0
  7 33  1  0  0  0  0
  8 19  1  0  0  0  0
  8  9  2  0  0  0  0
  9 10  1  0  0  0  0
  9 34  1  0  0  0  0
 10 11  2  0  0  0  0
 10 35  1  0  0  0  0
 11 12  1  0  0  0  0
 11 18  1  0  0  0  0
 12 17  1  0  0  0  0
 12 13  1  0  0  0  0
 13 14  1  0  0  0  0
 13 36  1  0  0  0  0
 13 37  1  0  0  0  0
 14 15  1  0  0  0  0
 14 38  1  0  0  0  0
 14 39  1  0  0  0  0
 15 16  1  0  0  0  0
 16 17  1  0  0  0  0
 16 40  1  0  0  0  0
 16 41  1  0  0  0  0
 17 42  1  0  0  0  0
 17 43  1  0  0  0  0
 18 19  2  0  0  0  0
 19 44  1  0  0  0  0
 20 25  1  0  0  0  0
 20 21  1  0  0  0  0
 20 53  1  0  0  0  0
 21 22  1  0  0  0  0
 21 45  1  0  0  0  0
 21 46  1  0  0  0  0
 22 23  1  0  0  0  0
 22 47  1  0  0  0  0
 22 48  1  0  0  0  0
 23 24  1  0  0  0  0
 24 25  1  0  0  0  0
 24 49  1  0  0  0  0
 24 50  1  0  0  0  0
 25 51  1  0  0  0  0
 25 52  1  0  0  0  0
M  CHG  1  20   1
M  END
> <s_m_source_file>
AV-unprocessed.smi

> <i_m_source_file_index>
1084

> <i_lp_mmshare_version>
43012

> <i_f3d_flags>
0

> <s_epik_input>
W0NIMl0xW0NIMl1PW0NIMl1bQ0gyXU4xW0NASF0oW0NIM10pW0NIMl1bTkhdQyg9TylbTkhdYzJbY0hdW2NIXWMobltjSF0yKU4zW0NIMl1bQ0gyXU9bQ0gyXVtDSDJdMw==

> <s_epik_cmdline>
J2VwaWtfcHl0aG9uJywgJy1waCcsICc3LjAnLCAnLXRuJywgJzgnLCAnLW1hJywgJzIwMCcsICctbWV0YWxfYmluZGluZycsICctaW1hZScsICc8aW5maWxlLm1hZT4nLCAnLW9tYWUnLCAnPG91dGZpbGUubWFlPic=

> <r_lp_tautomer_probability>
1

> <r_epik_Ionization_Penalty>
0.604236

> <r_epik_Ionization_Penalty_Charging>
0.602531

> <r_epik_Ionization_Penalty_Neutral>
0.00170595

> <r_epik_State_Penalty>
0.59929

> <r_epik_Charging_Adjusted_Penalty>
1.20182

> <i_epik_Tot_Q>
1

> <i_epik_Tot_abs_Q>
1

> <r_epik_Metal_State_Penalty>
0.598238

> <b_epik_Metal_Only>
0

> <s_lp_Force_Field>
OPLS_2005

> <r_lp_Energy>
38.6371

> <b_lp_Chiralities_Consistent>
1

> <s_lp_Variant>
AV-unprocessed.smi:1084-3

> <Gold.Version>
5.8.1

> <Gold.Id.Protein>
6NUR|6NUR_protein|mol2

> <Gold.PLP.Fitness>
51.8451

> <Gold.PLP.PLP>
-44.0297

> <Gold.PLP.part.hbond>
-4.4637

> <Gold.PLP.part.metal>
0.0000

> <Gold.PLP.part.buried>
-1.9279

> <Gold.PLP.part.nonpolar>
-37.5998

> <Gold.PLP.part.repulsive>
0.5016

> <Gold.PLP.ligand.clash>
0.0000

> <Gold.PLP.ligand.torsion>
1.1243

> <Gold.PLP.Chemscore.Hbond>
3.2122

> <Gold.PLP.Chemscore.CHOScore>
0.0000

> <Gold.PLP.Chemscore.Metal>
0.0000

> <Gold.Chemscore.Hbonds>
donor molecule, donor type, donor heavy atom, donor atom, acceptor molecule, acceptor atom, score
      L1  H     4    32       P1  7948  0.22
      L1  H     7    33       P1  7957  0.46
      L1  H    20    53       P1  7948  1.89

> <Gold.PLP.Chemscore.Internal.Correction>
0.4275

> <Gold.Rescore>
     Score         DG    S(hbond)    S(metal)    S(lipo)     H(rot)  DE(clash)    DE(int)     intcor
     20.62     -21.96       2.69        0.00     100.66       1.68       0.35       0.99       ----

> <Gold.Chemscore.Fitness>
20.6186

> <Gold.Chemscore.DG>
-21.9558

> <Gold.Chemscore.ZeroCoef>
-5.4800

> <Gold.Chemscore.Hbond>
2.6944

> <Gold.Chemscore.Metal>
0.0000

> <Gold.Chemscore.Lipo>
100.6584

> <Gold.Chemscore.Internal_Hbond>
0.0000

> <Gold.Chemscore.DEClash>
0.3459

> <Gold.Chemscore.DEInternal>
0.9913

> <Gold.Chemscore.Rot>
1.6800

> <Gold.Chemscore.Internal.Correction>
   9.000000E+99

> <Gold.Chemscore.Hbonds>
donor molecule, donor type, donor heavy atom, donor atom, acceptor molecule, acceptor atom, score
      L1  H     4    32       P1  7948  0.22
      L1  H     7    33       P1  7957  0.46
      L1  H    20    53       P1  7948  0.90

> <Gold.Chemscore.Hbond.Weighted>
-8.9994

> <Gold.Chemscore.Metal.Weighted>
-0.0000

> <Gold.Chemscore.Lipo.Weighted>
-11.7770

> <Gold.Chemscore.Internal_Hbond.Weighted>
0.0000

> <Gold.Chemscore.DEClash.Weighted>
0.3459

> <Gold.Chemscore.DEInternal.Weighted>
0.9913

> <Gold.Chemscore.Rot.Weighted>
4.3007

> <Gold.Chemscore.Internal.Correction.Weighted>
   9.000000E+99

> <Gold.Protein.RotatedTorsions>
[ 6907 6896 6895 6894 ] final  -81.79 input  -60.11 | X-H torsion
[ 7974 7965 7964 7962 ] final   74.77 input  175.53 | X-H torsion
[ 8008 7997 7996 7995 ] final -166.85 input   59.86 | X-H torsion
[ 10167 10162 10161 10158 ] final  -61.48 input  -65.29 | X-H torsion
[ 10718 10713 10712 10709 ] final   38.92 input   66.30 | X-H torsion
[ 10763 10752 10751 10750 ] final -157.92 input  -60.55 | X-H torsion
[ 11005 11000 10999 10996 ] final  167.11 input  -57.11 | X-H torsion

> <Gold.Protein.ActiveResidues>
 VAL166  LYS551  ARG553  GLY616  TRP617  ASP618  TYR619  PRO620  LYS621  CYS622 
 ASP623  PHE694  ASN695  SER759  ASP760  ASP761  ALA762  ILE779  LEU786  VAL792 
 PHE793  MET794  SER795  GLU796  ALA797  LYS798  CYS799  TRP800  GLU811  SER814 

> <Gold.Protein.RotatedAtoms>
  150.6906  134.3764  159.5014 H   0  0  0  0  0  0  0  0  0  0  0  0  # atno 6907 bound_to 6896
  152.1572  134.8938  160.0553 H   0  0  0  0  0  0  0  0  0  0  0  0  # atno 6908 bound_to 6896
  152.0014  133.3792  159.4220 H   0  0  0  0  0  0  0  0  0  0  0  0  # atno 6909 bound_to 6896
  145.7240  139.2659  143.1579 H   0  0  0  0  0  0  0  0  0  0  0  0  # atno 7974 bound_to 7965
  155.8695  140.0991  157.1559 H   0  0  0  0  0  0  0  0  0  0  0  0  # atno 8008 bound_to 7997
  154.3996  140.1350  156.4123 H   0  0  0  0  0  0  0  0  0  0  0  0  # atno 8009 bound_to 7997
  155.7766  140.3459  155.5277 H   0  0  0  0  0  0  0  0  0  0  0  0  # atno 8010 bound_to 7997
  140.6003  143.2360  151.5944 H   0  0  0  0  0  0  0  0  0  0  0  0  # atno 10167 bound_to 10162
  157.3644  130.7667  149.7072 H   0  0  0  0  0  0  0  0  0  0  0  0  # atno 10718 bound_to 10713
  154.7598  135.3114  154.8401 H   0  0  0  0  0  0  0  0  0  0  0  0  # atno 10763 bound_to 10752
  153.9165  135.6800  153.4753 H   0  0  0  0  0  0  0  0  0  0  0  0  # atno 10764 bound_to 10752
  153.1197  135.4828  154.9107 H   0  0  0  0  0  0  0  0  0  0  0  0  # atno 10765 bound_to 10752
  140.2734  134.7808  157.3696 H   0  0  0  0  0  0  0  0  0  0  0  0  # atno 11005 bound_to 11000
  146.0599  140.7982  142.9740 LP  0  0  0  0  0  0  0  0  0  0  0  0  # atno 17320 bound_to 7965
  144.6909  140.3181  143.7237 LP  0  0  0  0  0  0  0  0  0  0  0  0  # atno 17321 bound_to 7965
  139.5286  144.2983  152.1095 LP  0  0  0  0  0  0  0  0  0  0  0  0  # atno 17342 bound_to 10162
  140.2162  144.4512  150.6362 LP  0  0  0  0  0  0  0  0  0  0  0  0  # atno 17343 bound_to 10162
  155.9743  130.4104  150.3931 LP  0  0  0  0  0  0  0  0  0  0  0  0  # atno 17370 bound_to 10713
  157.2013  131.0438  151.2649 LP  0  0  0  0  0  0  0  0  0  0  0  0  # atno 17371 bound_to 10713
  140.1351  134.5044  155.8075 LP  0  0  0  0  0  0  0  0  0  0  0  0  # atno 17394 bound_to 11000
  141.2174  133.6804  156.7110 LP  0  0  0  0  0  0  0  0  0  0  0  0  # atno 17395 bound_to 11000

$$$$
