AV-unprocessed.smi:2761|AV-procd|sdf|10634|dock10
  -GOLD-   2272015 83D 1   1.00000     0.00000
 Structure written by MMmdl.
 26 27  0  0  0  0  0  0  0  0  2 V2000
  149.3524  135.6566  158.6803 O   0  0  0  0  0  0  0  0  0  0  0  0
  148.4970  136.4418  159.0947 C   0  0  0  0  0  0  0  0  0  0  0  0
  148.2307  137.6521  158.5568 N   0  0  0  0  0  0  0  0  0  0  0  0
  148.8295  138.2588  157.4482 C   0  0  0  0  0  0  0  0  0  0  0  0
  148.5225  139.6634  157.3593 C   0  0  0  0  0  0  0  0  0  0  0  0
  149.0501  140.3533  156.3237 C   0  0  0  0  0  0  0  0  0  0  0  0
  149.9028  139.6979  155.3288 C   0  0  0  0  0  0  0  0  0  0  0  0
  150.3611  140.3643  154.4034 O   0  0  0  0  0  0  0  0  0  0  0  0
  150.1526  138.3580  155.4776 N   0  5  0  0  0  0  0  0  0  0  0  0
  149.5790  137.6320  156.5932 N   0  0  0  0  0  0  0  0  0  0  0  0
  147.6624  136.0666  160.3298 C   0  0  2  0  0  0  0  0  0  0  0  0
  146.1471  135.9965  160.0292 C   0  0  0  0  0  0  0  0  0  0  0  0
  145.4422  135.6829  161.2238 O   0  0  0  0  0  0  0  0  0  0  0  0
  145.6645  136.6611  162.2293 C   0  0  0  0  0  0  0  0  0  0  0  0
  147.1678  136.7194  162.5422 C   0  0  0  0  0  0  0  0  0  0  0  0
  147.8747  137.0395  161.3518 O   0  0  0  0  0  0  0  0  0  0  0  0
  147.5000  138.1736  159.0177 H   0  0  0  0  0  0  0  0  0  0  0  0
  147.8984  140.1803  158.0734 H   0  0  0  0  0  0  0  0  0  0  0  0
  148.8398  141.4081  156.2268 H   0  0  0  0  0  0  0  0  0  0  0  0
  148.0137  135.0946  160.6805 H   0  0  0  0  0  0  0  0  0  0  0  0
  145.7817  136.9389  159.6175 H   0  0  0  0  0  0  0  0  0  0  0  0
  145.9336  135.2201  159.2938 H   0  0  0  0  0  0  0  0  0  0  0  0
  145.2965  137.6337  161.8991 H   0  0  0  0  0  0  0  0  0  0  0  0
  145.1009  136.3896  163.1222 H   0  0  0  0  0  0  0  0  0  0  0  0
  147.3698  137.4834  163.2928 H   0  0  0  0  0  0  0  0  0  0  0  0
  147.5186  135.7688  162.9466 H   0  0  0  0  0  0  0  0  0  0  0  0
  1  2  2  0  0  0  0
  2  3  1  0  0  0  0
  2 11  1  0  0  0  0
  3 17  1  0  0  0  0
  3  4  1  0  0  0  0
  4  5  1  0  0  0  0
  4 10  2  0  0  0  0
  5  6  2  0  0  0  0
  5 18  1  0  0  0  0
  6  7  1  0  0  0  0
  6 19  1  0  0  0  0
  7  8  2  0  0  0  0
  7  9  1  0  0  0  0
  9 10  1  0  0  0  0
 11 16  1  0  0  0  0
 11 12  1  0  0  0  0
 11 20  1  0  0  0  0
 12 13  1  0  0  0  0
 12 21  1  0  0  0  0
 12 22  1  0  0  0  0
 13 14  1  0  0  0  0
 14 15  1  0  0  0  0
 14 23  1  0  0  0  0
 14 24  1  0  0  0  0
 15 16  1  0  0  0  0
 15 25  1  0  0  0  0
 15 26  1  0  0  0  0
M  CHG  1   9  -1
M  END
> <s_m_source_file>
AV-unprocessed.smi

> <i_m_source_file_index>
2761

> <i_lp_mmshare_version>
43012

> <i_f3d_flags>
0

> <s_epik_input>
TzFbQ0gyXVtDSDJdT1tDSDJdW0NASF0xQyg9TylbTkhdYzJbY0hdW2NIXWMoW09IXSlubjI=

> <s_epik_cmdline>
J2VwaWtfcHl0aG9uJywgJy1waCcsICc3LjAnLCAnLXRuJywgJzgnLCAnLW1hJywgJzIwMCcsICctbWV0YWxfYmluZGluZycsICctaW1hZScsICc8aW5maWxlLm1hZT4nLCAnLW9tYWUnLCAnPG91dGZpbGUubWFlPic=

> <r_lp_tautomer_probability>
1

> <r_epik_Ionization_Penalty>
4.21844

> <r_epik_Ionization_Penalty_Charging>
0.119247

> <r_epik_Ionization_Penalty_Neutral>
4.0992

> <r_epik_State_Penalty>
4.09486

> <r_epik_Charging_Adjusted_Penalty>
4.2141

> <i_epik_Tot_Q>
-1

> <i_epik_Tot_abs_Q>
1

> <r_epik_Metal_State_Penalty>
0.651223

> <b_epik_Metal_Only>
1

> <s_lp_Force_Field>
OPLS_2005

> <r_lp_Energy>
28.3559

> <b_lp_Chiralities_Consistent>
1

> <s_lp_Variant>
AV-unprocessed.smi:2761-3

> <Gold.Version>
5.8.1

> <Gold.Id.Protein>
6NUR|6NUR_protein|mol2

> <Gold.PLP.Fitness>
29.7693

> <Gold.PLP.PLP>
-18.6486

> <Gold.PLP.part.hbond>
-3.9684

> <Gold.PLP.part.metal>
0.0000

> <Gold.PLP.part.buried>
-2.6985

> <Gold.PLP.part.nonpolar>
-11.2262

> <Gold.PLP.part.repulsive>
0.2993

> <Gold.PLP.ligand.clash>
0.0000

> <Gold.PLP.ligand.torsion>
0.0444

> <Gold.PLP.Chemscore.Hbond>
3.7360

> <Gold.PLP.Chemscore.CHOScore>
0.0000

> <Gold.PLP.Chemscore.Metal>
0.0000

> <Gold.Chemscore.Hbonds>
donor molecule, donor type, donor heavy atom, donor atom, acceptor molecule, acceptor atom, score
      P1  H  6896  6909       L1     1  1.00
      P1  H  6931  6943       L1    16  1.00
      P1  H  6934  6947       L1    16  0.56
      P1  H  7989  7998       L1     8  1.00

> <Gold.PLP.Chemscore.Internal.Correction>
0.0016

> <Gold.Rescore>
     Score         DG    S(hbond)    S(metal)    S(lipo)     H(rot)  DE(clash)    DE(int)     intcor
     16.42     -17.75       3.51        0.00      26.45       1.00       0.00       1.33       ----

> <Gold.Chemscore.Fitness>
16.4244

> <Gold.Chemscore.DG>
-17.7517

> <Gold.Chemscore.ZeroCoef>
-5.4800

> <Gold.Chemscore.Hbond>
3.5141

> <Gold.Chemscore.Metal>
0.0000

> <Gold.Chemscore.Lipo>
26.4499

> <Gold.Chemscore.Internal_Hbond>
0.0000

> <Gold.Chemscore.DEClash>
0.0009

> <Gold.Chemscore.DEInternal>
1.3263

> <Gold.Chemscore.Rot>
1.0000

> <Gold.Chemscore.Internal.Correction>
   9.000000E+99

> <Gold.Chemscore.Hbonds>
donor molecule, donor type, donor heavy atom, donor atom, acceptor molecule, acceptor atom, score
      P1  H  6896  6909       L1     1  1.00
      P1  H  6931  6943       L1    16  0.39
      P1  H  6934  6947       L1    16  0.18
      P1  H  7989  7998       L1     8  0.95

> <Gold.Chemscore.Hbond.Weighted>
-11.7370

> <Gold.Chemscore.Metal.Weighted>
-0.0000

> <Gold.Chemscore.Lipo.Weighted>
-3.0946

> <Gold.Chemscore.Internal_Hbond.Weighted>
0.0000

> <Gold.Chemscore.DEClash.Weighted>
0.0009

> <Gold.Chemscore.DEInternal.Weighted>
1.3263

> <Gold.Chemscore.Rot.Weighted>
2.5600

> <Gold.Chemscore.Internal.Correction.Weighted>
   9.000000E+99

> <Gold.Protein.RotatedTorsions>
[ 6907 6896 6895 6894 ] final   46.89 input  -60.11 | X-H torsion
[ 7974 7965 7964 7962 ] final  134.49 input  175.53 | X-H torsion
[ 8008 7997 7996 7995 ] final   75.95 input   59.86 | X-H torsion
[ 10167 10162 10161 10158 ] final    8.35 input  -65.29 | X-H torsion
[ 10718 10713 10712 10709 ] final  -17.03 input   66.30 | X-H torsion
[ 10763 10752 10751 10750 ] final  -69.56 input  -60.55 | X-H torsion
[ 11005 11000 10999 10996 ] final  -87.74 input  -57.11 | X-H torsion

> <Gold.Protein.ActiveResidues>
 VAL166  LYS551  ARG553  GLY616  TRP617  ASP618  TYR619  PRO620  LYS621  CYS622 
 ASP623  PHE694  ASN695  SER759  ASP760  ASP761  ALA762  ILE779  LEU786  VAL792 
 PHE793  MET794  SER795  GLU796  ALA797  LYS798  CYS799  TRP800  GLU811  SER814 

> <Gold.Protein.RotatedAtoms>
  152.2617  134.8027  160.0429 H   0  0  0  0  0  0  0  0  0  0  0  0  # atno 6907 bound_to 6896
  151.8671  133.3463  159.3731 H   0  0  0  0  0  0  0  0  0  0  0  0  # atno 6908 bound_to 6896
  150.7119  134.5076  159.5636 H   0  0  0  0  0  0  0  0  0  0  0  0  # atno 6909 bound_to 6896
  144.9758  139.4556  143.5410 H   0  0  0  0  0  0  0  0  0  0  0  0  # atno 7974 bound_to 7965
  155.8203  140.3470  155.5510 H   0  0  0  0  0  0  0  0  0  0  0  0  # atno 8008 bound_to 7997
  155.8349  140.0932  157.1790 H   0  0  0  0  0  0  0  0  0  0  0  0  # atno 8009 bound_to 7997
  154.4004  140.1405  156.3645 H   0  0  0  0  0  0  0  0  0  0  0  0  # atno 8010 bound_to 7997
  140.6319  143.7974  150.7307 H   0  0  0  0  0  0  0  0  0  0  0  0  # atno 10167 bound_to 10162
  156.5792  130.4770  149.6328 H   0  0  0  0  0  0  0  0  0  0  0  0  # atno 10718 bound_to 10713
  154.4052  135.6022  153.5920 H   0  0  0  0  0  0  0  0  0  0  0  0  # atno 10763 bound_to 10752
  152.9789  135.5916  154.4136 H   0  0  0  0  0  0  0  0  0  0  0  0  # atno 10764 bound_to 10752
  154.3940  135.2842  155.2115 H   0  0  0  0  0  0  0  0  0  0  0  0  # atno 10765 bound_to 10752
  141.1612  133.7529  156.9350 H   0  0  0  0  0  0  0  0  0  0  0  0  # atno 11005 bound_to 11000
  146.3395  139.9000  142.8796 LP  0  0  0  0  0  0  0  0  0  0  0  0  # atno 17320 bound_to 7965
  145.2492  141.0037  143.3891 LP  0  0  0  0  0  0  0  0  0  0  0  0  # atno 17321 bound_to 7965
  140.1587  143.4294  152.2082 LP  0  0  0  0  0  0  0  0  0  0  0  0  # atno 17342 bound_to 10162
  139.5533  144.7354  151.4370 LP  0  0  0  0  0  0  0  0  0  0  0  0  # atno 17343 bound_to 10162
  156.2646  130.6982  151.1761 LP  0  0  0  0  0  0  0  0  0  0  0  0  # atno 17370 bound_to 10713
  157.7330  131.0594  150.5598 LP  0  0  0  0  0  0  0  0  0  0  0  0  # atno 17371 bound_to 10713
  140.1360  134.9324  157.2403 LP  0  0  0  0  0  0  0  0  0  0  0  0  # atno 17394 bound_to 11000
  140.2894  134.3258  155.7319 LP  0  0  0  0  0  0  0  0  0  0  0  0  # atno 17395 bound_to 11000

$$$$
