#       Name:                AV-unprocessed.smi:667
#       Creating user name   scv26
#       Creation time:       Fri Mar 27 00:20:56 2020


#       File generated by GOLD software.
#

@<TRIPOS>MOLECULE
AV-unprocessed.smi:667
    53    54     1
SMALL
NO_CHARGES


@<TRIPOS>ATOM
      1 ****        -3.6147   1.0491   1.8419 C.3            1 S1                 0.0000
      2 ****        -3.4459   1.7584   0.5287 C.2            1 S1                 0.0000
      3 ****        -3.7472   3.0433   0.4418 N.2            1 S1                 0.0000
      4 ****        -3.4797   3.3744  -0.8375 N.pl3          1 S1                 0.0000
      5 ****        -3.7003   4.7380  -1.2787 C.3            1 S1                 0.0000
      6 ****        -3.0144   2.2942  -1.5621 C.2            1 S1                 0.0000
      7 ****        -2.6447   2.4013  -3.0067 C.3            1 S1                 0.0000
      8 ****        -2.9738   1.2254  -0.7068 C.2            1 S1                 0.0000
      9 ****        -2.5296  -0.1877  -0.9864 C.3            1 S1                 0.0000
     10 ****        -1.0101  -0.2815  -0.8523 C.2            1 S1                 0.0000
     11 ****        -0.2950  -0.1450  -1.8449 O.2            1 S1                 0.0000
     12 ****        -0.5307  -0.5081   0.3806 N.am           1 S1                 0.0000
     13 ****         0.8836  -0.6082   0.7239 C.3            1 S1                 0.0000
     14 ****         1.4908  -1.9792   0.3335 C.3            1 S1                 0.0000
     15 ****         0.8702  -3.1334   1.1090 C.3            1 S1                 0.0000
     16 ****         1.7204  -3.2094   2.3799 C.3            1 S1                 0.0000
     17 ****         2.8924  -2.4425   2.1182 O.3            1 S1                 0.0000
     18 ****         2.9668  -2.1596   0.7270 C.3            1 S1                 0.0000
     19 ****         3.9314  -0.9876   0.4351 C.3            1 S1                 0.0000
     20 ****         3.9810  -0.6491  -1.0649 C.3            1 S1                 0.0000
     21 ****         5.3466  -1.2982   0.9488 C.3            1 S1                 0.0000
     22 ****        -2.6465   0.7844   2.2674 H              1 S1                 0.0000
     23 ****        -4.1868   0.1293   1.7185 H              1 S1                 0.0000
     24 ****        -4.1397   1.6670   2.5716 H              1 S1                 0.0000
     25 ****        -4.6063   4.7840  -1.8831 H              1 S1                 0.0000
     26 ****        -2.8537   5.0746  -1.8777 H              1 S1                 0.0000
     27 ****        -3.8096   5.4056  -0.4227 H              1 S1                 0.0000
     28 ****        -2.5100   1.4170  -3.4543 H              1 S1                 0.0000
     29 ****        -1.7118   2.9523  -3.1249 H              1 S1                 0.0000
     30 ****        -3.4197   2.9190  -3.5719 H              1 S1                 0.0000
     31 ****        -2.9965  -0.8979  -0.3030 H              1 S1                 0.0000
     32 ****        -2.8179  -0.5055  -1.9887 H              1 S1                 0.0000
     33 ****        -1.1925  -0.6043   1.1371 H              1 S1                 0.0000
     34 ****         1.4150   0.2095   0.2364 H              1 S1                 0.0000
     35 ****         0.9846  -0.4393   1.7964 H              1 S1                 0.0000
     36 ****         1.3684  -2.1328  -0.7394 H              1 S1                 0.0000
     37 ****        -0.1927  -3.0111   1.3186 H              1 S1                 0.0000
     38 ****         0.9850  -4.0567   0.5395 H              1 S1                 0.0000
     39 ****         1.1985  -2.7793   3.2351 H              1 S1                 0.0000
     40 ****         1.9797  -4.2401   2.6232 H              1 S1                 0.0000
     41 ****         3.3487  -3.0561   0.2335 H              1 S1                 0.0000
     42 ****         3.5853  -0.1042   0.9716 H              1 S1                 0.0000
     43 ****         4.3267  -1.5014  -1.6507 H              1 S1                 0.0000
     44 ****         4.6599   0.1821  -1.2566 H              1 S1                 0.0000
     45 ****         3.0023  -0.3608  -1.4481 H              1 S1                 0.0000
     46 ****         5.7601  -2.1824   0.4625 H              1 S1                 0.0000
     47 ****         5.3479  -1.4790   2.0241 H              1 S1                 0.0000
     48 ****         6.0255  -0.4662   0.7591 H              1 S1                 0.0000
     49 ****        -4.0966   3.6382   1.1656 LP             1 S1                 0.0000
     50 ****        -0.7083   0.0272  -2.7391 LP             1 S1                 0.0000
     51 ****         0.6992  -0.2064  -1.7572 LP             1 S1                 0.0000
     52 ****         3.7004  -2.9613   2.3974 LP             1 S1                 0.0000
     53 ****         2.8526  -1.5855   2.6318 LP             1 S1                 0.0000
@<TRIPOS>BOND
    1    1    2 1     
    2    1   22 1     
    3    1   23 1     
    4    1   24 1     
    5    2    8 1     
    6    2    3 2     
    7    3    4 1     
    8    4    5 1     
    9    4    6 1     
   10    5   25 1     
   11    5   26 1     
   12    5   27 1     
   13    6    7 1     
   14    6    8 2     
   15    7   28 1     
   16    7   29 1     
   17    7   30 1     
   18    8    9 1     
   19    9   10 1     
   20    9   31 1     
   21    9   32 1     
   22   10   11 2     
   23   10   12 am    
   24   12   13 1     
   25   12   33 1     
   26   13   14 1     
   27   13   34 1     
   28   13   35 1     
   29   14   18 1     
   30   14   15 1     
   31   14   36 1     
   32   15   16 1     
   33   15   37 1     
   34   15   38 1     
   35   16   17 1     
   36   16   39 1     
   37   16   40 1     
   38   17   18 1     
   39   18   19 1     
   40   18   41 1     
   41   19   20 1     
   42   19   21 1     
   43   19   42 1     
   44   20   43 1     
   45   20   44 1     
   46   20   45 1     
   47   21   46 1     
   48   21   47 1     
   49   21   48 1     
   50    3   49 1     
   51   11   50 1     
   52   11   51 1     
   53   17   52 1     
   54   17   53 1     
@<TRIPOS>SUBSTRUCTURE
      1 S1             1
@<TRIPOS>SET
LONE_PAIRS      STATIC     ATOMS    <user>   **** ""
5 49 50 51 52 53
DONOR_HYDROGENS      STATIC     ATOMS    <user>   **** ""
1 33
ATOM$BLUE        STATIC     ATOMS    COLORGROUP SYSTEM
5 49 50 51 52 53
ATOM$RED        STATIC     ATOMS    COLORGROUP SYSTEM
1 33
