AV-unprocessed.smi:2925|AV-procd|sdf|11222|dock6
  -GOLD-   2272016113D 1   1.00000     0.00000
 Structure written by MMmdl.
 44 45  0  0  0  0  0  0  0  0  1 V2000
  150.1948  132.6193  156.0941 C   0  0  0  0  0  0  0  0  0  0  0  0
  150.7542  133.9768  155.6439 C   0  0  0  0  0  0  0  0  0  0  0  0
  149.6863  135.0809  155.4771 C   0  0  2  0  0  0  0  0  0  0  0  0
  148.9393  134.8788  154.2357 N   0  0  0  0  0  0  0  0  0  0  0  0
  148.0453  133.9057  154.0076 C   0  0  0  0  0  0  0  0  0  0  0  0
  147.7645  133.0251  154.8218 O   0  0  0  0  0  0  0  0  0  0  0  0
  147.5272  133.9997  152.7702 N   0  0  0  0  0  0  0  0  0  0  0  0
  146.6140  133.1100  152.1827 C   0  0  0  0  0  0  0  0  0  0  0  0
  145.5804  133.6145  151.4583 C   0  0  0  0  0  0  0  0  0  0  0  0
  145.4148  135.1093  151.2338 C   0  0  0  0  0  0  0  0  0  0  0  0
  144.6242  132.7027  150.8654 C   0  0  0  0  0  0  0  0  0  0  0  0
  144.7695  131.3839  151.0501 C   0  0  0  0  0  0  0  0  0  0  0  0
  145.8188  130.8587  151.8178 N   0  0  0  0  0  0  0  0  0  0  0  0
  145.8820  129.4032  151.9752 C   0  0  0  0  0  0  0  0  0  0  0  0
  146.7437  131.6530  152.4300 C   0  0  0  0  0  0  0  0  0  0  0  0
  147.6132  131.1644  153.1551 O   0  0  0  0  0  0  0  0  0  0  0  0
  150.3113  136.4905  155.4527 C   0  0  2  0  0  0  0  0  0  0  0  0
  149.3785  137.6018  154.9658 C   0  0  0  0  0  0  0  0  0  0  0  0
  150.3246  138.6535  154.4057 C   0  0  0  0  0  0  0  0  0  0  0  0
  151.6708  137.9317  154.3076 C   0  0  0  0  0  0  0  0  0  0  0  0
  151.3646  136.5591  154.5029 O   0  0  0  0  0  0  0  0  0  0  0  0
  151.0021  131.9083  156.2695 H   0  0  0  0  0  0  0  0  0  0  0  0
  149.5360  132.1858  155.3418 H   0  0  0  0  0  0  0  0  0  0  0  0
  149.6292  132.7154  157.0213 H   0  0  0  0  0  0  0  0  0  0  0  0
  151.4914  134.2960  156.3806 H   0  0  0  0  0  0  0  0  0  0  0  0
  151.3004  133.8471  154.7088 H   0  0  0  0  0  0  0  0  0  0  0  0
  149.0062  135.0337  156.3296 H   0  0  0  0  0  0  0  0  0  0  0  0
  149.1027  135.5501  153.4999 H   0  0  0  0  0  0  0  0  0  0  0  0
  147.9230  134.6940  152.1541 H   0  0  0  0  0  0  0  0  0  0  0  0
  144.5438  135.3217  150.6134 H   0  0  0  0  0  0  0  0  0  0  0  0
  146.2913  135.5205  150.7320 H   0  0  0  0  0  0  0  0  0  0  0  0
  145.2842  135.6270  152.1844 H   0  0  0  0  0  0  0  0  0  0  0  0
  143.8025  133.0768  150.2722 H   0  0  0  0  0  0  0  0  0  0  0  0
  144.0902  130.6561  150.6307 H   0  0  0  0  0  0  0  0  0  0  0  0
  146.8402  129.0206  151.6203 H   0  0  0  0  0  0  0  0  0  0  0  0
  145.1003  128.8842  151.4196 H   0  0  0  0  0  0  0  0  0  0  0  0
  145.7737  129.1271  153.0249 H   0  0  0  0  0  0  0  0  0  0  0  0
  150.7105  136.7468  156.4363 H   0  0  0  0  0  0  0  0  0  0  0  0
  148.7344  137.2313  154.1670 H   0  0  0  0  0  0  0  0  0  0  0  0
  148.7392  137.9911  155.7588 H   0  0  0  0  0  0  0  0  0  0  0  0
  149.9827  138.9995  153.4295 H   0  0  0  0  0  0  0  0  0  0  0  0
  150.3981  139.5202  155.0631 H   0  0  0  0  0  0  0  0  0  0  0  0
  152.1663  138.0933  153.3501 H   0  0  0  0  0  0  0  0  0  0  0  0
  152.3429  138.2656  155.0995 H   0  0  0  0  0  0  0  0  0  0  0  0
  1  2  1  0  0  0  0
  1 22  1  0  0  0  0
  1 23  1  0  0  0  0
  1 24  1  0  0  0  0
  2  3  1  0  0  0  0
  2 25  1  0  0  0  0
  2 26  1  0  0  0  0
  3  4  1  0  0  0  0
  3 17  1  0  0  0  0
  3 27  1  0  0  0  0
  4  5  1  0  0  0  0
  4 28  1  0  0  0  0
  5  6  2  0  0  0  0
  5  7  1  0  0  0  0
  7  8  1  0  0  0  0
  7 29  1  0  0  0  0
  8 15  1  0  0  0  0
  8  9  2  0  0  0  0
  9 10  1  0  0  0  0
  9 11  1  0  0  0  0
 10 30  1  0  0  0  0
 10 31  1  0  0  0  0
 10 32  1  0  0  0  0
 11 12  2  0  0  0  0
 11 33  1  0  0  0  0
 12 13  1  0  0  0  0
 12 34  1  0  0  0  0
 13 14  1  0  0  0  0
 13 15  1  0  0  0  0
 14 35  1  0  0  0  0
 14 36  1  0  0  0  0
 14 37  1  0  0  0  0
 15 16  2  0  0  0  0
 17 21  1  0  0  0  0
 17 18  1  0  0  0  0
 17 38  1  0  0  0  0
 18 19  1  0  0  0  0
 18 39  1  0  0  0  0
 18 40  1  0  0  0  0
 19 20  1  0  0  0  0
 19 41  1  0  0  0  0
 19 42  1  0  0  0  0
 20 21  1  0  0  0  0
 20 43  1  0  0  0  0
 20 44  1  0  0  0  0
M  END
> <s_m_source_file>
AV-unprocessed.smi

> <i_m_source_file_index>
2925

> <i_lp_mmshare_version>
43012

> <i_f3d_flags>
0

> <s_epik_input>
TzFbQ0gyXVtDSDJdW0NIMl1bQ0BIXTFbQ0BIXShbQ0gyXVtDSDNdKVtOSF1DKD1PKVtOSF1jMmMoW0NIM10pW2NIXVtjSF1uKFtDSDNdKWMyPU8=

> <s_epik_cmdline>
J2VwaWtfcHl0aG9uJywgJy1waCcsICc3LjAnLCAnLXRuJywgJzgnLCAnLW1hJywgJzIwMCcsICctbWV0YWxfYmluZGluZycsICctaW1hZScsICc8aW5maWxlLm1hZT4nLCAnLW9tYWUnLCAnPG91dGZpbGUubWFlPic=

> <r_lp_tautomer_probability>
1

> <r_epik_Ionization_Penalty>
2.58789e-05

> <r_epik_Ionization_Penalty_Charging>
6.72534e-06

> <r_epik_Ionization_Penalty_Neutral>
1.91535e-05

> <r_epik_State_Penalty>
-0

> <r_epik_Charging_Adjusted_Penalty>
6.72534e-06

> <i_epik_Tot_Q>
0

> <i_epik_Tot_abs_Q>
0

> <r_epik_Metal_State_Penalty>
-0

> <b_epik_Metal_Only>
0

> <s_lp_Force_Field>
OPLS_2005

> <r_lp_Energy>
35.6543

> <b_lp_Chiralities_Consistent>
1

> <s_lp_Variant>
AV-unprocessed.smi:2925-1

> <Gold.Version>
5.8.1

> <Gold.Id.Protein>
6NUR|6NUR_protein|mol2

> <Gold.PLP.Fitness>
46.2344

> <Gold.PLP.PLP>
-38.1642

> <Gold.PLP.part.hbond>
-3.0000

> <Gold.PLP.part.metal>
0.0000

> <Gold.PLP.part.buried>
-7.2316

> <Gold.PLP.part.nonpolar>
-29.4321

> <Gold.PLP.part.repulsive>
0.2953

> <Gold.PLP.ligand.clash>
0.0000

> <Gold.PLP.ligand.torsion>
0.7562

> <Gold.PLP.Chemscore.Hbond>
3.0000

> <Gold.PLP.Chemscore.CHOScore>
0.0000

> <Gold.PLP.Chemscore.Metal>
0.0000

> <Gold.Chemscore.Hbonds>
donor molecule, donor type, donor heavy atom, donor atom, acceptor molecule, acceptor atom, score
      L1  H     4    28       P1  7948  1.00
      L1  H     7    29       P1  7948  1.00
      P1  H 10752 10765       L1    21  1.00

> <Gold.PLP.Chemscore.Internal.Correction>
0.5827

> <Gold.Rescore>
     Score         DG    S(hbond)    S(metal)    S(lipo)     H(rot)  DE(clash)    DE(int)     intcor
     12.69     -19.07       2.34        0.00      78.91       1.36       0.03       6.34       ----

> <Gold.Chemscore.Fitness>
12.6947

> <Gold.Chemscore.DG>
-19.0678

> <Gold.Chemscore.ZeroCoef>
-5.4800

> <Gold.Chemscore.Hbond>
2.3449

> <Gold.Chemscore.Metal>
0.0000

> <Gold.Chemscore.Lipo>
78.9059

> <Gold.Chemscore.Internal_Hbond>
0.0000

> <Gold.Chemscore.DEClash>
0.0324

> <Gold.Chemscore.DEInternal>
6.3406

> <Gold.Chemscore.Rot>
1.3579

> <Gold.Chemscore.Internal.Correction>
   9.000000E+99

> <Gold.Chemscore.Hbonds>
donor molecule, donor type, donor heavy atom, donor atom, acceptor molecule, acceptor atom, score
      L1  H     4    28       P1  7948  0.64
      L1  H     7    29       P1  7948  0.43
      P1  H 10752 10765       L1    21  0.55

> <Gold.Chemscore.Hbond.Weighted>
-7.8321

> <Gold.Chemscore.Metal.Weighted>
-0.0000

> <Gold.Chemscore.Lipo.Weighted>
-9.2320

> <Gold.Chemscore.Internal_Hbond.Weighted>
0.0000

> <Gold.Chemscore.DEClash.Weighted>
0.0324

> <Gold.Chemscore.DEInternal.Weighted>
6.3406

> <Gold.Chemscore.Rot.Weighted>
3.4763

> <Gold.Chemscore.Internal.Correction.Weighted>
   9.000000E+99

> <Gold.Protein.RotatedTorsions>
[ 6907 6896 6895 6894 ] final -107.99 input  -60.11 | X-H torsion
[ 7974 7965 7964 7962 ] final    6.54 input  175.53 | X-H torsion
[ 8008 7997 7996 7995 ] final  -32.74 input   59.86 | X-H torsion
[ 10167 10162 10161 10158 ] final   75.67 input  -65.29 | X-H torsion
[ 10718 10713 10712 10709 ] final  -77.02 input   66.30 | X-H torsion
[ 10763 10752 10751 10750 ] final  160.65 input  -60.55 | X-H torsion
[ 11005 11000 10999 10996 ] final   61.38 input  -57.11 | X-H torsion

> <Gold.Protein.ActiveResidues>
 VAL166  LYS551  ARG553  GLY616  TRP617  ASP618  TYR619  PRO620  LYS621  CYS622 
 ASP623  PHE694  ASN695  SER759  ASP760  ASP761  ALA762  ILE779  LEU786  VAL792 
 PHE793  MET794  SER795  GLU796  ALA797  LYS798  CYS799  TRP800  GLU811  SER814 

> <Gold.Protein.RotatedAtoms>
  150.7476  133.9744  159.3555 H   0  0  0  0  0  0  0  0  0  0  0  0  # atno 6907 bound_to 6896
  151.7680  135.0791  160.0365 H   0  0  0  0  0  0  0  0  0  0  0  0  # atno 6908 bound_to 6896
  152.3358  133.5973  159.5878 H   0  0  0  0  0  0  0  0  0  0  0  0  # atno 6909 bound_to 6896
  146.2434  140.0217  142.8397 H   0  0  0  0  0  0  0  0  0  0  0  0  # atno 7974 bound_to 7965
  154.4170  140.1729  156.1776 H   0  0  0  0  0  0  0  0  0  0  0  0  # atno 8008 bound_to 7997
  155.9709  140.3386  155.6550 H   0  0  0  0  0  0  0  0  0  0  0  0  # atno 8009 bound_to 7997
  155.6627  140.0702  157.2539 H   0  0  0  0  0  0  0  0  0  0  0  0  # atno 8010 bound_to 7997
  140.0004  144.5690  150.7742 H   0  0  0  0  0  0  0  0  0  0  0  0  # atno 10167 bound_to 10162
  156.0157  130.4480  150.3281 H   0  0  0  0  0  0  0  0  0  0  0  0  # atno 10718 bound_to 10713
  154.2507  135.2771  155.2817 H   0  0  0  0  0  0  0  0  0  0  0  0  # atno 10763 bound_to 10752
  154.5467  135.5687  153.6890 H   0  0  0  0  0  0  0  0  0  0  0  0  # atno 10764 bound_to 10752
  152.9981  135.6264  154.2654 H   0  0  0  0  0  0  0  0  0  0  0  0  # atno 10765 bound_to 10752
  140.0165  134.6217  155.9702 H   0  0  0  0  0  0  0  0  0  0  0  0  # atno 11005 bound_to 11000
  145.1235  140.9476  143.4586 LP  0  0  0  0  0  0  0  0  0  0  0  0  # atno 17320 bound_to 7965
  145.0458  139.3222  143.5953 LP  0  0  0  0  0  0  0  0  0  0  0  0  # atno 17321 bound_to 7965
  140.7421  143.2827  151.3552 LP  0  0  0  0  0  0  0  0  0  0  0  0  # atno 17342 bound_to 10162
  139.6275  144.0784  152.2447 LP  0  0  0  0  0  0  0  0  0  0  0  0  # atno 17343 bound_to 10162
  157.1380  131.0289  151.2940 LP  0  0  0  0  0  0  0  0  0  0  0  0  # atno 17370 bound_to 10713
  157.4496  130.7590  149.7139 LP  0  0  0  0  0  0  0  0  0  0  0  0  # atno 17371 bound_to 10713
  141.1746  133.6539  156.4781 LP  0  0  0  0  0  0  0  0  0  0  0  0  # atno 17394 bound_to 11000
  140.4461  134.6971  157.5016 LP  0  0  0  0  0  0  0  0  0  0  0  0  # atno 17395 bound_to 11000

$$$$
