AV-unprocessed.smi:1803|AV-procd|sdf|7294|dock6
  -GOLD-   22720 8553D 1   1.00000     0.00000
 Structure written by MMmdl.
 35 37  0  0  0  0  0  0  0  0  3 V2000
  150.7345  140.7540  157.1948 O   0  0  0  0  0  0  0  0  0  0  0  0
  150.5230  141.9376  156.9350 C   0  0  0  0  0  0  0  0  0  0  0  0
  151.2823  142.9564  157.4156 N   0  5  0  0  0  0  0  0  0  0  0  0
  151.6975  143.0109  158.6948 C   0  0  0  0  0  0  0  0  0  0  0  0
  151.4521  142.0273  159.5754 N   0  0  0  0  0  0  0  0  0  0  0  0
  151.9593  142.2887  160.8407 N   0  0  0  0  0  0  0  0  0  0  0  0
  152.5912  143.4615  160.8783 C   0  0  0  0  0  0  0  0  0  0  0  0
  152.6136  144.3585  159.3748 S   0  0  0  0  0  0  0  0  0  0  0  0
  149.4871  142.2518  156.1347 N   0  0  0  0  0  0  0  0  0  0  0  0
  148.5685  141.3044  155.5152 C   0  0  1  0  0  0  0  0  0  0  0  0
  147.3696  141.9624  154.8140 C   0  0  0  0  0  0  0  0  0  0  0  0
  147.1540  141.1471  153.5239 C   0  0  0  0  0  0  0  0  0  0  0  0
  148.1191  140.0243  153.5635 N   0  3  2  0  0  0  0  0  0  0  0  0
  147.4973  138.7688  154.0670 C   0  0  0  0  0  0  0  0  0  0  0  0
  148.5391  137.6747  154.3345 C   0  0  0  0  0  0  0  0  0  0  0  0
  149.5791  138.1702  155.3427 C   0  0  0  0  0  0  0  0  0  0  0  0
  150.2540  139.4350  154.8012 C   0  0  0  0  0  0  0  0  0  0  0  0
  149.2465  140.5293  154.3830 C   0  0  2  0  0  0  0  0  0  0  0  0
  153.0453  143.8011  161.7973 H   0  0  0  0  0  0  0  0  0  0  0  0
  149.3307  143.2309  155.9442 H   0  0  0  0  0  0  0  0  0  0  0  0
  148.2053  140.6035  156.2687 H   0  0  0  0  0  0  0  0  0  0  0  0
  146.4880  141.9455  155.4557 H   0  0  0  0  0  0  0  0  0  0  0  0
  147.5730  143.0050  154.5651 H   0  0  0  0  0  0  0  0  0  0  0  0
  146.1226  140.8102  153.4099 H   0  0  0  0  0  0  0  0  0  0  0  0
  147.3877  141.7674  152.6579 H   0  0  0  0  0  0  0  0  0  0  0  0
  146.9425  138.9708  154.9847 H   0  0  0  0  0  0  0  0  0  0  0  0
  146.7697  138.4161  153.3353 H   0  0  0  0  0  0  0  0  0  0  0  0
  148.0481  136.7794  154.7169 H   0  0  0  0  0  0  0  0  0  0  0  0
  149.0282  137.3882  153.4024 H   0  0  0  0  0  0  0  0  0  0  0  0
  149.1033  138.3767  156.3019 H   0  0  0  0  0  0  0  0  0  0  0  0
  150.3255  137.3967  155.5258 H   0  0  0  0  0  0  0  0  0  0  0  0
  150.9567  139.8304  155.5356 H   0  0  0  0  0  0  0  0  0  0  0  0
  150.8526  139.1613  153.9314 H   0  0  0  0  0  0  0  0  0  0  0  0
  149.7836  141.2494  153.7620 H   0  0  0  0  0  0  0  0  0  0  0  0
  148.4559  139.8390  152.6296 H   0  0  0  0  0  0  0  0  0  0  0  0
  1  2  2  0  0  0  0
  2  3  1  0  0  0  0
  2  9  1  0  0  0  0
  3  4  1  0  0  0  0
  4  8  1  0  0  0  0
  4  5  2  0  0  0  0
  5  6  1  0  0  0  0
  6  7  2  0  0  0  0
  7  8  1  0  0  0  0
  7 19  1  0  0  0  0
  9 10  1  0  0  0  0
  9 20  1  0  0  0  0
 10 18  1  0  0  0  0
 10 11  1  0  0  0  0
 10 21  1  0  0  0  0
 11 12  1  0  0  0  0
 11 22  1  0  0  0  0
 11 23  1  0  0  0  0
 12 13  1  0  0  0  0
 12 24  1  0  0  0  0
 12 25  1  0  0  0  0
 13 18  1  0  0  0  0
 13 14  1  0  0  0  0
 13 35  1  0  0  0  0
 14 15  1  0  0  0  0
 14 26  1  0  0  0  0
 14 27  1  0  0  0  0
 15 16  1  0  0  0  0
 15 28  1  0  0  0  0
 15 29  1  0  0  0  0
 16 17  1  0  0  0  0
 16 30  1  0  0  0  0
 16 31  1  0  0  0  0
 17 18  1  0  0  0  0
 17 32  1  0  0  0  0
 17 33  1  0  0  0  0
 18 34  1  0  0  0  0
M  CHG  1   3  -1
M  CHG  1  13   1
M  END
> <s_m_source_file>
AV-unprocessed.smi

> <i_m_source_file_index>
1803

> <i_lp_mmshare_version>
43012

> <i_f3d_flags>
0

> <s_epik_input>
czFbY0hdbm5jMVtOSF1DKD1PKVtOSF1bQ0BIXShbQ0gyXVtDSDJdMilbQ0BASF0oTjIzKVtDSDJdW0NIMl1bQ0gyXVtDSDJdMw==

> <s_epik_cmdline>
J2VwaWtfcHl0aG9uJywgJy1waCcsICc3LjAnLCAnLXRuJywgJzgnLCAnLW1hJywgJzIwMCcsICctbWV0YWxfYmluZGluZycsICctaW1hZScsICc8aW5maWxlLm1hZT4nLCAnLW9tYWUnLCAnPG91dGZpbGUubWFlPic=

> <r_lp_tautomer_probability>
1

> <r_epik_Ionization_Penalty>
3.78828

> <r_epik_Ionization_Penalty_Charging>
3.7591

> <r_epik_Ionization_Penalty_Neutral>
0.0291838

> <r_epik_State_Penalty>
3.757

> <r_epik_Charging_Adjusted_Penalty>
7.51609

> <i_epik_Tot_Q>
0

> <i_epik_Tot_abs_Q>
2

> <r_epik_Metal_State_Penalty>
0.558016

> <b_epik_Metal_Only>
1

> <s_lp_Force_Field>
OPLS_2005

> <r_lp_Energy>
31.4395

> <b_lp_Chiralities_Consistent>
1

> <s_lp_Variant>
AV-unprocessed.smi:1803-16

> <Gold.Version>
5.8.1

> <Gold.Id.Protein>
6NUR|6NUR_protein|mol2

> <Gold.PLP.Fitness>
37.1145

> <Gold.PLP.PLP>
-31.6157

> <Gold.PLP.part.hbond>
-3.8448

> <Gold.PLP.part.metal>
0.0000

> <Gold.PLP.part.buried>
-4.3309

> <Gold.PLP.part.nonpolar>
-24.5234

> <Gold.PLP.part.repulsive>
0.3644

> <Gold.PLP.ligand.clash>
0.0000

> <Gold.PLP.ligand.torsion>
0.4527

> <Gold.PLP.Chemscore.Hbond>
2.1316

> <Gold.PLP.Chemscore.CHOScore>
0.0000

> <Gold.PLP.Chemscore.Metal>
0.0000

> <Gold.Chemscore.Hbonds>
donor molecule, donor type, donor heavy atom, donor atom, acceptor molecule, acceptor atom, score
      L1  H     9    20       P1  8028  1.00
      L1  H    13    35       P1  7957  1.00
      P1  H  6933  6945       L1     6  0.01

> <Gold.PLP.Chemscore.Internal.Correction>
0.0095

> <Gold.Rescore>
     Score         DG    S(hbond)    S(metal)    S(lipo)     H(rot)  DE(clash)    DE(int)     intcor
     15.16     -18.54       2.15        0.00      72.25       1.00       1.31       2.08       ----

> <Gold.Chemscore.Fitness>
15.1571

> <Gold.Chemscore.DG>
-18.5422

> <Gold.Chemscore.ZeroCoef>
-5.4800

> <Gold.Chemscore.Hbond>
2.1465

> <Gold.Chemscore.Metal>
0.0000

> <Gold.Chemscore.Lipo>
72.2480

> <Gold.Chemscore.Internal_Hbond>
0.0000

> <Gold.Chemscore.DEClash>
1.3056

> <Gold.Chemscore.DEInternal>
2.0794

> <Gold.Chemscore.Rot>
1.0000

> <Gold.Chemscore.Internal.Correction>
   9.000000E+99

> <Gold.Chemscore.Hbonds>
donor molecule, donor type, donor heavy atom, donor atom, acceptor molecule, acceptor atom, score
      L1  H     9    20       P1  8028  0.97
      L1  H    13    35       P1  7957  0.98
      P1  H  6933  6945       L1     6  0.01

> <Gold.Chemscore.Hbond.Weighted>
-7.1691

> <Gold.Chemscore.Metal.Weighted>
-0.0000

> <Gold.Chemscore.Lipo.Weighted>
-8.4530

> <Gold.Chemscore.Internal_Hbond.Weighted>
0.0000

> <Gold.Chemscore.DEClash.Weighted>
1.3056

> <Gold.Chemscore.DEInternal.Weighted>
2.0794

> <Gold.Chemscore.Rot.Weighted>
2.5600

> <Gold.Chemscore.Internal.Correction.Weighted>
   9.000000E+99

> <Gold.Protein.RotatedTorsions>
[ 6907 6896 6895 6894 ] final  -56.75 input  -60.11 | X-H torsion
[ 7974 7965 7964 7962 ] final  -95.93 input  175.53 | X-H torsion
[ 8008 7997 7996 7995 ] final  -97.87 input   59.86 | X-H torsion
[ 10167 10162 10161 10158 ] final   -2.32 input  -65.29 | X-H torsion
[ 10718 10713 10712 10709 ] final -106.20 input   66.30 | X-H torsion
[ 10763 10752 10751 10750 ] final   28.57 input  -60.55 | X-H torsion
[ 11005 11000 10999 10996 ] final  -50.18 input  -57.11 | X-H torsion

> <Gold.Protein.ActiveResidues>
 VAL166  LYS551  ARG553  GLY616  TRP617  ASP618  TYR619  PRO620  LYS621  CYS622 
 ASP623  PHE694  ASN695  SER759  ASP760  ASP761  ALA762  ILE779  LEU786  VAL792 
 PHE793  MET794  SER795  GLU796  ALA797  LYS798  CYS799  TRP800  GLU811  SER814 

> <Gold.Protein.RotatedAtoms>
  150.8142  134.7315  159.6714 H   0  0  0  0  0  0  0  0  0  0  0  0  # atno 6907 bound_to 6896
  152.4261  134.5861  159.9971 H   0  0  0  0  0  0  0  0  0  0  0  0  # atno 6908 bound_to 6896
  151.6063  133.3314  159.3094 H   0  0  0  0  0  0  0  0  0  0  0  0  # atno 6909 bound_to 6896
  145.3536  140.9480  143.2540 H   0  0  0  0  0  0  0  0  0  0  0  0  # atno 7974 bound_to 7965
  154.7935  140.0459  157.1219 H   0  0  0  0  0  0  0  0  0  0  0  0  # atno 8008 bound_to 7997
  154.9563  140.3071  155.5032 H   0  0  0  0  0  0  0  0  0  0  0  0  # atno 8009 bound_to 7997
  156.2953  140.2279  156.4645 H   0  0  0  0  0  0  0  0  0  0  0  0  # atno 8010 bound_to 7997
  140.6846  143.6670  150.8217 H   0  0  0  0  0  0  0  0  0  0  0  0  # atno 10167 bound_to 10162
  156.0379  130.5601  150.7648 H   0  0  0  0  0  0  0  0  0  0  0  0  # atno 10718 bound_to 10713
  153.0483  135.6510  154.0758 H   0  0  0  0  0  0  0  0  0  0  0  0  # atno 10763 bound_to 10752
  154.0452  135.2900  155.3350 H   0  0  0  0  0  0  0  0  0  0  0  0  # atno 10764 bound_to 10752
  154.6756  135.5339  153.8261 H   0  0  0  0  0  0  0  0  0  0  0  0  # atno 10765 bound_to 10752
  141.0801  133.6655  156.3694 H   0  0  0  0  0  0  0  0  0  0  0  0  # atno 11005 bound_to 11000
  144.8699  139.5053  143.6772 LP  0  0  0  0  0  0  0  0  0  0  0  0  # atno 17320 bound_to 7965
  146.2957  139.7272  142.9128 LP  0  0  0  0  0  0  0  0  0  0  0  0  # atno 17321 bound_to 7965
  140.0376  143.5379  152.2732 LP  0  0  0  0  0  0  0  0  0  0  0  0  # atno 17342 bound_to 10162
  139.6195  144.7626  151.2772 LP  0  0  0  0  0  0  0  0  0  0  0  0  # atno 17343 bound_to 10162
  157.5157  131.0928  151.0142 LP  0  0  0  0  0  0  0  0  0  0  0  0  # atno 17370 bound_to 10713
  157.0485  130.5778  149.5367 LP  0  0  0  0  0  0  0  0  0  0  0  0  # atno 17371 bound_to 10713
  140.5486  134.6050  157.5401 LP  0  0  0  0  0  0  0  0  0  0  0  0  # atno 17394 bound_to 11000
  139.9615  134.7445  156.0227 LP  0  0  0  0  0  0  0  0  0  0  0  0  # atno 17395 bound_to 11000

$$$$
