AV-unprocessed.smi:2284|AV-procd|sdf|9201|dock10
  -GOLD-   2272012413D 1   1.00000     0.00000
 Structure written by MMmdl.
 44 45  0  0  0  0  0  0  0  0  1 V2000
  151.8666  144.7868  159.9977 C   0  0  0  0  0  0  0  0  0  0  0  0
  152.4361  143.3834  159.9705 C   0  0  0  0  0  0  0  0  0  0  0  0
  153.1180  142.8701  161.0907 C   0  0  0  0  0  0  0  0  0  0  0  0
  153.6459  141.5670  161.0550 C   0  0  0  0  0  0  0  0  0  0  0  0
  153.4958  140.7696  159.9014 C   0  0  0  0  0  0  0  0  0  0  0  0
  154.0714  139.3659  159.8796 C   0  0  0  0  0  0  0  0  0  0  0  0
  152.8143  141.2730  158.7693 C   0  0  0  0  0  0  0  0  0  0  0  0
  152.7055  140.4417  157.6738 O   0  0  0  0  0  0  0  0  0  0  0  0
  151.5724  140.5773  156.8250 C   0  0  0  0  0  0  0  0  0  0  0  0
  151.4282  139.3254  155.9432 C   0  0  2  0  0  0  0  0  0  0  0  0
  151.8801  139.6565  154.6454 O   0  0  0  0  0  0  0  0  0  0  0  0
  149.9809  138.7857  155.8920 C   0  0  0  0  0  0  0  0  0  0  0  0
  149.0043  139.8404  155.5730 N   0  0  0  0  0  0  0  0  0  0  0  0
  148.9402  140.2424  154.2289 C   0  0  0  0  0  0  0  0  0  0  0  0
  148.1174  141.1575  153.8324 N   0  0  0  0  0  0  0  0  0  0  0  0
  147.2598  141.7698  154.7509 C   0  0  0  0  0  0  0  0  0  0  0  0
  146.3309  142.8256  154.1784 C   0  0  0  0  0  0  0  0  0  0  0  0
  147.2697  141.4232  156.0671 C   0  0  0  0  0  0  0  0  0  0  0  0
  146.3525  142.0487  157.1107 C   0  0  0  0  0  0  0  0  0  0  0  0
  148.2016  140.3837  156.5334 C   0  0  0  0  0  0  0  0  0  0  0  0
  148.2596  140.0161  157.7083 O   0  0  0  0  0  0  0  0  0  0  0  0
  152.2860  142.5884  158.8163 C   0  0  0  0  0  0  0  0  0  0  0  0
  151.9119  145.2153  160.9994 H   0  0  0  0  0  0  0  0  0  0  0  0
  150.8239  144.7802  159.6788 H   0  0  0  0  0  0  0  0  0  0  0  0
  152.4283  145.4340  159.3236 H   0  0  0  0  0  0  0  0  0  0  0  0
  153.2399  143.4718  161.9795 H   0  0  0  0  0  0  0  0  0  0  0  0
  154.1681  141.1823  161.9187 H   0  0  0  0  0  0  0  0  0  0  0  0
  153.2812  138.6353  159.7040 H   0  0  0  0  0  0  0  0  0  0  0  0
  154.5587  139.1182  160.8230 H   0  0  0  0  0  0  0  0  0  0  0  0
  154.8092  139.2727  159.0820 H   0  0  0  0  0  0  0  0  0  0  0  0
  150.6625  140.7433  157.4045 H   0  0  0  0  0  0  0  0  0  0  0  0
  151.7162  141.4438  156.1774 H   0  0  0  0  0  0  0  0  0  0  0  0
  152.1034  138.5646  156.3368 H   0  0  0  0  0  0  0  0  0  0  0  0
  151.7929  138.8953  154.0927 H   0  0  0  0  0  0  0  0  0  0  0  0
  149.9132  138.0117  155.1251 H   0  0  0  0  0  0  0  0  0  0  0  0
  149.7353  138.2639  156.8196 H   0  0  0  0  0  0  0  0  0  0  0  0
  149.6241  139.7286  153.5512 H   0  0  0  0  0  0  0  0  0  0  0  0
  146.5202  143.7933  154.6436 H   0  0  0  0  0  0  0  0  0  0  0  0
  145.2894  142.5531  154.3516 H   0  0  0  0  0  0  0  0  0  0  0  0
  146.4721  142.9386  153.1028 H   0  0  0  0  0  0  0  0  0  0  0  0
  145.6998  141.2881  157.5401 H   0  0  0  0  0  0  0  0  0  0  0  0
  145.7183  142.8365  156.7080 H   0  0  0  0  0  0  0  0  0  0  0  0
  146.9413  142.4849  157.9183 H   0  0  0  0  0  0  0  0  0  0  0  0
  151.7590  143.0121  157.9751 H   0  0  0  0  0  0  0  0  0  0  0  0
  1  2  1  0  0  0  0
  1 23  1  0  0  0  0
  1 24  1  0  0  0  0
  1 25  1  0  0  0  0
  2 22  1  0  0  0  0
  2  3  2  0  0  0  0
  3  4  1  0  0  0  0
  3 26  1  0  0  0  0
  4  5  2  0  0  0  0
  4 27  1  0  0  0  0
  5  6  1  0  0  0  0
  5  7  1  0  0  0  0
  6 28  1  0  0  0  0
  6 29  1  0  0  0  0
  6 30  1  0  0  0  0
  7  8  1  0  0  0  0
  7 22  2  0  0  0  0
  8  9  1  0  0  0  0
  9 10  1  0  0  0  0
  9 31  1  0  0  0  0
  9 32  1  0  0  0  0
 10 11  1  0  0  0  0
 10 12  1  0  0  0  0
 10 33  1  0  0  0  0
 11 34  1  0  0  0  0
 12 13  1  0  0  0  0
 12 35  1  0  0  0  0
 12 36  1  0  0  0  0
 13 20  1  0  0  0  0
 13 14  1  0  0  0  0
 14 15  2  0  0  0  0
 14 37  1  0  0  0  0
 15 16  1  0  0  0  0
 16 17  1  0  0  0  0
 16 18  2  0  0  0  0
 17 38  1  0  0  0  0
 17 39  1  0  0  0  0
 17 40  1  0  0  0  0
 18 19  1  0  0  0  0
 18 20  1  0  0  0  0
 19 41  1  0  0  0  0
 19 42  1  0  0  0  0
 19 43  1  0  0  0  0
 20 21  2  0  0  0  0
 22 44  1  0  0  0  0
M  END
> <s_m_source_file>
AV-unprocessed.smi

> <i_m_source_file_index>
2284

> <i_lp_mmshare_version>
43012

> <i_f3d_flags>
0

> <s_epik_input>
W0NIM11jMVtjSF1bY0hdYyhbQ0gzXSljKFtjSF0xKU9bQ0gyXVtDQEhdKFtPSF0pW0NIMl1uMltjSF1uYyhbQ0gzXSljKFtDSDNdKWMyPU8=

> <s_epik_cmdline>
J2VwaWtfcHl0aG9uJywgJy1waCcsICc3LjAnLCAnLXRuJywgJzgnLCAnLW1hJywgJzIwMCcsICctbWV0YWxfYmluZGluZycsICctaW1hZScsICc8aW5maWxlLm1hZT4nLCAnLW9tYWUnLCAnPG91dGZpbGUubWFlPic=

> <r_lp_tautomer_probability>
1

> <r_epik_Ionization_Penalty>
3.7476e-05

> <r_epik_Ionization_Penalty_Charging>
8.44705e-08

> <r_epik_Ionization_Penalty_Neutral>
3.73915e-05

> <r_epik_State_Penalty>
-0

> <r_epik_Charging_Adjusted_Penalty>
8.44705e-08

> <i_epik_Tot_Q>
0

> <i_epik_Tot_abs_Q>
0

> <r_epik_Metal_State_Penalty>
-0

> <b_epik_Metal_Only>
0

> <s_lp_Force_Field>
OPLS_2005

> <r_lp_Energy>
24.4024

> <b_lp_Chiralities_Consistent>
1

> <s_lp_Variant>
AV-unprocessed.smi:2284-1

> <Gold.Version>
5.8.1

> <Gold.Id.Protein>
6NUR|6NUR_protein|mol2

> <Gold.PLP.Fitness>
48.6082

> <Gold.PLP.PLP>
-43.1366

> <Gold.PLP.part.hbond>
-2.0000

> <Gold.PLP.part.metal>
0.0000

> <Gold.PLP.part.buried>
-5.1260

> <Gold.PLP.part.nonpolar>
-35.6596

> <Gold.PLP.part.repulsive>
0.1574

> <Gold.PLP.ligand.clash>
0.0000

> <Gold.PLP.ligand.torsion>
1.3454

> <Gold.PLP.Chemscore.Hbond>
1.8590

> <Gold.PLP.Chemscore.CHOScore>
0.8507

> <Gold.PLP.Chemscore.Metal>
0.0000

> <Gold.Chemscore.Hbonds>
donor molecule, donor type, donor heavy atom, donor atom, acceptor molecule, acceptor atom, score
      P1  H  7989  7998       L1    11  0.93
      P1  H  7997  8010       L1     8  0.86
      L1  C    14    37       P1  7957  0.88

> <Gold.PLP.Chemscore.Internal.Correction>
0.0333

> <Gold.Rescore>
     Score         DG    S(hbond)    S(metal)    S(lipo)     H(rot)  DE(clash)    DE(int)     intcor
     16.58     -18.23       1.57        0.00     114.84       2.32       0.12       1.53       ----

> <Gold.Chemscore.Fitness>
16.5770

> <Gold.Chemscore.DG>
-18.2283

> <Gold.Chemscore.ZeroCoef>
-5.4800

> <Gold.Chemscore.Hbond>
1.5748

> <Gold.Chemscore.Metal>
0.0000

> <Gold.Chemscore.Lipo>
114.8443

> <Gold.Chemscore.Internal_Hbond>
0.0000

> <Gold.Chemscore.DEClash>
0.1215

> <Gold.Chemscore.DEInternal>
1.5298

> <Gold.Chemscore.Rot>
2.3236

> <Gold.Chemscore.Internal.Correction>
   9.000000E+99

> <Gold.Chemscore.Hbonds>
donor molecule, donor type, donor heavy atom, donor atom, acceptor molecule, acceptor atom, score
      P1  H  7989  7998       L1    11  0.20
      P1  H  7997  8010       L1     8  0.66

> <Gold.Chemscore.Hbond.Weighted>
-5.2599

> <Gold.Chemscore.Metal.Weighted>
-0.0000

> <Gold.Chemscore.Lipo.Weighted>
-13.4368

> <Gold.Chemscore.Internal_Hbond.Weighted>
0.0000

> <Gold.Chemscore.DEClash.Weighted>
0.1215

> <Gold.Chemscore.DEInternal.Weighted>
1.5298

> <Gold.Chemscore.Rot.Weighted>
5.9484

> <Gold.Chemscore.Internal.Correction.Weighted>
   9.000000E+99

> <Gold.Protein.RotatedTorsions>
[ 6907 6896 6895 6894 ] final   35.67 input  -60.11 | X-H torsion
[ 7974 7965 7964 7962 ] final -116.36 input  175.53 | X-H torsion
[ 8008 7997 7996 7995 ] final   49.25 input   59.86 | X-H torsion
[ 10167 10162 10161 10158 ] final   20.35 input  -65.29 | X-H torsion
[ 10718 10713 10712 10709 ] final   48.34 input   66.30 | X-H torsion
[ 10763 10752 10751 10750 ] final   86.66 input  -60.55 | X-H torsion
[ 11005 11000 10999 10996 ] final  148.98 input  -57.11 | X-H torsion

> <Gold.Protein.ActiveResidues>
 VAL166  LYS551  ARG553  GLY616  TRP617  ASP618  TYR619  PRO620  LYS621  CYS622 
 ASP623  PHE694  ASN695  SER759  ASP760  ASP761  ALA762  ILE779  LEU786  VAL792 
 PHE793  MET794  SER795  GLU796  ALA797  LYS798  CYS799  TRP800  GLU811  SER814 

> <Gold.Protein.RotatedAtoms>
  152.1193  134.9217  160.0563 H   0  0  0  0  0  0  0  0  0  0  0  0  # atno 6907 bound_to 6896
  152.0364  133.3954  159.4327 H   0  0  0  0  0  0  0  0  0  0  0  0  # atno 6908 bound_to 6896
  150.6848  134.3384  159.4901 H   0  0  0  0  0  0  0  0  0  0  0  0  # atno 6909 bound_to 6896
  145.0977  140.8531  143.3945 H   0  0  0  0  0  0  0  0  0  0  0  0  # atno 7974 bound_to 7965
  155.3991  140.3437  155.4256 H   0  0  0  0  0  0  0  0  0  0  0  0  # atno 8008 bound_to 7997
  156.1514  140.1572  156.8796 H   0  0  0  0  0  0  0  0  0  0  0  0  # atno 8009 bound_to 7997
  154.5055  140.0803  156.7867 H   0  0  0  0  0  0  0  0  0  0  0  0  # atno 8010 bound_to 7997
  140.5510  143.9509  150.6578 H   0  0  0  0  0  0  0  0  0  0  0  0  # atno 10167 bound_to 10162
  157.4677  130.8235  149.7953 H   0  0  0  0  0  0  0  0  0  0  0  0  # atno 10718 bound_to 10713
  153.1592  135.4572  154.9748 H   0  0  0  0  0  0  0  0  0  0  0  0  # atno 10763 bound_to 10752
  154.7884  135.3212  154.7835 H   0  0  0  0  0  0  0  0  0  0  0  0  # atno 10764 bound_to 10752
  153.8328  135.6937  153.4867 H   0  0  0  0  0  0  0  0  0  0  0  0  # atno 10765 bound_to 10752
  140.1006  134.8986  157.1789 H   0  0  0  0  0  0  0  0  0  0  0  0  # atno 11005 bound_to 11000
  145.0992  139.2835  143.5695 LP  0  0  0  0  0  0  0  0  0  0  0  0  # atno 17320 bound_to 7965
  146.3530  140.0553  142.8633 LP  0  0  0  0  0  0  0  0  0  0  0  0  # atno 17321 bound_to 7965
  140.2935  143.3308  152.1040 LP  0  0  0  0  0  0  0  0  0  0  0  0  # atno 17342 bound_to 10162
  139.5027  144.6741  151.6172 LP  0  0  0  0  0  0  0  0  0  0  0  0  # atno 17343 bound_to 10162
  156.0058  130.3856  150.2437 LP  0  0  0  0  0  0  0  0  0  0  0  0  # atno 17370 bound_to 10713
  157.0618  131.0092  151.3220 LP  0  0  0  0  0  0  0  0  0  0  0  0  # atno 17371 bound_to 10713
  140.3226  134.2899  155.7243 LP  0  0  0  0  0  0  0  0  0  0  0  0  # atno 17394 bound_to 11000
  141.2104  133.7719  156.9932 LP  0  0  0  0  0  0  0  0  0  0  0  0  # atno 17395 bound_to 11000

$$$$
