AV-unprocessed.smi:3253|AV-procd|sdf|12447|dock8
  -GOLD-   2272018343D 1   1.00000     0.00000
 Structure written by MMmdl.
 37 38  0  0  0  0  0  0  0  0  2 V2000
  150.4417  139.5913  155.9892 C   0  0  0  0  0  0  0  0  0  0  0  0
  149.9501  141.0271  156.2336 C   0  0  2  0  0  0  0  0  0  0  0  0
  149.5122  141.7445  154.9372 C   0  0  0  0  0  0  0  0  0  0  0  0
  148.3787  141.0892  154.2788 N   0  0  0  0  0  0  0  0  0  0  0  0
  148.3203  139.8079  153.7929 C   0  0  0  0  0  0  0  0  0  0  0  0
  147.0639  139.6469  153.2676 C   0  0  0  0  0  0  0  0  0  0  0  0
  146.4113  140.8370  153.4499 N   0  3  0  0  0  0  0  0  0  0  0  0
  147.2137  141.7136  154.0626 C   0  0  0  0  0  0  0  0  0  0  0  0
  151.0007  141.7863  156.9052 N   0  0  0  0  0  0  0  0  0  0  0  0
  151.5611  141.4589  158.0803 C   0  0  0  0  0  0  0  0  0  0  0  0
  151.2253  140.4709  158.7347 O   0  0  0  0  0  0  0  0  0  0  0  0
  152.6702  142.3896  158.5955 C   0  0  1  0  0  0  0  0  0  0  0  0
  152.1638  143.8387  158.7466 C   0  0  0  0  0  0  0  0  0  0  0  0
  152.1799  144.0805  160.2468 C   0  0  0  0  0  0  0  0  0  0  0  0
  151.7454  145.1091  160.7626 O   0  0  0  0  0  0  0  0  0  0  0  0
  152.7101  143.0385  160.8931 N   0  0  0  0  0  0  0  0  0  0  0  0
  152.8719  142.9251  162.3363 C   0  0  0  0  0  0  0  0  0  0  0  0
  153.1716  141.9889  160.0009 C   0  0  0  0  0  0  0  0  0  0  0  0
  149.6532  138.9634  155.5742 H   0  0  0  0  0  0  0  0  0  0  0  0
  150.7681  139.1252  156.9196 H   0  0  0  0  0  0  0  0  0  0  0  0
  151.2826  139.5729  155.2949 H   0  0  0  0  0  0  0  0  0  0  0  0
  149.0923  140.9668  156.9066 H   0  0  0  0  0  0  0  0  0  0  0  0
  149.2206  142.7762  155.1398 H   0  0  0  0  0  0  0  0  0  0  0  0
  150.3367  141.7849  154.2237 H   0  0  0  0  0  0  0  0  0  0  0  0
  149.1533  139.1228  153.8581 H   0  0  0  0  0  0  0  0  0  0  0  0
  146.5981  138.7976  152.7891 H   0  0  0  0  0  0  0  0  0  0  0  0
  146.9686  142.7258  154.3324 H   0  0  0  0  0  0  0  0  0  0  0  0
  151.3361  142.6156  156.4362 H   0  0  0  0  0  0  0  0  0  0  0  0
  153.5069  142.3657  157.8948 H   0  0  0  0  0  0  0  0  0  0  0  0
  152.8374  144.5435  158.2581 H   0  0  0  0  0  0  0  0  0  0  0  0
  151.1612  143.9980  158.3458 H   0  0  0  0  0  0  0  0  0  0  0  0
  153.5069  143.7269  162.7148 H   0  0  0  0  0  0  0  0  0  0  0  0
  153.3309  141.9735  162.6067 H   0  0  0  0  0  0  0  0  0  0  0  0
  151.9040  142.9878  162.8350 H   0  0  0  0  0  0  0  0  0  0  0  0
  152.7977  141.0171  160.3285 H   0  0  0  0  0  0  0  0  0  0  0  0
  154.2613  141.9470  160.0263 H   0  0  0  0  0  0  0  0  0  0  0  0
  145.4600  141.0294  153.1614 H   0  0  0  0  0  0  0  0  0  0  0  0
  1  2  1  0  0  0  0
  1 19  1  0  0  0  0
  1 20  1  0  0  0  0
  1 21  1  0  0  0  0
  2  3  1  0  0  0  0
  2  9  1  0  0  0  0
  2 22  1  0  0  0  0
  3  4  1  0  0  0  0
  3 23  1  0  0  0  0
  3 24  1  0  0  0  0
  4  8  1  0  0  0  0
  4  5  1  0  0  0  0
  5  6  2  0  0  0  0
  5 25  1  0  0  0  0
  6  7  1  0  0  0  0
  6 26  1  0  0  0  0
  7  8  2  0  0  0  0
  7 37  1  0  0  0  0
  8 27  1  0  0  0  0
  9 10  1  0  0  0  0
  9 28  1  0  0  0  0
 10 11  2  0  0  0  0
 10 12  1  0  0  0  0
 12 18  1  0  0  0  0
 12 13  1  0  0  0  0
 12 29  1  0  0  0  0
 13 14  1  0  0  0  0
 13 30  1  0  0  0  0
 13 31  1  0  0  0  0
 14 15  2  0  0  0  0
 14 16  1  0  0  0  0
 16 17  1  0  0  0  0
 16 18  1  0  0  0  0
 17 32  1  0  0  0  0
 17 33  1  0  0  0  0
 17 34  1  0  0  0  0
 18 35  1  0  0  0  0
 18 36  1  0  0  0  0
M  CHG  1   7   1
M  END
> <s_m_source_file>
AV-unprocessed.smi

> <i_m_source_file_index>
3253

> <i_lp_mmshare_version>
43012

> <i_f3d_flags>
0

> <s_epik_input>
W2NIXTFuW2NIXVtjSF1uMVtDSDJdW0NAQEhdKFtDSDNdKVtOSF1DKD1PKVtDQEBIXTJbQ0gyXUMoPU8pTihbQ0gzXSlbQ0gyXTI=

> <s_epik_cmdline>
J2VwaWtfcHl0aG9uJywgJy1waCcsICc3LjAnLCAnLXRuJywgJzgnLCAnLW1hJywgJzIwMCcsICctbWV0YWxfYmluZGluZycsICctaW1hZScsICc8aW5maWxlLm1hZT4nLCAnLW9tYWUnLCAnPG91dGZpbGUubWFlPic=

> <r_lp_tautomer_probability>
1

> <r_epik_Ionization_Penalty>
0.251561

> <r_epik_Ionization_Penalty_Charging>
0

> <r_epik_Ionization_Penalty_Neutral>
0.251561

> <r_epik_State_Penalty>
0.242926

> <r_epik_Charging_Adjusted_Penalty>
0.242926

> <i_epik_Tot_Q>
1

> <i_epik_Tot_abs_Q>
1

> <r_epik_Metal_State_Penalty>
0.533885

> <b_epik_Metal_Only>
0

> <s_lp_Force_Field>
OPLS_2005

> <r_lp_Energy>
14.6529

> <b_lp_Chiralities_Consistent>
1

> <s_lp_Variant>
AV-unprocessed.smi:3253-3

> <Gold.Version>
5.8.1

> <Gold.Id.Protein>
6NUR|6NUR_protein|mol2

> <Gold.PLP.Fitness>
46.9112

> <Gold.PLP.PLP>
-40.9623

> <Gold.PLP.part.hbond>
-1.0000

> <Gold.PLP.part.metal>
0.0000

> <Gold.PLP.part.buried>
-3.4320

> <Gold.PLP.part.nonpolar>
-36.6109

> <Gold.PLP.part.repulsive>
0.2945

> <Gold.PLP.ligand.clash>
0.0000

> <Gold.PLP.ligand.torsion>
0.0385

> <Gold.PLP.Chemscore.Hbond>
2.0000

> <Gold.PLP.Chemscore.CHOScore>
0.0000

> <Gold.PLP.Chemscore.Metal>
0.0000

> <Gold.Chemscore.Hbonds>
donor molecule, donor type, donor heavy atom, donor atom, acceptor molecule, acceptor atom, score
      L1  H     7    37       P1 10175  2.00
      L1  C     5    25       P1  7957  0.01

> <Gold.PLP.Chemscore.Internal.Correction>
0.0259

> <Gold.Rescore>
     Score         DG    S(hbond)    S(metal)    S(lipo)     H(rot)  DE(clash)    DE(int)     intcor
     12.56     -12.70       0.97        0.00      78.43       2.03       0.02       0.12       ----

> <Gold.Chemscore.Fitness>
12.5599

> <Gold.Chemscore.DG>
-12.7042

> <Gold.Chemscore.ZeroCoef>
-5.4800

> <Gold.Chemscore.Hbond>
0.9745

> <Gold.Chemscore.Metal>
0.0000

> <Gold.Chemscore.Lipo>
78.4323

> <Gold.Chemscore.Internal_Hbond>
0.0000

> <Gold.Chemscore.DEClash>
0.0240

> <Gold.Chemscore.DEInternal>
0.1203

> <Gold.Chemscore.Rot>
2.0341

> <Gold.Chemscore.Internal.Correction>
   9.000000E+99

> <Gold.Chemscore.Hbonds>
donor molecule, donor type, donor heavy atom, donor atom, acceptor molecule, acceptor atom, score
      L1  H     7    37       P1 10175  0.38

> <Gold.Chemscore.Hbond.Weighted>
-3.2549

> <Gold.Chemscore.Metal.Weighted>
-0.0000

> <Gold.Chemscore.Lipo.Weighted>
-9.1766

> <Gold.Chemscore.Internal_Hbond.Weighted>
0.0000

> <Gold.Chemscore.DEClash.Weighted>
0.0240

> <Gold.Chemscore.DEInternal.Weighted>
0.1203

> <Gold.Chemscore.Rot.Weighted>
5.2072

> <Gold.Chemscore.Internal.Correction.Weighted>
   9.000000E+99

> <Gold.Protein.RotatedTorsions>
[ 6907 6896 6895 6894 ] final -129.70 input  -60.11 | X-H torsion
[ 7974 7965 7964 7962 ] final  -58.58 input  175.53 | X-H torsion
[ 8008 7997 7996 7995 ] final   98.11 input   59.86 | X-H torsion
[ 10167 10162 10161 10158 ] final  163.24 input  -65.29 | X-H torsion
[ 10718 10713 10712 10709 ] final -138.07 input   66.30 | X-H torsion
[ 10763 10752 10751 10750 ] final  -19.81 input  -60.55 | X-H torsion
[ 11005 11000 10999 10996 ] final   27.97 input  -57.11 | X-H torsion

> <Gold.Protein.ActiveResidues>
 VAL166  LYS551  ARG553  GLY616  TRP617  ASP618  TYR619  PRO620  LYS621  CYS622 
 ASP623  PHE694  ASN695  SER759  ASP760  ASP761  ALA762  ILE779  LEU786  VAL792 
 PHE793  MET794  SER795  GLU796  ALA797  LYS798  CYS799  TRP800  GLU811  SER814 

> <Gold.Protein.RotatedAtoms>
  150.9316  133.6760  159.2809 H   0  0  0  0  0  0  0  0  0  0  0  0  # atno 6907 bound_to 6896
  151.4180  135.0993  159.9615 H   0  0  0  0  0  0  0  0  0  0  0  0  # atno 6908 bound_to 6896
  152.5029  133.8775  159.7384 H   0  0  0  0  0  0  0  0  0  0  0  0  # atno 6909 bound_to 6896
  145.8376  140.8438  143.0051 H   0  0  0  0  0  0  0  0  0  0  0  0  # atno 7974 bound_to 7965
  156.0970  140.3248  155.7891 H   0  0  0  0  0  0  0  0  0  0  0  0  # atno 8008 bound_to 7997
  155.4900  140.0561  157.2972 H   0  0  0  0  0  0  0  0  0  0  0  0  # atno 8009 bound_to 7997
  154.4673  140.1995  156.0101 H   0  0  0  0  0  0  0  0  0  0  0  0  # atno 8010 bound_to 7997
  139.4871  144.4357  151.9015 H   0  0  0  0  0  0  0  0  0  0  0  0  # atno 10167 bound_to 10162
  156.2952  130.7398  151.1434 H   0  0  0  0  0  0  0  0  0  0  0  0  # atno 10718 bound_to 10713
  153.6106  135.6996  153.5348 H   0  0  0  0  0  0  0  0  0  0  0  0  # atno 10763 bound_to 10752
  153.3019  135.4126  155.1260 H   0  0  0  0  0  0  0  0  0  0  0  0  # atno 10764 bound_to 10752
  154.8564  135.3651  154.5645 H   0  0  0  0  0  0  0  0  0  0  0  0  # atno 10765 bound_to 10752
  140.3206  134.2548  155.7718 H   0  0  0  0  0  0  0  0  0  0  0  0  # atno 11005 bound_to 11000
  144.6735  140.0765  143.7471 LP  0  0  0  0  0  0  0  0  0  0  0  0  # atno 17320 bound_to 7965
  145.9501  139.2728  143.1217 LP  0  0  0  0  0  0  0  0  0  0  0  0  # atno 17321 bound_to 7965
  140.3807  144.2740  150.5909 LP  0  0  0  0  0  0  0  0  0  0  0  0  # atno 17342 bound_to 10162
  140.5236  143.2260  151.8350 LP  0  0  0  0  0  0  0  0  0  0  0  0  # atno 17343 bound_to 10162
  157.7353  131.0573  150.5475 LP  0  0  0  0  0  0  0  0  0  0  0  0  # atno 17370 bound_to 10713
  156.5596  130.4252  149.6069 LP  0  0  0  0  0  0  0  0  0  0  0  0  # atno 17371 bound_to 10713
  141.2087  133.7769  157.0040 LP  0  0  0  0  0  0  0  0  0  0  0  0  # atno 17394 bound_to 11000
  140.0945  134.9572  157.1828 LP  0  0  0  0  0  0  0  0  0  0  0  0  # atno 17395 bound_to 11000

$$$$
