AV-unprocessed.smi:1055|AV-procd|sdf|4625|dock8
  -GOLD-   22720 3123D 1   1.00000     0.00000
 Structure written by MMmdl.
 52 53  0  0  0  0  0  0  0  0  3 V2000
  145.9577  131.5795  151.3110 C   0  0  0  0  0  0  0  0  0  0  0  0
  144.9711  132.4780  151.4647 C   0  0  0  0  0  0  0  0  0  0  0  0
  143.7981  132.5550  150.5056 C   0  0  0  0  0  0  0  0  0  0  0  0
  144.9655  133.4835  152.6054 C   0  0  0  0  0  0  0  0  0  0  0  0
  144.9218  134.8821  152.1102 N   0  3  2  0  0  0  0  0  0  0  0  0
  146.0210  135.1727  151.1553 C   0  0  0  0  0  0  0  0  0  0  0  0
  145.8657  136.5734  150.5358 C   0  0  0  0  0  0  0  0  0  0  0  0
  145.7653  137.6739  151.6063 C   0  0  2  0  0  0  0  0  0  0  0  0
  147.0629  137.8900  152.2468 N   0  0  0  0  0  0  0  0  0  0  0  0
  147.3199  138.8253  153.1730 C   0  0  0  0  0  0  0  0  0  0  0  0
  146.4673  139.5974  153.6099 O   0  0  0  0  0  0  0  0  0  0  0  0
  148.6065  138.7880  153.5615 N   0  0  0  0  0  0  0  0  0  0  0  0
  149.2746  139.6324  154.4900 C   0  0  0  0  0  0  0  0  0  0  0  0
  150.3634  139.0932  155.2062 C   0  0  0  0  0  0  0  0  0  0  0  0
  151.0669  139.8974  156.1263 C   0  0  0  0  0  0  0  0  0  0  0  0
  150.6835  141.2471  156.3202 C   0  0  0  0  0  0  0  0  0  0  0  0
  151.3388  142.1154  157.2200 N   0  0  0  0  0  0  0  0  0  0  0  0
  151.2289  143.5592  157.0443 C   0  0  0  0  0  0  0  0  0  0  0  0
  152.1042  141.5656  158.3310 C   0  0  0  0  0  0  0  0  0  0  0  0
  149.6388  141.7235  155.6000 N   0  3  0  0  0  0  0  0  0  0  0  0
  148.9363  140.9888  154.7110 C   0  0  0  0  0  0  0  0  0  0  0  0
  144.6730  137.3094  152.6313 C   0  0  0  0  0  0  0  0  0  0  0  0
  144.8613  135.8919  153.2001 C   0  0  0  0  0  0  0  0  0  0  0  0
  145.9502  130.8724  150.4941 H   0  0  0  0  0  0  0  0  0  0  0  0
  146.7891  131.5357  151.9994 H   0  0  0  0  0  0  0  0  0  0  0  0
  143.7440  133.5451  150.0522 H   0  0  0  0  0  0  0  0  0  0  0  0
  142.8604  132.3643  151.0280 H   0  0  0  0  0  0  0  0  0  0  0  0
  143.8918  131.8211  149.7042 H   0  0  0  0  0  0  0  0  0  0  0  0
  144.1237  133.3032  153.2762 H   0  0  0  0  0  0  0  0  0  0  0  0
  145.8723  133.3224  153.1901 H   0  0  0  0  0  0  0  0  0  0  0  0
  146.9815  135.0859  151.6657 H   0  0  0  0  0  0  0  0  0  0  0  0
  146.0199  134.4288  150.3577 H   0  0  0  0  0  0  0  0  0  0  0  0
  146.6946  136.7784  149.8573 H   0  0  0  0  0  0  0  0  0  0  0  0
  144.9633  136.5903  149.9228 H   0  0  0  0  0  0  0  0  0  0  0  0
  145.4795  138.6008  151.1055 H   0  0  0  0  0  0  0  0  0  0  0  0
  147.8234  137.2976  151.9474 H   0  0  0  0  0  0  0  0  0  0  0  0
  149.1675  138.0456  153.1703 H   0  0  0  0  0  0  0  0  0  0  0  0
  150.6600  138.0651  155.0578 H   0  0  0  0  0  0  0  0  0  0  0  0
  151.8933  139.4629  156.6684 H   0  0  0  0  0  0  0  0  0  0  0  0
  151.6012  143.8568  156.0634 H   0  0  0  0  0  0  0  0  0  0  0  0
  151.8077  144.0961  157.7962 H   0  0  0  0  0  0  0  0  0  0  0  0
  150.1896  143.8768  157.1327 H   0  0  0  0  0  0  0  0  0  0  0  0
  152.9177  140.9398  157.9629 H   0  0  0  0  0  0  0  0  0  0  0  0
  151.4648  140.9631  158.9768 H   0  0  0  0  0  0  0  0  0  0  0  0
  152.5421  142.3560  158.9408 H   0  0  0  0  0  0  0  0  0  0  0  0
  148.1448  141.5243  154.2094 H   0  0  0  0  0  0  0  0  0  0  0  0
  144.6475  138.0380  153.4422 H   0  0  0  0  0  0  0  0  0  0  0  0
  143.6977  137.3680  152.1465 H   0  0  0  0  0  0  0  0  0  0  0  0
  144.0325  135.6716  153.8730 H   0  0  0  0  0  0  0  0  0  0  0  0
  145.7725  135.8411  153.7979 H   0  0  0  0  0  0  0  0  0  0  0  0
  144.0627  134.9676  151.5857 H   0  0  0  0  0  0  0  0  0  0  0  0
  149.3673  142.6977  155.7343 H   0  0  0  0  0  0  0  0  0  0  0  0
  1  2  2  0  0  0  0
  1 24  1  0  0  0  0
  1 25  1  0  0  0  0
  2  3  1  0  0  0  0
  2  4  1  0  0  0  0
  3 26  1  0  0  0  0
  3 27  1  0  0  0  0
  3 28  1  0  0  0  0
  4  5  1  0  0  0  0
  4 29  1  0  0  0  0
  4 30  1  0  0  0  0
  5 23  1  0  0  0  0
  5  6  1  0  0  0  0
  5 51  1  0  0  0  0
  6  7  1  0  0  0  0
  6 31  1  0  0  0  0
  6 32  1  0  0  0  0
  7  8  1  0  0  0  0
  7 33  1  0  0  0  0
  7 34  1  0  0  0  0
  8  9  1  0  0  0  0
  8 22  1  0  0  0  0
  8 35  1  0  0  0  0
  9 10  1  0  0  0  0
  9 36  1  0  0  0  0
 10 11  2  0  0  0  0
 10 12  1  0  0  0  0
 12 13  1  0  0  0  0
 12 37  1  0  0  0  0
 13 21  1  0  0  0  0
 13 14  2  0  0  0  0
 14 15  1  0  0  0  0
 14 38  1  0  0  0  0
 15 16  2  0  0  0  0
 15 39  1  0  0  0  0
 16 17  1  0  0  0  0
 16 20  1  0  0  0  0
 17 18  1  0  0  0  0
 17 19  1  0  0  0  0
 18 40  1  0  0  0  0
 18 41  1  0  0  0  0
 18 42  1  0  0  0  0
 19 43  1  0  0  0  0
 19 44  1  0  0  0  0
 19 45  1  0  0  0  0
 20 21  2  0  0  0  0
 20 52  1  0  0  0  0
 21 46  1  0  0  0  0
 22 23  1  0  0  0  0
 22 47  1  0  0  0  0
 22 48  1  0  0  0  0
 23 49  1  0  0  0  0
 23 50  1  0  0  0  0
M  CHG  1   5   1
M  CHG  1  20   1
M  END
> <s_m_source_file>
AV-unprocessed.smi

> <i_m_source_file_index>
1055

> <i_lp_mmshare_version>
43012

> <i_f3d_flags>
0

> <s_epik_input>
W0NIMl09QyhbQ0gzXSlbQ0gyXU4xW0NIMl1bQ0gyXVtDSF0oW0NIMl1bQ0gyXTEpW05IXUMoPU8pW05IXWMyW2NIXVtjSF1jKE4oW0NIM10pW0NIM10pbltjSF0y

> <s_epik_cmdline>
J2VwaWtfcHl0aG9uJywgJy1waCcsICc3LjAnLCAnLXRuJywgJzgnLCAnLW1hJywgJzIwMCcsICctbWV0YWxfYmluZGluZycsICctaW1hZScsICc8aW5maWxlLm1hZT4nLCAnLW9tYWUnLCAnPG91dGZpbGUubWFlPic=

> <r_lp_tautomer_probability>
0.999994

> <r_epik_Ionization_Penalty>
0.344238

> <r_epik_Ionization_Penalty_Charging>
0.344219

> <r_epik_Ionization_Penalty_Neutral>
1.87459e-05

> <r_epik_State_Penalty>
0.320654

> <r_epik_Charging_Adjusted_Penalty>
0.664873

> <i_epik_Tot_Q>
2

> <i_epik_Tot_abs_Q>
2

> <r_epik_Metal_State_Penalty>
0.58246

> <b_epik_Metal_Only>
0

> <s_lp_Force_Field>
OPLS_2005

> <r_lp_Energy>
26.4869

> <b_lp_Chiralities_Consistent>
1

> <s_lp_Variant>
AV-unprocessed.smi:1055-2

> <Gold.Version>
5.8.1

> <Gold.Id.Protein>
6NUR|6NUR_protein|mol2

> <Gold.PLP.Fitness>
46.5670

> <Gold.PLP.PLP>
-36.8872

> <Gold.PLP.part.hbond>
-3.8493

> <Gold.PLP.part.metal>
0.0000

> <Gold.PLP.part.buried>
2.9455

> <Gold.PLP.part.nonpolar>
-36.5328

> <Gold.PLP.part.repulsive>
0.6772

> <Gold.PLP.ligand.clash>
0.0000

> <Gold.PLP.ligand.torsion>
0.4166

> <Gold.PLP.Chemscore.Hbond>
3.4915

> <Gold.PLP.Chemscore.CHOScore>
0.0000

> <Gold.PLP.Chemscore.Metal>
0.0000

> <Gold.Chemscore.Hbonds>
donor molecule, donor type, donor heavy atom, donor atom, acceptor molecule, acceptor atom, score
      L1  H     9    36       P1  7948  1.00
      L1  H    12    37       P1  7948  0.44
      L1  H    20    52       P1  8028  1.76

> <Gold.PLP.Chemscore.Internal.Correction>
0.0386

> <Gold.Rescore>
     Score         DG    S(hbond)    S(metal)    S(lipo)     H(rot)  DE(clash)    DE(int)     intcor
     17.45     -21.52       2.20        0.00     103.68       1.35       2.08       1.99       ----

> <Gold.Chemscore.Fitness>
17.4510

> <Gold.Chemscore.DG>
-21.5213

> <Gold.Chemscore.ZeroCoef>
-5.4800

> <Gold.Chemscore.Hbond>
2.2029

> <Gold.Chemscore.Metal>
0.0000

> <Gold.Chemscore.Lipo>
103.6792

> <Gold.Chemscore.Internal_Hbond>
0.0000

> <Gold.Chemscore.DEClash>
2.0761

> <Gold.Chemscore.DEInternal>
1.9941

> <Gold.Chemscore.Rot>
1.3465

> <Gold.Chemscore.Internal.Correction>
   9.000000E+99

> <Gold.Chemscore.Hbonds>
donor molecule, donor type, donor heavy atom, donor atom, acceptor molecule, acceptor atom, score
      L1  H     9    36       P1  7948  0.93
      L1  H    12    37       P1  7948  0.44
      L1  H    20    52       P1  8028  0.86

> <Gold.Chemscore.Hbond.Weighted>
-7.3578

> <Gold.Chemscore.Metal.Weighted>
-0.0000

> <Gold.Chemscore.Lipo.Weighted>
-12.1305

> <Gold.Chemscore.Internal_Hbond.Weighted>
0.0000

> <Gold.Chemscore.DEClash.Weighted>
2.0761

> <Gold.Chemscore.DEInternal.Weighted>
1.9941

> <Gold.Chemscore.Rot.Weighted>
3.4470

> <Gold.Chemscore.Internal.Correction.Weighted>
   9.000000E+99

> <Gold.Protein.RotatedTorsions>
[ 6907 6896 6895 6894 ] final  167.13 input  -60.11 | X-H torsion
[ 7974 7965 7964 7962 ] final -151.41 input  175.53 | X-H torsion
[ 8008 7997 7996 7995 ] final   -1.73 input   59.86 | X-H torsion
[ 10167 10162 10161 10158 ] final   39.33 input  -65.29 | X-H torsion
[ 10718 10713 10712 10709 ] final   22.23 input   66.30 | X-H torsion
[ 10763 10752 10751 10750 ] final  -58.23 input  -60.55 | X-H torsion
[ 11005 11000 10999 10996 ] final  119.21 input  -57.11 | X-H torsion

> <Gold.Protein.ActiveResidues>
 VAL166  LYS551  ARG553  GLY616  TRP617  ASP618  TYR619  PRO620  LYS621  CYS622 
 ASP623  PHE694  ASN695  SER759  ASP760  ASP761  ALA762  ILE779  LEU786  VAL792 
 PHE793  MET794  SER795  GLU796  ALA797  LYS798  CYS799  TRP800  GLU811  SER814 

> <Gold.Protein.RotatedAtoms>
  151.8681  133.3470  159.3725 H   0  0  0  0  0  0  0  0  0  0  0  0  # atno 6907 bound_to 6896
  150.7160  134.5140  159.5630 H   0  0  0  0  0  0  0  0  0  0  0  0  # atno 6908 bound_to 6896
  152.2667  134.7977  160.0472 H   0  0  0  0  0  0  0  0  0  0  0  0  # atno 6909 bound_to 6896
  144.7851  140.4801  143.5812 H   0  0  0  0  0  0  0  0  0  0  0  0  # atno 7974 bound_to 7965
  154.6435  140.2552  155.7295 H   0  0  0  0  0  0  0  0  0  0  0  0  # atno 8008 bound_to 7997
  156.2540  140.2882  156.0759 H   0  0  0  0  0  0  0  0  0  0  0  0  # atno 8009 bound_to 7997
  155.1560  140.0383  157.2822 H   0  0  0  0  0  0  0  0  0  0  0  0  # atno 8010 bound_to 7997
  140.3850  144.1929  150.6130 H   0  0  0  0  0  0  0  0  0  0  0  0  # atno 10167 bound_to 10162
  157.1495  130.6668  149.6007 H   0  0  0  0  0  0  0  0  0  0  0  0  # atno 10718 bound_to 10713
  154.2348  135.6354  153.5187 H   0  0  0  0  0  0  0  0  0  0  0  0  # atno 10763 bound_to 10752
  152.9941  135.5528  154.5973 H   0  0  0  0  0  0  0  0  0  0  0  0  # atno 10764 bound_to 10752
  154.5465  135.2898  155.1022 H   0  0  0  0  0  0  0  0  0  0  0  0  # atno 10765 bound_to 10752
  139.9138  134.9626  156.7620 H   0  0  0  0  0  0  0  0  0  0  0  0  # atno 11005 bound_to 11000
  145.5943  139.1498  143.3164 LP  0  0  0  0  0  0  0  0  0  0  0  0  # atno 17320 bound_to 7965
  146.2079  140.6068  142.9073 LP  0  0  0  0  0  0  0  0  0  0  0  0  # atno 17321 bound_to 7965
  140.4899  143.2351  151.8834 LP  0  0  0  0  0  0  0  0  0  0  0  0  # atno 17342 bound_to 10162
  139.4792  144.5178  151.8844 LP  0  0  0  0  0  0  0  0  0  0  0  0  # atno 17343 bound_to 10162
  155.9773  130.4749  150.6585 LP  0  0  0  0  0  0  0  0  0  0  0  0  # atno 17370 bound_to 10713
  157.4233  131.0839  151.1109 LP  0  0  0  0  0  0  0  0  0  0  0  0  # atno 17371 bound_to 10713
  140.6689  133.9577  155.7846 LP  0  0  0  0  0  0  0  0  0  0  0  0  # atno 17394 bound_to 11000
  141.0591  134.0372  157.3682 LP  0  0  0  0  0  0  0  0  0  0  0  0  # atno 17395 bound_to 11000

$$$$
