AV-unprocessed.smi:1950|AV-procd|sdf|7880|dock5
  -GOLD-   2272010 33D 1   1.00000     0.00000
 Structure written by MMmdl.
 32 33  0  0  0  0  0  0  0  0  2 V2000
  152.9548  142.4831  162.6070 C   0  0  0  0  0  0  0  0  0  0  0  0
  152.7532  143.8872  162.0328 C   0  0  0  0  0  0  0  0  0  0  0  0
  152.6768  144.8285  162.8228 O   0  0  0  0  0  0  0  0  0  0  0  0
  152.6667  144.0482  160.6902 N   0  0  0  0  0  0  0  0  0  0  0  0
  152.6918  142.9199  159.7517 C   0  0  0  0  0  0  0  0  0  0  0  0
  151.2961  142.7629  159.1212 C   0  0  0  0  0  0  0  0  0  0  0  0
  150.8356  144.0700  158.4417 C   0  0  0  0  0  0  0  0  0  0  0  0
  149.4461  143.9362  158.0121 N   0  0  0  0  0  0  0  0  0  0  0  0
  148.4267  143.4905  158.7606 C   0  0  0  0  0  0  0  0  0  0  0  0
  148.6250  143.1418  159.9268 O   0  0  0  0  0  0  0  0  0  0  0  0
  147.2399  143.4768  158.1117 N   0  5  0  0  0  0  0  0  0  0  0  0
  147.0410  142.6252  157.0921 C   0  0  0  0  0  0  0  0  0  0  0  0
  148.0209  141.8467  156.6057 N   0  0  0  0  0  0  0  0  0  0  0  0
  147.6085  141.0450  155.5500 N   0  0  0  0  0  0  0  0  0  0  0  0
  146.3230  141.2454  155.2612 C   0  0  0  0  0  0  0  0  0  0  0  0
  145.5012  142.4349  156.2487 S   0  0  0  0  0  0  0  0  0  0  0  0
  151.0023  145.2819  159.3869 C   0  0  0  0  0  0  0  0  0  0  0  0
  152.4129  145.3199  160.0011 C   0  0  0  0  0  0  0  0  0  0  0  0
  153.8694  142.0335  162.2196 H   0  0  0  0  0  0  0  0  0  0  0  0
  152.1098  141.8399  162.3596 H   0  0  0  0  0  0  0  0  0  0  0  0
  153.0375  142.5208  163.6937 H   0  0  0  0  0  0  0  0  0  0  0  0
  153.4343  143.1118  158.9758 H   0  0  0  0  0  0  0  0  0  0  0  0
  152.9914  141.9834  160.2238 H   0  0  0  0  0  0  0  0  0  0  0  0
  151.3047  141.9480  158.3965 H   0  0  0  0  0  0  0  0  0  0  0  0
  150.5842  142.4785  159.8980 H   0  0  0  0  0  0  0  0  0  0  0  0
  151.4675  144.2255  157.5654 H   0  0  0  0  0  0  0  0  0  0  0  0
  149.2358  144.2079  157.0629 H   0  0  0  0  0  0  0  0  0  0  0  0
  145.8573  140.6923  154.4594 H   0  0  0  0  0  0  0  0  0  0  0  0
  150.8089  146.2097  158.8474 H   0  0  0  0  0  0  0  0  0  0  0  0
  150.2633  145.2312  160.1881 H   0  0  0  0  0  0  0  0  0  0  0  0
  152.5121  146.1936  160.6433 H   0  0  0  0  0  0  0  0  0  0  0  0
  153.1559  145.4536  159.2136 H   0  0  0  0  0  0  0  0  0  0  0  0
  1  2  1  0  0  0  0
  1 19  1  0  0  0  0
  1 20  1  0  0  0  0
  1 21  1  0  0  0  0
  2  3  2  0  0  0  0
  2  4  1  0  0  0  0
  4 18  1  0  0  0  0
  4  5  1  0  0  0  0
  5  6  1  0  0  0  0
  5 22  1  0  0  0  0
  5 23  1  0  0  0  0
  6  7  1  0  0  0  0
  6 24  1  0  0  0  0
  6 25  1  0  0  0  0
  7  8  1  0  0  0  0
  7 17  1  0  0  0  0
  7 26  1  0  0  0  0
  8  9  1  0  0  0  0
  8 27  1  0  0  0  0
  9 10  2  0  0  0  0
  9 11  1  0  0  0  0
 11 12  1  0  0  0  0
 12 16  1  0  0  0  0
 12 13  2  0  0  0  0
 13 14  1  0  0  0  0
 14 15  2  0  0  0  0
 15 16  1  0  0  0  0
 15 28  1  0  0  0  0
 17 18  1  0  0  0  0
 17 29  1  0  0  0  0
 17 30  1  0  0  0  0
 18 31  1  0  0  0  0
 18 32  1  0  0  0  0
M  CHG  1  11  -1
M  END
> <s_m_source_file>
AV-unprocessed.smi

> <i_m_source_file_index>
1950

> <i_lp_mmshare_version>
43012

> <i_f3d_flags>
0

> <s_epik_input>
W0NIM11DKD1PKU4xW0NIMl1bQ0gyXVtDSF0oW0NIMl1bQ0gyXTEpW05IXUMoPU8pW05IXWMybm5bY0hdczI=

> <s_epik_cmdline>
J2VwaWtfcHl0aG9uJywgJy1waCcsICc3LjAnLCAnLXRuJywgJzgnLCAnLW1hJywgJzIwMCcsICctbWV0YWxfYmluZGluZycsICctaW1hZScsICc8aW5maWxlLm1hZT4nLCAnLW9tYWUnLCAnPG91dGZpbGUubWFlPic=

> <r_lp_tautomer_probability>
1

> <r_epik_Ionization_Penalty>
3.45176

> <r_epik_Ionization_Penalty_Charging>
3.40771

> <r_epik_Ionization_Penalty_Neutral>
0.0440522

> <r_epik_State_Penalty>
3.40583

> <r_epik_Charging_Adjusted_Penalty>
6.81354

> <i_epik_Tot_Q>
-1

> <i_epik_Tot_abs_Q>
1

> <r_epik_Metal_State_Penalty>
0.49593

> <b_epik_Metal_Only>
1

> <s_lp_Force_Field>
OPLS_2005

> <r_lp_Energy>
20.3266

> <b_lp_Chiralities_Consistent>
1

> <s_lp_Variant>
AV-unprocessed.smi:1950-2

> <Gold.Version>
5.8.1

> <Gold.Id.Protein>
6NUR|6NUR_protein|mol2

> <Gold.PLP.Fitness>
39.8397

> <Gold.PLP.PLP>
-33.9326

> <Gold.PLP.part.hbond>
-4.3362

> <Gold.PLP.part.metal>
0.0000

> <Gold.PLP.part.buried>
-3.6973

> <Gold.PLP.part.nonpolar>
-27.0420

> <Gold.PLP.part.repulsive>
1.6678

> <Gold.PLP.ligand.clash>
0.0000

> <Gold.PLP.ligand.torsion>
0.7901

> <Gold.PLP.Chemscore.Hbond>
1.7840

> <Gold.PLP.Chemscore.CHOScore>
0.7060

> <Gold.PLP.Chemscore.Metal>
0.0000

> <Gold.Chemscore.Hbonds>
donor molecule, donor type, donor heavy atom, donor atom, acceptor molecule, acceptor atom, score
      L1  H     8    27       P1  8028  0.80
      P1  H  6933  6944       L1    10  0.54

> <Gold.PLP.Chemscore.Internal.Correction>
0.0173

> <Gold.Rescore>
     Score         DG    S(hbond)    S(metal)    S(lipo)     H(rot)  DE(clash)    DE(int)     intcor
     12.43     -15.95       1.24        0.00      75.99       1.00       0.11       3.41       ----

> <Gold.Chemscore.Fitness>
12.4299

> <Gold.Chemscore.DG>
-15.9534

> <Gold.Chemscore.ZeroCoef>
-5.4800

> <Gold.Chemscore.Hbond>
1.2402

> <Gold.Chemscore.Metal>
0.0000

> <Gold.Chemscore.Lipo>
75.9932

> <Gold.Chemscore.Internal_Hbond>
0.0000

> <Gold.Chemscore.DEClash>
0.1136

> <Gold.Chemscore.DEInternal>
3.4099

> <Gold.Chemscore.Rot>
1.0000

> <Gold.Chemscore.Internal.Correction>
   9.000000E+99

> <Gold.Chemscore.Hbonds>
donor molecule, donor type, donor heavy atom, donor atom, acceptor molecule, acceptor atom, score
      L1  H     8    27       P1  8028  0.13
      P1  H  6933  6944       L1    10  0.56

> <Gold.Chemscore.Hbond.Weighted>
-4.1422

> <Gold.Chemscore.Metal.Weighted>
-0.0000

> <Gold.Chemscore.Lipo.Weighted>
-8.8912

> <Gold.Chemscore.Internal_Hbond.Weighted>
0.0000

> <Gold.Chemscore.DEClash.Weighted>
0.1136

> <Gold.Chemscore.DEInternal.Weighted>
3.4099

> <Gold.Chemscore.Rot.Weighted>
2.5600

> <Gold.Chemscore.Internal.Correction.Weighted>
   9.000000E+99

> <Gold.Protein.RotatedTorsions>
[ 6907 6896 6895 6894 ] final -143.11 input  -60.11 | X-H torsion
[ 7974 7965 7964 7962 ] final  -71.43 input  175.53 | X-H torsion
[ 8008 7997 7996 7995 ] final   78.66 input   59.86 | X-H torsion
[ 10167 10162 10161 10158 ] final  -25.68 input  -65.29 | X-H torsion
[ 10718 10713 10712 10709 ] final -126.04 input   66.30 | X-H torsion
[ 10763 10752 10751 10750 ] final -113.51 input  -60.55 | X-H torsion
[ 11005 11000 10999 10996 ] final  -79.36 input  -57.11 | X-H torsion

> <Gold.Protein.ActiveResidues>
 VAL166  LYS551  ARG553  GLY616  TRP617  ASP618  TYR619  PRO620  LYS621  CYS622 
 ASP623  PHE694  ASN695  SER759  ASP760  ASP761  ALA762  ILE779  LEU786  VAL792 
 PHE793  MET794  SER795  GLU796  ALA797  LYS798  CYS799  TRP800  GLU811  SER814 

> <Gold.Protein.RotatedAtoms>
  151.0960  133.5279  159.2612 H   0  0  0  0  0  0  0  0  0  0  0  0  # atno 6907 bound_to 6896
  151.2128  135.0487  159.8928 H   0  0  0  0  0  0  0  0  0  0  0  0  # atno 6908 bound_to 6896
  152.5439  134.0773  159.8274 H   0  0  0  0  0  0  0  0  0  0  0  0  # atno 6909 bound_to 6896
  145.6782  140.9197  143.0846 H   0  0  0  0  0  0  0  0  0  0  0  0  # atno 7974 bound_to 7965
  155.8588  140.3454  155.5742 H   0  0  0  0  0  0  0  0  0  0  0  0  # atno 8008 bound_to 7997
  155.7957  140.0878  157.2004 H   0  0  0  0  0  0  0  0  0  0  0  0  # atno 8009 bound_to 7997
  154.4011  140.1475  156.3202 H   0  0  0  0  0  0  0  0  0  0  0  0  # atno 8010 bound_to 7997
  140.7285  143.4243  151.0901 H   0  0  0  0  0  0  0  0  0  0  0  0  # atno 10167 bound_to 10162
  156.1729  130.6680  151.0204 H   0  0  0  0  0  0  0  0  0  0  0  0  # atno 10718 bound_to 10713
  154.8399  135.4451  154.1361 H   0  0  0  0  0  0  0  0  0  0  0  0  # atno 10763 bound_to 10752
  153.2558  135.6931  153.7636 H   0  0  0  0  0  0  0  0  0  0  0  0  # atno 10764 bound_to 10752
  153.6931  135.3384  155.3182 H   0  0  0  0  0  0  0  0  0  0  0  0  # atno 10765 bound_to 10752
  141.1667  133.7102  156.8110 H   0  0  0  0  0  0  0  0  0  0  0  0  # atno 11005 bound_to 11000
  144.7034  139.8661  143.7437 LP  0  0  0  0  0  0  0  0  0  0  0  0  # atno 17320 bound_to 7965
  146.0987  139.3981  143.0360 LP  0  0  0  0  0  0  0  0  0  0  0  0  # atno 17321 bound_to 7965
  139.7893  143.8242  152.3149 LP  0  0  0  0  0  0  0  0  0  0  0  0  # atno 17342 bound_to 10162
  139.8220  144.7291  150.9560 LP  0  0  0  0  0  0  0  0  0  0  0  0  # atno 17343 bound_to 10162
  157.6816  131.0836  150.7356 LP  0  0  0  0  0  0  0  0  0  0  0  0  # atno 17370 bound_to 10713
  156.7414  130.4740  149.5476 LP  0  0  0  0  0  0  0  0  0  0  0  0  # atno 17371 bound_to 10713
  140.2187  134.8773  157.3354 LP  0  0  0  0  0  0  0  0  0  0  0  0  # atno 17394 bound_to 11000
  140.2010  134.4255  155.7663 LP  0  0  0  0  0  0  0  0  0  0  0  0  # atno 17395 bound_to 11000

$$$$
