AV-unprocessed.smi:2567|AV-procd|sdf|10082|dock9
  -GOLD-   2272014113D 1   1.00000     0.00000
 Structure written by MMmdl.
 33 34  0  0  0  0  0  0  0  0  1 V2000
  151.9394  143.8542  161.0482 C   0  0  0  0  0  0  0  0  0  0  0  0
  151.3521  144.0752  159.6363 C   0  0  0  0  0  0  0  0  0  0  0  0
  149.9049  144.5780  159.8319 C   0  0  0  0  0  0  0  0  0  0  0  0
  152.1736  145.1419  158.8904 C   0  0  0  0  0  0  0  0  0  0  0  0
  151.3575  142.7872  158.8458 C   0  0  0  0  0  0  0  0  0  0  0  0
  151.7983  141.6453  159.3802 N   0  0  0  0  0  0  0  0  0  0  0  0
  151.7682  140.8007  158.3288 N   0  0  0  0  0  0  0  0  0  0  0  0
  151.3800  141.4653  157.2403 C   0  0  0  0  0  0  0  0  0  0  0  0
  151.2820  140.8085  155.8995 C   0  0  2  0  0  0  0  0  0  0  0  0
  149.8751  140.9400  155.2843 C   0  0  0  0  0  0  0  0  0  0  0  0
  149.8043  140.2080  154.0207 N   0  0  0  0  0  0  0  0  0  0  0  0
  150.1987  138.8111  154.1976 C   0  0  0  0  0  0  0  0  0  0  0  0
  151.5924  138.7256  154.8455 C   0  0  0  0  0  0  0  0  0  0  0  0
  151.5882  139.4285  156.0836 O   0  0  0  0  0  0  0  0  0  0  0  0
  151.1370  142.7471  157.4936 N   0  0  0  0  0  0  0  0  0  0  0  0
  152.0330  139.8282  158.3936 H   0  0  0  0  0  0  0  0  0  0  0  0
  151.9035  144.7694  161.6401 H   0  0  0  0  0  0  0  0  0  0  0  0
  152.9835  143.5422  161.0089 H   0  0  0  0  0  0  0  0  0  0  0  0
  151.3859  143.0890  161.5942 H   0  0  0  0  0  0  0  0  0  0  0  0
  149.2899  143.8332  160.3386 H   0  0  0  0  0  0  0  0  0  0  0  0
  149.4251  144.8096  158.8803 H   0  0  0  0  0  0  0  0  0  0  0  0
  149.8781  145.4885  160.4316 H   0  0  0  0  0  0  0  0  0  0  0  0
  152.1835  146.0873  159.4336 H   0  0  0  0  0  0  0  0  0  0  0  0
  151.7628  145.3357  157.8989 H   0  0  0  0  0  0  0  0  0  0  0  0
  153.2095  144.8258  158.7608 H   0  0  0  0  0  0  0  0  0  0  0  0
  152.0254  141.2593  155.2389 H   0  0  0  0  0  0  0  0  0  0  0  0
  149.1307  140.5489  155.9790 H   0  0  0  0  0  0  0  0  0  0  0  0
  149.6320  141.9905  155.1224 H   0  0  0  0  0  0  0  0  0  0  0  0
  148.8577  140.2495  153.6568 H   0  0  0  0  0  0  0  0  0  0  0  0
  149.4710  138.2972  154.8267 H   0  0  0  0  0  0  0  0  0  0  0  0
  150.2001  138.2975  153.2361 H   0  0  0  0  0  0  0  0  0  0  0  0
  151.8553  137.6845  155.0324 H   0  0  0  0  0  0  0  0  0  0  0  0
  152.3577  139.1331  154.1828 H   0  0  0  0  0  0  0  0  0  0  0  0
  1  2  1  0  0  0  0
  1 17  1  0  0  0  0
  1 18  1  0  0  0  0
  1 19  1  0  0  0  0
  2  3  1  0  0  0  0
  2  4  1  0  0  0  0
  2  5  1  0  0  0  0
  3 20  1  0  0  0  0
  3 21  1  0  0  0  0
  3 22  1  0  0  0  0
  4 23  1  0  0  0  0
  4 24  1  0  0  0  0
  4 25  1  0  0  0  0
  5 15  1  0  0  0  0
  5  6  2  0  0  0  0
  6  7  1  0  0  0  0
  7 16  1  0  0  0  0
  7  8  1  0  0  0  0
  8  9  1  0  0  0  0
  8 15  2  0  0  0  0
  9 14  1  0  0  0  0
  9 10  1  0  0  0  0
  9 26  1  0  0  0  0
 10 11  1  0  0  0  0
 10 27  1  0  0  0  0
 10 28  1  0  0  0  0
 11 12  1  0  0  0  0
 11 29  1  0  0  0  0
 12 13  1  0  0  0  0
 12 30  1  0  0  0  0
 12 31  1  0  0  0  0
 13 14  1  0  0  0  0
 13 32  1  0  0  0  0
 13 33  1  0  0  0  0
M  END
> <s_m_source_file>
AV-unprocessed.smi

> <i_m_source_file_index>
2567

> <i_lp_mmshare_version>
43012

> <i_f3d_flags>
0

> <s_epik_input>
W0NIM11DKFtDSDNdKShbQ0gzXSljMW5bbkhdYyhuMSlbQ0BASF0yW0NIMl1bTkhdW0NIMl1bQ0gyXU8y

> <s_epik_cmdline>
J2VwaWtfcHl0aG9uJywgJy1waCcsICc3LjAnLCAnLXRuJywgJzgnLCAnLW1hJywgJzIwMCcsICctbWV0YWxfYmluZGluZycsICctaW1hZScsICc8aW5maWxlLm1hZT4nLCAnLW9tYWUnLCAnPG91dGZpbGUubWFlPic=

> <r_epik_Ionization_Penalty>
0.981987

> <r_epik_Ionization_Penalty_Charging>
0

> <r_epik_Ionization_Penalty_Neutral>
0.981987

> <r_epik_State_Penalty>
2.09479

> <r_epik_Charging_Adjusted_Penalty>
2.09479

> <i_epik_Tot_Q>
0

> <i_epik_Tot_abs_Q>
0

> <r_epik_Metal_State_Penalty>
2.40362

> <b_epik_Metal_Only>
0

> <s_lp_Force_Field>
OPLS_2005

> <r_lp_Energy>
12.9727

> <b_lp_Chiralities_Consistent>
1

> <s_lp_Variant>
AV-unprocessed.smi:2567-7

> <Gold.Version>
5.8.1

> <Gold.Id.Protein>
6NUR|6NUR_protein|mol2

> <Gold.PLP.Fitness>
35.0588

> <Gold.PLP.PLP>
-34.0232

> <Gold.PLP.part.hbond>
-2.0000

> <Gold.PLP.part.metal>
0.0000

> <Gold.PLP.part.buried>
-6.4665

> <Gold.PLP.part.nonpolar>
-26.0636

> <Gold.PLP.part.repulsive>
0.2058

> <Gold.PLP.ligand.clash>
0.0000

> <Gold.PLP.ligand.torsion>
0.2817

> <Gold.PLP.Chemscore.Hbond>
0.4651

> <Gold.PLP.Chemscore.CHOScore>
0.0000

> <Gold.PLP.Chemscore.Metal>
0.0000

> <Gold.Chemscore.Hbonds>
donor molecule, donor type, donor heavy atom, donor atom, acceptor molecule, acceptor atom, score
      P1  H  7989  7998       L1    11  0.38

> <Gold.PLP.Chemscore.Internal.Correction>
0.2037

> <Gold.Rescore>
     Score         DG    S(hbond)    S(metal)    S(lipo)     H(rot)  DE(clash)    DE(int)     intcor
     11.08     -11.32       0.00        0.00      77.14       1.25       0.03       0.21       ----

> <Gold.Chemscore.Fitness>
11.0759

> <Gold.Chemscore.DG>
-11.3199

> <Gold.Chemscore.ZeroCoef>
-5.4800

> <Gold.Chemscore.Hbond>
0.0005

> <Gold.Chemscore.Metal>
0.0000

> <Gold.Chemscore.Lipo>
77.1405

> <Gold.Chemscore.Internal_Hbond>
0.0000

> <Gold.Chemscore.DEClash>
0.0328

> <Gold.Chemscore.DEInternal>
0.2111

> <Gold.Chemscore.Rot>
1.2450

> <Gold.Chemscore.Internal.Correction>
   9.000000E+99

> <Gold.Chemscore.Hbond.Weighted>
-0.0017

> <Gold.Chemscore.Metal.Weighted>
-0.0000

> <Gold.Chemscore.Lipo.Weighted>
-9.0254

> <Gold.Chemscore.Internal_Hbond.Weighted>
0.0000

> <Gold.Chemscore.DEClash.Weighted>
0.0328

> <Gold.Chemscore.DEInternal.Weighted>
0.2111

> <Gold.Chemscore.Rot.Weighted>
3.1872

> <Gold.Chemscore.Internal.Correction.Weighted>
   9.000000E+99

> <Gold.Protein.RotatedTorsions>
[ 6907 6896 6895 6894 ] final  179.24 input  -60.11 | X-H torsion
[ 7974 7965 7964 7962 ] final   39.25 input  175.53 | X-H torsion
[ 8008 7997 7996 7995 ] final  -41.35 input   59.86 | X-H torsion
[ 10167 10162 10161 10158 ] final  -57.97 input  -65.29 | X-H torsion
[ 10718 10713 10712 10709 ] final  -55.82 input   66.30 | X-H torsion
[ 10763 10752 10751 10750 ] final -102.68 input  -60.55 | X-H torsion
[ 11005 11000 10999 10996 ] final   73.52 input  -57.11 | X-H torsion

> <Gold.Protein.ActiveResidues>
 VAL166  LYS551  ARG553  GLY616  TRP617  ASP618  TYR619  PRO620  LYS621  CYS622 
 ASP623  PHE694  ASN695  SER759  ASP760  ASP761  ALA762  ILE779  LEU786  VAL792 
 PHE793  MET794  SER795  GLU796  ALA797  LYS798  CYS799  TRP800  GLU811  SER814 

> <Gold.Protein.RotatedAtoms>
  151.6748  133.3313  159.3204 H   0  0  0  0  0  0  0  0  0  0  0  0  # atno 6907 bound_to 6896
  150.7850  134.6831  159.6464 H   0  0  0  0  0  0  0  0  0  0  0  0  # atno 6908 bound_to 6896
  152.3918  134.6433  160.0157 H   0  0  0  0  0  0  0  0  0  0  0  0  # atno 6909 bound_to 6896
  146.0999  139.5674  142.9421 H   0  0  0  0  0  0  0  0  0  0  0  0  # atno 7974 bound_to 7965
  154.4005  140.1501  156.3177 H   0  0  0  0  0  0  0  0  0  0  0  0  # atno 8008 bound_to 7997
  155.8558  140.3456  155.5702 H   0  0  0  0  0  0  0  0  0  0  0  0  # atno 8009 bound_to 7997
  155.7934  140.0860  157.1987 H   0  0  0  0  0  0  0  0  0  0  0  0  # atno 8010 bound_to 7997
  140.6226  143.2425  151.5444 H   0  0  0  0  0  0  0  0  0  0  0  0  # atno 10167 bound_to 10162
  156.1338  130.4158  150.0222 H   0  0  0  0  0  0  0  0  0  0  0  0  # atno 10718 bound_to 10713
  154.7752  135.4851  153.9729 H   0  0  0  0  0  0  0  0  0  0  0  0  # atno 10763 bound_to 10752
  153.1419  135.6774  153.9021 H   0  0  0  0  0  0  0  0  0  0  0  0  # atno 10764 bound_to 10752
  153.8693  135.3145  155.3420 H   0  0  0  0  0  0  0  0  0  0  0  0  # atno 10765 bound_to 10752
  139.9436  134.7354  156.1037 H   0  0  0  0  0  0  0  0  0  0  0  0  # atno 11005 bound_to 11000
  145.5875  141.0374  143.2088 LP  0  0  0  0  0  0  0  0  0  0  0  0  # atno 17320 bound_to 7965
  144.7424  139.7412  143.7305 LP  0  0  0  0  0  0  0  0  0  0  0  0  # atno 17321 bound_to 7965
  139.5451  144.2542  152.1427 LP  0  0  0  0  0  0  0  0  0  0  0  0  # atno 17342 bound_to 10162
  140.1765  144.4885  150.6551 LP  0  0  0  0  0  0  0  0  0  0  0  0  # atno 17343 bound_to 10162
  156.8127  130.9330  151.3643 LP  0  0  0  0  0  0  0  0  0  0  0  0  # atno 17370 bound_to 10713
  157.6513  130.8887  149.9639 LP  0  0  0  0  0  0  0  0  0  0  0  0  # atno 17371 bound_to 10713
  141.1079  133.6653  156.2907 LP  0  0  0  0  0  0  0  0  0  0  0  0  # atno 17394 bound_to 11000
  140.5891  134.5669  157.5496 LP  0  0  0  0  0  0  0  0  0  0  0  0  # atno 17395 bound_to 11000

$$$$
