AV-unprocessed.smi:1818|AV-procd|sdf|7380|dock5
  -GOLD-   22720 9 43D 1   1.00000     0.00000
 Structure written by MMmdl.
 36 37  0  0  0  0  0  0  0  0  1 V2000
  150.8453  139.7076  154.4037 N   0  0  0  0  0  0  0  0  0  0  0  0
  150.1089  140.3906  154.9785 C   0  0  0  0  0  0  0  0  0  0  0  0
  149.1684  141.2613  155.7114 C   0  0  0  0  0  0  0  0  0  0  0  0
  149.8763  142.4197  156.2659 N   0  0  0  0  0  0  0  0  0  0  0  0
  150.9528  142.4065  157.0703 C   0  0  0  0  0  0  0  0  0  0  0  0
  151.4863  141.3775  157.4826 O   0  0  0  0  0  0  0  0  0  0  0  0
  151.5231  143.7688  157.4629 C   0  0  0  0  0  0  0  0  0  0  0  0
  151.8847  143.7901  158.8675 N   0  0  0  0  0  0  0  0  0  0  0  0
  151.5756  144.7725  159.7999 C   0  0  0  0  0  0  0  0  0  0  0  0
  152.1318  144.3704  160.9933 C   0  0  0  0  0  0  0  0  0  0  0  0
  152.7845  143.1523  160.8194 N   0  0  0  0  0  0  0  0  0  0  0  0
  152.5973  142.8725  159.5361 C   0  0  0  0  0  0  0  0  0  0  0  0
  148.1440  141.7966  154.6802 C   0  0  0  0  0  0  0  0  0  0  0  0
  146.8041  142.2942  155.2515 C   0  0  0  0  0  0  0  0  0  0  0  0
  145.7569  141.1710  155.3604 C   0  0  0  0  0  0  0  0  0  0  0  0
  146.0092  140.1559  156.4861 C   0  0  0  0  0  0  0  0  0  0  0  0
  147.3964  139.4906  156.4601 C   0  0  0  0  0  0  0  0  0  0  0  0
  148.5168  140.4611  156.8697 C   0  0  0  0  0  0  0  0  0  0  0  0
  149.5202  143.3237  155.9921 H   0  0  0  0  0  0  0  0  0  0  0  0
  152.4037  144.0053  156.8640 H   0  0  0  0  0  0  0  0  0  0  0  0
  150.7841  144.5486  157.2730 H   0  0  0  0  0  0  0  0  0  0  0  0
  151.0038  145.6526  159.5449 H   0  0  0  0  0  0  0  0  0  0  0  0
  152.1143  144.8607  161.9555 H   0  0  0  0  0  0  0  0  0  0  0  0
  152.9895  141.9799  159.0706 H   0  0  0  0  0  0  0  0  0  0  0  0
  148.6070  142.6063  154.1136 H   0  0  0  0  0  0  0  0  0  0  0  0
  147.9392  141.0283  153.9328 H   0  0  0  0  0  0  0  0  0  0  0  0
  146.9432  142.8019  156.2065 H   0  0  0  0  0  0  0  0  0  0  0  0
  146.4072  143.0477  154.5704 H   0  0  0  0  0  0  0  0  0  0  0  0
  144.7775  141.6218  155.5229 H   0  0  0  0  0  0  0  0  0  0  0  0
  145.6818  140.6464  154.4072 H   0  0  0  0  0  0  0  0  0  0  0  0
  145.8532  140.6380  157.4520 H   0  0  0  0  0  0  0  0  0  0  0  0
  145.2473  139.3783  156.4219 H   0  0  0  0  0  0  0  0  0  0  0  0
  147.3815  138.6694  157.1775 H   0  0  0  0  0  0  0  0  0  0  0  0
  147.6009  139.0353  155.4906 H   0  0  0  0  0  0  0  0  0  0  0  0
  149.2958  139.8829  157.3684 H   0  0  0  0  0  0  0  0  0  0  0  0
  148.1392  141.1397  157.6363 H   0  0  0  0  0  0  0  0  0  0  0  0
  1  2  3  0  0  0  0
  2  3  1  0  0  0  0
  3 18  1  0  0  0  0
  3  4  1  0  0  0  0
  3 13  1  0  0  0  0
  4  5  1  0  0  0  0
  4 19  1  0  0  0  0
  5  6  2  0  0  0  0
  5  7  1  0  0  0  0
  7  8  1  0  0  0  0
  7 20  1  0  0  0  0
  7 21  1  0  0  0  0
  8 12  1  0  0  0  0
  8  9  1  0  0  0  0
  9 10  2  0  0  0  0
  9 22  1  0  0  0  0
 10 11  1  0  0  0  0
 10 23  1  0  0  0  0
 11 12  2  0  0  0  0
 12 24  1  0  0  0  0
 13 14  1  0  0  0  0
 13 25  1  0  0  0  0
 13 26  1  0  0  0  0
 14 15  1  0  0  0  0
 14 27  1  0  0  0  0
 14 28  1  0  0  0  0
 15 16  1  0  0  0  0
 15 29  1  0  0  0  0
 15 30  1  0  0  0  0
 16 17  1  0  0  0  0
 16 31  1  0  0  0  0
 16 32  1  0  0  0  0
 17 18  1  0  0  0  0
 17 33  1  0  0  0  0
 17 34  1  0  0  0  0
 18 35  1  0  0  0  0
 18 36  1  0  0  0  0
M  END
> <s_m_source_file>
AV-unprocessed.smi

> <i_m_source_file_index>
1818

> <i_lp_mmshare_version>
43012

> <i_f3d_flags>
0

> <s_epik_input>
W0NIMl0xW0NIMl1bQ0gyXVtDSDJdW0NIMl1bQ0gyXUMxKEMjTilbTkhdQyg9TylbQ0gyXW4yW2NIXVtjSF1uW2NIXTI=

> <s_epik_cmdline>
J2VwaWtfcHl0aG9uJywgJy1waCcsICc3LjAnLCAnLXRuJywgJzgnLCAnLW1hJywgJzIwMCcsICctbWV0YWxfYmluZGluZycsICctaW1hZScsICc8aW5maWxlLm1hZT4nLCAnLW9tYWUnLCAnPG91dGZpbGUubWFlPic=

> <r_lp_tautomer_probability>
1

> <r_epik_Ionization_Penalty>
0.21493

> <r_epik_Ionization_Penalty_Charging>
0.214927

> <r_epik_Ionization_Penalty_Neutral>
2.56273e-06

> <r_epik_State_Penalty>
0.205117

> <r_epik_Charging_Adjusted_Penalty>
0.420044

> <i_epik_Tot_Q>
0

> <i_epik_Tot_abs_Q>
0

> <r_epik_Metal_State_Penalty>
0.148888

> <b_epik_Metal_Only>
0

> <s_lp_Force_Field>
OPLS_2005

> <r_lp_Energy>
17.7076

> <b_lp_Chiralities_Consistent>
1

> <s_lp_Variant>
AV-unprocessed.smi:1818-1

> <Gold.Version>
5.8.1

> <Gold.Id.Protein>
6NUR|6NUR_protein|mol2

> <Gold.PLP.Fitness>
41.0354

> <Gold.PLP.PLP>
-35.8978

> <Gold.PLP.part.hbond>
-2.0000

> <Gold.PLP.part.metal>
0.0000

> <Gold.PLP.part.buried>
-3.6306

> <Gold.PLP.part.nonpolar>
-29.8545

> <Gold.PLP.part.repulsive>
0.2701

> <Gold.PLP.ligand.clash>
0.0000

> <Gold.PLP.ligand.torsion>
0.4371

> <Gold.PLP.Chemscore.Hbond>
2.0000

> <Gold.PLP.Chemscore.CHOScore>
0.0000

> <Gold.PLP.Chemscore.Metal>
0.0000

> <Gold.Chemscore.Hbonds>
donor molecule, donor type, donor heavy atom, donor atom, acceptor molecule, acceptor atom, score
      L1  H     4    19       P1  8028  1.00
      P1  H  7989  7998       L1     1  1.00

> <Gold.PLP.Chemscore.Internal.Correction>
0.0118

> <Gold.Rescore>
     Score         DG    S(hbond)    S(metal)    S(lipo)     H(rot)  DE(clash)    DE(int)     intcor
     10.73     -12.94       1.60        0.00      54.05       1.65       0.09       2.12       ----

> <Gold.Chemscore.Fitness>
10.7279

> <Gold.Chemscore.DG>
-12.9373

> <Gold.Chemscore.ZeroCoef>
-5.4800

> <Gold.Chemscore.Hbond>
1.6030

> <Gold.Chemscore.Metal>
0.0000

> <Gold.Chemscore.Lipo>
54.0545

> <Gold.Chemscore.Internal_Hbond>
0.0000

> <Gold.Chemscore.DEClash>
0.0929

> <Gold.Chemscore.DEInternal>
2.1165

> <Gold.Chemscore.Rot>
1.6488

> <Gold.Chemscore.Internal.Correction>
   9.000000E+99

> <Gold.Chemscore.Hbonds>
donor molecule, donor type, donor heavy atom, donor atom, acceptor molecule, acceptor atom, score
      L1  H     4    19       P1  8028  0.97
      P1  H  7989  7998       L1     1  0.26

> <Gold.Chemscore.Hbond.Weighted>
-5.3539

> <Gold.Chemscore.Metal.Weighted>
-0.0000

> <Gold.Chemscore.Lipo.Weighted>
-6.3244

> <Gold.Chemscore.Internal_Hbond.Weighted>
0.0000

> <Gold.Chemscore.DEClash.Weighted>
0.0929

> <Gold.Chemscore.DEInternal.Weighted>
2.1165

> <Gold.Chemscore.Rot.Weighted>
4.2210

> <Gold.Chemscore.Internal.Correction.Weighted>
   9.000000E+99

> <Gold.Protein.RotatedTorsions>
[ 6907 6896 6895 6894 ] final  147.14 input  -60.11 | X-H torsion
[ 7974 7965 7964 7962 ] final  -28.18 input  175.53 | X-H torsion
[ 8008 7997 7996 7995 ] final   43.53 input   59.86 | X-H torsion
[ 10167 10162 10161 10158 ] final  107.70 input  -65.29 | X-H torsion
[ 10718 10713 10712 10709 ] final  -41.24 input   66.30 | X-H torsion
[ 10763 10752 10751 10750 ] final   73.23 input  -60.55 | X-H torsion
[ 11005 11000 10999 10996 ] final  -62.99 input  -57.11 | X-H torsion

> <Gold.Protein.ActiveResidues>
 VAL166  LYS551  ARG553  GLY616  TRP617  ASP618  TYR619  PRO620  LYS621  CYS622 
 ASP623  PHE694  ASN695  SER759  ASP760  ASP761  ALA762  ILE779  LEU786  VAL792 
 PHE793  MET794  SER795  GLU796  ALA797  LYS798  CYS799  TRP800  GLU811  SER814 

> <Gold.Protein.RotatedAtoms>
  152.1587  133.4568  159.4849 H   0  0  0  0  0  0  0  0  0  0  0  0  # atno 6907 bound_to 6896
  150.6904  134.2098  159.4364 H   0  0  0  0  0  0  0  0  0  0  0  0  # atno 6908 bound_to 6896
  151.9999  134.9933  160.0615 H   0  0  0  0  0  0  0  0  0  0  0  0  # atno 6909 bound_to 6896
  146.1306  140.5248  142.8695 H   0  0  0  0  0  0  0  0  0  0  0  0  # atno 7974 bound_to 7965
  155.3043  140.3387  155.4246 H   0  0  0  0  0  0  0  0  0  0  0  0  # atno 8008 bound_to 7997
  156.1986  140.1724  156.7985 H   0  0  0  0  0  0  0  0  0  0  0  0  # atno 8009 bound_to 7997
  154.5530  140.0702  156.8683 H   0  0  0  0  0  0  0  0  0  0  0  0  # atno 8010 bound_to 7997
  139.6906  144.7108  151.1355 H   0  0  0  0  0  0  0  0  0  0  0  0  # atno 10167 bound_to 10162
  156.2725  130.4208  149.8423 H   0  0  0  0  0  0  0  0  0  0  0  0  # atno 10718 bound_to 10713
  153.0509  135.5070  154.7863 H   0  0  0  0  0  0  0  0  0  0  0  0  # atno 10763 bound_to 10752
  154.6727  135.2955  154.9723 H   0  0  0  0  0  0  0  0  0  0  0  0  # atno 10764 bound_to 10752
  154.0536  135.6700  153.4856 H   0  0  0  0  0  0  0  0  0  0  0  0  # atno 10765 bound_to 10752
  141.1378  133.6646  156.5612 H   0  0  0  0  0  0  0  0  0  0  0  0  # atno 11005 bound_to 11000
  144.7687  140.5589  143.6685 LP  0  0  0  0  0  0  0  0  0  0  0  0  # atno 17320 bound_to 7965
  145.5268  139.1476  143.3521 LP  0  0  0  0  0  0  0  0  0  0  0  0  # atno 17321 bound_to 7965
  140.7681  143.5565  150.9146 LP  0  0  0  0  0  0  0  0  0  0  0  0  # atno 17342 bound_to 10162
  139.9242  143.6570  152.3090 LP  0  0  0  0  0  0  0  0  0  0  0  0  # atno 17343 bound_to 10162
  156.5899  130.8502  151.3405 LP  0  0  0  0  0  0  0  0  0  0  0  0  # atno 17370 bound_to 10713
  157.7288  130.9662  150.1760 LP  0  0  0  0  0  0  0  0  0  0  0  0  # atno 17371 bound_to 10713
  140.3986  134.7376  157.4766 LP  0  0  0  0  0  0  0  0  0  0  0  0  # atno 17394 bound_to 11000
  140.0512  134.6127  155.8859 LP  0  0  0  0  0  0  0  0  0  0  0  0  # atno 17395 bound_to 11000

$$$$
