AV-unprocessed.smi:2259|AV-procd|sdf|9130|dock10
  -GOLD-   2272012333D 1   1.00000     0.00000
 Structure written by MMmdl.
 39 40  0  0  0  0  0  0  0  0  1 V2000
  152.4577  143.2731  161.3935 C   0  0  0  0  0  0  0  0  0  0  0  0
  152.0668  142.8223  159.9973 C   0  0  0  0  0  0  0  0  0  0  0  0
  151.1680  143.6541  159.3237 N   0  0  0  0  0  0  0  0  0  0  0  0
  150.7718  143.3452  158.1327 C   0  0  0  0  0  0  0  0  0  0  0  0
  151.2195  142.1818  157.4830 N   0  0  0  0  0  0  0  0  0  0  0  0
  150.6964  141.9393  156.1257 C   0  0  0  0  0  0  0  0  0  0  0  0
  150.2674  140.4720  155.8891 C   0  0  2  0  0  0  0  0  0  0  0  0
  151.2250  139.8961  155.0241 O   0  0  0  0  0  0  0  0  0  0  0  0
  148.8793  140.3259  155.2392 C   0  0  0  0  0  0  0  0  0  0  0  0
  147.9099  140.9236  156.0898 O   0  0  0  0  0  0  0  0  0  0  0  0
  146.9799  141.7720  155.5277 C   0  0  0  0  0  0  0  0  0  0  0  0
  146.0323  142.3484  156.3983 C   0  0  0  0  0  0  0  0  0  0  0  0
  145.0441  143.2260  155.9122 C   0  0  0  0  0  0  0  0  0  0  0  0
  144.9934  143.5393  154.5396 C   0  0  0  0  0  0  0  0  0  0  0  0
  143.9739  144.4437  154.0344 C   0  0  0  0  0  0  0  0  0  0  0  0
  143.1625  145.1637  153.6320 N   0  0  0  0  0  0  0  0  0  0  0  0
  145.9358  142.9717  153.6594 C   0  0  0  0  0  0  0  0  0  0  0  0
  146.9232  142.0934  154.1476 C   0  0  0  0  0  0  0  0  0  0  0  0
  152.1130  141.3275  158.0610 C   0  0  0  0  0  0  0  0  0  0  0  0
  152.5210  140.3237  157.4738 O   0  0  0  0  0  0  0  0  0  0  0  0
  152.5475  141.6873  159.4206 C   0  0  0  0  0  0  0  0  0  0  0  0
  153.5277  140.7432  160.1059 C   0  0  0  0  0  0  0  0  0  0  0  0
  153.5353  143.4255  161.4583 H   0  0  0  0  0  0  0  0  0  0  0  0
  152.1652  142.5258  162.1317 H   0  0  0  0  0  0  0  0  0  0  0  0
  151.9711  144.2128  161.6584 H   0  0  0  0  0  0  0  0  0  0  0  0
  150.0687  143.9602  157.5684 H   0  0  0  0  0  0  0  0  0  0  0  0
  149.8624  142.6041  155.8909 H   0  0  0  0  0  0  0  0  0  0  0  0
  151.4717  142.2107  155.4063 H   0  0  0  0  0  0  0  0  0  0  0  0
  150.2908  139.9254  156.8324 H   0  0  0  0  0  0  0  0  0  0  0  0
  151.9288  139.5420  155.5456 H   0  0  0  0  0  0  0  0  0  0  0  0
  148.8577  140.8566  154.2874 H   0  0  0  0  0  0  0  0  0  0  0  0
  148.6529  139.2765  155.0417 H   0  0  0  0  0  0  0  0  0  0  0  0
  146.0626  142.1140  157.4525 H   0  0  0  0  0  0  0  0  0  0  0  0
  144.3278  143.6547  156.5985 H   0  0  0  0  0  0  0  0  0  0  0  0
  145.9074  143.2058  152.6048 H   0  0  0  0  0  0  0  0  0  0  0  0
  147.6269  141.6801  153.4414 H   0  0  0  0  0  0  0  0  0  0  0  0
  153.0978  139.7437  160.1792 H   0  0  0  0  0  0  0  0  0  0  0  0
  153.7950  141.0584  161.1132 H   0  0  0  0  0  0  0  0  0  0  0  0
  154.4496  140.6738  159.5277 H   0  0  0  0  0  0  0  0  0  0  0  0
  1  2  1  0  0  0  0
  1 23  1  0  0  0  0
  1 24  1  0  0  0  0
  1 25  1  0  0  0  0
  2 21  2  0  0  0  0
  2  3  1  0  0  0  0
  3  4  2  0  0  0  0
  4  5  1  0  0  0  0
  4 26  1  0  0  0  0
  5  6  1  0  0  0  0
  5 19  1  0  0  0  0
  6  7  1  0  0  0  0
  6 27  1  0  0  0  0
  6 28  1  0  0  0  0
  7  8  1  0  0  0  0
  7  9  1  0  0  0  0
  7 29  1  0  0  0  0
  8 30  1  0  0  0  0
  9 10  1  0  0  0  0
  9 31  1  0  0  0  0
  9 32  1  0  0  0  0
 10 11  1  0  0  0  0
 11 18  1  0  0  0  0
 11 12  2  0  0  0  0
 12 13  1  0  0  0  0
 12 33  1  0  0  0  0
 13 14  2  0  0  0  0
 13 34  1  0  0  0  0
 14 15  1  0  0  0  0
 14 17  1  0  0  0  0
 15 16  3  0  0  0  0
 17 18  2  0  0  0  0
 17 35  1  0  0  0  0
 18 36  1  0  0  0  0
 19 20  2  0  0  0  0
 19 21  1  0  0  0  0
 21 22  1  0  0  0  0
 22 37  1  0  0  0  0
 22 38  1  0  0  0  0
 22 39  1  0  0  0  0
M  END
> <s_m_source_file>
AV-unprocessed.smi

> <i_m_source_file_index>
2259

> <i_lp_mmshare_version>
43012

> <i_f3d_flags>
0

> <s_epik_input>
W0NIM11jMW5bY0hdbihjKD1PKWMxW0NIM10pW0NIMl1bQ0BIXShbT0hdKVtDSDJdT2MyW2NIXVtjSF1jKEMjTilbY0hdW2NIXTI=

> <s_epik_cmdline>
J2VwaWtfcHl0aG9uJywgJy1waCcsICc3LjAnLCAnLXRuJywgJzgnLCAnLW1hJywgJzIwMCcsICctbWV0YWxfYmluZGluZycsICctaW1hZScsICc8aW5maWxlLm1hZT4nLCAnLW9tYWUnLCAnPG91dGZpbGUubWFlPic=

> <r_lp_tautomer_probability>
1

> <r_epik_Ionization_Penalty>
3.47921e-05

> <r_epik_Ionization_Penalty_Charging>
7.82631e-08

> <r_epik_Ionization_Penalty_Neutral>
3.47138e-05

> <r_epik_State_Penalty>
-0

> <r_epik_Charging_Adjusted_Penalty>
7.82631e-08

> <i_epik_Tot_Q>
0

> <i_epik_Tot_abs_Q>
0

> <r_epik_Metal_State_Penalty>
-0

> <b_epik_Metal_Only>
0

> <s_lp_Force_Field>
OPLS_2005

> <r_lp_Energy>
23.7954

> <b_lp_Chiralities_Consistent>
1

> <s_lp_Variant>
AV-unprocessed.smi:2259-1

> <Gold.Version>
5.8.1

> <Gold.Id.Protein>
6NUR|6NUR_protein|mol2

> <Gold.PLP.Fitness>
52.2201

> <Gold.PLP.PLP>
-45.5840

> <Gold.PLP.part.hbond>
-3.0000

> <Gold.PLP.part.metal>
0.0000

> <Gold.PLP.part.buried>
-8.0803

> <Gold.PLP.part.nonpolar>
-34.4549

> <Gold.PLP.part.repulsive>
0.2162

> <Gold.PLP.ligand.clash>
0.0000

> <Gold.PLP.ligand.torsion>
1.2046

> <Gold.PLP.Chemscore.Hbond>
1.9920

> <Gold.PLP.Chemscore.CHOScore>
1.0000

> <Gold.PLP.Chemscore.Metal>
0.0000

> <Gold.Chemscore.Hbonds>
donor molecule, donor type, donor heavy atom, donor atom, acceptor molecule, acceptor atom, score
      P1  H  7989  7998       L1     8  1.00
      P1  H  7997  8009       L1    20  0.95
      L1  C     4    26       P1  8028  1.00

> <Gold.PLP.Chemscore.Internal.Correction>
0.0692

> <Gold.Rescore>
     Score         DG    S(hbond)    S(metal)    S(lipo)     H(rot)  DE(clash)    DE(int)     intcor
     11.22     -15.16       1.85        0.00      87.94       2.66       0.10       3.84       ----

> <Gold.Chemscore.Fitness>
11.2194

> <Gold.Chemscore.DG>
-15.1589

> <Gold.Chemscore.ZeroCoef>
-5.4800

> <Gold.Chemscore.Hbond>
1.8532

> <Gold.Chemscore.Metal>
0.0000

> <Gold.Chemscore.Lipo>
87.9428

> <Gold.Chemscore.Internal_Hbond>
0.0000

> <Gold.Chemscore.DEClash>
0.0990

> <Gold.Chemscore.DEInternal>
3.8406

> <Gold.Chemscore.Rot>
2.6563

> <Gold.Chemscore.Internal.Correction>
   9.000000E+99

> <Gold.Chemscore.Hbonds>
donor molecule, donor type, donor heavy atom, donor atom, acceptor molecule, acceptor atom, score
      P1  H  7989  7998       L1     8  0.90
      P1  H  7997  8009       L1    20  0.85

> <Gold.Chemscore.Hbond.Weighted>
-6.1899

> <Gold.Chemscore.Metal.Weighted>
-0.0000

> <Gold.Chemscore.Lipo.Weighted>
-10.2893

> <Gold.Chemscore.Internal_Hbond.Weighted>
0.0000

> <Gold.Chemscore.DEClash.Weighted>
0.0990

> <Gold.Chemscore.DEInternal.Weighted>
3.8406

> <Gold.Chemscore.Rot.Weighted>
6.8002

> <Gold.Chemscore.Internal.Correction.Weighted>
   9.000000E+99

> <Gold.Protein.RotatedTorsions>
[ 6907 6896 6895 6894 ] final   95.98 input  -60.11 | X-H torsion
[ 7974 7965 7964 7962 ] final -176.69 input  175.53 | X-H torsion
[ 8008 7997 7996 7995 ] final  174.51 input   59.86 | X-H torsion
[ 10167 10162 10161 10158 ] final  -68.72 input  -65.29 | X-H torsion
[ 10718 10713 10712 10709 ] final   43.51 input   66.30 | X-H torsion
[ 10763 10752 10751 10750 ] final   60.25 input  -60.55 | X-H torsion
[ 11005 11000 10999 10996 ] final   13.84 input  -57.11 | X-H torsion

> <Gold.Protein.ActiveResidues>
 VAL166  LYS551  ARG553  GLY616  TRP617  ASP618  TYR619  PRO620  LYS621  CYS622 
 ASP623  PHE694  ASN695  SER759  ASP760  ASP761  ALA762  ILE779  LEU786  VAL792 
 PHE793  MET794  SER795  GLU796  ALA797  LYS798  CYS799  TRP800  GLU811  SER814 

> <Gold.Protein.RotatedAtoms>
  152.5439  134.0957  159.8295 H   0  0  0  0  0  0  0  0  0  0  0  0  # atno 6907 bound_to 6896
  151.1041  133.5214  159.2616 H   0  0  0  0  0  0  0  0  0  0  0  0  # atno 6908 bound_to 6896
  151.1958  135.0431  159.8906 H   0  0  0  0  0  0  0  0  0  0  0  0  # atno 6909 bound_to 6896
  144.7127  140.1132  143.6410 H   0  0  0  0  0  0  0  0  0  0  0  0  # atno 7974 bound_to 7965
  156.0966  140.1432  156.9523 H   0  0  0  0  0  0  0  0  0  0  0  0  # atno 8008 bound_to 7997
  154.4675  140.0921  156.7105 H   0  0  0  0  0  0  0  0  0  0  0  0  # atno 8009 bound_to 7997
  155.4830  140.3445  155.4345 H   0  0  0  0  0  0  0  0  0  0  0  0  # atno 8010 bound_to 7997
  140.5485  143.2312  151.6955 H   0  0  0  0  0  0  0  0  0  0  0  0  # atno 10167 bound_to 10162
  157.4167  130.7945  149.7479 H   0  0  0  0  0  0  0  0  0  0  0  0  # atno 10718 bound_to 10713
  152.9916  135.5543  154.5844 H   0  0  0  0  0  0  0  0  0  0  0  0  # atno 10763 bound_to 10752
  154.5219  135.2808  155.1257 H   0  0  0  0  0  0  0  0  0  0  0  0  # atno 10764 bound_to 10752
  154.2607  135.6381  153.5326 H   0  0  0  0  0  0  0  0  0  0  0  0  # atno 10765 bound_to 10752
  140.4762  134.0981  155.7742 H   0  0  0  0  0  0  0  0  0  0  0  0  # atno 11005 bound_to 11000
  145.9436  139.2686  143.1254 LP  0  0  0  0  0  0  0  0  0  0  0  0  # atno 17320 bound_to 7965
  145.9397  140.8988  143.0314 LP  0  0  0  0  0  0  0  0  0  0  0  0  # atno 17321 bound_to 7965
  139.5017  144.3855  152.0333 LP  0  0  0  0  0  0  0  0  0  0  0  0  # atno 17342 bound_to 10162
  140.2970  144.3689  150.6071 LP  0  0  0  0  0  0  0  0  0  0  0  0  # atno 17343 bound_to 10162
  155.9867  130.3972  150.3198 LP  0  0  0  0  0  0  0  0  0  0  0  0  # atno 17370 bound_to 10713
  157.1342  131.0279  151.2956 LP  0  0  0  0  0  0  0  0  0  0  0  0  # atno 17371 bound_to 10713
  141.1553  133.8894  157.1993 LP  0  0  0  0  0  0  0  0  0  0  0  0  # atno 17394 bound_to 11000
  139.9854  135.0084  156.9850 LP  0  0  0  0  0  0  0  0  0  0  0  0  # atno 17395 bound_to 11000

$$$$
