#       Name:                AV-unprocessed.smi:2999
#       Creating user name   scv26
#       Creation time:       Fri Mar 27 16:35:08 2020


#       File generated by GOLD software.
#

@<TRIPOS>MOLECULE
AV-unprocessed.smi:2999
    43    45     1
SMALL
NO_CHARGES


@<TRIPOS>ATOM
      1 ****        -0.9738   1.9101   2.1569 O.2            1 S1                 0.0000
      2 ****        -1.5119   0.8010   2.1778 C.2            1 S1                 0.0000
      3 ****        -0.7620  -0.3075   2.2409 N.am           1 S1                 0.0000
      4 ****         0.6971  -0.3626   2.2300 C.3            1 S1                 0.0000
      5 ****         1.2945  -0.2723   0.8098 C.3            1 S1                 0.0000
      6 ****         0.6429  -1.2434  -0.2044 C.3            1 S1                 0.0000
      7 ****         1.2065  -1.0699  -1.5636 N.4            1 S1                 1.0000
      8 ****         2.5424  -1.6878  -1.7318 C.3            1 S1                 0.0000
      9 ****         2.8049  -2.1887  -3.1327 C.3            1 S1                 0.0000
     10 ****         2.4906  -3.1689  -2.0247 C.3            1 S1                 0.0000
     11 ****         1.1567   0.3514  -1.9801 C.3            1 S1                 0.0000
     12 ****         1.8000   1.2663  -0.9229 C.3            1 S1                 0.0000
     13 ****         1.1690   1.0643   0.3343 O.3            1 S1                 0.0000
     14 ****        -2.8397   0.5519   2.1338 N.pl3          1 S1                -1.0000
     15 ****        -3.7107   1.5697   2.0386 C.2            1 S1                 0.0000
     16 ****        -4.2716   1.9422   0.8824 N.2            1 S1                 0.0000
     17 ****        -5.1509   3.0187   1.0137 C.2            1 S1                 0.0000
     18 ****        -5.2674   3.4718   2.3010 C.2            1 S1                 0.0000
     19 ****        -4.2712   2.5535   3.3937 S.3            1 S1                 0.0000
     20 ****        -1.2509  -1.1902   2.2695 H              1 S1                 0.0000
     21 ****         1.1156   0.4133   2.8730 H              1 S1                 0.0000
     22 ****         0.9835  -1.3140   2.6783 H              1 S1                 0.0000
     23 ****         2.3585  -0.4981   0.8957 H              1 S1                 0.0000
     24 ****         0.7548  -2.2779   0.1220 H              1 S1                 0.0000
     25 ****        -0.4291  -1.0546  -0.2729 H              1 S1                 0.0000
     26 ****         3.3546  -1.2756  -1.1364 H              1 S1                 0.0000
     27 ****         2.0407  -2.0253  -3.8904 H              1 S1                 0.0000
     28 ****         3.8310  -2.1568  -3.4933 H              1 S1                 0.0000
     29 ****         3.3093  -3.7824  -1.6540 H              1 S1                 0.0000
     30 ****         1.5175  -3.6566  -2.0473 H              1 S1                 0.0000
     31 ****         1.6400   0.4799  -2.9492 H              1 S1                 0.0000
     32 ****         0.1117   0.6343  -2.1134 H              1 S1                 0.0000
     33 ****         2.8726   1.0859  -0.8399 H              1 S1                 0.0000
     34 ****         1.6781   2.3107  -1.2103 H              1 S1                 0.0000
     35 ****        -5.6525   3.3985   0.1362 H              1 S1                 0.0000
     36 ****        -5.8749   4.2832   2.6720 H              1 S1                 0.0000
     37 ****         0.5959  -1.5733  -2.1913 H              1 S1                 0.0000
     38 ****         0.0230   1.9828   2.1870 LP             1 S1                 0.0000
     39 ****        -1.5343   2.7369   2.1098 LP             1 S1                 0.0000
     40 ****         1.5849   1.6810   1.0026 LP             1 S1                 0.0000
     41 ****         0.1969   1.2799   0.2416 LP             1 S1                 0.0000
     42 ****        -3.1734  -0.3900   2.1721 LP             1 S1                 0.0000
     43 ****        -4.0798   1.4934   0.0095 LP             1 S1                 0.0000
@<TRIPOS>BOND
    1    1    2 2     
    2    2    3 am    
    3    2   14 1     
    4    3    4 1     
    5    3   20 1     
    6    4    5 1     
    7    4   21 1     
    8    4   22 1     
    9    5   13 1     
   10    5    6 1     
   11    5   23 1     
   12    6    7 1     
   13    6   24 1     
   14    6   25 1     
   15    7    8 1     
   16    7   11 1     
   17    7   37 1     
   18    8   10 1     
   19    8    9 1     
   20    8   26 1     
   21    9   10 1     
   22    9   27 1     
   23    9   28 1     
   24   10   29 1     
   25   10   30 1     
   26   11   12 1     
   27   11   31 1     
   28   11   32 1     
   29   12   13 1     
   30   12   33 1     
   31   12   34 1     
   32   14   15 1     
   33   15   19 1     
   34   15   16 2     
   35   16   17 1     
   36   17   18 2     
   37   17   35 1     
   38   18   19 1     
   39   18   36 1     
   40    1   38 1     
   41    1   39 1     
   42   13   40 1     
   43   13   41 1     
   44   14   42 1     
   45   16   43 1     
@<TRIPOS>SUBSTRUCTURE
      1 S1             1
@<TRIPOS>SET
LONE_PAIRS      STATIC     ATOMS    <user>   **** ""
6 38 39 40 41 42 43
DONOR_HYDROGENS      STATIC     ATOMS    <user>   **** ""
2 20 37
ATOM$BLUE        STATIC     ATOMS    COLORGROUP SYSTEM
6 38 39 40 41 42 43
ATOM$RED        STATIC     ATOMS    COLORGROUP SYSTEM
2 20 37
