AV-unprocessed.smi:37|AV-procd|sdf|331|dock2
  -GOLD-   2262016163D 1   1.00000     0.00000
 Structure written by MMmdl.
 43 44  0  0  0  0  0  0  0  0  2 V2000
  142.3731  135.1971  153.8078 C   0  0  0  0  0  0  0  0  0  0  0  0
  142.7669  136.2709  154.8307 C   0  0  0  0  0  0  0  0  0  0  0  0
  143.5833  135.6939  155.9848 C   0  0  0  0  0  0  0  0  0  0  0  0
  143.1677  134.7472  156.6537 O   0  0  0  0  0  0  0  0  0  0  0  0
  144.7554  136.3260  156.1568 O   0  0  0  0  0  0  0  0  0  0  0  0
  145.5773  135.9881  157.2617 C   0  0  0  0  0  0  0  0  0  0  0  0
  146.9319  136.7045  157.1286 C   0  0  2  0  0  0  0  0  0  0  0  0
  147.4208  136.4501  155.8063 O   0  0  0  0  0  0  0  0  0  0  0  0
  148.7175  135.9291  155.8342 C   0  0  1  0  0  0  0  0  0  0  0  0
  149.7374  137.0427  155.6589 N   0  0  0  0  0  0  0  0  0  0  0  0
  149.3570  138.3600  155.4522 C   0  0  0  0  0  0  0  0  0  0  0  0
  150.2720  139.3378  155.2924 C   0  0  0  0  0  0  0  0  0  0  0  0
  149.8693  140.6052  155.0959 F   0  0  0  0  0  0  0  0  0  0  0  0
  151.6954  139.0103  155.3285 C   0  0  0  0  0  0  0  0  0  0  0  0
  152.5252  139.9086  155.1963 O   0  0  0  0  0  0  0  0  0  0  0  0
  152.0433  137.7035  155.5068 N   0  5  0  0  0  0  0  0  0  0  0  0
  151.1209  136.7095  155.6639 C   0  0  0  0  0  0  0  0  0  0  0  0
  151.4282  135.5264  155.8119 O   0  0  0  0  0  0  0  0  0  0  0  0
  148.8652  135.2666  157.2043 C   0  0  2  0  0  0  0  0  0  0  0  0
  148.0786  133.4338  157.1304 Br  0  0  0  0  0  0  0  0  0  0  0  0
  148.0314  136.1929  158.0780 C   0  0  2  0  0  0  0  0  0  0  0  0
  147.5334  135.5563  159.2490 O   0  0  0  0  0  0  0  0  0  0  0  0
  147.2940  136.2701  160.3638 C   0  0  0  0  0  0  0  0  0  0  0  0
  147.5230  137.4698  160.5178 O   0  0  0  0  0  0  0  0  0  0  0  0
  146.6831  135.4267  161.4801 C   0  0  0  0  0  0  0  0  0  0  0  0
  147.4431  135.5835  162.8045 C   0  0  0  0  0  0  0  0  0  0  0  0
  141.8101  135.6390  152.9856 H   0  0  0  0  0  0  0  0  0  0  0  0
  141.7476  134.4252  154.2580 H   0  0  0  0  0  0  0  0  0  0  0  0
  143.2533  134.7131  153.3830 H   0  0  0  0  0  0  0  0  0  0  0  0
  143.3492  137.0529  154.3426 H   0  0  0  0  0  0  0  0  0  0  0  0
  141.8734  136.7473  155.2346 H   0  0  0  0  0  0  0  0  0  0  0  0
  145.0685  136.3058  158.1724 H   0  0  0  0  0  0  0  0  0  0  0  0
  145.7153  134.9080  157.3201 H   0  0  0  0  0  0  0  0  0  0  0  0
  146.7919  137.7745  157.2853 H   0  0  0  0  0  0  0  0  0  0  0  0
  148.8834  135.2597  154.9885 H   0  0  0  0  0  0  0  0  0  0  0  0
  148.3143  138.6316  155.4100 H   0  0  0  0  0  0  0  0  0  0  0  0
  149.9027  135.1774  157.5266 H   0  0  0  0  0  0  0  0  0  0  0  0
  148.6446  137.0527  158.3533 H   0  0  0  0  0  0  0  0  0  0  0  0
  145.6418  135.7213  161.6142 H   0  0  0  0  0  0  0  0  0  0  0  0
  146.6797  134.3810  161.1714 H   0  0  0  0  0  0  0  0  0  0  0  0
  146.9583  135.0109  163.5951 H   0  0  0  0  0  0  0  0  0  0  0  0
  147.4751  136.6265  163.1226 H   0  0  0  0  0  0  0  0  0  0  0  0
  148.4703  135.2259  162.7217 H   0  0  0  0  0  0  0  0  0  0  0  0
  1  2  1  0  0  0  0
  1 27  1  0  0  0  0
  1 28  1  0  0  0  0
  1 29  1  0  0  0  0
  2  3  1  0  0  0  0
  2 30  1  0  0  0  0
  2 31  1  0  0  0  0
  3  4  2  0  0  0  0
  3  5  1  0  0  0  0
  5  6  1  0  0  0  0
  6  7  1  0  0  0  0
  6 32  1  0  0  0  0
  6 33  1  0  0  0  0
  7 21  1  0  0  0  0
  7  8  1  0  0  0  0
  7 34  1  0  0  0  0
  8  9  1  0  0  0  0
  9 10  1  0  0  0  0
  9 19  1  0  0  0  0
  9 35  1  0  0  0  0
 10 17  1  0  0  0  0
 10 11  1  0  0  0  0
 11 12  2  0  0  0  0
 11 36  1  0  0  0  0
 12 13  1  0  0  0  0
 12 14  1  0  0  0  0
 14 15  2  0  0  0  0
 14 16  1  0  0  0  0
 16 17  1  0  0  0  0
 17 18  2  0  0  0  0
 19 20  1  0  0  0  0
 19 21  1  0  0  0  0
 19 37  1  0  0  0  0
 21 22  1  0  0  0  0
 21 38  1  0  0  0  0
 22 23  1  0  0  0  0
 23 24  2  0  0  0  0
 23 25  1  0  0  0  0
 25 26  1  0  0  0  0
 25 39  1  0  0  0  0
 25 40  1  0  0  0  0
 26 41  1  0  0  0  0
 26 42  1  0  0  0  0
 26 43  1  0  0  0  0
M  CHG  1  16  -1
M  END
> <s_m_source_file>
AV-unprocessed.smi

> <i_m_source_file_index>
37

> <i_lp_mmshare_version>
43012

> <i_f3d_flags>
0

> <s_epik_input>
W0NIM11bQ0gyXUMoPU8pT1tDSDJdW0NAQEhdMU9bQ0BASF0objJbY0hdYyhGKWMoPU8pW25IXWMyPU8pW0NAQEhdKEJyKVtDQEhdMU9DKD1PKVtDSDJdW0NIM10=

> <s_epik_cmdline>
J2VwaWtfcHl0aG9uJywgJy1waCcsICc3LjAnLCAnLXRuJywgJzgnLCAnLW1hJywgJzIwMCcsICctbWV0YWxfYmluZGluZycsICctaW1hZScsICc8aW5maWxlLm1hZT4nLCAnLW9tYWUnLCAnPG91dGZpbGUubWFlPic=

> <r_epik_Ionization_Penalty>
1.08158

> <r_epik_Ionization_Penalty_Charging>
9.05154e-09

> <r_epik_Ionization_Penalty_Neutral>
1.08158

> <r_epik_State_Penalty>
1.13706

> <r_epik_Charging_Adjusted_Penalty>
1.13706

> <i_epik_Tot_Q>
-1

> <i_epik_Tot_abs_Q>
1

> <r_epik_Metal_State_Penalty>
0.00343535

> <b_epik_Metal_Only>
0

> <s_epik_Chemistry_Notes>
This compound has an ester and may undergo hydrolysis at high or low pH. This compound contains an acetal/aminal-like group ( X-CH(R)-Y where X, Y are N, S, or O) that may be acid/base labile, releasing an aldehyde.

> <s_lp_Force_Field>
OPLS_2005

> <r_lp_Energy>
34.8108

> <b_lp_Chiralities_Consistent>
1

> <s_lp_Variant>
AV-unprocessed.smi:37-29

> <Gold.Version>
5.8.1

> <Gold.Id.Protein>
6NUR|6NUR_protein|mol2

> <Gold.PLP.Fitness>
40.7376

> <Gold.PLP.PLP>
-29.4932

> <Gold.PLP.part.hbond>
-6.1595

> <Gold.PLP.part.metal>
0.0000

> <Gold.PLP.part.buried>
-3.3111

> <Gold.PLP.part.nonpolar>
-20.3322

> <Gold.PLP.part.repulsive>
0.2207

> <Gold.PLP.ligand.clash>
0.0000

> <Gold.PLP.ligand.torsion>
0.5993

> <Gold.PLP.Chemscore.Hbond>
4.1184

> <Gold.PLP.Chemscore.CHOScore>
0.0000

> <Gold.PLP.Chemscore.Metal>
0.0000

> <Gold.Chemscore.Hbonds>
donor molecule, donor type, donor heavy atom, donor atom, acceptor molecule, acceptor atom, score
      P1  H  6931  6943       L1    24  0.39
      P1  H  6934  6947       L1    24  0.98
      P1  H  7989  7998       L1    15  0.45
      P1  H  7997  8009       L1    15  0.94
      P1  H 10752 10764       L1    18  1.00
      P1  H 11000 11005       L1     4  0.34

> <Gold.PLP.Chemscore.Internal.Correction>
0.0879

> <Gold.Rescore>
     Score         DG    S(hbond)    S(metal)    S(lipo)     H(rot)  DE(clash)    DE(int)     intcor
     13.30     -15.13       4.04        0.00      38.64       3.27       0.91       0.92       ----

> <Gold.Chemscore.Fitness>
13.2966

> <Gold.Chemscore.DG>
-15.1279

> <Gold.Chemscore.ZeroCoef>
-5.4800

> <Gold.Chemscore.Hbond>
4.0391

> <Gold.Chemscore.Metal>
0.0000

> <Gold.Chemscore.Lipo>
38.6377

> <Gold.Chemscore.Internal_Hbond>
0.0000

> <Gold.Chemscore.DEClash>
0.9144

> <Gold.Chemscore.DEInternal>
0.9169

> <Gold.Chemscore.Rot>
3.2669

> <Gold.Chemscore.Internal.Correction>
   9.000000E+99

> <Gold.Chemscore.Hbonds>
donor molecule, donor type, donor heavy atom, donor atom, acceptor molecule, acceptor atom, score
      P1  H  6931  6943       L1    24  0.37
      P1  H  6934  6947       L1    24  0.93
      P1  H  7989  7998       L1    15  0.10
      P1  H  7997  8009       L1    15  0.90
      P1  H 10752 10764       L1    18  0.30
      P1  H 11000 11005       L1     4  0.33

> <Gold.Chemscore.Hbond.Weighted>
-13.4907

> <Gold.Chemscore.Metal.Weighted>
-0.0000

> <Gold.Chemscore.Lipo.Weighted>
-4.5206

> <Gold.Chemscore.Internal_Hbond.Weighted>
0.0000

> <Gold.Chemscore.DEClash.Weighted>
0.9144

> <Gold.Chemscore.DEInternal.Weighted>
0.9169

> <Gold.Chemscore.Rot.Weighted>
8.3634

> <Gold.Chemscore.Internal.Correction.Weighted>
   9.000000E+99

> <Gold.Protein.RotatedTorsions>
[ 6907 6896 6895 6894 ] final -119.86 input  -60.11 | X-H torsion
[ 7974 7965 7964 7962 ] final  -70.16 input  175.53 | X-H torsion
[ 8008 7997 7996 7995 ] final -139.06 input   59.86 | X-H torsion
[ 10167 10162 10161 10158 ] final -143.90 input  -65.29 | X-H torsion
[ 10718 10713 10712 10709 ] final -135.57 input   66.30 | X-H torsion
[ 10763 10752 10751 10750 ] final  -38.08 input  -60.55 | X-H torsion
[ 11005 11000 10999 10996 ] final  -84.37 input  -57.11 | X-H torsion

> <Gold.Protein.ActiveResidues>
 VAL166  LYS551  ARG553  GLY616  TRP617  ASP618  TYR619  PRO620  LYS621  CYS622 
 ASP623  PHE694  ASN695  SER759  ASP760  ASP761  ALA762  ILE779  LEU786  VAL792 
 PHE793  MET794  SER795  GLU796  ALA797  LYS798  CYS799  TRP800  GLU811  SER814 

> <Gold.Protein.RotatedAtoms>
  150.8342  133.8041  159.3086 H   0  0  0  0  0  0  0  0  0  0  0  0  # atno 6907 bound_to 6896
  151.5762  135.1059  160.0016 H   0  0  0  0  0  0  0  0  0  0  0  0  # atno 6908 bound_to 6896
  152.4417  133.7418  159.6701 H   0  0  0  0  0  0  0  0  0  0  0  0  # atno 6909 bound_to 6896
  145.6945  140.9140  143.0764 H   0  0  0  0  0  0  0  0  0  0  0  0  # atno 7974 bound_to 7965
  155.4386  140.0530  157.3012 H   0  0  0  0  0  0  0  0  0  0  0  0  # atno 8008 bound_to 7997
  154.4828  140.2088  155.9682 H   0  0  0  0  0  0  0  0  0  0  0  0  # atno 8009 bound_to 7997
  156.1231  140.3185  155.8242 H   0  0  0  0  0  0  0  0  0  0  0  0  # atno 8010 bound_to 7997
  139.7950  143.7913  152.2653 H   0  0  0  0  0  0  0  0  0  0  0  0  # atno 10167 bound_to 10162
  156.2676  130.7247  151.1203 H   0  0  0  0  0  0  0  0  0  0  0  0  # atno 10718 bound_to 10713
  153.9069  135.6796  153.4752 H   0  0  0  0  0  0  0  0  0  0  0  0  # atno 10763 bound_to 10752
  153.1099  135.4788  154.9015 H   0  0  0  0  0  0  0  0  0  0  0  0  # atno 10764 bound_to 10752
  154.7547  135.3194  154.8447 H   0  0  0  0  0  0  0  0  0  0  0  0  # atno 10765 bound_to 10752
  141.1651  133.7343  156.8858 H   0  0  0  0  0  0  0  0  0  0  0  0  # atno 11005 bound_to 11000
  144.6987  139.8865  143.7450 LP  0  0  0  0  0  0  0  0  0  0  0  0  # atno 17320 bound_to 7965
  146.0853  139.3841  143.0439 LP  0  0  0  0  0  0  0  0  0  0  0  0  # atno 17321 bound_to 7965
  139.8016  144.7372  150.9817 LP  0  0  0  0  0  0  0  0  0  0  0  0  # atno 17342 bound_to 10162
  140.7820  143.4339  151.0652 LP  0  0  0  0  0  0  0  0  0  0  0  0  # atno 17343 bound_to 10162
  157.7273  131.0640  150.5872 LP  0  0  0  0  0  0  0  0  0  0  0  0  # atno 17370 bound_to 10713
  156.5966  130.4343  149.5914 LP  0  0  0  0  0  0  0  0  0  0  0  0  # atno 17371 bound_to 10713
  140.1683  134.9118  157.2801 LP  0  0  0  0  0  0  0  0  0  0  0  0  # atno 17394 bound_to 11000
  140.2532  134.3659  155.7434 LP  0  0  0  0  0  0  0  0  0  0  0  0  # atno 17395 bound_to 11000

$$$$
