#       Name:                AV-unprocessed.smi:2882
#       Creating user name   scv26
#       Creation time:       Fri Mar 27 15:54:44 2020


#       File generated by GOLD software.
#

@<TRIPOS>MOLECULE
AV-unprocessed.smi:2882
    33    35     1
SMALL
NO_CHARGES


@<TRIPOS>ATOM
      1 ****        -1.2274  -4.4774   0.3674 N.1            1 S1                 0.0000
      2 ****        -1.7454  -3.4454   0.2906 C.1            1 S1                 0.0000
      3 ****        -2.3967  -2.1454   0.1936 C.ar           1 S1                 0.0000
      4 ****        -3.7348  -2.1498  -0.0084 N.ar           1 S1                 0.0000
      5 ****        -4.3496  -0.9518  -0.1031 C.ar           1 S1                 0.0000
      6 ****        -3.6326   0.2556   0.0023 C.ar           1 S1                 0.0000
      7 ****        -2.2980   0.2696   0.2038 N.ar           1 S1                 0.0000
      8 ****        -1.6672  -0.9277   0.3005 C.ar           1 S1                 0.0000
      9 ****        -0.2765  -0.9292   0.5141 N.pl3          1 S1                 0.0000
     10 ****         0.5153   0.2876   0.3694 C.3            1 S1                 0.0000
     11 ****         0.6793   0.7269  -1.0914 C.3            1 S1                 0.0000
     12 ****         2.2049   0.7860  -1.2362 C.3            1 S1                 0.0000
     13 ****         2.8230   1.9349  -0.4277 C.3            1 S1                 0.0000
     14 ****         2.6930   1.4145   1.0034 C.3            1 S1                 0.0000
     15 ****         1.9796   0.0727   0.7888 C.3            1 S1                 0.0000
     16 ****         2.5721  -0.3247  -0.4375 O.3            1 S1                 0.0000
     17 ****        -5.4177  -0.9564  -0.2635 H              1 S1                 0.0000
     18 ****        -4.1301   1.2111  -0.0738 H              1 S1                 0.0000
     19 ****         0.2139  -1.8118   0.5455 H              1 S1                 0.0000
     20 ****         0.0727   1.0779   0.9775 H              1 S1                 0.0000
     21 ****         0.2655  -0.0092  -1.7826 H              1 S1                 0.0000
     22 ****         0.2033   1.6863  -1.2966 H              1 S1                 0.0000
     23 ****         2.5527   0.7319  -2.2680 H              1 S1                 0.0000
     24 ****         3.8724   2.0760  -0.6889 H              1 S1                 0.0000
     25 ****         2.3006   2.8791  -0.5856 H              1 S1                 0.0000
     26 ****         3.6784   1.2612   1.4449 H              1 S1                 0.0000
     27 ****         2.1307   2.0883   1.6506 H              1 S1                 0.0000
     28 ****         2.1181  -0.6305   1.6110 H              1 S1                 0.0000
     29 ****        -0.7798  -5.3692   0.4338 LP             1 S1                 0.0000
     30 ****        -4.2470  -3.0053  -0.0844 LP             1 S1                 0.0000
     31 ****        -1.7934   1.1297   0.2789 LP             1 S1                 0.0000
     32 ****         3.5647  -0.4185  -0.3605 LP             1 S1                 0.0000
     33 ****         2.1823  -1.1787  -0.7821 LP             1 S1                 0.0000
@<TRIPOS>BOND
    1    1    2 3     
    2    2    3 1     
    3    3    8 ar    
    4    3    4 ar    
    5    4    5 ar    
    6    5    6 ar    
    7    5   17 1     
    8    6    7 ar    
    9    6   18 1     
   10    7    8 ar    
   11    8    9 1     
   12    9   10 1     
   13    9   19 1     
   14   10   15 1     
   15   10   11 1     
   16   10   20 1     
   17   11   12 1     
   18   11   21 1     
   19   11   22 1     
   20   12   16 1     
   21   12   13 1     
   22   12   23 1     
   23   13   14 1     
   24   13   24 1     
   25   13   25 1     
   26   14   15 1     
   27   14   26 1     
   28   14   27 1     
   29   15   16 1     
   30   15   28 1     
   31    1   29 1     
   32    4   30 1     
   33    7   31 1     
   34   16   32 1     
   35   16   33 1     
@<TRIPOS>SUBSTRUCTURE
      1 S1             1
@<TRIPOS>SET
LONE_PAIRS      STATIC     ATOMS    <user>   **** ""
5 29 30 31 32 33
DONOR_HYDROGENS      STATIC     ATOMS    <user>   **** ""
1 19
ATOM$BLUE        STATIC     ATOMS    COLORGROUP SYSTEM
5 29 30 31 32 33
ATOM$RED        STATIC     ATOMS    COLORGROUP SYSTEM
1 19
