AV-unprocessed.smi:54|AV-procd|sdf|550|dock1
  -GOLD-   2262016443D 1   1.00000     0.00000
 Structure written by MMmdl.
 43 45  0  0  0  0  0  0  0  0  2 V2000
  153.0628  144.1665  158.1124 C   0  0  0  0  0  0  0  0  0  0  0  0
  152.4864  143.2016  159.1620 C   0  0  0  0  0  0  0  0  0  0  0  0
  153.2121  143.3459  160.5098 C   0  0  0  0  0  0  0  0  0  0  0  0
  152.5512  141.7518  158.6611 C   0  0  0  0  0  0  0  0  0  0  0  0
  153.2526  140.9380  159.2671 O   0  0  0  0  0  0  0  0  0  0  0  0
  151.8126  141.4860  157.5602 N   0  0  0  0  0  0  0  0  0  0  0  0
  151.6697  140.2803  156.8634 C   0  0  0  0  0  0  0  0  0  0  0  0
  150.4911  139.9070  156.4162 N   0  0  0  0  0  0  0  0  0  0  0  0
  150.5383  138.6946  155.7575 C   0  0  0  0  0  0  0  0  0  0  0  0
  151.6288  137.8993  155.5396 C   0  0  0  0  0  0  0  0  0  0  0  0
  151.2844  136.7475  154.8424 N   0  0  0  0  0  0  0  0  0  0  0  0
  149.9723  136.9067  154.6704 C   0  0  0  0  0  0  0  0  0  0  0  0
  149.4525  138.0380  155.1918 N   0  0  0  0  0  0  0  0  0  0  0  0
  148.0306  138.5164  155.1665 C   0  0  1  0  0  0  0  0  0  0  0  0
  147.9535  139.7295  155.8545 O   0  0  0  0  0  0  0  0  0  0  0  0
  147.8967  140.8050  154.9245 C   0  0  2  0  0  0  0  0  0  0  0  0
  147.3520  142.0858  155.5804 C   0  0  0  0  0  0  0  0  0  0  0  0
  148.1209  142.4130  156.7182 O   0  0  0  0  0  0  0  0  0  0  0  0
  147.0314  140.2160  153.8037 C   0  0  2  0  0  0  0  0  0  0  0  0
  145.6592  140.2649  154.1495 O   0  0  0  0  0  0  0  0  0  0  0  0
  147.5101  138.7707  153.7297 C   0  0  1  0  0  0  0  0  0  0  0  0
  148.4985  138.6460  152.7216 O   0  0  0  0  0  0  0  0  0  0  0  0
  152.9259  138.3866  156.0663 C   0  0  0  0  0  0  0  0  0  0  0  0
  153.9360  137.7073  155.8932 O   0  0  0  0  0  0  0  0  0  0  0  0
  152.8821  139.5876  156.7193 N   0  5  0  0  0  0  0  0  0  0  0  0
  147.4764  137.7448  155.7022 H   0  0  0  0  0  0  0  0  0  0  0  0
  148.8959  140.9861  154.5239 H   0  0  0  0  0  0  0  0  0  0  0  0
  147.1620  140.7533  152.8632 H   0  0  0  0  0  0  0  0  0  0  0  0
  146.6995  138.0763  153.5042 H   0  0  0  0  0  0  0  0  0  0  0  0
  152.5617  144.0515  157.1503 H   0  0  0  0  0  0  0  0  0  0  0  0
  154.1289  143.9988  157.9550 H   0  0  0  0  0  0  0  0  0  0  0  0
  152.9347  145.2030  158.4252 H   0  0  0  0  0  0  0  0  0  0  0  0
  151.4389  143.4656  159.3177 H   0  0  0  0  0  0  0  0  0  0  0  0
  152.8084  142.6576  161.2533 H   0  0  0  0  0  0  0  0  0  0  0  0
  153.0996  144.3555  160.9054 H   0  0  0  0  0  0  0  0  0  0  0  0
  154.2803  143.1462  160.4152 H   0  0  0  0  0  0  0  0  0  0  0  0
  151.3096  142.2753  157.1826 H   0  0  0  0  0  0  0  0  0  0  0  0
  149.3752  136.1749  154.1471 H   0  0  0  0  0  0  0  0  0  0  0  0
  147.4248  142.9230  154.8855 H   0  0  0  0  0  0  0  0  0  0  0  0
  146.3017  141.9788  155.8534 H   0  0  0  0  0  0  0  0  0  0  0  0
  148.5938  143.2118  156.5416 H   0  0  0  0  0  0  0  0  0  0  0  0
  145.1577  140.3606  153.3540 H   0  0  0  0  0  0  0  0  0  0  0  0
  148.7829  137.7444  152.6929 H   0  0  0  0  0  0  0  0  0  0  0  0
  1  2  1  0  0  0  0
  1 30  1  0  0  0  0
  1 31  1  0  0  0  0
  1 32  1  0  0  0  0
  2  3  1  0  0  0  0
  2  4  1  0  0  0  0
  2 33  1  0  0  0  0
  3 34  1  0  0  0  0
  3 35  1  0  0  0  0
  3 36  1  0  0  0  0
  4  5  2  0  0  0  0
  4  6  1  0  0  0  0
  6 37  1  0  0  0  0
  6  7  1  0  0  0  0
  7 25  1  0  0  0  0
  7  8  2  0  0  0  0
  8  9  1  0  0  0  0
  9 13  1  0  0  0  0
  9 10  2  0  0  0  0
 10 11  1  0  0  0  0
 10 23  1  0  0  0  0
 11 12  2  0  0  0  0
 12 13  1  0  0  0  0
 12 38  1  0  0  0  0
 13 14  1  0  0  0  0
 14 26  1  0  0  0  0
 14 21  1  0  0  0  0
 14 15  1  0  0  0  0
 15 16  1  0  0  0  0
 16 27  1  0  0  0  0
 16 17  1  0  0  0  0
 16 19  1  0  0  0  0
 17 18  1  0  0  0  0
 17 39  1  0  0  0  0
 17 40  1  0  0  0  0
 18 41  1  0  0  0  0
 19 28  1  0  0  0  0
 19 20  1  0  0  0  0
 19 21  1  0  0  0  0
 20 42  1  0  0  0  0
 21 29  1  0  0  0  0
 21 22  1  0  0  0  0
 22 43  1  0  0  0  0
 23 24  2  0  0  0  0
 23 25  1  0  0  0  0
M  CHG  1  25  -1
M  END
> <s_m_source_file>
AV-unprocessed.smi

> <i_m_source_file_index>
54

> <i_lp_mmshare_version>
43012

> <i_f3d_flags>
0

> <s_epik_input>
W0NIM11bQ0hdKFtDSDNdKUMoPU8pW05IXWMobjEpW25IXWMoPU8pYyhjMTIpbltjSF1uMltDQEBIXTNPW0NASF0oW0NIMl1bT0hdKVtDQEBIXShbT0hdKVtDQEhdM1tPSF0=

> <s_epik_cmdline>
J2VwaWtfcHl0aG9uJywgJy1waCcsICc3LjAnLCAnLXRuJywgJzgnLCAnLW1hJywgJzIwMCcsICctbWV0YWxfYmluZGluZycsICctaW1hZScsICc8aW5maWxlLm1hZT4nLCAnLW9tYWUnLCAnPG91dGZpbGUubWFlPic=

> <r_lp_tautomer_probability>
0.85571

> <r_epik_Ionization_Penalty>
1.75936

> <r_epik_Ionization_Penalty_Charging>
4.55893e-11

> <r_epik_Ionization_Penalty_Neutral>
1.75936

> <r_epik_State_Penalty>
1.72072

> <r_epik_Charging_Adjusted_Penalty>
1.72072

> <i_epik_Tot_Q>
-1

> <i_epik_Tot_abs_Q>
1

> <r_epik_Metal_State_Penalty>
0.400338

> <b_epik_Metal_Only>
1

> <s_epik_Chemistry_Notes>
This compound contains an acetal/aminal-like group ( X-CH(R)-Y where X, Y are N, S, or O) that may be acid/base labile, releasing an aldehyde.

> <s_lp_Force_Field>
OPLS_2005

> <r_lp_Energy>
59.3573

> <b_lp_Chiralities_Consistent>
1

> <s_lp_Variant>
AV-unprocessed.smi:54-22

> <Gold.Version>
5.8.1

> <Gold.Id.Protein>
6NUR|6NUR_protein|mol2

> <Gold.PLP.Fitness>
53.8655

> <Gold.PLP.PLP>
-33.6796

> <Gold.PLP.part.hbond>
-6.7908

> <Gold.PLP.part.metal>
0.0000

> <Gold.PLP.part.buried>
-2.0756

> <Gold.PLP.part.nonpolar>
-25.2227

> <Gold.PLP.part.repulsive>
0.2312

> <Gold.PLP.ligand.clash>
0.0259

> <Gold.PLP.ligand.torsion>
0.4295

> <Gold.PLP.Chemscore.Hbond>
6.0000

> <Gold.PLP.Chemscore.CHOScore>
0.9564

> <Gold.PLP.Chemscore.Metal>
0.0000

> <Gold.Chemscore.Hbonds>
donor molecule, donor type, donor heavy atom, donor atom, acceptor molecule, acceptor atom, score
      L1  H    18    41       P1  8028  1.00
      L1  H    20    42       P1 10175  1.00
      L1  H    22    43       P1  7948  1.00
      P1  H  7997  8009       L1    25  2.00
      P1  H 10752 10764       L1    11  1.00
      L1  C    12    38       P1  7948  0.87

> <Gold.PLP.Chemscore.Internal.Correction>
0.2017

> <Gold.Rescore>
     Score         DG    S(hbond)    S(metal)    S(lipo)     H(rot)  DE(clash)    DE(int)     intcor
     10.97     -15.51       3.78        0.00      65.83       4.02       0.28       4.26       ----

> <Gold.Chemscore.Fitness>
10.9729

> <Gold.Chemscore.DG>
-15.5134

> <Gold.Chemscore.ZeroCoef>
-5.4800

> <Gold.Chemscore.Hbond>
3.7786

> <Gold.Chemscore.Metal>
0.0000

> <Gold.Chemscore.Lipo>
65.8315

> <Gold.Chemscore.Internal_Hbond>
0.0000

> <Gold.Chemscore.DEClash>
0.2758

> <Gold.Chemscore.DEInternal>
4.2647

> <Gold.Chemscore.Rot>
4.0192

> <Gold.Chemscore.Internal.Correction>
   9.000000E+99

> <Gold.Chemscore.Hbonds>
donor molecule, donor type, donor heavy atom, donor atom, acceptor molecule, acceptor atom, score
      L1  H    18    41       P1  8028  0.76
      L1  H    20    42       P1 10175  0.96
      L1  H    22    43       P1  7948  0.94
      P1  H  7997  8009       L1    25  0.39
      P1  H 10752 10764       L1    11  0.74

> <Gold.Chemscore.Hbond.Weighted>
-12.6204

> <Gold.Chemscore.Metal.Weighted>
-0.0000

> <Gold.Chemscore.Lipo.Weighted>
-7.7023

> <Gold.Chemscore.Internal_Hbond.Weighted>
0.0000

> <Gold.Chemscore.DEClash.Weighted>
0.2758

> <Gold.Chemscore.DEInternal.Weighted>
4.2647

> <Gold.Chemscore.Rot.Weighted>
10.2893

> <Gold.Chemscore.Internal.Correction.Weighted>
   9.000000E+99

> <Gold.Protein.RotatedTorsions>
[ 6907 6896 6895 6894 ] final  103.23 input  -60.11 | X-H torsion
[ 7974 7965 7964 7962 ] final  107.04 input  175.53 | X-H torsion
[ 8008 7997 7996 7995 ] final  177.11 input   59.86 | X-H torsion
[ 10167 10162 10161 10158 ] final  128.70 input  -65.29 | X-H torsion
[ 10718 10713 10712 10709 ] final  123.54 input   66.30 | X-H torsion
[ 10763 10752 10751 10750 ] final  -66.72 input  -60.55 | X-H torsion
[ 11005 11000 10999 10996 ] final -135.15 input  -57.11 | X-H torsion

> <Gold.Protein.ActiveResidues>
 VAL166  LYS551  ARG553  GLY616  TRP617  ASP618  TYR619  PRO620  LYS621  CYS622 
 ASP623  PHE694  ASN695  SER759  ASP760  ASP761  ALA762  ILE779  LEU786  VAL792 
 PHE793  MET794  SER795  GLU796  ALA797  LYS798  CYS799  TRP800  GLU811  SER814 

> <Gold.Protein.RotatedAtoms>
  152.5301  133.9857  159.7827 H   0  0  0  0  0  0  0  0  0  0  0  0  # atno 6907 bound_to 6896
  151.0102  133.5964  159.2690 H   0  0  0  0  0  0  0  0  0  0  0  0  # atno 6908 bound_to 6896
  151.3041  135.0783  159.9302 H   0  0  0  0  0  0  0  0  0  0  0  0  # atno 6909 bound_to 6896
  145.2988  139.2576  143.3825 H   0  0  0  0  0  0  0  0  0  0  0  0  # atno 7974 bound_to 7965
  156.0692  140.1366  156.9849 H   0  0  0  0  0  0  0  0  0  0  0  0  # atno 8008 bound_to 7997
  154.4522  140.0975  156.6704 H   0  0  0  0  0  0  0  0  0  0  0  0  # atno 8009 bound_to 7997
  155.5256  140.3457  155.4418 H   0  0  0  0  0  0  0  0  0  0  0  0  # atno 8010 bound_to 7997
  139.5514  144.6816  151.4313 H   0  0  0  0  0  0  0  0  0  0  0  0  # atno 10167 bound_to 10162
  157.5657  131.1087  150.8459 H   0  0  0  0  0  0  0  0  0  0  0  0  # atno 10718 bound_to 10713
  154.3639  135.6110  153.5705 H   0  0  0  0  0  0  0  0  0  0  0  0  # atno 10763 bound_to 10752
  152.9792  135.5822  154.4600 H   0  0  0  0  0  0  0  0  0  0  0  0  # atno 10764 bound_to 10752
  154.4343  135.2848  155.1869 H   0  0  0  0  0  0  0  0  0  0  0  0  # atno 10765 bound_to 10752
  140.8925  134.1794  157.4518 H   0  0  0  0  0  0  0  0  0  0  0  0  # atno 11005 bound_to 11000
  146.3159  140.3497  142.8655 LP  0  0  0  0  0  0  0  0  0  0  0  0  # atno 17320 bound_to 7965
  144.9111  140.7758  143.5807 LP  0  0  0  0  0  0  0  0  0  0  0  0  # atno 17321 bound_to 7965
  140.6777  143.8152  150.7080 LP  0  0  0  0  0  0  0  0  0  0  0  0  # atno 17342 bound_to 10162
  140.1596  143.4287  152.2076 LP  0  0  0  0  0  0  0  0  0  0  0  0  # atno 17343 bound_to 10162
  156.8944  130.5224  149.5285 LP  0  0  0  0  0  0  0  0  0  0  0  0  # atno 17370 bound_to 10713
  156.0705  130.5739  150.9374 LP  0  0  0  0  0  0  0  0  0  0  0  0  # atno 17371 bound_to 10713
  139.8731  134.9864  156.5324 LP  0  0  0  0  0  0  0  0  0  0  0  0  # atno 17394 bound_to 11000
  140.8330  133.8264  155.9002 LP  0  0  0  0  0  0  0  0  0  0  0  0  # atno 17395 bound_to 11000

$$$$
