#       Name:                AV-unprocessed.smi:3135
#       Creating user name   scv26
#       Creation time:       Fri Mar 27 17:33:56 2020


#       File generated by GOLD software.
#

@<TRIPOS>MOLECULE
AV-unprocessed.smi:3135
    41    42     1
SMALL
NO_CHARGES


@<TRIPOS>ATOM
      1 ****        -4.6042  -2.1636   2.8540 C.3            1 S1                 0.0000
      2 ****        -4.1150  -0.8668   2.2765 C.2            1 S1                 0.0000
      3 ****        -3.8954   0.3650   2.9564 C.2            1 S1                 0.0000
      4 ****        -3.4585   1.3237   2.1559 N.2            1 S1                 0.0000
      5 ****        -3.3829   0.7406   0.9404 N.pl3          1 S1                 0.0000
      6 ****        -2.9230   1.5082  -0.2053 C.3            1 S1                 0.0000
      7 ****        -1.3957   1.6262  -0.2518 C.2            1 S1                 0.0000
      8 ****        -0.8720   2.7261  -0.4261 O.2            1 S1                 0.0000
      9 ****        -0.6884   0.4925  -0.1155 N.am           1 S1                 0.0000
     10 ****         0.7668   0.4106  -0.1180 C.3            1 S1                 0.0000
     11 ****         1.3297   0.4147  -1.5516 C.3            1 S1                 0.0000
     12 ****         2.8142   0.3998  -1.5942 N.4            1 S1                 1.0000
     13 ****         3.3136   0.7175  -2.9516 C.3            1 S1                 0.0000
     14 ****         3.3992  -0.8623  -1.0802 C.3            1 S1                 0.0000
     15 ****         3.7716  -0.8221   0.3859 C.3            1 S1                 0.0000
     16 ****         4.8508  -0.7436  -0.6667 C.3            1 S1                 0.0000
     17 ****        -3.7779  -0.5802   0.9839 C.2            1 S1                 0.0000
     18 ****        -4.2087  -2.3340   3.8556 H              1 S1                 0.0000
     19 ****        -4.3079  -3.0170   2.2433 H              1 S1                 0.0000
     20 ****        -5.6914  -2.1835   2.9293 H              1 S1                 0.0000
     21 ****        -4.0394   0.5892   4.0031 H              1 S1                 0.0000
     22 ****        -3.2761   1.0277  -1.1185 H              1 S1                 0.0000
     23 ****        -3.3753   2.5006  -0.1698 H              1 S1                 0.0000
     24 ****        -1.1968  -0.3690   0.0243 H              1 S1                 0.0000
     25 ****         1.1894   1.2312   0.4646 H              1 S1                 0.0000
     26 ****         1.0364  -0.5110   0.3971 H              1 S1                 0.0000
     27 ****         0.9390  -0.4342  -2.1153 H              1 S1                 0.0000
     28 ****         0.9785   1.3132  -2.0614 H              1 S1                 0.0000
     29 ****         2.9970  -0.0403  -3.6696 H              1 S1                 0.0000
     30 ****         4.4024   0.7685  -2.9697 H              1 S1                 0.0000
     31 ****         2.9369   1.6844  -3.2868 H              1 S1                 0.0000
     32 ****         3.0432  -1.7814  -1.5429 H              1 S1                 0.0000
     33 ****         3.5593   0.0843   0.9499 H              1 S1                 0.0000
     34 ****         3.6918  -1.7493   0.9498 H              1 S1                 0.0000
     35 ****         5.4833  -1.6196  -0.7962 H              1 S1                 0.0000
     36 ****         5.3538   0.2140  -0.7890 H              1 S1                 0.0000
     37 ****        -3.7828  -1.2022   0.1009 H              1 S1                 0.0000
     38 ****         3.1332   1.1434  -0.9895 H              1 S1                 0.0000
     39 ****        -3.2345   2.2680   2.3971 LP             1 S1                 0.0000
     40 ****        -1.4427   3.5397  -0.5370 LP             1 S1                 0.0000
     41 ****         0.1243   2.8062  -0.4570 LP             1 S1                 0.0000
@<TRIPOS>BOND
    1    1    2 1     
    2    1   18 1     
    3    1   19 1     
    4    1   20 1     
    5    2   17 2     
    6    2    3 1     
    7    3    4 2     
    8    3   21 1     
    9    4    5 1     
   10    5    6 1     
   11    5   17 1     
   12    6    7 1     
   13    6   22 1     
   14    6   23 1     
   15    7    8 2     
   16    7    9 am    
   17    9   10 1     
   18    9   24 1     
   19   10   11 1     
   20   10   25 1     
   21   10   26 1     
   22   11   12 1     
   23   11   27 1     
   24   11   28 1     
   25   12   13 1     
   26   12   14 1     
   27   12   38 1     
   28   13   29 1     
   29   13   30 1     
   30   13   31 1     
   31   14   16 1     
   32   14   15 1     
   33   14   32 1     
   34   15   16 1     
   35   15   33 1     
   36   15   34 1     
   37   16   35 1     
   38   16   36 1     
   39   17   37 1     
   40    4   39 1     
   41    8   40 1     
   42    8   41 1     
@<TRIPOS>SUBSTRUCTURE
      1 S1             1
@<TRIPOS>SET
LONE_PAIRS      STATIC     ATOMS    <user>   **** ""
3 39 40 41
DONOR_HYDROGENS      STATIC     ATOMS    <user>   **** ""
2 24 38
ATOM$BLUE        STATIC     ATOMS    COLORGROUP SYSTEM
3 39 40 41
ATOM$RED        STATIC     ATOMS    COLORGROUP SYSTEM
2 24 38
