AV-unprocessed.smi:1748|AV-procd|sdf|7041|dock7
  -GOLD-   22720 8263D 1   1.00000     0.00000
 Structure written by MMmdl.
 39 40  0  0  0  0  0  0  0  0  3 V2000
  145.3139  135.4479  150.6142 C   0  0  0  0  0  0  0  0  0  0  0  0
  146.1278  135.0469  151.7815 N   0  3  2  0  0  0  0  0  0  0  0  0
  146.3362  133.5787  151.8513 C   0  0  0  0  0  0  0  0  0  0  0  0
  147.2892  133.2065  153.0008 C   0  0  0  0  0  0  0  0  0  0  0  0
  146.8034  133.7847  154.3417 C   0  0  0  0  0  0  0  0  0  0  0  0
  146.5558  135.3004  154.2315 C   0  0  1  0  0  0  0  0  0  0  0  0
  147.8299  136.0000  154.0673 N   0  0  0  0  0  0  0  0  0  0  0  0
  148.3541  136.8758  154.9359 C   0  0  0  0  0  0  0  0  0  0  0  0
  147.8121  137.1760  155.9994 O   0  0  0  0  0  0  0  0  0  0  0  0
  149.5040  137.3868  154.4624 N   0  0  0  0  0  0  0  0  0  0  0  0
  150.3489  138.3467  155.0423 C   0  0  0  0  0  0  0  0  0  0  0  0
  149.9327  139.3438  155.8706 C   0  0  0  0  0  0  0  0  0  0  0  0
  150.8560  140.3099  156.4524 C   0  0  0  0  0  0  0  0  0  0  0  0
  150.4365  141.3821  157.4428 C   0  0  0  0  0  0  0  0  0  0  0  0
  150.9612  141.1572  158.6478 F   0  0  0  0  0  0  0  0  0  0  0  0
  150.8538  142.5757  157.0229 F   0  0  0  0  0  0  0  0  0  0  0  0
  149.1098  141.4251  157.5636 F   0  0  0  0  0  0  0  0  0  0  0  0
  152.1665  140.0677  156.0877 C   0  0  0  0  0  0  0  0  0  0  0  0
  152.6591  139.1119  155.2690 N   0  5  0  0  0  0  0  0  0  0  0  0
  151.7861  138.2165  154.7275 C   0  0  0  0  0  0  0  0  0  0  0  0
  152.1674  137.3111  153.9845 O   0  0  0  0  0  0  0  0  0  0  0  0
  145.5936  135.5871  153.0569 C   0  0  0  0  0  0  0  0  0  0  0  0
  144.3016  135.0484  150.6865 H   0  0  0  0  0  0  0  0  0  0  0  0
  145.7614  135.0828  149.6893 H   0  0  0  0  0  0  0  0  0  0  0  0
  145.2496  136.5345  150.5457 H   0  0  0  0  0  0  0  0  0  0  0  0
  145.3748  133.0801  151.9852 H   0  0  0  0  0  0  0  0  0  0  0  0
  146.7497  133.2219  150.9071 H   0  0  0  0  0  0  0  0  0  0  0  0
  147.3767  132.1222  153.0745 H   0  0  0  0  0  0  0  0  0  0  0  0
  148.2903  133.5781  152.7787 H   0  0  0  0  0  0  0  0  0  0  0  0
  145.8767  133.2881  154.6325 H   0  0  0  0  0  0  0  0  0  0  0  0
  147.5255  133.5704  155.1306 H   0  0  0  0  0  0  0  0  0  0  0  0
  146.0967  135.6432  155.1603 H   0  0  0  0  0  0  0  0  0  0  0  0
  148.3490  135.8082  153.2226 H   0  0  0  0  0  0  0  0  0  0  0  0
  149.7817  137.0963  153.5362 H   0  0  0  0  0  0  0  0  0  0  0  0
  148.8931  139.4390  156.1386 H   0  0  0  0  0  0  0  0  0  0  0  0
  152.9364  140.7390  156.5244 H   0  0  0  0  0  0  0  0  0  0  0  0
  145.4264  136.6606  152.9587 H   0  0  0  0  0  0  0  0  0  0  0  0
  144.6176  135.1422  153.2574 H   0  0  0  0  0  0  0  0  0  0  0  0
  147.0383  135.4650  151.6522 H   0  0  0  0  0  0  0  0  0  0  0  0
  1  2  1  0  0  0  0
  1 23  1  0  0  0  0
  1 24  1  0  0  0  0
  1 25  1  0  0  0  0
  2 22  1  0  0  0  0
  2  3  1  0  0  0  0
  2 39  1  0  0  0  0
  3  4  1  0  0  0  0
  3 26  1  0  0  0  0
  3 27  1  0  0  0  0
  4  5  1  0  0  0  0
  4 28  1  0  0  0  0
  4 29  1  0  0  0  0
  5  6  1  0  0  0  0
  5 30  1  0  0  0  0
  5 31  1  0  0  0  0
  6  7  1  0  0  0  0
  6 22  1  0  0  0  0
  6 32  1  0  0  0  0
  7  8  1  0  0  0  0
  7 33  1  0  0  0  0
  8  9  2  0  0  0  0
  8 10  1  0  0  0  0
 10 11  1  0  0  0  0
 10 34  1  0  0  0  0
 11 20  1  0  0  0  0
 11 12  2  0  0  0  0
 12 13  1  0  0  0  0
 12 35  1  0  0  0  0
 13 14  1  0  0  0  0
 13 18  2  0  0  0  0
 14 15  1  0  0  0  0
 14 16  1  0  0  0  0
 14 17  1  0  0  0  0
 18 19  1  0  0  0  0
 18 36  1  0  0  0  0
 19 20  1  0  0  0  0
 20 21  2  0  0  0  0
 22 37  1  0  0  0  0
 22 38  1  0  0  0  0
M  CHG  1   2   1
M  CHG  1  19  -1
M  END
> <s_m_source_file>
AV-unprocessed.smi

> <i_m_source_file_index>
1748

> <i_lp_mmshare_version>
43012

> <i_f3d_flags>
0

> <s_epik_input>
W0NIM11OMVtDSDJdW0NIMl1bQ0gyXVtDQEhdKFtDSDJdMSlbTkhdQyg9TylbTkhdYzJbY0hdYyhDKEYpKEYpRilbY0hdW25IXWMyPU8=

> <s_epik_cmdline>
J2VwaWtfcHl0aG9uJywgJy1waCcsICc3LjAnLCAnLXRuJywgJzgnLCAnLW1hJywgJzIwMCcsICctbWV0YWxfYmluZGluZycsICctaW1hZScsICc8aW5maWxlLm1hZT4nLCAnLW9tYWUnLCAnPG91dGZpbGUubWFlPic=

> <r_lp_tautomer_probability>
1

> <r_epik_Ionization_Penalty>
3.00907

> <r_epik_Ionization_Penalty_Charging>
0.148702

> <r_epik_Ionization_Penalty_Neutral>
2.86036

> <r_epik_State_Penalty>
2.85557

> <r_epik_Charging_Adjusted_Penalty>
3.00428

> <i_epik_Tot_Q>
0

> <i_epik_Tot_abs_Q>
2

> <r_epik_Metal_State_Penalty>
0.443779

> <b_epik_Metal_Only>
1

> <s_lp_Force_Field>
OPLS_2005

> <r_lp_Energy>
32.6678

> <b_lp_Chiralities_Consistent>
1

> <s_lp_Variant>
AV-unprocessed.smi:1748-6

> <Gold.Version>
5.8.1

> <Gold.Id.Protein>
6NUR|6NUR_protein|mol2

> <Gold.PLP.Fitness>
43.2815

> <Gold.PLP.PLP>
-29.6199

> <Gold.PLP.part.hbond>
-4.4729

> <Gold.PLP.part.metal>
0.0000

> <Gold.PLP.part.buried>
-3.8320

> <Gold.PLP.part.nonpolar>
-23.2096

> <Gold.PLP.part.repulsive>
1.0683

> <Gold.PLP.ligand.clash>
0.0000

> <Gold.PLP.ligand.torsion>
0.2982

> <Gold.PLP.Chemscore.Hbond>
4.7352

> <Gold.PLP.Chemscore.CHOScore>
0.0000

> <Gold.PLP.Chemscore.Metal>
0.0000

> <Gold.Chemscore.Hbonds>
donor molecule, donor type, donor heavy atom, donor atom, acceptor molecule, acceptor atom, score
      L1  H     2    39       P1  7948  1.98
      L1  H     7    33       P1  7948  1.00
      L1  H    10    34       P1  7948  0.82
      P1  H 10752 10764       L1    21  0.91

> <Gold.PLP.Chemscore.Internal.Correction>
0.0523

> <Gold.Rescore>
     Score         DG    S(hbond)    S(metal)    S(lipo)     H(rot)  DE(clash)    DE(int)     intcor
     18.55     -19.72       3.28        0.00      50.03       1.00       0.06       1.10       ----

> <Gold.Chemscore.Fitness>
18.5528

> <Gold.Chemscore.DG>
-19.7186

> <Gold.Chemscore.ZeroCoef>
-5.4800

> <Gold.Chemscore.Hbond>
3.2769

> <Gold.Chemscore.Metal>
0.0000

> <Gold.Chemscore.Lipo>
50.0315

> <Gold.Chemscore.Internal_Hbond>
0.0000

> <Gold.Chemscore.DEClash>
0.0645

> <Gold.Chemscore.DEInternal>
1.1013

> <Gold.Chemscore.Rot>
1.0000

> <Gold.Chemscore.Internal.Correction>
   9.000000E+99

> <Gold.Chemscore.Hbonds>
donor molecule, donor type, donor heavy atom, donor atom, acceptor molecule, acceptor atom, score
      L1  H     2    39       P1  7948  0.92
      L1  H     7    33       P1  7948  0.91
      L1  H    10    34       P1  7948  0.46
      P1  H 10752 10764       L1    21  0.90

> <Gold.Chemscore.Hbond.Weighted>
-10.9449

> <Gold.Chemscore.Metal.Weighted>
-0.0000

> <Gold.Chemscore.Lipo.Weighted>
-5.8537

> <Gold.Chemscore.Internal_Hbond.Weighted>
0.0000

> <Gold.Chemscore.DEClash.Weighted>
0.0645

> <Gold.Chemscore.DEInternal.Weighted>
1.1013

> <Gold.Chemscore.Rot.Weighted>
2.5600

> <Gold.Chemscore.Internal.Correction.Weighted>
   9.000000E+99

> <Gold.Protein.RotatedTorsions>
[ 6907 6896 6895 6894 ] final -162.64 input  -60.11 | X-H torsion
[ 7974 7965 7964 7962 ] final  -56.95 input  175.53 | X-H torsion
[ 8008 7997 7996 7995 ] final   91.24 input   59.86 | X-H torsion
[ 10167 10162 10161 10158 ] final -130.39 input  -65.29 | X-H torsion
[ 10718 10713 10712 10709 ] final  136.80 input   66.30 | X-H torsion
[ 10763 10752 10751 10750 ] final  -93.56 input  -60.55 | X-H torsion
[ 11005 11000 10999 10996 ] final  151.72 input  -57.11 | X-H torsion

> <Gold.Protein.ActiveResidues>
 VAL166  LYS551  ARG553  GLY616  TRP617  ASP618  TYR619  PRO620  LYS621  CYS622 
 ASP623  PHE694  ASN695  SER759  ASP760  ASP761  ALA762  ILE779  LEU786  VAL792 
 PHE793  MET794  SER795  GLU796  ALA797  LYS798  CYS799  TRP800  GLU811  SER814 

> <Gold.Protein.RotatedAtoms>
  151.3836  133.3813  159.2712 H   0  0  0  0  0  0  0  0  0  0  0  0  # atno 6907 bound_to 6896
  150.9559  134.8954  159.7711 H   0  0  0  0  0  0  0  0  0  0  0  0  # atno 6908 bound_to 6896
  152.5130  134.3793  159.9397 H   0  0  0  0  0  0  0  0  0  0  0  0  # atno 6909 bound_to 6896
  145.8567  140.8314  142.9958 H   0  0  0  0  0  0  0  0  0  0  0  0  # atno 7974 bound_to 7965
  156.0214  140.3340  155.7043 H   0  0  0  0  0  0  0  0  0  0  0  0  # atno 8008 bound_to 7997
  155.6016  140.0656  157.2749 H   0  0  0  0  0  0  0  0  0  0  0  0  # atno 8009 bound_to 7997
  154.4317  140.1809  156.1167 H   0  0  0  0  0  0  0  0  0  0  0  0  # atno 8010 bound_to 7997
  139.9298  143.6285  152.2532 H   0  0  0  0  0  0  0  0  0  0  0  0  # atno 10167 bound_to 10162
  157.4429  131.1059  151.0123 H   0  0  0  0  0  0  0  0  0  0  0  0  # atno 10718 bound_to 10713
  154.6971  135.5190  153.8474 H   0  0  0  0  0  0  0  0  0  0  0  0  # atno 10763 bound_to 10752
  153.0675  135.6590  154.0330 H   0  0  0  0  0  0  0  0  0  0  0  0  # atno 10764 bound_to 10752
  154.0195  135.2995  155.3362 H   0  0  0  0  0  0  0  0  0  0  0  0  # atno 10765 bound_to 10752
  140.1244  134.8843  157.2117 H   0  0  0  0  0  0  0  0  0  0  0  0  # atno 11005 bound_to 11000
  144.6727  140.1034  143.7459 LP  0  0  0  0  0  0  0  0  0  0  0  0  # atno 17320 bound_to 7965
  145.9295  139.2597  143.1333 LP  0  0  0  0  0  0  0  0  0  0  0  0  # atno 17321 bound_to 7965
  139.6792  144.7656  151.1640 LP  0  0  0  0  0  0  0  0  0  0  0  0  # atno 17342 bound_to 10162
  140.7640  143.5750  150.8955 LP  0  0  0  0  0  0  0  0  0  0  0  0  # atno 17343 bound_to 10162
  157.0980  130.5970  149.5454 LP  0  0  0  0  0  0  0  0  0  0  0  0  # atno 17370 bound_to 10713
  155.9956  130.5023  150.7463 LP  0  0  0  0  0  0  0  0  0  0  0  0  # atno 17371 bound_to 10713
  140.2923  134.3226  155.7312 LP  0  0  0  0  0  0  0  0  0  0  0  0  # atno 17394 bound_to 11000
  141.2158  133.7542  156.9521 LP  0  0  0  0  0  0  0  0  0  0  0  0  # atno 17395 bound_to 11000

$$$$
