#       Name:                AV-unprocessed.smi:45
#       Creating user name   scv26
#       Creation time:       Thu Mar 26 16:26:09 2020


#       File generated by GOLD software.
#

@<TRIPOS>MOLECULE
AV-unprocessed.smi:45
    71    74     1
SMALL
NO_CHARGES


@<TRIPOS>ATOM
      1 ****        -2.8033  -0.1511   4.3245 C.3            1 S1                 0.0000
      2 ****        -2.3598   0.9416   3.5333 O.3            1 S1                 0.0000
      3 ****        -2.3232   0.7820   2.1635 C.ar           1 S1                 0.0000
      4 ****        -2.7480  -0.3951   1.4972 C.ar           1 S1                 0.0000
      5 ****        -2.6721  -0.4925   0.0955 C.ar           1 S1                 0.0000
      6 ****        -2.1757   0.5848  -0.6637 C.ar           1 S1                 0.0000
      7 ****        -2.0449   0.4572  -2.1720 C.3            1 S1                 0.0000
      8 ****        -1.0485  -0.5206  -2.5920 N.3            1 S1                 0.0000
      9 ****         0.2389  -0.3429  -2.0603 C.ar           1 S1                 0.0000
     10 ****         0.8007   0.8795  -2.2105 N.ar           1 S1                 0.0000
     11 ****         2.0040   1.0944  -1.6686 C.ar           1 S1                 0.0000
     12 ****         2.5419   2.3716  -1.8219 N.pl3          1 S1                 0.0000
     13 ****         2.2127   3.2070  -2.9713 C.3            1 S1                 0.0000
     14 ****         3.4343   4.0921  -3.2106 C.3            1 S1                 0.0000
     15 ****         4.0361   4.2256  -1.8180 C.3            1 S1                 0.0000
     16 ****         3.7621   2.8576  -1.1757 C.3            1 S1                 0.0000
     17 ****         3.6469   2.9402   0.3611 C.3            1 S1                 0.0000
     18 ****         4.8796   3.3437   0.9187 O.3            1 S1                 0.0000
     19 ****         2.7227   0.1893  -0.9972 N.ar           1 S1                 0.0000
     20 ****         2.1828  -1.0366  -0.8363 C.ar           1 S1                 0.0000
     21 ****         0.9061  -1.3715  -1.3423 C.ar           1 S1                 0.0000
     22 ****         0.3164  -2.7373  -1.1144 C.2            1 S1                 0.0000
     23 ****        -0.3376  -3.3076  -1.9880 O.2            1 S1                 0.0000
     24 ****         0.5094  -3.2418   0.1147 N.am           1 S1                 0.0000
     25 ****        -0.0525  -4.4950   0.6030 C.3            1 S1                 0.0000
     26 ****        -1.4144  -4.3013   1.2458 C.ar           1 S1                 0.0000
     27 ****        -1.4263  -4.0346   2.5562 N.ar           1 S1                 0.0000
     28 ****        -2.6355  -3.8738   3.1359 C.ar           1 S1                 0.0000
     29 ****        -3.8314  -3.9716   2.3965 C.ar           1 S1                 0.0000
     30 ****        -3.6934  -4.2483   1.0214 C.ar           1 S1                 0.0000
     31 ****        -2.4818  -4.4138   0.4481 N.ar           1 S1                 0.0000
     32 ****        -1.7593   1.7615  -0.0113 C.ar           1 S1                 0.0000
     33 ****        -1.8298   1.8582   1.3918 C.ar           1 S1                 0.0000
     34 ****        -1.2914   3.3075   2.1617 Cl             1 S1                 0.0000
     35 ****         4.5671   2.1726  -1.4463 H              1 S1                 0.0000
     36 ****        -2.7620   0.1278   5.3773 H              1 S1                 0.0000
     37 ****        -2.1641  -1.0248   4.1900 H              1 S1                 0.0000
     38 ****        -3.8357  -0.4189   4.0953 H              1 S1                 0.0000
     39 ****        -3.1327  -1.2428   2.0406 H              1 S1                 0.0000
     40 ****        -2.9847  -1.4029  -0.3950 H              1 S1                 0.0000
     41 ****        -3.0107   0.1571  -2.5789 H              1 S1                 0.0000
     42 ****        -1.8144   1.4281  -2.6125 H              1 S1                 0.0000
     43 ****        -1.3782  -1.4748  -2.5479 H              1 S1                 0.0000
     44 ****         1.9793   2.6155  -3.8576 H              1 S1                 0.0000
     45 ****         1.3387   3.8113  -2.7258 H              1 S1                 0.0000
     46 ****         4.1389   3.5813  -3.8682 H              1 S1                 0.0000
     47 ****         3.1819   5.0514  -3.6628 H              1 S1                 0.0000
     48 ****         5.0965   4.4790  -1.8359 H              1 S1                 0.0000
     49 ****         3.5127   5.0141  -1.2750 H              1 S1                 0.0000
     50 ****         2.8694   3.6453   0.6567 H              1 S1                 0.0000
     51 ****         3.3844   1.9782   0.7987 H              1 S1                 0.0000
     52 ****         4.7859   3.3815   1.8583 H              1 S1                 0.0000
     53 ****         2.7776  -1.7499  -0.2846 H              1 S1                 0.0000
     54 ****         1.0400  -2.6963   0.7781 H              1 S1                 0.0000
     55 ****        -0.1205  -5.2312  -0.2003 H              1 S1                 0.0000
     56 ****         0.6373  -4.9144   1.3364 H              1 S1                 0.0000
     57 ****        -2.6491  -3.6592   4.1942 H              1 S1                 0.0000
     58 ****        -4.7989  -3.8386   2.8570 H              1 S1                 0.0000
     59 ****        -4.5575  -4.3365   0.3797 H              1 S1                 0.0000
     60 ****        -1.3657   2.5874  -0.5858 H              1 S1                 0.0000
     61 ****        -1.4317   1.1656   3.8306 LP             1 S1                 0.0000
     62 ****        -2.9667   1.7127   3.7259 LP             1 S1                 0.0000
     63 ****        -0.9215  -0.3196  -3.5633 LP             1 S1                 0.0000
     64 ****         0.3280   1.6030  -2.7137 LP             1 S1                 0.0000
     65 ****         5.1290   4.2464   0.5680 LP             1 S1                 0.0000
     66 ****         5.5911   2.6840   0.6770 LP             1 S1                 0.0000
     67 ****         3.6252   0.4121  -0.6286 LP             1 S1                 0.0000
     68 ****        -0.4864  -2.8632  -2.8714 LP             1 S1                 0.0000
     69 ****        -0.7200  -4.2151  -1.8141 LP             1 S1                 0.0000
     70 ****        -0.5794  -3.9578   3.0823 LP             1 S1                 0.0000
     71 ****        -2.3873  -4.6113  -0.5276 LP             1 S1                 0.0000
@<TRIPOS>BOND
    1    1    2 1     
    2    1   36 1     
    3    1   37 1     
    4    1   38 1     
    5    2    3 1     
    6    3   33 ar    
    7    3    4 ar    
    8    4    5 ar    
    9    4   39 1     
   10    5    6 ar    
   11    5   40 1     
   12    6    7 1     
   13    6   32 ar    
   14    7    8 1     
   15    7   41 1     
   16    7   42 1     
   17    8    9 1     
   18    8   43 1     
   19    9   21 ar    
   20    9   10 ar    
   21   10   11 ar    
   22   11   12 1     
   23   11   19 ar    
   24   12   16 1     
   25   12   13 1     
   26   13   14 1     
   27   13   44 1     
   28   13   45 1     
   29   14   15 1     
   30   14   46 1     
   31   14   47 1     
   32   15   16 1     
   33   15   48 1     
   34   15   49 1     
   35   16   35 1     
   36   16   17 1     
   37   17   18 1     
   38   17   50 1     
   39   17   51 1     
   40   18   52 1     
   41   19   20 ar    
   42   20   21 ar    
   43   20   53 1     
   44   21   22 1     
   45   22   23 2     
   46   22   24 am    
   47   24   25 1     
   48   24   54 1     
   49   25   26 1     
   50   25   55 1     
   51   25   56 1     
   52   26   31 ar    
   53   26   27 ar    
   54   27   28 ar    
   55   28   29 ar    
   56   28   57 1     
   57   29   30 ar    
   58   29   58 1     
   59   30   31 ar    
   60   30   59 1     
   61   32   33 ar    
   62   32   60 1     
   63   33   34 1     
   64    2   61 1     
   65    2   62 1     
   66    8   63 1     
   67   10   64 1     
   68   18   65 1     
   69   18   66 1     
   70   19   67 1     
   71   23   68 1     
   72   23   69 1     
   73   27   70 1     
   74   31   71 1     
@<TRIPOS>SUBSTRUCTURE
      1 S1             1
@<TRIPOS>SET
LONE_PAIRS      STATIC     ATOMS    <user>   **** ""
11 61 62 63 64 65 66 67 68 69 70 71
DONOR_HYDROGENS      STATIC     ATOMS    <user>   **** ""
3 43 52 54
ATOM$BLUE        STATIC     ATOMS    COLORGROUP SYSTEM
11 61 62 63 64 65 66 67 68 69 70 71
ATOM$RED        STATIC     ATOMS    COLORGROUP SYSTEM
3 43 52 54
