AV-unprocessed.smi:2429|AV-procd|sdf|9582|dock5
  -GOLD-   2272013213D 1   1.00000     0.00000
 Structure written by MMmdl.
 34 35  0  0  0  0  0  0  0  0  1 V2000
  152.7334  137.4415  158.6667 C   0  0  0  0  0  0  0  0  0  0  0  0
  153.5378  137.9760  159.8712 C   0  0  0  0  0  0  0  0  0  0  0  0
  153.1163  139.3494  160.1869 N   0  0  0  0  0  0  0  0  0  0  0  0
  152.8298  140.3532  159.3408 C   0  0  0  0  0  0  0  0  0  0  0  0
  152.8801  140.2561  158.1153 O   0  0  0  0  0  0  0  0  0  0  0  0
  152.4663  141.4567  160.0163 N   0  0  0  0  0  0  0  0  0  0  0  0
  152.0988  142.7329  159.5092 C   0  0  0  0  0  0  0  0  0  0  0  0
  151.7507  142.9834  158.1597 C   0  0  0  0  0  0  0  0  0  0  0  0
  151.4224  144.3007  157.7809 C   0  0  0  0  0  0  0  0  0  0  0  0
  151.4296  145.3450  158.6365 N   0  0  0  0  0  0  0  0  0  0  0  0
  151.7763  145.1049  159.9186 C   0  0  0  0  0  0  0  0  0  0  0  0
  152.1217  143.8264  160.4005 C   0  0  0  0  0  0  0  0  0  0  0  0
  152.4654  143.6557  161.7002 F   0  0  0  0  0  0  0  0  0  0  0  0
  153.3895  137.0350  161.0917 C   0  0  0  0  0  0  0  0  0  0  0  0
  154.3504  137.4150  162.2324 C   0  0  0  0  0  0  0  0  0  0  0  0
  155.6920  137.3977  161.7591 O   0  0  0  0  0  0  0  0  0  0  0  0
  155.9254  138.3395  160.7185 C   0  0  0  0  0  0  0  0  0  0  0  0
  155.0367  138.0162  159.5023 C   0  0  0  0  0  0  0  0  0  0  0  0
  153.0896  136.4577  158.3595 H   0  0  0  0  0  0  0  0  0  0  0  0
  152.8221  138.1042  157.8051 H   0  0  0  0  0  0  0  0  0  0  0  0
  151.6727  137.3372  158.8954 H   0  0  0  0  0  0  0  0  0  0  0  0
  153.0300  139.5550  161.1716 H   0  0  0  0  0  0  0  0  0  0  0  0
  152.3912  141.3576  161.0182 H   0  0  0  0  0  0  0  0  0  0  0  0
  151.7402  142.2058  157.4118 H   0  0  0  0  0  0  0  0  0  0  0  0
  151.1528  144.5227  156.7590 H   0  0  0  0  0  0  0  0  0  0  0  0
  151.7806  145.9577  160.5813 H   0  0  0  0  0  0  0  0  0  0  0  0
  152.3639  137.0157  161.4596 H   0  0  0  0  0  0  0  0  0  0  0  0
  153.6101  136.0115  160.7851 H   0  0  0  0  0  0  0  0  0  0  0  0
  154.1083  138.3959  162.6441 H   0  0  0  0  0  0  0  0  0  0  0  0
  154.2594  136.6992  163.0494 H   0  0  0  0  0  0  0  0  0  0  0  0
  155.7449  139.3517  161.0832 H   0  0  0  0  0  0  0  0  0  0  0  0
  156.9766  138.2921  160.4336 H   0  0  0  0  0  0  0  0  0  0  0  0
  155.3411  137.0484  159.1009 H   0  0  0  0  0  0  0  0  0  0  0  0
  155.2160  138.7424  158.7082 H   0  0  0  0  0  0  0  0  0  0  0  0
  1  2  1  0  0  0  0
  1 19  1  0  0  0  0
  1 20  1  0  0  0  0
  1 21  1  0  0  0  0
  2 18  1  0  0  0  0
  2  3  1  0  0  0  0
  2 14  1  0  0  0  0
  3  4  1  0  0  0  0
  3 22  1  0  0  0  0
  4  5  2  0  0  0  0
  4  6  1  0  0  0  0
  6  7  1  0  0  0  0
  6 23  1  0  0  0  0
  7 12  1  0  0  0  0
  7  8  2  0  0  0  0
  8  9  1  0  0  0  0
  8 24  1  0  0  0  0
  9 10  2  0  0  0  0
  9 25  1  0  0  0  0
 10 11  1  0  0  0  0
 11 12  2  0  0  0  0
 11 26  1  0  0  0  0
 12 13  1  0  0  0  0
 14 15  1  0  0  0  0
 14 27  1  0  0  0  0
 14 28  1  0  0  0  0
 15 16  1  0  0  0  0
 15 29  1  0  0  0  0
 15 30  1  0  0  0  0
 16 17  1  0  0  0  0
 17 18  1  0  0  0  0
 17 31  1  0  0  0  0
 17 32  1  0  0  0  0
 18 33  1  0  0  0  0
 18 34  1  0  0  0  0
M  END
> <s_m_source_file>
AV-unprocessed.smi

> <i_m_source_file_index>
2429

> <i_lp_mmshare_version>
43012

> <i_f3d_flags>
0

> <s_epik_input>
W0NIMl0xW0NIMl1PW0NIMl1bQ0gyXUMxKFtDSDNdKVtOSF1DKD1PKVtOSF1jMltjSF1bY0hdbltjSF1jMkY=

> <s_epik_cmdline>
J2VwaWtfcHl0aG9uJywgJy1waCcsICc3LjAnLCAnLXRuJywgJzgnLCAnLW1hJywgJzIwMCcsICctbWV0YWxfYmluZGluZycsICctaW1hZScsICc8aW5maWxlLm1hZT4nLCAnLW9tYWUnLCAnPG91dGZpbGUubWFlPic=

> <r_epik_Ionization_Penalty>
0.00367474

> <r_epik_Ionization_Penalty_Charging>
0

> <r_epik_Ionization_Penalty_Neutral>
0.00367474

> <r_epik_State_Penalty>
0.00258877

> <r_epik_Charging_Adjusted_Penalty>
0.00258877

> <i_epik_Tot_Q>
0

> <i_epik_Tot_abs_Q>
0

> <r_epik_Metal_State_Penalty>
-0

> <b_epik_Metal_Only>
0

> <s_lp_Force_Field>
OPLS_2005

> <r_lp_Energy>
14.8008

> <b_lp_Chiralities_Consistent>
1

> <s_lp_Variant>
AV-unprocessed.smi:2429-1

> <Gold.Version>
5.8.1

> <Gold.Id.Protein>
6NUR|6NUR_protein|mol2

> <Gold.PLP.Fitness>
37.9459

> <Gold.PLP.PLP>
-33.1559

> <Gold.PLP.part.hbond>
-1.4390

> <Gold.PLP.part.metal>
0.0000

> <Gold.PLP.part.buried>
-3.2291

> <Gold.PLP.part.nonpolar>
-27.9976

> <Gold.PLP.part.repulsive>
0.3083

> <Gold.PLP.ligand.clash>
0.0000

> <Gold.PLP.ligand.torsion>
0.4189

> <Gold.PLP.Chemscore.Hbond>
0.9280

> <Gold.PLP.Chemscore.CHOScore>
0.9454

> <Gold.PLP.Chemscore.Metal>
0.0000

> <Gold.Chemscore.Hbonds>
donor molecule, donor type, donor heavy atom, donor atom, acceptor molecule, acceptor atom, score
      P1  H  7997  8009       L1     5  0.92
      L1  C     9    25       P1  8028  1.00

> <Gold.PLP.Chemscore.Internal.Correction>
0.0074

> <Gold.Rescore>
     Score         DG    S(hbond)    S(metal)    S(lipo)     H(rot)  DE(clash)    DE(int)     intcor
     13.48     -16.49       0.90        0.00      90.20       1.00       0.12       2.88       ----

> <Gold.Chemscore.Fitness>
13.4808

> <Gold.Chemscore.DG>
-16.4854

> <Gold.Chemscore.ZeroCoef>
-5.4800

> <Gold.Chemscore.Hbond>
0.9018

> <Gold.Chemscore.Metal>
0.0000

> <Gold.Chemscore.Lipo>
90.2003

> <Gold.Chemscore.Internal_Hbond>
0.0000

> <Gold.Chemscore.DEClash>
0.1214

> <Gold.Chemscore.DEInternal>
2.8832

> <Gold.Chemscore.Rot>
1.0000

> <Gold.Chemscore.Internal.Correction>
   9.000000E+99

> <Gold.Chemscore.Hbonds>
donor molecule, donor type, donor heavy atom, donor atom, acceptor molecule, acceptor atom, score
      P1  H  7997  8009       L1     5  0.83

> <Gold.Chemscore.Hbond.Weighted>
-3.0120

> <Gold.Chemscore.Metal.Weighted>
-0.0000

> <Gold.Chemscore.Lipo.Weighted>
-10.5534

> <Gold.Chemscore.Internal_Hbond.Weighted>
0.0000

> <Gold.Chemscore.DEClash.Weighted>
0.1214

> <Gold.Chemscore.DEInternal.Weighted>
2.8832

> <Gold.Chemscore.Rot.Weighted>
2.5600

> <Gold.Chemscore.Internal.Correction.Weighted>
   9.000000E+99

> <Gold.Protein.RotatedTorsions>
[ 6907 6896 6895 6894 ] final  -56.49 input  -60.11 | X-H torsion
[ 7974 7965 7964 7962 ] final  150.04 input  175.53 | X-H torsion
[ 8008 7997 7996 7995 ] final  154.55 input   59.86 | X-H torsion
[ 10167 10162 10161 10158 ] final   69.43 input  -65.29 | X-H torsion
[ 10718 10713 10712 10709 ] final  -48.37 input   66.30 | X-H torsion
[ 10763 10752 10751 10750 ] final   -8.97 input  -60.55 | X-H torsion
[ 11005 11000 10999 10996 ] final  -16.44 input  -57.11 | X-H torsion

> <Gold.Protein.ActiveResidues>
 VAL166  LYS551  ARG553  GLY616  TRP617  ASP618  TYR619  PRO620  LYS621  CYS622 
 ASP623  PHE694  ASN695  SER759  ASP760  ASP761  ALA762  ILE779  LEU786  VAL792 
 PHE793  MET794  SER795  GLU796  ALA797  LYS798  CYS799  TRP800  GLU811  SER814 

> <Gold.Protein.RotatedAtoms>
  150.8164  134.7347  159.6733 H   0  0  0  0  0  0  0  0  0  0  0  0  # atno 6907 bound_to 6896
  152.4282  134.5825  159.9961 H   0  0  0  0  0  0  0  0  0  0  0  0  # atno 6908 bound_to 6896
  151.6021  133.3318  159.3085 H   0  0  0  0  0  0  0  0  0  0  0  0  # atno 6909 bound_to 6896
  144.8393  139.6358  143.6023 H   0  0  0  0  0  0  0  0  0  0  0  0  # atno 7974 bound_to 7965
  156.2525  140.1963  156.6663 H   0  0  0  0  0  0  0  0  0  0  0  0  # atno 8008 bound_to 7997
  154.6426  140.0581  156.9889 H   0  0  0  0  0  0  0  0  0  0  0  0  # atno 8009 bound_to 7997
  155.1539  140.3254  155.4428 H   0  0  0  0  0  0  0  0  0  0  0  0  # atno 8010 bound_to 7997
  140.0679  144.5177  150.7248 H   0  0  0  0  0  0  0  0  0  0  0  0  # atno 10167 bound_to 10162
  156.1994  130.4155  149.9261 H   0  0  0  0  0  0  0  0  0  0  0  0  # atno 10718 bound_to 10713
  153.4481  135.7014  153.6126 H   0  0  0  0  0  0  0  0  0  0  0  0  # atno 10763 bound_to 10752
  153.4472  135.3766  155.2263 H   0  0  0  0  0  0  0  0  0  0  0  0  # atno 10764 bound_to 10752
  154.8728  135.3988  154.3889 H   0  0  0  0  0  0  0  0  0  0  0  0  # atno 10765 bound_to 10752
  140.8068  133.8171  155.9524 H   0  0  0  0  0  0  0  0  0  0  0  0  # atno 11005 bound_to 11000
  146.2688  139.6584  142.9311 LP  0  0  0  0  0  0  0  0  0  0  0  0  # atno 17320 bound_to 7965
  145.4728  141.0436  143.2689 LP  0  0  0  0  0  0  0  0  0  0  0  0  # atno 17321 bound_to 7965
  140.7140  143.2528  151.4493 LP  0  0  0  0  0  0  0  0  0  0  0  0  # atno 17342 bound_to 10162
  139.5854  144.1617  152.2021 LP  0  0  0  0  0  0  0  0  0  0  0  0  # atno 17343 bound_to 10162
  156.6975  130.8920  151.3595 LP  0  0  0  0  0  0  0  0  0  0  0  0  # atno 17370 bound_to 10713
  157.6977  130.9299  150.0692 LP  0  0  0  0  0  0  0  0  0  0  0  0  # atno 17371 bound_to 10713
  140.9238  134.2108  157.4909 LP  0  0  0  0  0  0  0  0  0  0  0  0  # atno 17394 bound_to 11000
  139.8717  134.9804  156.5073 LP  0  0  0  0  0  0  0  0  0  0  0  0  # atno 17395 bound_to 11000

$$$$
