AV-unprocessed.smi:1306|AV-procd|sdf|5434|dock2
  -GOLD-   22720 4593D 1   1.00000     0.00000
 Structure written by MMmdl.
 39 40  0  0  0  0  0  0  0  0  1 V2000
  150.0296  140.4590  154.2031 O   0  0  0  0  0  0  0  0  0  0  0  0
  149.3379  141.3532  154.6929 C   0  0  0  0  0  0  0  0  0  0  0  0
  147.9112  141.6141  154.1880 C   0  0  0  0  0  0  0  0  0  0  0  0
  147.0258  140.4482  154.3242 N   0  0  0  0  0  0  0  0  0  0  0  0
  147.3061  139.2731  153.6413 C   0  0  0  0  0  0  0  0  0  0  0  0
  146.5398  138.1601  153.7265 C   0  0  0  0  0  0  0  0  0  0  0  0
  145.3477  138.1468  154.5674 C   0  0  0  0  0  0  0  0  0  0  0  0
  144.5899  137.1896  154.7082 O   0  0  0  0  0  0  0  0  0  0  0  0
  145.1008  139.3464  155.2404 N   0  0  0  0  0  0  0  0  0  0  0  0
  145.8877  140.4965  155.1589 C   0  0  0  0  0  0  0  0  0  0  0  0
  145.5825  141.5017  155.7996 O   0  0  0  0  0  0  0  0  0  0  0  0
  149.7701  142.1603  155.6732 N   0  0  0  0  0  0  0  0  0  0  0  0
  151.0780  142.0785  156.3149 C   0  0  0  0  0  0  0  0  0  0  0  0
  151.0012  141.4094  157.6969 C   0  0  0  0  0  0  0  0  0  0  0  0
  152.6297  141.3001  158.4933 S   0  0  0  0  0  0  0  0  0  0  0  0
  152.2776  142.1259  160.0716 C   0  0  0  0  0  0  0  0  0  0  0  0
  151.9547  143.6113  159.8939 C   0  0  0  0  0  0  0  0  0  0  0  0
  152.3061  144.2748  161.2327 C   0  0  0  0  0  0  0  0  0  0  0  0
  153.1641  143.2643  162.0091 C   0  0  0  0  0  0  0  0  0  0  0  0
  153.4691  142.1289  161.0296 C   0  0  0  0  0  0  0  0  0  0  0  0
  144.2869  139.3834  155.8366 H   0  0  0  0  0  0  0  0  0  0  0  0
  147.4869  142.4708  154.7158 H   0  0  0  0  0  0  0  0  0  0  0  0
  147.9719  141.9220  153.1431 H   0  0  0  0  0  0  0  0  0  0  0  0
  148.1820  139.2358  153.0092 H   0  0  0  0  0  0  0  0  0  0  0  0
  146.8109  137.2746  153.1702 H   0  0  0  0  0  0  0  0  0  0  0  0
  149.1390  142.8702  156.0158 H   0  0  0  0  0  0  0  0  0  0  0  0
  151.7709  141.5329  155.6724 H   0  0  0  0  0  0  0  0  0  0  0  0
  151.4791  143.0875  156.4115 H   0  0  0  0  0  0  0  0  0  0  0  0
  150.3184  141.9544  158.3495 H   0  0  0  0  0  0  0  0  0  0  0  0
  150.5992  140.4019  157.5908 H   0  0  0  0  0  0  0  0  0  0  0  0
  151.4289  141.6338  160.5489 H   0  0  0  0  0  0  0  0  0  0  0  0
  152.5822  144.0366  159.1091 H   0  0  0  0  0  0  0  0  0  0  0  0
  150.9160  143.7771  159.6069 H   0  0  0  0  0  0  0  0  0  0  0  0
  152.8437  145.2093  161.0686 H   0  0  0  0  0  0  0  0  0  0  0  0
  151.4039  144.5140  161.7966 H   0  0  0  0  0  0  0  0  0  0  0  0
  154.0741  143.7133  162.4085 H   0  0  0  0  0  0  0  0  0  0  0  0
  152.5933  142.8756  162.8535 H   0  0  0  0  0  0  0  0  0  0  0  0
  153.6079  141.1728  161.5348 H   0  0  0  0  0  0  0  0  0  0  0  0
  154.3867  142.3540  160.4841 H   0  0  0  0  0  0  0  0  0  0  0  0
  1  2  2  0  0  0  0
  2  3  1  0  0  0  0
  2 12  1  0  0  0  0
  3  4  1  0  0  0  0
  3 22  1  0  0  0  0
  3 23  1  0  0  0  0
  4 10  1  0  0  0  0
  4  5  1  0  0  0  0
  5  6  2  0  0  0  0
  5 24  1  0  0  0  0
  6  7  1  0  0  0  0
  6 25  1  0  0  0  0
  7  8  2  0  0  0  0
  7  9  1  0  0  0  0
  9 21  1  0  0  0  0
  9 10  1  0  0  0  0
 10 11  2  0  0  0  0
 12 13  1  0  0  0  0
 12 26  1  0  0  0  0
 13 14  1  0  0  0  0
 13 27  1  0  0  0  0
 13 28  1  0  0  0  0
 14 15  1  0  0  0  0
 14 29  1  0  0  0  0
 14 30  1  0  0  0  0
 15 16  1  0  0  0  0
 16 20  1  0  0  0  0
 16 17  1  0  0  0  0
 16 31  1  0  0  0  0
 17 18  1  0  0  0  0
 17 32  1  0  0  0  0
 17 33  1  0  0  0  0
 18 19  1  0  0  0  0
 18 34  1  0  0  0  0
 18 35  1  0  0  0  0
 19 20  1  0  0  0  0
 19 36  1  0  0  0  0
 19 37  1  0  0  0  0
 20 38  1  0  0  0  0
 20 39  1  0  0  0  0
M  END
> <s_m_source_file>
AV-unprocessed.smi

> <i_m_source_file_index>
1306

> <i_lp_mmshare_version>
43012

> <i_f3d_flags>
0

> <s_epik_input>
Tz1jMVtuSF1jKD1PKVtjSF1bY0hdbjFbQ0gyXUMoPU8pW05IXVtDSDJdW0NIMl1TW0NIXTJbQ0gyXVtDSDJdW0NIMl1bQ0gyXTI=

> <s_epik_cmdline>
J2VwaWtfcHl0aG9uJywgJy1waCcsICc3LjAnLCAnLXRuJywgJzgnLCAnLW1hJywgJzIwMCcsICctbWV0YWxfYmluZGluZycsICctaW1hZScsICc8aW5maWxlLm1hZT4nLCAnLW9tYWUnLCAnPG91dGZpbGUubWFlPic=

> <r_lp_tautomer_probability>
0.999537

> <r_epik_Ionization_Penalty>
0.00337646

> <r_epik_Ionization_Penalty_Charging>
0.00337644

> <r_epik_Ionization_Penalty_Neutral>
2.37506e-08

> <r_epik_State_Penalty>
0.00238979

> <r_epik_Charging_Adjusted_Penalty>
0.00576623

> <i_epik_Tot_Q>
0

> <i_epik_Tot_abs_Q>
0

> <r_epik_Metal_State_Penalty>
0.366399

> <b_epik_Metal_Only>
0

> <s_lp_Force_Field>
OPLS_2005

> <r_lp_Energy>
19.0409

> <b_lp_Chiralities_Consistent>
1

> <s_lp_Variant>
AV-unprocessed.smi:1306-1

> <Gold.Version>
5.8.1

> <Gold.Id.Protein>
6NUR|6NUR_protein|mol2

> <Gold.PLP.Fitness>
46.5017

> <Gold.PLP.PLP>
-39.5320

> <Gold.PLP.part.hbond>
-2.9236

> <Gold.PLP.part.metal>
0.0000

> <Gold.PLP.part.buried>
-5.4112

> <Gold.PLP.part.nonpolar>
-31.0644

> <Gold.PLP.part.repulsive>
0.6208

> <Gold.PLP.ligand.clash>
0.0000

> <Gold.PLP.ligand.torsion>
0.5083

> <Gold.PLP.Chemscore.Hbond>
1.6000

> <Gold.PLP.Chemscore.CHOScore>
1.0000

> <Gold.PLP.Chemscore.Metal>
0.0000

> <Gold.Chemscore.Hbonds>
donor molecule, donor type, donor heavy atom, donor atom, acceptor molecule, acceptor atom, score
      L1  H    12    26       P1  8028  0.70
      P1  H  7989  7998       L1     1  0.82
      L1  C     5    24       P1  7957  1.00

> <Gold.PLP.Chemscore.Internal.Correction>
0.1864

> <Gold.Rescore>
     Score         DG    S(hbond)    S(metal)    S(lipo)     H(rot)  DE(clash)    DE(int)     intcor
     14.92     -15.48       1.51        0.00      95.92       2.45       0.03       0.53       ----

> <Gold.Chemscore.Fitness>
14.9154

> <Gold.Chemscore.DG>
-15.4758

> <Gold.Chemscore.ZeroCoef>
-5.4800

> <Gold.Chemscore.Hbond>
1.5082

> <Gold.Chemscore.Metal>
0.0000

> <Gold.Chemscore.Lipo>
95.9189

> <Gold.Chemscore.Internal_Hbond>
0.0000

> <Gold.Chemscore.DEClash>
0.0341

> <Gold.Chemscore.DEInternal>
0.5263

> <Gold.Chemscore.Rot>
2.4469

> <Gold.Chemscore.Internal.Correction>
   9.000000E+99

> <Gold.Chemscore.Hbonds>
donor molecule, donor type, donor heavy atom, donor atom, acceptor molecule, acceptor atom, score
      L1  H    12    26       P1  8028  0.70
      P1  H  7989  7998       L1     1  0.79

> <Gold.Chemscore.Hbond.Weighted>
-5.0372

> <Gold.Chemscore.Metal.Weighted>
-0.0000

> <Gold.Chemscore.Lipo.Weighted>
-11.2225

> <Gold.Chemscore.Internal_Hbond.Weighted>
0.0000

> <Gold.Chemscore.DEClash.Weighted>
0.0341

> <Gold.Chemscore.DEInternal.Weighted>
0.5263

> <Gold.Chemscore.Rot.Weighted>
6.2640

> <Gold.Chemscore.Internal.Correction.Weighted>
   9.000000E+99

> <Gold.Protein.RotatedTorsions>
[ 6907 6896 6895 6894 ] final  -44.55 input  -60.11 | X-H torsion
[ 7974 7965 7964 7962 ] final   -1.77 input  175.53 | X-H torsion
[ 8008 7997 7996 7995 ] final  159.30 input   59.86 | X-H torsion
[ 10167 10162 10161 10158 ] final   41.90 input  -65.29 | X-H torsion
[ 10718 10713 10712 10709 ] final  -37.15 input   66.30 | X-H torsion
[ 10763 10752 10751 10750 ] final  142.09 input  -60.55 | X-H torsion
[ 11005 11000 10999 10996 ] final   41.00 input  -57.11 | X-H torsion

> <Gold.Protein.ActiveResidues>
 VAL166  LYS551  ARG553  GLY616  TRP617  ASP618  TYR619  PRO620  LYS621  CYS622 
 ASP623  PHE694  ASN695  SER759  ASP760  ASP761  ALA762  ILE779  LEU786  VAL792 
 PHE793  MET794  SER795  GLU796  ALA797  LYS798  CYS799  TRP800  GLU811  SER814 

> <Gold.Protein.RotatedAtoms>
  150.9317  134.8731  159.7554 H   0  0  0  0  0  0  0  0  0  0  0  0  # atno 6907 bound_to 6896
  152.5040  134.4070  159.9446 H   0  0  0  0  0  0  0  0  0  0  0  0  # atno 6908 bound_to 6896
  151.4097  133.3691  159.2777 H   0  0  0  0  0  0  0  0  0  0  0  0  # atno 6909 bound_to 6896
  146.2413  140.1471  142.8334 H   0  0  0  0  0  0  0  0  0  0  0  0  # atno 7974 bound_to 7965
  156.2247  140.1835  156.7391 H   0  0  0  0  0  0  0  0  0  0  0  0  # atno 8008 bound_to 7997
  154.5922  140.0649  156.9282 H   0  0  0  0  0  0  0  0  0  0  0  0  # atno 8009 bound_to 7997
  155.2317  140.3315  155.4305 H   0  0  0  0  0  0  0  0  0  0  0  0  # atno 8010 bound_to 7997
  140.3598  144.2244  150.6139 H   0  0  0  0  0  0  0  0  0  0  0  0  # atno 10167 bound_to 10162
  156.3185  130.4262  149.7982 H   0  0  0  0  0  0  0  0  0  0  0  0  # atno 10718 bound_to 10713
  153.9500  135.2971  155.3439 H   0  0  0  0  0  0  0  0  0  0  0  0  # atno 10763 bound_to 10752
  154.7431  135.5015  153.9160 H   0  0  0  0  0  0  0  0  0  0  0  0  # atno 10764 bound_to 10752
  153.0999  135.6731  153.9801 H   0  0  0  0  0  0  0  0  0  0  0  0  # atno 10765 bound_to 10752
  140.1876  134.4026  155.8164 H   0  0  0  0  0  0  0  0  0  0  0  0  # atno 11005 bound_to 11000
  145.0199  140.8784  143.5173 LP  0  0  0  0  0  0  0  0  0  0  0  0  # atno 17320 bound_to 7965
  145.1517  139.2510  143.5437 LP  0  0  0  0  0  0  0  0  0  0  0  0  # atno 17321 bound_to 7965
  140.5138  143.2283  151.8494 LP  0  0  0  0  0  0  0  0  0  0  0  0  # atno 17342 bound_to 10162
  139.4815  144.4918  151.9175 LP  0  0  0  0  0  0  0  0  0  0  0  0  # atno 17343 bound_to 10162
  156.5299  130.8253  151.3233 LP  0  0  0  0  0  0  0  0  0  0  0  0  # atno 17370 bound_to 10713
  157.7407  130.9855  150.2393 LP  0  0  0  0  0  0  0  0  0  0  0  0  # atno 17371 bound_to 10713
  141.2225  133.7030  156.8039 LP  0  0  0  0  0  0  0  0  0  0  0  0  # atno 17394 bound_to 11000
  140.2196  134.8767  157.3363 LP  0  0  0  0  0  0  0  0  0  0  0  0  # atno 17395 bound_to 11000

$$$$
