AV-unprocessed.smi:1165|AV-procd|sdf|4931|dock10
  -GOLD-   22720 3513D 1   1.00000     0.00000
 Structure written by MMmdl.
 40 41  0  0  0  0  0  0  0  0  2 V2000
  149.7644  134.6915  154.6302 C   0  0  0  0  0  0  0  0  0  0  0  0
  149.9123  135.8798  155.5872 C   0  0  2  0  0  0  0  0  0  0  0  0
  151.0380  136.8335  155.1488 C   0  0  0  0  0  0  0  0  0  0  0  0
  151.2553  137.8847  156.1534 N   0  0  0  0  0  0  0  0  0  0  0  0
  152.1942  139.2726  155.6749 S   0  0  0  0  0  0  0  0  0  0  0  0
  153.3705  138.7219  154.9843 O   0  0  0  0  0  0  0  0  0  0  0  0
  151.2979  140.1435  154.8949 O   0  0  0  0  0  0  0  0  0  0  0  0
  152.5571  139.8557  157.1522 N   0  5  0  0  0  0  0  0  0  0  0  0
  151.5987  140.6501  157.9141 C   0  0  0  0  0  0  0  0  0  0  0  0
  151.6687  142.1318  157.4864 C   0  0  0  0  0  0  0  0  0  0  0  0
  151.7258  143.1252  158.6426 C   0  0  0  0  0  0  0  0  0  0  0  0
  152.1840  142.7303  159.9186 C   0  0  0  0  0  0  0  0  0  0  0  0
  152.2108  143.6809  160.9568 C   0  0  0  0  0  0  0  0  0  0  0  0
  151.7741  144.9908  160.6775 C   0  0  0  0  0  0  0  0  0  0  0  0
  151.3255  145.3814  159.4653 N   0  0  0  0  0  0  0  0  0  0  0  0
  151.3051  144.4636  158.4745 C   0  0  0  0  0  0  0  0  0  0  0  0
  151.4630  137.3419  157.5088 C   0  0  0  0  0  0  0  0  0  0  0  0
  150.3440  136.3579  157.8955 C   0  0  1  0  0  0  0  0  0  0  0  0
  149.0180  137.0566  158.2473 C   0  0  0  0  0  0  0  0  0  0  0  0
  150.1825  135.3641  156.8860 O   0  0  0  0  0  0  0  0  0  0  0  0
  149.5460  135.0285  153.6166 H   0  0  0  0  0  0  0  0  0  0  0  0
  148.9514  134.0367  154.9445 H   0  0  0  0  0  0  0  0  0  0  0  0
  150.6772  134.0962  154.5959 H   0  0  0  0  0  0  0  0  0  0  0  0
  148.9651  136.4193  155.5969 H   0  0  0  0  0  0  0  0  0  0  0  0
  151.9715  136.2887  155.0030 H   0  0  0  0  0  0  0  0  0  0  0  0
  150.7765  137.2834  154.1915 H   0  0  0  0  0  0  0  0  0  0  0  0
  150.5760  140.2937  157.7871 H   0  0  0  0  0  0  0  0  0  0  0  0
  151.8036  140.5873  158.9831 H   0  0  0  0  0  0  0  0  0  0  0  0
  152.5559  142.2808  156.8703 H   0  0  0  0  0  0  0  0  0  0  0  0
  150.8200  142.3761  156.8459 H   0  0  0  0  0  0  0  0  0  0  0  0
  152.5141  141.7172  160.0968 H   0  0  0  0  0  0  0  0  0  0  0  0
  152.5606  143.4121  161.9424 H   0  0  0  0  0  0  0  0  0  0  0  0
  151.7825  145.7452  161.4501 H   0  0  0  0  0  0  0  0  0  0  0  0
  150.9421  144.8083  157.5175 H   0  0  0  0  0  0  0  0  0  0  0  0
  152.4273  136.8330  157.5318 H   0  0  0  0  0  0  0  0  0  0  0  0
  151.5207  138.1457  158.2422 H   0  0  0  0  0  0  0  0  0  0  0  0
  150.6663  135.8267  158.7912 H   0  0  0  0  0  0  0  0  0  0  0  0
  149.1426  137.7030  159.1163 H   0  0  0  0  0  0  0  0  0  0  0  0
  148.2436  136.3276  158.4860 H   0  0  0  0  0  0  0  0  0  0  0  0
  148.6526  137.6827  157.4336 H   0  0  0  0  0  0  0  0  0  0  0  0
  1  2  1  0  0  0  0
  1 21  1  0  0  0  0
  1 22  1  0  0  0  0
  1 23  1  0  0  0  0
  2 20  1  0  0  0  0
  2  3  1  0  0  0  0
  2 24  1  0  0  0  0
  3  4  1  0  0  0  0
  3 25  1  0  0  0  0
  3 26  1  0  0  0  0
  4  5  1  0  0  0  0
  4 17  1  0  0  0  0
  5  6  2  0  0  0  0
  5  7  2  0  0  0  0
  5  8  1  0  0  0  0
  8  9  1  0  0  0  0
  9 10  1  0  0  0  0
  9 27  1  0  0  0  0
  9 28  1  0  0  0  0
 10 11  1  0  0  0  0
 10 29  1  0  0  0  0
 10 30  1  0  0  0  0
 11 16  1  0  0  0  0
 11 12  2  0  0  0  0
 12 13  1  0  0  0  0
 12 31  1  0  0  0  0
 13 14  2  0  0  0  0
 13 32  1  0  0  0  0
 14 15  1  0  0  0  0
 14 33  1  0  0  0  0
 15 16  2  0  0  0  0
 16 34  1  0  0  0  0
 17 18  1  0  0  0  0
 17 35  1  0  0  0  0
 17 36  1  0  0  0  0
 18 19  1  0  0  0  0
 18 20  1  0  0  0  0
 18 37  1  0  0  0  0
 19 38  1  0  0  0  0
 19 39  1  0  0  0  0
 19 40  1  0  0  0  0
M  CHG  1   8  -1
M  END
> <s_m_source_file>
AV-unprocessed.smi

> <i_m_source_file_index>
1165

> <i_lp_mmshare_version>
43012

> <i_f3d_flags>
0

> <s_epik_input>
W0NIM11bQ0BASF0xW0NIMl1OKFtDSDJdW0NASF0oTzEpW0NIM10pUyg9TykoPU8pW05IXVtDSDJdW0NIMl1jMltjSF1bY0hdW2NIXW5bY0hdMg==

> <s_epik_cmdline>
J2VwaWtfcHl0aG9uJywgJy1waCcsICc3LjAnLCAnLXRuJywgJzgnLCAnLW1hJywgJzIwMCcsICctbWV0YWxfYmluZGluZycsICctaW1hZScsICc8aW5maWxlLm1hZT4nLCAnLW9tYWUnLCAnPG91dGZpbGUubWFlPic=

> <r_epik_Ionization_Penalty>
1.23471

> <r_epik_Ionization_Penalty_Charging>
1.20871

> <r_epik_Ionization_Penalty_Neutral>
0.025996

> <r_epik_State_Penalty>
1.46261

> <r_epik_Charging_Adjusted_Penalty>
2.67132

> <i_epik_Tot_Q>
-1

> <i_epik_Tot_abs_Q>
1

> <r_epik_Metal_State_Penalty>
0.521406

> <b_epik_Metal_Only>
0

> <s_lp_Force_Field>
OPLS_2005

> <r_lp_Energy>
7.90597

> <b_lp_Chiralities_Consistent>
1

> <s_lp_Variant>
AV-unprocessed.smi:1165-4

> <Gold.Version>
5.8.1

> <Gold.Id.Protein>
6NUR|6NUR_protein|mol2

> <Gold.PLP.Fitness>
45.7836

> <Gold.PLP.PLP>
-36.5150

> <Gold.PLP.part.hbond>
-3.8814

> <Gold.PLP.part.metal>
0.0000

> <Gold.PLP.part.buried>
-6.5077

> <Gold.PLP.part.nonpolar>
-26.8240

> <Gold.PLP.part.repulsive>
0.2175

> <Gold.PLP.ligand.clash>
0.0000

> <Gold.PLP.ligand.torsion>
2.1345

> <Gold.PLP.Chemscore.Hbond>
2.9840

> <Gold.PLP.Chemscore.CHOScore>
1.0000

> <Gold.PLP.Chemscore.Metal>
0.0000

> <Gold.Chemscore.Hbonds>
donor molecule, donor type, donor heavy atom, donor atom, acceptor molecule, acceptor atom, score
      P1  H  7989  7998       L1     7  1.00
      P1  H  7997  8009       L1     8  1.70
      L1  C    16    34       P1  8028  0.50

> <Gold.PLP.Chemscore.Internal.Correction>
1.5856

> <Gold.Rescore>
     Score         DG    S(hbond)    S(metal)    S(lipo)     H(rot)  DE(clash)    DE(int)     intcor
     16.06     -18.54       1.76        0.00      93.61       1.47       0.28       2.20       ----

> <Gold.Chemscore.Fitness>
16.0605

> <Gold.Chemscore.DG>
-18.5397

> <Gold.Chemscore.ZeroCoef>
-5.4800

> <Gold.Chemscore.Hbond>
1.7600

> <Gold.Chemscore.Metal>
0.0000

> <Gold.Chemscore.Lipo>
93.6100

> <Gold.Chemscore.Internal_Hbond>
0.0000

> <Gold.Chemscore.DEClash>
0.2753

> <Gold.Chemscore.DEInternal>
2.2040

> <Gold.Chemscore.Rot>
1.4731

> <Gold.Chemscore.Internal.Correction>
   9.000000E+99

> <Gold.Chemscore.Hbonds>
donor molecule, donor type, donor heavy atom, donor atom, acceptor molecule, acceptor atom, score
      P1  H  7989  7998       L1     7  0.98
      P1  H  7997  8009       L1     8  0.14

> <Gold.Chemscore.Hbond.Weighted>
-5.8785

> <Gold.Chemscore.Metal.Weighted>
-0.0000

> <Gold.Chemscore.Lipo.Weighted>
-10.9524

> <Gold.Chemscore.Internal_Hbond.Weighted>
0.0000

> <Gold.Chemscore.DEClash.Weighted>
0.2753

> <Gold.Chemscore.DEInternal.Weighted>
2.2040

> <Gold.Chemscore.Rot.Weighted>
3.7712

> <Gold.Chemscore.Internal.Correction.Weighted>
   9.000000E+99

> <Gold.Protein.RotatedTorsions>
[ 6907 6896 6895 6894 ] final -168.09 input  -60.11 | X-H torsion
[ 7974 7965 7964 7962 ] final   86.41 input  175.53 | X-H torsion
[ 8008 7997 7996 7995 ] final  165.10 input   59.86 | X-H torsion
[ 10167 10162 10161 10158 ] final  -12.34 input  -65.29 | X-H torsion
[ 10718 10713 10712 10709 ] final  -83.58 input   66.30 | X-H torsion
[ 10763 10752 10751 10750 ] final   69.05 input  -60.55 | X-H torsion
[ 11005 11000 10999 10996 ] final  172.62 input  -57.11 | X-H torsion

> <Gold.Protein.ActiveResidues>
 VAL166  LYS551  ARG553  GLY616  TRP617  ASP618  TYR619  PRO620  LYS621  CYS622 
 ASP623  PHE694  ASN695  SER759  ASP760  ASP761  ALA762  ILE779  LEU786  VAL792 
 PHE793  MET794  SER795  GLU796  ALA797  LYS798  CYS799  TRP800  GLU811  SER814 

> <Gold.Protein.RotatedAtoms>
  151.4700  133.3571  159.2821 H   0  0  0  0  0  0  0  0  0  0  0  0  # atno 6907 bound_to 6896
  150.8967  134.8378  159.7342 H   0  0  0  0  0  0  0  0  0  0  0  0  # atno 6908 bound_to 6896
  152.4855  134.4616  159.9659 H   0  0  0  0  0  0  0  0  0  0  0  0  # atno 6909 bound_to 6896
  145.5726  139.2315  143.2397 H   0  0  0  0  0  0  0  0  0  0  0  0  # atno 7974 bound_to 7965
  156.1828  140.1679  156.8243 H   0  0  0  0  0  0  0  0  0  0  0  0  # atno 8008 bound_to 7997
  154.5379  140.0743  156.8492 H   0  0  0  0  0  0  0  0  0  0  0  0  # atno 8009 bound_to 7997
  155.3274  140.3377  155.4242 H   0  0  0  0  0  0  0  0  0  0  0  0  # atno 8010 bound_to 7997
  140.7159  143.5542  150.9267 H   0  0  0  0  0  0  0  0  0  0  0  0  # atno 10167 bound_to 10162
  156.0016  130.4670  150.4279 H   0  0  0  0  0  0  0  0  0  0  0  0  # atno 10718 bound_to 10713
  153.0267  135.5225  154.7229 H   0  0  0  0  0  0  0  0  0  0  0  0  # atno 10763 bound_to 10752
  154.6279  135.2896  155.0253 H   0  0  0  0  0  0  0  0  0  0  0  0  # atno 10764 bound_to 10752
  154.1216  135.6607  153.4956 H   0  0  0  0  0  0  0  0  0  0  0  0  # atno 10765 bound_to 10752
  140.3317  134.7352  157.4139 H   0  0  0  0  0  0  0  0  0  0  0  0  # atno 11005 bound_to 11000
  146.1773  140.6552  142.9205 LP  0  0  0  0  0  0  0  0  0  0  0  0  # atno 17320 bound_to 7965
  144.7431  140.4995  143.6855 LP  0  0  0  0  0  0  0  0  0  0  0  0  # atno 17321 bound_to 7965
  139.9267  143.6541  152.3085 LP  0  0  0  0  0  0  0  0  0  0  0  0  # atno 17342 bound_to 10162
  139.6978  144.7639  151.1326 LP  0  0  0  0  0  0  0  0  0  0  0  0  # atno 17343 bound_to 10162
  157.2330  131.0508  151.2481 LP  0  0  0  0  0  0  0  0  0  0  0  0  # atno 17370 bound_to 10713
  157.3693  130.7172  149.6554 LP  0  0  0  0  0  0  0  0  0  0  0  0  # atno 17371 bound_to 10713
  140.0855  134.5672  155.8497 LP  0  0  0  0  0  0  0  0  0  0  0  0  # atno 17394 bound_to 11000
  141.2061  133.6653  156.6225 LP  0  0  0  0  0  0  0  0  0  0  0  0  # atno 17395 bound_to 11000

$$$$
