#       Name:                AV-unprocessed.smi:461
#       Creating user name   scv26
#       Creation time:       Thu Mar 26 23:03:52 2020


#       File generated by GOLD software.
#

@<TRIPOS>MOLECULE
AV-unprocessed.smi:461
    40    41     1
SMALL
NO_CHARGES


@<TRIPOS>ATOM
      1 ****        -3.2675   1.5567   0.5466 C.3            1 S1                 0.0000
      2 ****        -2.5728   0.2747   0.6735 N.am           1 S1                 0.0000
      3 ****        -1.2001   0.3982   0.8141 N.2            1 S1                 0.0000
      4 ****        -0.5159  -0.7026   0.9273 C.2            1 S1                 0.0000
      5 ****         0.8629  -0.7912   1.0684 N.pl3          1 S1                 0.0000
      6 ****         1.7725   0.3444   1.1127 C.3            1 S1                 0.0000
      7 ****         1.9906   0.9710  -0.2744 C.3            1 S1                 0.0000
      8 ****         2.8405   2.2366  -0.2500 C.3            1 S1                 0.0000
      9 ****         3.3069   2.3284  -1.6885 C.3            1 S1                 0.0000
     10 ****         3.3796   0.8640  -2.1301 C.3            1 S1                 0.0000
     11 ****         2.7554   0.1035  -1.0993 O.3            1 S1                 0.0000
     12 ****        -1.2056  -2.0576   0.9103 C.2            1 S1                 0.0000
     13 ****        -0.5462  -3.0962   1.0149 O.2            1 S1                 0.0000
     14 ****        -2.5603  -2.0360   0.7724 N.am           1 S1                 0.0000
     15 ****        -3.2480  -3.3399   0.7506 C.3            1 S1                 0.0000
     16 ****        -3.2883  -0.8881   0.6429 C.2            1 S1                 0.0000
     17 ****        -4.5141  -0.8857   0.5047 O.2            1 S1                 0.0000
     18 ****        -3.9820   1.6893   1.3603 H              1 S1                 0.0000
     19 ****        -3.8109   1.6087  -0.3979 H              1 S1                 0.0000
     20 ****        -2.5794   2.4034   0.5738 H              1 S1                 0.0000
     21 ****         2.7235   0.0136   1.5311 H              1 S1                 0.0000
     22 ****         1.3760   1.0917   1.8018 H              1 S1                 0.0000
     23 ****         1.0393   1.1849  -0.7651 H              1 S1                 0.0000
     24 ****         2.2852   3.1166   0.0756 H              1 S1                 0.0000
     25 ****         3.6976   2.1080   0.4123 H              1 S1                 0.0000
     26 ****         2.5661   2.8602  -2.2871 H              1 S1                 0.0000
     27 ****         4.2594   2.8494  -1.7892 H              1 S1                 0.0000
     28 ****         2.8610   0.7141  -3.0776 H              1 S1                 0.0000
     29 ****         4.4103   0.5301  -2.2516 H              1 S1                 0.0000
     30 ****        -4.3368  -3.2808   0.7651 H              1 S1                 0.0000
     31 ****        -2.9664  -3.9409   1.6170 H              1 S1                 0.0000
     32 ****        -2.9708  -3.8957  -0.1464 H              1 S1                 0.0000
     33 ****         1.3225  -1.6907   1.0742 H              1 S1                 0.0000
     34 ****        -0.7550   1.2936   0.8280 LP             1 S1                 0.0000
     35 ****         2.1553  -0.5841  -1.5080 LP             1 S1                 0.0000
     36 ****         3.4556  -0.3504  -0.5482 LP             1 S1                 0.0000
     37 ****         0.4480  -3.0496   1.1116 LP             1 S1                 0.0000
     38 ****        -1.0064  -3.9839   1.0030 LP             1 S1                 0.0000
     39 ****        -5.0051  -0.0195   0.4122 LP             1 S1                 0.0000
     40 ****        -5.0168  -1.7499   0.4853 LP             1 S1                 0.0000
@<TRIPOS>BOND
    1    1   18 1     
    2    1   19 1     
    3    1   20 1     
    4    1    2 1     
    5    2   16 am    
    6    2    3 1     
    7    3    4 2     
    8    4   12 1     
    9    4    5 1     
   10    5    6 1     
   11    5   33 1     
   12    6    7 1     
   13    6   21 1     
   14    6   22 1     
   15    7   11 1     
   16    7    8 1     
   17    7   23 1     
   18    8    9 1     
   19    8   24 1     
   20    8   25 1     
   21    9   10 1     
   22    9   26 1     
   23    9   27 1     
   24   10   11 1     
   25   10   28 1     
   26   10   29 1     
   27   12   13 2     
   28   12   14 am    
   29   14   15 1     
   30   14   16 am    
   31   15   30 1     
   32   15   31 1     
   33   15   32 1     
   34   16   17 2     
   35    3   34 1     
   36   11   35 1     
   37   11   36 1     
   38   13   37 1     
   39   13   38 1     
   40   17   39 1     
   41   17   40 1     
@<TRIPOS>SUBSTRUCTURE
      1 S1             1
@<TRIPOS>SET
LONE_PAIRS      STATIC     ATOMS    <user>   **** ""
7 34 35 36 37 38 39 40
DONOR_HYDROGENS      STATIC     ATOMS    <user>   **** ""
1 33
ATOM$BLUE        STATIC     ATOMS    COLORGROUP SYSTEM
7 34 35 36 37 38 39 40
ATOM$RED        STATIC     ATOMS    COLORGROUP SYSTEM
1 33
