AV-unprocessed.smi:2787|AV-procd|sdf|10756|dock2
  -GOLD-   2272015183D 1   1.00000     0.00000
 Structure written by MMmdl.
 35 36  0  0  0  0  0  0  0  0  1 V2000
  148.9598  141.1514  153.0763 O   0  0  0  0  0  0  0  0  0  0  0  0
  148.4881  141.4378  154.3764 C   0  0  0  0  0  0  0  0  0  0  0  0
  149.6624  141.7219  155.3236 C   0  0  0  0  0  0  0  0  0  0  0  0
  149.2465  141.7715  156.8038 C   0  0  0  0  0  0  0  0  0  0  0  0
  150.4123  141.6279  157.7375 C   0  0  0  0  0  0  0  0  0  0  0  0
  150.8091  142.6422  158.5070 N   0  0  0  0  0  0  0  0  0  0  0  0
  151.8706  142.1017  159.2044 C   0  0  0  0  0  0  0  0  0  0  0  0
  152.7134  142.6761  160.1825 C   0  0  0  0  0  0  0  0  0  0  0  0
  153.7482  141.9175  160.7674 C   0  0  0  0  0  0  0  0  0  0  0  0
  153.9539  140.5765  160.3842 C   0  0  0  0  0  0  0  0  0  0  0  0
  153.1255  139.9854  159.4108 C   0  0  0  0  0  0  0  0  0  0  0  0
  152.0943  140.7472  158.8283 C   0  0  0  0  0  0  0  0  0  0  0  0
  151.1250  140.4777  157.8653 N   0  0  0  0  0  0  0  0  0  0  0  0
  150.9523  139.2130  157.1589 C   0  0  0  0  0  0  0  0  0  0  0  0
  152.0052  138.9892  156.0543 C   0  0  2  0  0  0  0  0  0  0  0  0
  152.3910  140.2368  155.5083 O   0  0  0  0  0  0  0  0  0  0  0  0
  151.5015  138.0709  154.9243 C   0  0  0  0  0  0  0  0  0  0  0  0
  150.5042  138.6597  154.2638 F   0  0  0  0  0  0  0  0  0  0  0  0
  152.4921  137.8484  154.0604 F   0  0  0  0  0  0  0  0  0  0  0  0
  151.0870  136.8992  155.4080 F   0  0  0  0  0  0  0  0  0  0  0  0
  148.2155  141.0339  152.5058 H   0  0  0  0  0  0  0  0  0  0  0  0
  147.8043  142.2863  154.3388 H   0  0  0  0  0  0  0  0  0  0  0  0
  147.9186  140.5795  154.7335 H   0  0  0  0  0  0  0  0  0  0  0  0
  150.4130  140.9415  155.1941 H   0  0  0  0  0  0  0  0  0  0  0  0
  150.1473  142.6542  155.0341 H   0  0  0  0  0  0  0  0  0  0  0  0
  148.7048  142.6926  157.0098 H   0  0  0  0  0  0  0  0  0  0  0  0
  148.5435  140.9636  157.0110 H   0  0  0  0  0  0  0  0  0  0  0  0
  152.5630  143.7023  160.4834 H   0  0  0  0  0  0  0  0  0  0  0  0
  154.3865  142.3667  161.5143 H   0  0  0  0  0  0  0  0  0  0  0  0
  154.7478  140.0017  160.8383 H   0  0  0  0  0  0  0  0  0  0  0  0
  153.2810  138.9576  159.1185 H   0  0  0  0  0  0  0  0  0  0  0  0
  150.9669  138.3975  157.8811 H   0  0  0  0  0  0  0  0  0  0  0  0
  149.9527  139.1960  156.7242 H   0  0  0  0  0  0  0  0  0  0  0  0
  152.8933  138.5353  156.4919 H   0  0  0  0  0  0  0  0  0  0  0  0
  152.0859  140.9223  156.0829 H   0  0  0  0  0  0  0  0  0  0  0  0
  1  2  1  0  0  0  0
  1 21  1  0  0  0  0
  2  3  1  0  0  0  0
  2 22  1  0  0  0  0
  2 23  1  0  0  0  0
  3  4  1  0  0  0  0
  3 24  1  0  0  0  0
  3 25  1  0  0  0  0
  4  5  1  0  0  0  0
  4 26  1  0  0  0  0
  4 27  1  0  0  0  0
  5 13  1  0  0  0  0
  5  6  2  0  0  0  0
  6  7  1  0  0  0  0
  7 12  2  0  0  0  0
  7  8  1  0  0  0  0
  8  9  2  0  0  0  0
  8 28  1  0  0  0  0
  9 10  1  0  0  0  0
  9 29  1  0  0  0  0
 10 11  2  0  0  0  0
 10 30  1  0  0  0  0
 11 12  1  0  0  0  0
 11 31  1  0  0  0  0
 12 13  1  0  0  0  0
 13 14  1  0  0  0  0
 14 15  1  0  0  0  0
 14 32  1  0  0  0  0
 14 33  1  0  0  0  0
 15 16  1  0  0  0  0
 15 17  1  0  0  0  0
 15 34  1  0  0  0  0
 16 35  1  0  0  0  0
 17 18  1  0  0  0  0
 17 19  1  0  0  0  0
 17 20  1  0  0  0  0
M  END
> <s_m_source_file>
AV-unprocessed.smi

> <i_m_source_file_index>
2787

> <i_lp_mmshare_version>
43012

> <i_f3d_flags>
0

> <s_epik_input>
W09IXVtDSDJdW0NIMl1bQ0gyXWMobjEpbihbQ0gyXVtDQEhdKFtPSF0pQyhGKShGKUYpYyhjMTIpW2NIXVtjSF1bY0hdW2NIXTI=

> <s_epik_cmdline>
J2VwaWtfcHl0aG9uJywgJy1waCcsICc3LjAnLCAnLXRuJywgJzgnLCAnLW1hJywgJzIwMCcsICctbWV0YWxfYmluZGluZycsICctaW1hZScsICc8aW5maWxlLm1hZT4nLCAnLW9tYWUnLCAnPG91dGZpbGUubWFlPic=

> <r_epik_Ionization_Penalty>
0.137914

> <r_epik_Ionization_Penalty_Charging>
0

> <r_epik_Ionization_Penalty_Neutral>
0.137914

> <r_epik_State_Penalty>
0.107668

> <r_epik_Charging_Adjusted_Penalty>
0.107668

> <i_epik_Tot_Q>
0

> <i_epik_Tot_abs_Q>
0

> <r_epik_Metal_State_Penalty>
0.000111872

> <b_epik_Metal_Only>
0

> <s_lp_Force_Field>
OPLS_2005

> <r_lp_Energy>
10.5181

> <b_lp_Chiralities_Consistent>
1

> <s_lp_Variant>
AV-unprocessed.smi:2787-1

> <Gold.Version>
5.8.1

> <Gold.Id.Protein>
6NUR|6NUR_protein|mol2

> <Gold.PLP.Fitness>
45.3575

> <Gold.PLP.PLP>
-39.9446

> <Gold.PLP.part.hbond>
-3.9989

> <Gold.PLP.part.metal>
0.0000

> <Gold.PLP.part.buried>
-0.3940

> <Gold.PLP.part.nonpolar>
-35.2212

> <Gold.PLP.part.repulsive>
0.0711

> <Gold.PLP.ligand.clash>
0.0000

> <Gold.PLP.ligand.torsion>
0.7279

> <Gold.PLP.Chemscore.Hbond>
2.2606

> <Gold.PLP.Chemscore.CHOScore>
0.0000

> <Gold.PLP.Chemscore.Metal>
0.0000

> <Gold.Chemscore.Hbonds>
donor molecule, donor type, donor heavy atom, donor atom, acceptor molecule, acceptor atom, score
      P1  H  7989  7998       L1    16  0.32
      P1  H  7997  8010       L1    16  0.86
      P1  H  8011  8017       L1     1  1.00

> <Gold.PLP.Chemscore.Internal.Correction>
0.0869

> <Gold.Rescore>
     Score         DG    S(hbond)    S(metal)    S(lipo)     H(rot)  DE(clash)    DE(int)     intcor
     10.82     -12.06       1.46        0.00      89.87       3.44       0.30       0.94       ----

> <Gold.Chemscore.Fitness>
10.8241

> <Gold.Chemscore.DG>
-12.0597

> <Gold.Chemscore.ZeroCoef>
-5.4800

> <Gold.Chemscore.Hbond>
1.4560

> <Gold.Chemscore.Metal>
0.0000

> <Gold.Chemscore.Lipo>
89.8724

> <Gold.Chemscore.Internal_Hbond>
0.0000

> <Gold.Chemscore.DEClash>
0.2955

> <Gold.Chemscore.DEInternal>
0.9400

> <Gold.Chemscore.Rot>
3.4369

> <Gold.Chemscore.Internal.Correction>
   9.000000E+99

> <Gold.Chemscore.Hbonds>
donor molecule, donor type, donor heavy atom, donor atom, acceptor molecule, acceptor atom, score
      P1  H  7989  7998       L1    16  0.14
      P1  H  7997  8010       L1    16  0.05
      P1  H  8011  8017       L1     1  0.31

> <Gold.Chemscore.Hbond.Weighted>
-4.8630

> <Gold.Chemscore.Metal.Weighted>
-0.0000

> <Gold.Chemscore.Lipo.Weighted>
-10.5151

> <Gold.Chemscore.Internal_Hbond.Weighted>
0.0000

> <Gold.Chemscore.DEClash.Weighted>
0.2955

> <Gold.Chemscore.DEInternal.Weighted>
0.9400

> <Gold.Chemscore.Rot.Weighted>
8.7984

> <Gold.Chemscore.Internal.Correction.Weighted>
   9.000000E+99

> <Gold.Protein.RotatedTorsions>
[ 6907 6896 6895 6894 ] final    0.62 input  -60.11 | X-H torsion
[ 7974 7965 7964 7962 ] final  110.45 input  175.53 | X-H torsion
[ 8008 7997 7996 7995 ] final   96.46 input   59.86 | X-H torsion
[ 10167 10162 10161 10158 ] final   97.71 input  -65.29 | X-H torsion
[ 10718 10713 10712 10709 ] final  -23.15 input   66.30 | X-H torsion
[ 10763 10752 10751 10750 ] final  101.12 input  -60.55 | X-H torsion
[ 11005 11000 10999 10996 ] final  140.07 input  -57.11 | X-H torsion

> <Gold.Protein.ActiveResidues>
 VAL166  LYS551  ARG553  GLY616  TRP617  ASP618  TYR619  PRO620  LYS621  CYS622 
 ASP623  PHE694  ASN695  SER759  ASP760  ASP761  ALA762  ILE779  LEU786  VAL792 
 PHE793  MET794  SER795  GLU796  ALA797  LYS798  CYS799  TRP800  GLU811  SER814 

> <Gold.Protein.RotatedAtoms>
  151.5793  135.1059  160.0013 H   0  0  0  0  0  0  0  0  0  0  0  0  # atno 6907 bound_to 6896
  152.4362  133.7361  159.6625 H   0  0  0  0  0  0  0  0  0  0  0  0  # atno 6908 bound_to 6896
  150.8260  133.8101  159.3141 H   0  0  0  0  0  0  0  0  0  0  0  0  # atno 6909 bound_to 6896
  145.2548  139.2725  143.4048 H   0  0  0  0  0  0  0  0  0  0  0  0  # atno 7974 bound_to 7965
  156.0798  140.3272  155.7680 H   0  0  0  0  0  0  0  0  0  0  0  0  # atno 8008 bound_to 7997
  155.5171  140.0582  157.2930 H   0  0  0  0  0  0  0  0  0  0  0  0  # atno 8009 bound_to 7997
  154.4576  140.1950  156.0353 H   0  0  0  0  0  0  0  0  0  0  0  0  # atno 8010 bound_to 7997
  139.7776  144.6900  151.0068 H   0  0  0  0  0  0  0  0  0  0  0  0  # atno 10167 bound_to 10162
  156.4949  130.4574  149.6734 H   0  0  0  0  0  0  0  0  0  0  0  0  # atno 10718 bound_to 10713
  153.3227  135.4055  155.1430 H   0  0  0  0  0  0  0  0  0  0  0  0  # atno 10763 bound_to 10752
  154.8604  135.3591  154.5575 H   0  0  0  0  0  0  0  0  0  0  0  0  # atno 10764 bound_to 10752
  153.6010  135.7071  153.5443 H   0  0  0  0  0  0  0  0  0  0  0  0  # atno 10765 bound_to 10752
  140.0300  134.9356  157.0644 H   0  0  0  0  0  0  0  0  0  0  0  0  # atno 11005 bound_to 11000
  146.3292  140.2949  142.8617 LP  0  0  0  0  0  0  0  0  0  0  0  0  # atno 17320 bound_to 7965
  144.9471  140.8139  143.5595 LP  0  0  0  0  0  0  0  0  0  0  0  0  # atno 17321 bound_to 7965
  140.7817  143.4519  151.0401 LP  0  0  0  0  0  0  0  0  0  0  0  0  # atno 17342 bound_to 10162
  139.8200  143.7833  152.3176 LP  0  0  0  0  0  0  0  0  0  0  0  0  # atno 17343 bound_to 10162
  156.3390  130.7372  151.2314 LP  0  0  0  0  0  0  0  0  0  0  0  0  # atno 17370 bound_to 10713
  157.7469  131.0409  150.4619 LP  0  0  0  0  0  0  0  0  0  0  0  0  # atno 17371 bound_to 10713
  140.4241  134.1849  155.7165 LP  0  0  0  0  0  0  0  0  0  0  0  0  # atno 17394 bound_to 11000
  141.1825  133.8383  157.1206 LP  0  0  0  0  0  0  0  0  0  0  0  0  # atno 17395 bound_to 11000

$$$$
