AV-unprocessed.smi:994|AV-procd|sdf|4340|dock8
  -GOLD-   22720 2243D 1   1.00000     0.00000
 Structure written by MMmdl.
 38 39  0  0  0  0  0  0  0  0  3 V2000
  152.0286  139.1790  158.4193 O   0  0  0  0  0  0  0  0  0  0  0  0
  151.6487  140.1547  157.7714 C   0  0  0  0  0  0  0  0  0  0  0  0
  151.2683  140.0838  156.4863 N   0  0  0  0  0  0  0  0  0  0  0  0
  151.2976  138.8799  155.6550 C   0  0  1  0  0  0  0  0  0  0  0  0
  150.8642  139.2470  154.2193 C   0  0  0  0  0  0  0  0  0  0  0  0
  149.3822  139.4796  154.0345 C   0  0  0  0  0  0  0  0  0  0  0  0
  148.5409  140.4697  154.5125 C   0  0  0  0  0  0  0  0  0  0  0  0
  147.2675  140.1986  154.0401 N   0  0  0  0  0  0  0  0  0  0  0  0
  147.3559  139.0849  153.3161 C   0  0  0  0  0  0  0  0  0  0  0  0
  148.6013  138.6141  153.2837 N   0  3  0  0  0  0  0  0  0  0  0  0
  152.7322  138.3367  155.6054 C   0  0  0  0  0  0  0  0  0  0  0  0
  152.8874  137.1247  155.8686 O   0  0  0  0  0  0  0  0  0  0  0  0
  153.6459  139.1345  155.2965 O   0  5  0  0  0  0  0  0  0  0  0  0
  151.5732  141.5387  158.4291 C   0  0  0  0  0  0  0  0  0  0  0  0
  151.1581  142.6178  157.4059 C   0  0  0  0  0  0  0  0  0  0  0  0
  151.1037  144.0123  158.0520 C   0  0  0  0  0  0  0  0  0  0  0  0
  152.4438  144.3731  158.7126 C   0  0  0  0  0  0  0  0  0  0  0  0
  152.8671  143.3024  159.7308 C   0  0  0  0  0  0  0  0  0  0  0  0
  152.9215  141.9087  159.0838 C   0  0  0  0  0  0  0  0  0  0  0  0
  146.4329  140.7401  154.2150 H   0  0  0  0  0  0  0  0  0  0  0  0
  150.9909  140.9396  156.0284 H   0  0  0  0  0  0  0  0  0  0  0  0
  150.6340  138.1083  156.0507 H   0  0  0  0  0  0  0  0  0  0  0  0
  151.3903  140.1418  153.8819 H   0  0  0  0  0  0  0  0  0  0  0  0
  151.1494  138.4473  153.5340 H   0  0  0  0  0  0  0  0  0  0  0  0
  148.7294  141.3317  155.1357 H   0  0  0  0  0  0  0  0  0  0  0  0
  146.5195  138.6190  152.8157 H   0  0  0  0  0  0  0  0  0  0  0  0
  150.8131  141.5057  159.2120 H   0  0  0  0  0  0  0  0  0  0  0  0
  151.8611  142.6377  156.5714 H   0  0  0  0  0  0  0  0  0  0  0  0
  150.1831  142.3763  156.9803 H   0  0  0  0  0  0  0  0  0  0  0  0
  150.8473  144.7596  157.3008 H   0  0  0  0  0  0  0  0  0  0  0  0
  150.3090  144.0387  158.7984 H   0  0  0  0  0  0  0  0  0  0  0  0
  153.2135  144.4726  157.9461 H   0  0  0  0  0  0  0  0  0  0  0  0
  152.3680  145.3439  159.2030 H   0  0  0  0  0  0  0  0  0  0  0  0
  153.8405  143.5549  160.1524 H   0  0  0  0  0  0  0  0  0  0  0  0
  152.1623  143.2914  160.5635 H   0  0  0  0  0  0  0  0  0  0  0  0
  153.1876  141.1677  159.8387 H   0  0  0  0  0  0  0  0  0  0  0  0
  153.7194  141.8905  158.3395 H   0  0  0  0  0  0  0  0  0  0  0  0
  148.9193  137.7845  152.8026 H   0  0  0  0  0  0  0  0  0  0  0  0
  1  2  2  0  0  0  0
  2  3  1  0  0  0  0
  2 14  1  0  0  0  0
  3  4  1  0  0  0  0
  3 21  1  0  0  0  0
  4  5  1  0  0  0  0
  4 11  1  0  0  0  0
  4 22  1  0  0  0  0
  5  6  1  0  0  0  0
  5 23  1  0  0  0  0
  5 24  1  0  0  0  0
  6 10  1  0  0  0  0
  6  7  2  0  0  0  0
  7  8  1  0  0  0  0
  7 25  1  0  0  0  0
  8 20  1  0  0  0  0
  8  9  1  0  0  0  0
  9 10  2  0  0  0  0
  9 26  1  0  0  0  0
 10 38  1  0  0  0  0
 11 12  2  0  0  0  0
 11 13  1  0  0  0  0
 14 19  1  0  0  0  0
 14 15  1  0  0  0  0
 14 27  1  0  0  0  0
 15 16  1  0  0  0  0
 15 28  1  0  0  0  0
 15 29  1  0  0  0  0
 16 17  1  0  0  0  0
 16 30  1  0  0  0  0
 16 31  1  0  0  0  0
 17 18  1  0  0  0  0
 17 32  1  0  0  0  0
 17 33  1  0  0  0  0
 18 19  1  0  0  0  0
 18 34  1  0  0  0  0
 18 35  1  0  0  0  0
 19 36  1  0  0  0  0
 19 37  1  0  0  0  0
M  CHG  1  10   1
M  CHG  1  13  -1
M  END
> <s_m_source_file>
AV-unprocessed.smi

> <i_m_source_file_index>
994

> <i_lp_mmshare_version>
43012

> <i_f3d_flags>
0

> <s_epik_input>
W0NIMl0xW0NIMl1bQ0gyXVtDSDJdW0NIMl1bQ0hdMUMoPU8pW05IXVtDQEBIXShDKD1PKVtPSF0pW0NIMl1jMltjSF1bbkhdW2NIXW4y

> <s_epik_cmdline>
J2VwaWtfcHl0aG9uJywgJy1waCcsICc3LjAnLCAnLXRuJywgJzgnLCAnLW1hJywgJzIwMCcsICctbWV0YWxfYmluZGluZycsICctaW1hZScsICc8aW5maWxlLm1hZT4nLCAnLW9tYWUnLCAnPG91dGZpbGUubWFlPic=

> <r_lp_tautomer_probability>
1

> <r_epik_Ionization_Penalty>
0.469853

> <r_epik_Ionization_Penalty_Charging>
5.5863e-05

> <r_epik_Ionization_Penalty_Neutral>
0.469797

> <r_epik_State_Penalty>
0.377582

> <r_epik_Charging_Adjusted_Penalty>
0.377638

> <i_epik_Tot_Q>
0

> <i_epik_Tot_abs_Q>
2

> <r_epik_Metal_State_Penalty>
0.796804

> <b_epik_Metal_Only>
0

> <s_lp_Force_Field>
OPLS_2005

> <r_lp_Energy>
8.41083

> <b_lp_Chiralities_Consistent>
1

> <s_lp_Variant>
AV-unprocessed.smi:994-2

> <Gold.Version>
5.8.1

> <Gold.Id.Protein>
6NUR|6NUR_protein|mol2

> <Gold.PLP.Fitness>
53.8967

> <Gold.PLP.PLP>
-38.6448

> <Gold.PLP.part.hbond>
-3.9864

> <Gold.PLP.part.metal>
0.0000

> <Gold.PLP.part.buried>
-2.8244

> <Gold.PLP.part.nonpolar>
-32.4611

> <Gold.PLP.part.repulsive>
0.1781

> <Gold.PLP.ligand.clash>
1.8721

> <Gold.PLP.ligand.torsion>
0.3685

> <Gold.PLP.Chemscore.Hbond>
5.9360

> <Gold.PLP.Chemscore.CHOScore>
0.0000

> <Gold.PLP.Chemscore.Metal>
0.0000

> <Gold.Chemscore.Hbonds>
donor molecule, donor type, donor heavy atom, donor atom, acceptor molecule, acceptor atom, score
      L1  H    10    38       P1  7948  2.00
      P1  H  7997  8008       L1    13  1.63
      P1  H 10752 10763       L1    12  1.22

> <Gold.PLP.Chemscore.Internal.Correction>
0.0530

> <Gold.Rescore>
     Score         DG    S(hbond)    S(metal)    S(lipo)     H(rot)  DE(clash)    DE(int)     intcor
     18.23     -18.71       2.86        0.00      91.04       2.72       0.03       0.45       ----

> <Gold.Chemscore.Fitness>
18.2294

> <Gold.Chemscore.DG>
-18.7128

> <Gold.Chemscore.ZeroCoef>
-5.4800

> <Gold.Chemscore.Hbond>
2.8581

> <Gold.Chemscore.Metal>
0.0000

> <Gold.Chemscore.Lipo>
91.0434

> <Gold.Chemscore.Internal_Hbond>
0.0000

> <Gold.Chemscore.DEClash>
0.0343

> <Gold.Chemscore.DEInternal>
0.4491

> <Gold.Chemscore.Rot>
2.7208

> <Gold.Chemscore.Internal.Correction>
   9.000000E+99

> <Gold.Chemscore.Hbonds>
donor molecule, donor type, donor heavy atom, donor atom, acceptor molecule, acceptor atom, score
      L1  H    10    38       P1  7948  1.00
      P1  H  7997  8008       L1    13  0.76
      P1  H 10752 10763       L1    12  0.62

> <Gold.Chemscore.Hbond.Weighted>
-9.5459

> <Gold.Chemscore.Metal.Weighted>
-0.0000

> <Gold.Chemscore.Lipo.Weighted>
-10.6521

> <Gold.Chemscore.Internal_Hbond.Weighted>
0.0000

> <Gold.Chemscore.DEClash.Weighted>
0.0343

> <Gold.Chemscore.DEInternal.Weighted>
0.4491

> <Gold.Chemscore.Rot.Weighted>
6.9652

> <Gold.Chemscore.Internal.Correction.Weighted>
   9.000000E+99

> <Gold.Protein.RotatedTorsions>
[ 6907 6896 6895 6894 ] final  -17.55 input  -60.11 | X-H torsion
[ 7974 7965 7964 7962 ] final  101.08 input  175.53 | X-H torsion
[ 8008 7997 7996 7995 ] final  -29.33 input   59.86 | X-H torsion
[ 10167 10162 10161 10158 ] final  -26.39 input  -65.29 | X-H torsion
[ 10718 10713 10712 10709 ] final -141.76 input   66.30 | X-H torsion
[ 10763 10752 10751 10750 ] final   88.85 input  -60.55 | X-H torsion
[ 11005 11000 10999 10996 ] final  165.43 input  -57.11 | X-H torsion

> <Gold.Protein.ActiveResidues>
 VAL166  LYS551  ARG553  GLY616  TRP617  ASP618  TYR619  PRO620  LYS621  CYS622 
 ASP623  PHE694  ASN695  SER759  ASP760  ASP761  ALA762  ILE779  LEU786  VAL792 
 PHE793  MET794  SER795  GLU796  ALA797  LYS798  CYS799  TRP800  GLU811  SER814 

> <Gold.Protein.RotatedAtoms>
  151.2916  135.0743  159.9205 H   0  0  0  0  0  0  0  0  0  0  0  0  # atno 6907 bound_to 6896
  152.5315  133.9926  159.7868 H   0  0  0  0  0  0  0  0  0  0  0  0  # atno 6908 bound_to 6896
  151.0197  133.5837  159.2703 H   0  0  0  0  0  0  0  0  0  0  0  0  # atno 6909 bound_to 6896
  145.3771  139.2387  143.3424 H   0  0  0  0  0  0  0  0  0  0  0  0  # atno 7974 bound_to 7965
  154.4294  140.1821  156.1231 H   0  0  0  0  0  0  0  0  0  0  0  0  # atno 8008 bound_to 7997
  156.0127  140.3349  155.6932 H   0  0  0  0  0  0  0  0  0  0  0  0  # atno 8009 bound_to 7997
  155.6088  140.0648  157.2703 H   0  0  0  0  0  0  0  0  0  0  0  0  # atno 8010 bound_to 7997
  140.7283  143.4183  151.0993 H   0  0  0  0  0  0  0  0  0  0  0  0  # atno 10167 bound_to 10162
  156.3379  130.7621  151.1752 H   0  0  0  0  0  0  0  0  0  0  0  0  # atno 10718 bound_to 10713
  153.1811  135.4492  155.0029 H   0  0  0  0  0  0  0  0  0  0  0  0  # atno 10763 bound_to 10752
  154.8030  135.3263  154.7504 H   0  0  0  0  0  0  0  0  0  0  0  0  # atno 10764 bound_to 10752
  153.7969  135.6966  153.4917 H   0  0  0  0  0  0  0  0  0  0  0  0  # atno 10765 bound_to 10752
  140.2561  134.7939  157.3547 H   0  0  0  0  0  0  0  0  0  0  0  0  # atno 11005 bound_to 11000
  146.2859  140.4432  142.8758 LP  0  0  0  0  0  0  0  0  0  0  0  0  # atno 17320 bound_to 7965
  144.8534  140.7035  143.6153 LP  0  0  0  0  0  0  0  0  0  0  0  0  # atno 17321 bound_to 7965
  139.7825  143.8335  152.3140 LP  0  0  0  0  0  0  0  0  0  0  0  0  # atno 17342 bound_to 10162
  139.8291  144.7262  150.9474 LP  0  0  0  0  0  0  0  0  0  0  0  0  # atno 17343 bound_to 10162
  157.7442  131.0463  150.4886 LP  0  0  0  0  0  0  0  0  0  0  0  0  # atno 17370 bound_to 10713
  156.5061  130.4128  149.6326 LP  0  0  0  0  0  0  0  0  0  0  0  0  # atno 17371 bound_to 10713
  140.1510  134.4849  155.7961 LP  0  0  0  0  0  0  0  0  0  0  0  0  # atno 17394 bound_to 11000
  141.2196  133.6862  156.7379 LP  0  0  0  0  0  0  0  0  0  0  0  0  # atno 17395 bound_to 11000

$$$$
