AV-unprocessed.smi:498|AV-procd|sdf|2728|dock3
  -GOLD-   2262023173D 1   1.00000     0.00000
 Structure written by MMmdl.
 42 44  0  0  0  0  0  0  0  0  1 V2000
  147.1479  142.2122  154.0596 C   0  0  0  0  0  0  0  0  0  0  0  0
  148.0171  140.9544  154.0023 C   0  0  0  0  0  0  0  0  0  0  0  0
  149.3795  141.3424  154.0090 O   0  0  0  0  0  0  0  0  0  0  0  0
  150.1158  140.7466  155.0648 C   0  0  0  0  0  0  0  0  0  0  0  0
  149.4386  141.0548  156.4072 C   0  0  0  0  0  0  0  0  0  0  0  0
  150.2772  140.6980  157.5438 N   0  0  0  0  0  0  0  0  0  0  0  0
  150.3600  139.5126  158.2025 C   0  0  0  0  0  0  0  0  0  0  0  0
  149.5322  138.3117  157.8357 C   0  0  0  0  0  0  0  0  0  0  0  0
  148.9289  137.7735  159.0517 N   0  0  0  0  0  0  0  0  0  0  0  0
  148.8560  136.4760  159.3866 C   0  0  0  0  0  0  0  0  0  0  0  0
  149.3642  135.5709  158.7259 O   0  0  0  0  0  0  0  0  0  0  0  0
  148.1204  136.1758  160.6292 C   0  0  0  0  0  0  0  0  0  0  0  0
  147.7652  134.9856  161.2084 C   0  0  0  0  0  0  0  0  0  0  0  0
  147.0787  135.3072  162.4118 C   0  0  0  0  0  0  0  0  0  0  0  0
  147.0649  136.6704  162.4835 C   0  0  0  0  0  0  0  0  0  0  0  0
  147.6970  137.2137  161.4079 O   0  0  0  0  0  0  0  0  0  0  0  0
  151.2426  139.4714  159.2041 N   0  0  0  0  0  0  0  0  0  0  0  0
  151.7607  140.7505  159.2114 C   0  0  0  0  0  0  0  0  0  0  0  0
  152.7348  141.3413  160.0477 C   0  0  0  0  0  0  0  0  0  0  0  0
  153.1087  142.6889  159.8662 C   0  0  0  0  0  0  0  0  0  0  0  0
  152.5145  143.4630  158.8485 C   0  0  0  0  0  0  0  0  0  0  0  0
  151.5436  142.8922  158.0034 C   0  0  0  0  0  0  0  0  0  0  0  0
  151.1751  141.5457  158.1871 C   0  0  0  0  0  0  0  0  0  0  0  0
  146.0887  141.9542  154.0551 H   0  0  0  0  0  0  0  0  0  0  0  0
  147.3394  142.8595  153.2034 H   0  0  0  0  0  0  0  0  0  0  0  0
  147.3492  142.7851  154.9653 H   0  0  0  0  0  0  0  0  0  0  0  0
  147.8027  140.3165  154.8613 H   0  0  0  0  0  0  0  0  0  0  0  0
  147.7921  140.3841  153.0998 H   0  0  0  0  0  0  0  0  0  0  0  0
  150.1698  139.6693  154.9180 H   0  0  0  0  0  0  0  0  0  0  0  0
  151.1397  141.1225  155.0665 H   0  0  0  0  0  0  0  0  0  0  0  0
  149.1624  142.1071  156.4732 H   0  0  0  0  0  0  0  0  0  0  0  0
  148.5048  140.4968  156.4798 H   0  0  0  0  0  0  0  0  0  0  0  0
  148.7777  138.5491  157.0869 H   0  0  0  0  0  0  0  0  0  0  0  0
  150.1847  137.5550  157.4001 H   0  0  0  0  0  0  0  0  0  0  0  0
  148.4797  138.4406  159.6620 H   0  0  0  0  0  0  0  0  0  0  0  0
  147.9749  134.0012  160.8167 H   0  0  0  0  0  0  0  0  0  0  0  0
  146.6510  134.6279  163.1342 H   0  0  0  0  0  0  0  0  0  0  0  0
  146.6709  137.3812  163.1949 H   0  0  0  0  0  0  0  0  0  0  0  0
  153.1943  140.7572  160.8312 H   0  0  0  0  0  0  0  0  0  0  0  0
  153.8536  143.1307  160.5116 H   0  0  0  0  0  0  0  0  0  0  0  0
  152.8043  144.4954  158.7166 H   0  0  0  0  0  0  0  0  0  0  0  0
  151.0853  143.4845  157.2257 H   0  0  0  0  0  0  0  0  0  0  0  0
  1  2  1  0  0  0  0
  1 24  1  0  0  0  0
  1 25  1  0  0  0  0
  1 26  1  0  0  0  0
  2  3  1  0  0  0  0
  2 27  1  0  0  0  0
  2 28  1  0  0  0  0
  3  4  1  0  0  0  0
  4  5  1  0  0  0  0
  4 29  1  0  0  0  0
  4 30  1  0  0  0  0
  5  6  1  0  0  0  0
  5 31  1  0  0  0  0
  5 32  1  0  0  0  0
  6 23  1  0  0  0  0
  6  7  1  0  0  0  0
  7  8  1  0  0  0  0
  7 17  2  0  0  0  0
  8  9  1  0  0  0  0
  8 33  1  0  0  0  0
  8 34  1  0  0  0  0
  9 10  1  0  0  0  0
  9 35  1  0  0  0  0
 10 11  2  0  0  0  0
 10 12  1  0  0  0  0
 12 16  1  0  0  0  0
 12 13  2  0  0  0  0
 13 14  1  0  0  0  0
 13 36  1  0  0  0  0
 14 15  2  0  0  0  0
 14 37  1  0  0  0  0
 15 16  1  0  0  0  0
 15 38  1  0  0  0  0
 17 18  1  0  0  0  0
 18 23  2  0  0  0  0
 18 19  1  0  0  0  0
 19 20  2  0  0  0  0
 19 39  1  0  0  0  0
 20 21  1  0  0  0  0
 20 40  1  0  0  0  0
 21 22  2  0  0  0  0
 21 41  1  0  0  0  0
 22 23  1  0  0  0  0
 22 42  1  0  0  0  0
M  END
> <s_m_source_file>
AV-unprocessed.smi

> <i_m_source_file_index>
498

> <i_lp_mmshare_version>
43012

> <i_f3d_flags>
0

> <s_epik_input>
W0NIM11bQ0gyXU9bQ0gyXVtDSDJdbihjKGMxMilbY0hdW2NIXVtjSF1bY0hdMiljKG4xKVtDSDJdW05IXUMoPU8pYzNbY0hdW2NIXVtjSF1vMw==

> <s_epik_cmdline>
J2VwaWtfcHl0aG9uJywgJy1waCcsICc3LjAnLCAnLXRuJywgJzgnLCAnLW1hJywgJzIwMCcsICctbWV0YWxfYmluZGluZycsICctaW1hZScsICc8aW5maWxlLm1hZT4nLCAnLW9tYWUnLCAnPG91dGZpbGUubWFlPic=

> <r_epik_Ionization_Penalty>
0.0701438

> <r_epik_Ionization_Penalty_Charging>
0

> <r_epik_Ionization_Penalty_Neutral>
0.0701438

> <r_epik_State_Penalty>
0.061475

> <r_epik_Charging_Adjusted_Penalty>
0.061475

> <i_epik_Tot_Q>
0

> <i_epik_Tot_abs_Q>
0

> <r_epik_Metal_State_Penalty>
0.0666689

> <b_epik_Metal_Only>
0

> <s_lp_Force_Field>
OPLS_2005

> <r_lp_Energy>
6.14226

> <b_lp_Chiralities_Consistent>
1

> <s_lp_Variant>
AV-unprocessed.smi:498-1

> <Gold.Version>
5.8.1

> <Gold.Id.Protein>
6NUR|6NUR_protein|mol2

> <Gold.PLP.Fitness>
58.6912

> <Gold.PLP.PLP>
-50.1714

> <Gold.PLP.part.hbond>
-5.1036

> <Gold.PLP.part.metal>
0.0000

> <Gold.PLP.part.buried>
-5.1337

> <Gold.PLP.part.nonpolar>
-40.1778

> <Gold.PLP.part.repulsive>
0.4136

> <Gold.PLP.ligand.clash>
0.0000

> <Gold.PLP.ligand.torsion>
1.0216

> <Gold.PLP.Chemscore.Hbond>
3.5040

> <Gold.PLP.Chemscore.CHOScore>
0.0000

> <Gold.PLP.Chemscore.Metal>
0.0000

> <Gold.Chemscore.Hbonds>
donor molecule, donor type, donor heavy atom, donor atom, acceptor molecule, acceptor atom, score
      P1  H  6896  6909       L1    11  1.00
      P1  H  6931  6943       L1    16  0.98
      P1  H  6934  6947       L1    16  0.80
      P1  H  8011  8017       L1     3  0.75

> <Gold.PLP.Chemscore.Internal.Correction>
0.0510

> <Gold.Rescore>
     Score         DG    S(hbond)    S(metal)    S(lipo)     H(rot)  DE(clash)    DE(int)     intcor
     22.88     -23.98       2.94        0.00     117.72       1.98       0.09       1.02       ----

> <Gold.Chemscore.Fitness>
22.8770

> <Gold.Chemscore.DG>
-23.9846

> <Gold.Chemscore.ZeroCoef>
-5.4800

> <Gold.Chemscore.Hbond>
2.9351

> <Gold.Chemscore.Metal>
0.0000

> <Gold.Chemscore.Lipo>
117.7219

> <Gold.Chemscore.Internal_Hbond>
0.0000

> <Gold.Chemscore.DEClash>
0.0903

> <Gold.Chemscore.DEInternal>
1.0173

> <Gold.Chemscore.Rot>
1.9813

> <Gold.Chemscore.Internal.Correction>
   9.000000E+99

> <Gold.Chemscore.Hbonds>
donor molecule, donor type, donor heavy atom, donor atom, acceptor molecule, acceptor atom, score
      P1  H  6896  6909       L1    11  0.96
      P1  H  6931  6943       L1    16  0.60
      P1  H  6934  6947       L1    16  0.73
      P1  H  8011  8017       L1     3  0.53

> <Gold.Chemscore.Hbond.Weighted>
-9.8032

> <Gold.Chemscore.Metal.Weighted>
-0.0000

> <Gold.Chemscore.Lipo.Weighted>
-13.7735

> <Gold.Chemscore.Internal_Hbond.Weighted>
0.0000

> <Gold.Chemscore.DEClash.Weighted>
0.0903

> <Gold.Chemscore.DEInternal.Weighted>
1.0173

> <Gold.Chemscore.Rot.Weighted>
5.0720

> <Gold.Chemscore.Internal.Correction.Weighted>
   9.000000E+99

> <Gold.Protein.RotatedTorsions>
[ 6907 6896 6895 6894 ] final   34.56 input  -60.11 | X-H torsion
[ 7974 7965 7964 7962 ] final  -29.76 input  175.53 | X-H torsion
[ 8008 7997 7996 7995 ] final   86.79 input   59.86 | X-H torsion
[ 10167 10162 10161 10158 ] final  152.84 input  -65.29 | X-H torsion
[ 10718 10713 10712 10709 ] final  -19.16 input   66.30 | X-H torsion
[ 10763 10752 10751 10750 ] final  106.56 input  -60.55 | X-H torsion
[ 11005 11000 10999 10996 ] final  -33.71 input  -57.11 | X-H torsion

> <Gold.Protein.ActiveResidues>
 VAL166  LYS551  ARG553  GLY616  TRP617  ASP618  TYR619  PRO620  LYS621  CYS622 
 ASP623  PHE694  ASN695  SER759  ASP760  ASP761  ALA762  ILE779  LEU786  VAL792 
 PHE793  MET794  SER795  GLU796  ALA797  LYS798  CYS799  TRP800  GLU811  SER814 

> <Gold.Protein.RotatedAtoms>
  152.1041  134.9321  160.0568 H   0  0  0  0  0  0  0  0  0  0  0  0  # atno 6907 bound_to 6896
  152.0524  133.4020  159.4391 H   0  0  0  0  0  0  0  0  0  0  0  0  # atno 6908 bound_to 6896
  150.6840  134.3214  159.4831 H   0  0  0  0  0  0  0  0  0  0  0  0  # atno 6909 bound_to 6896
  146.1193  140.5454  142.8743 H   0  0  0  0  0  0  0  0  0  0  0  0  # atno 7974 bound_to 7965
  155.9672  140.3388  155.6543 H   0  0  0  0  0  0  0  0  0  0  0  0  # atno 8008 bound_to 7997
  155.6721  140.0728  157.2534 H   0  0  0  0  0  0  0  0  0  0  0  0  # atno 8009 bound_to 7997
  154.4157  140.1689  156.1878 H   0  0  0  0  0  0  0  0  0  0  0  0  # atno 8010 bound_to 7997
  139.4830  144.5324  151.7701 H   0  0  0  0  0  0  0  0  0  0  0  0  # atno 10167 bound_to 10162
  156.5495  130.4698  149.6459 H   0  0  0  0  0  0  0  0  0  0  0  0  # atno 10718 bound_to 10713
  153.3947  135.3873  155.1947 H   0  0  0  0  0  0  0  0  0  0  0  0  # atno 10763 bound_to 10752
  154.8723  135.3757  154.4693 H   0  0  0  0  0  0  0  0  0  0  0  0  # atno 10764 bound_to 10752
  153.5184  135.7087  153.5806 H   0  0  0  0  0  0  0  0  0  0  0  0  # atno 10765 bound_to 10752
  140.9657  133.7139  156.1441 H   0  0  0  0  0  0  0  0  0  0  0  0  # atno 11005 bound_to 11000
  144.7582  140.5358  143.6754 LP  0  0  0  0  0  0  0  0  0  0  0  0  # atno 17320 bound_to 7965
  145.5501  139.1476  143.3399 LP  0  0  0  0  0  0  0  0  0  0  0  0  # atno 17321 bound_to 7965
  140.4852  144.1392  150.5939 LP  0  0  0  0  0  0  0  0  0  0  0  0  # atno 17342 bound_to 10162
  140.4233  143.2601  151.9687 LP  0  0  0  0  0  0  0  0  0  0  0  0  # atno 17343 bound_to 10162
  156.2897  130.7117  151.1963 LP  0  0  0  0  0  0  0  0  0  0  0  0  # atno 17370 bound_to 10713
  157.7390  131.0534  150.5259 LP  0  0  0  0  0  0  0  0  0  0  0  0  # atno 17371 bound_to 10713
  140.7403  134.4157  157.5555 LP  0  0  0  0  0  0  0  0  0  0  0  0  # atno 17394 bound_to 11000
  139.8893  134.8832  156.2426 LP  0  0  0  0  0  0  0  0  0  0  0  0  # atno 17395 bound_to 11000

$$$$
