AV-unprocessed.smi:1797|AV-procd|sdf|7257|dock6
  -GOLD-   22720 8513D 1   1.00000     0.00000
 Structure written by MMmdl.
 29 30  0  0  0  0  0  0  0  0  2 V2000
  144.7678  134.3732  162.7782 C   0  0  0  0  0  0  0  0  0  0  0  0
  145.7537  135.2791  162.1236 C   0  0  0  0  0  0  0  0  0  0  0  0
  145.3995  136.4123  161.5129 N   0  0  0  0  0  0  0  0  0  0  0  0
  146.4914  137.0830  160.9812 N   0  0  0  0  0  0  0  0  0  0  0  0
  147.6516  136.4424  161.1843 C   0  0  0  0  0  0  0  0  0  0  0  0
  148.8303  136.9200  160.7437 N   0  5  0  0  0  0  0  0  0  0  0  0
  148.9936  137.4309  159.4950 C   0  0  0  0  0  0  0  0  0  0  0  0
  148.0526  137.7505  158.7696 O   0  0  0  0  0  0  0  0  0  0  0  0
  150.2516  137.5892  159.0392 N   0  0  0  0  0  0  0  0  0  0  0  0
  150.6413  138.1291  157.7402 C   0  0  2  0  0  0  0  0  0  0  0  0
  151.4843  137.1146  156.9527 C   0  0  0  0  0  0  0  0  0  0  0  0
  151.8939  137.6815  155.5839 C   0  0  0  0  0  0  0  0  0  0  0  0
  152.4142  139.1255  155.6483 C   0  0  0  0  0  0  0  0  0  0  0  0
  153.0575  139.5786  154.7041 O   0  0  0  0  0  0  0  0  0  0  0  0
  152.1226  139.8773  156.7245 N   0  0  0  0  0  0  0  0  0  0  0  0
  151.4461  139.4257  157.9401 C   0  0  0  0  0  0  0  0  0  0  0  0
  147.4755  134.9389  162.0883 S   0  0  0  0  0  0  0  0  0  0  0  0
  144.2782  133.7521  162.0283 H   0  0  0  0  0  0  0  0  0  0  0  0
  144.0097  134.9551  163.3032 H   0  0  0  0  0  0  0  0  0  0  0  0
  145.2690  133.7255  163.4976 H   0  0  0  0  0  0  0  0  0  0  0  0
  151.0018  137.3088  159.6537 H   0  0  0  0  0  0  0  0  0  0  0  0
  149.7434  138.3672  157.1661 H   0  0  0  0  0  0  0  0  0  0  0  0
  152.3763  136.8504  157.5229 H   0  0  0  0  0  0  0  0  0  0  0  0
  150.9270  136.1885  156.8078 H   0  0  0  0  0  0  0  0  0  0  0  0
  152.6489  137.0419  155.1258 H   0  0  0  0  0  0  0  0  0  0  0  0
  151.0316  137.6730  154.9163 H   0  0  0  0  0  0  0  0  0  0  0  0
  152.4491  140.8327  156.7229 H   0  0  0  0  0  0  0  0  0  0  0  0
  150.7960  140.2221  158.3036 H   0  0  0  0  0  0  0  0  0  0  0  0
  152.2131  139.2762  158.7015 H   0  0  0  0  0  0  0  0  0  0  0  0
  1  2  1  0  0  0  0
  1 18  1  0  0  0  0
  1 19  1  0  0  0  0
  1 20  1  0  0  0  0
  2 17  1  0  0  0  0
  2  3  2  0  0  0  0
  3  4  1  0  0  0  0
  4  5  2  0  0  0  0
  5  6  1  0  0  0  0
  5 17  1  0  0  0  0
  6  7  1  0  0  0  0
  7  8  2  0  0  0  0
  7  9  1  0  0  0  0
  9 10  1  0  0  0  0
  9 21  1  0  0  0  0
 10 16  1  0  0  0  0
 10 11  1  0  0  0  0
 10 22  1  0  0  0  0
 11 12  1  0  0  0  0
 11 23  1  0  0  0  0
 11 24  1  0  0  0  0
 12 13  1  0  0  0  0
 12 25  1  0  0  0  0
 12 26  1  0  0  0  0
 13 14  2  0  0  0  0
 13 15  1  0  0  0  0
 15 16  1  0  0  0  0
 15 27  1  0  0  0  0
 16 28  1  0  0  0  0
 16 29  1  0  0  0  0
M  CHG  1   6  -1
M  END
> <s_m_source_file>
AV-unprocessed.smi

> <i_m_source_file_index>
1797

> <i_lp_mmshare_version>
43012

> <i_f3d_flags>
0

> <s_epik_input>
W0NIM11jMW5uYyhzMSlbTkhdQyg9TylbTkhdW0NAQEhdMltDSDJdW0NIMl1DKD1PKVtOSF1bQ0gyXTI=

> <s_epik_cmdline>
J2VwaWtfcHl0aG9uJywgJy1waCcsICc3LjAnLCAnLXRuJywgJzgnLCAnLW1hJywgJzIwMCcsICctbWV0YWxfYmluZGluZycsICctaW1hZScsICc8aW5maWxlLm1hZT4nLCAnLW9tYWUnLCAnPG91dGZpbGUubWFlPic=

> <r_lp_tautomer_probability>
1

> <r_epik_Ionization_Penalty>
3.31792

> <r_epik_Ionization_Penalty_Charging>
3.17379

> <r_epik_Ionization_Penalty_Neutral>
0.144127

> <r_epik_State_Penalty>
3.17099

> <r_epik_Charging_Adjusted_Penalty>
6.34478

> <i_epik_Tot_Q>
-1

> <i_epik_Tot_abs_Q>
1

> <r_epik_Metal_State_Penalty>
0.468583

> <b_epik_Metal_Only>
1

> <s_lp_Force_Field>
OPLS_2005

> <r_lp_Energy>
8.3623

> <b_lp_Chiralities_Consistent>
1

> <s_lp_Variant>
AV-unprocessed.smi:1797-3

> <Gold.Version>
5.8.1

> <Gold.Id.Protein>
6NUR|6NUR_protein|mol2

> <Gold.PLP.Fitness>
35.0821

> <Gold.PLP.PLP>
-23.9308

> <Gold.PLP.part.hbond>
-4.6960

> <Gold.PLP.part.metal>
0.0000

> <Gold.PLP.part.buried>
-2.8237

> <Gold.PLP.part.nonpolar>
-17.1818

> <Gold.PLP.part.repulsive>
0.3565

> <Gold.PLP.ligand.clash>
0.0000

> <Gold.PLP.ligand.torsion>
0.4234

> <Gold.PLP.Chemscore.Hbond>
3.9979

> <Gold.PLP.Chemscore.CHOScore>
0.0000

> <Gold.PLP.Chemscore.Metal>
0.0000

> <Gold.Chemscore.Hbonds>
donor molecule, donor type, donor heavy atom, donor atom, acceptor molecule, acceptor atom, score
      P1  H  6931  6943       L1     6  1.73
      P1  H  6934  6947       L1     4  0.94
      P1  H  7989  7998       L1    14  0.19
      P1  H  7997  8009       L1    14  1.00

> <Gold.PLP.Chemscore.Internal.Correction>
0.0044

> <Gold.Rescore>
     Score         DG    S(hbond)    S(metal)    S(lipo)     H(rot)  DE(clash)    DE(int)     intcor
     10.71     -13.21       1.68        0.00      39.94       1.00       0.72       1.77       ----

> <Gold.Chemscore.Fitness>
10.7145

> <Gold.Chemscore.DG>
-13.2061

> <Gold.Chemscore.ZeroCoef>
-5.4800

> <Gold.Chemscore.Hbond>
1.6805

> <Gold.Chemscore.Metal>
0.0000

> <Gold.Chemscore.Lipo>
39.9427

> <Gold.Chemscore.Internal_Hbond>
0.0000

> <Gold.Chemscore.DEClash>
0.7249

> <Gold.Chemscore.DEInternal>
1.7668

> <Gold.Chemscore.Rot>
1.0000

> <Gold.Chemscore.Internal.Correction>
   9.000000E+99

> <Gold.Chemscore.Hbonds>
donor molecule, donor type, donor heavy atom, donor atom, acceptor molecule, acceptor atom, score
      P1  H  6931  6943       L1     6  0.13
      P1  H  6934  6947       L1     4  0.23
      P1  H  7989  7998       L1    14  0.12
      P1  H  7997  8009       L1    14  0.25

> <Gold.Chemscore.Hbond.Weighted>
-5.6128

> <Gold.Chemscore.Metal.Weighted>
-0.0000

> <Gold.Chemscore.Lipo.Weighted>
-4.6733

> <Gold.Chemscore.Internal_Hbond.Weighted>
0.0000

> <Gold.Chemscore.DEClash.Weighted>
0.7249

> <Gold.Chemscore.DEInternal.Weighted>
1.7668

> <Gold.Chemscore.Rot.Weighted>
2.5600

> <Gold.Chemscore.Internal.Correction.Weighted>
   9.000000E+99

> <Gold.Protein.RotatedTorsions>
[ 6907 6896 6895 6894 ] final  -53.15 input  -60.11 | X-H torsion
[ 7974 7965 7964 7962 ] final  116.15 input  175.53 | X-H torsion
[ 8008 7997 7996 7995 ] final -117.36 input   59.86 | X-H torsion
[ 10167 10162 10161 10158 ] final  173.10 input  -65.29 | X-H torsion
[ 10718 10713 10712 10709 ] final  -25.88 input   66.30 | X-H torsion
[ 10763 10752 10751 10750 ] final   63.37 input  -60.55 | X-H torsion
[ 11005 11000 10999 10996 ] final  106.63 input  -57.11 | X-H torsion

> <Gold.Protein.ActiveResidues>
 VAL166  LYS551  ARG553  GLY616  TRP617  ASP618  TYR619  PRO620  LYS621  CYS622 
 ASP623  PHE694  ASN695  SER759  ASP760  ASP761  ALA762  ILE779  LEU786  VAL792 
 PHE793  MET794  SER795  GLU796  ALA797  LYS798  CYS799  TRP800  GLU811  SER814 

> <Gold.Protein.RotatedAtoms>
  150.8453  134.7760  159.6965 H   0  0  0  0  0  0  0  0  0  0  0  0  # atno 6907 bound_to 6896
  152.4531  134.5347  159.9831 H   0  0  0  0  0  0  0  0  0  0  0  0  # atno 6908 bound_to 6896
  151.5478  133.3384  159.2983 H   0  0  0  0  0  0  0  0  0  0  0  0  # atno 6909 bound_to 6896
  145.1832  139.3039  143.4407 H   0  0  0  0  0  0  0  0  0  0  0  0  # atno 7974 bound_to 7965
  155.0825  140.0394  157.2644 H   0  0  0  0  0  0  0  0  0  0  0  0  # atno 8008 bound_to 7997
  154.6895  140.2650  155.6802 H   0  0  0  0  0  0  0  0  0  0  0  0  # atno 8009 bound_to 7997
  156.2724  140.2762  156.1468 H   0  0  0  0  0  0  0  0  0  0  0  0  # atno 8010 bound_to 7997
  139.5097  144.3298  152.0122 H   0  0  0  0  0  0  0  0  0  0  0  0  # atno 10167 bound_to 10162
  156.4585  130.4499  149.6944 H   0  0  0  0  0  0  0  0  0  0  0  0  # atno 10718 bound_to 10713
  153.0015  135.5431  154.6342 H   0  0  0  0  0  0  0  0  0  0  0  0  # atno 10763 bound_to 10752
  154.5612  135.2834  155.0919 H   0  0  0  0  0  0  0  0  0  0  0  0  # atno 10764 bound_to 10752
  154.2121  135.6465  153.5171 H   0  0  0  0  0  0  0  0  0  0  0  0  # atno 10765 bound_to 10752
  139.8816  134.9375  156.5695 H   0  0  0  0  0  0  0  0  0  0  0  0  # atno 11005 bound_to 11000
  146.3449  140.2019  142.8589 LP  0  0  0  0  0  0  0  0  0  0  0  0  # atno 17320 bound_to 7965
  145.0115  140.8718  143.5221 LP  0  0  0  0  0  0  0  0  0  0  0  0  # atno 17321 bound_to 7965
  140.2738  144.3935  150.6142 LP  0  0  0  0  0  0  0  0  0  0  0  0  # atno 17342 bound_to 10162
  140.6069  143.2168  151.6964 LP  0  0  0  0  0  0  0  0  0  0  0  0  # atno 17343 bound_to 10162
  156.3741  130.7545  151.2532 LP  0  0  0  0  0  0  0  0  0  0  0  0  # atno 17370 bound_to 10713
  157.7499  131.0314  150.4182 LP  0  0  0  0  0  0  0  0  0  0  0  0  # atno 17371 bound_to 10713
  140.8109  133.8430  155.8809 LP  0  0  0  0  0  0  0  0  0  0  0  0  # atno 17394 bound_to 11000
  140.9507  134.1782  157.4729 LP  0  0  0  0  0  0  0  0  0  0  0  0  # atno 17395 bound_to 11000

$$$$
