AV-unprocessed.smi:1554|AV-procd|sdf|6247|dock4
  -GOLD-   22720 6433D 1   1.00000     0.00000
 Structure written by MMmdl.
 48 50  0  0  0  0  0  0  0  0  2 V2000
  154.1779  142.3464  162.3261 C   0  0  0  0  0  0  0  0  0  0  0  0
  153.4458  142.3293  160.9956 C   0  0  0  0  0  0  0  0  0  0  0  0
  152.7869  143.5004  160.5587 C   0  0  0  0  0  0  0  0  0  0  0  0
  152.0982  143.5272  159.3261 C   0  0  0  0  0  0  0  0  0  0  0  0
  151.3967  144.5497  158.7107 N   0  0  0  0  0  0  0  0  0  0  0  0
  150.9912  143.9602  157.5900 C   0  0  0  0  0  0  0  0  0  0  0  0
  151.3490  142.6751  157.4048 N   0  0  0  0  0  0  0  0  0  0  0  0
  151.0273  141.8371  156.2635 C   0  0  0  0  0  0  0  0  0  0  0  0
  149.5082  141.6753  156.0622 C   0  0  1  0  0  0  0  0  0  0  0  0
  149.1576  142.1043  154.7600 O   0  0  0  0  0  0  0  0  0  0  0  0
  149.0572  140.2126  156.2417 C   0  0  0  0  0  0  0  0  0  0  0  0
  149.2461  139.4073  155.0046 N   0  3  2  0  0  0  0  0  0  0  0  0
  148.8120  137.9905  155.1129 C   0  0  0  0  0  0  0  0  0  0  0  0
  149.8569  137.1329  155.8535 C   0  0  0  0  0  0  0  0  0  0  0  0
  151.1262  137.2662  155.2257 O   0  0  0  0  0  0  0  0  0  0  0  0
  151.6020  138.6078  155.2351 C   0  0  1  0  0  0  0  0  0  0  0  0
  153.0071  138.6201  154.6230 C   0  0  0  0  0  0  0  0  0  0  0  0
  150.6161  139.4898  154.4421 C   0  0  0  0  0  0  0  0  0  0  0  0
  152.0864  142.3405  158.5360 C   0  0  0  0  0  0  0  0  0  0  0  0
  152.7377  141.1687  158.9605 C   0  0  0  0  0  0  0  0  0  0  0  0
  153.4210  141.1594  160.1946 C   0  0  0  0  0  0  0  0  0  0  0  0
  154.1208  139.8891  160.6441 C   0  0  0  0  0  0  0  0  0  0  0  0
  154.0634  143.3058  162.8317 H   0  0  0  0  0  0  0  0  0  0  0  0
  155.2435  142.1719  162.1761 H   0  0  0  0  0  0  0  0  0  0  0  0
  153.7897  141.5720  162.9881 H   0  0  0  0  0  0  0  0  0  0  0  0
  152.8063  144.3917  161.1685 H   0  0  0  0  0  0  0  0  0  0  0  0
  150.4019  144.4939  156.8586 H   0  0  0  0  0  0  0  0  0  0  0  0
  151.4914  142.2632  155.3732 H   0  0  0  0  0  0  0  0  0  0  0  0
  151.4914  140.8622  156.4183 H   0  0  0  0  0  0  0  0  0  0  0  0
  148.9952  142.3181  156.7772 H   0  0  0  0  0  0  0  0  0  0  0  0
  148.7724  142.9656  154.8166 H   0  0  0  0  0  0  0  0  0  0  0  0
  149.6299  139.7739  157.0604 H   0  0  0  0  0  0  0  0  0  0  0  0
  148.0137  140.1737  156.5539 H   0  0  0  0  0  0  0  0  0  0  0  0
  147.8391  137.9094  155.5961 H   0  0  0  0  0  0  0  0  0  0  0  0
  148.6828  137.5996  154.1029 H   0  0  0  0  0  0  0  0  0  0  0  0
  149.9282  137.4088  156.9061 H   0  0  0  0  0  0  0  0  0  0  0  0
  149.5629  136.0836  155.8254 H   0  0  0  0  0  0  0  0  0  0  0  0
  151.6740  138.9584  156.2662 H   0  0  0  0  0  0  0  0  0  0  0  0
  153.4219  139.6284  154.6132 H   0  0  0  0  0  0  0  0  0  0  0  0
  152.9947  138.2531  153.5962 H   0  0  0  0  0  0  0  0  0  0  0  0
  153.6870  137.9876  155.1944 H   0  0  0  0  0  0  0  0  0  0  0  0
  150.5780  139.1521  153.4054 H   0  0  0  0  0  0  0  0  0  0  0  0
  150.9553  140.5260  154.4119 H   0  0  0  0  0  0  0  0  0  0  0  0
  152.7134  140.2846  158.3413 H   0  0  0  0  0  0  0  0  0  0  0  0
  154.0158  139.0943  159.9051 H   0  0  0  0  0  0  0  0  0  0  0  0
  153.6963  139.5314  161.5824 H   0  0  0  0  0  0  0  0  0  0  0  0
  155.1857  140.0705  160.7914 H   0  0  0  0  0  0  0  0  0  0  0  0
  148.6422  139.8425  154.3211 H   0  0  0  0  0  0  0  0  0  0  0  0
  1  2  1  0  0  0  0
  1 23  1  0  0  0  0
  1 24  1  0  0  0  0
  1 25  1  0  0  0  0
  2 21  1  0  0  0  0
  2  3  2  0  0  0  0
  3  4  1  0  0  0  0
  3 26  1  0  0  0  0
  4 19  2  0  0  0  0
  4  5  1  0  0  0  0
  5  6  2  0  0  0  0
  6  7  1  0  0  0  0
  6 27  1  0  0  0  0
  7  8  1  0  0  0  0
  7 19  1  0  0  0  0
  8  9  1  0  0  0  0
  8 28  1  0  0  0  0
  8 29  1  0  0  0  0
  9 10  1  0  0  0  0
  9 11  1  0  0  0  0
  9 30  1  0  0  0  0
 10 31  1  0  0  0  0
 11 12  1  0  0  0  0
 11 32  1  0  0  0  0
 11 33  1  0  0  0  0
 12 18  1  0  0  0  0
 12 13  1  0  0  0  0
 12 48  1  0  0  0  0
 13 14  1  0  0  0  0
 13 34  1  0  0  0  0
 13 35  1  0  0  0  0
 14 15  1  0  0  0  0
 14 36  1  0  0  0  0
 14 37  1  0  0  0  0
 15 16  1  0  0  0  0
 16 17  1  0  0  0  0
 16 18  1  0  0  0  0
 16 38  1  0  0  0  0
 17 39  1  0  0  0  0
 17 40  1  0  0  0  0
 17 41  1  0  0  0  0
 18 42  1  0  0  0  0
 18 43  1  0  0  0  0
 19 20  1  0  0  0  0
 20 21  2  0  0  0  0
 20 44  1  0  0  0  0
 21 22  1  0  0  0  0
 22 45  1  0  0  0  0
 22 46  1  0  0  0  0
 22 47  1  0  0  0  0
M  CHG  1  12   1
M  END
> <s_m_source_file>
AV-unprocessed.smi

> <i_m_source_file_index>
1554

> <i_lp_mmshare_version>
43012

> <i_f3d_flags>
0

> <s_epik_input>
W0NIM11jKFtjSF0xKWMoW0NIM10pW2NIXWMoYzEyKW4oW2NIXW4yKVtDSDJdW0NASF0oW09IXSlbQ0gyXU4zW0NIMl1bQ0gyXU9bQ0BASF0oW0NIM10pW0NIMl0z

> <s_epik_cmdline>
J2VwaWtfcHl0aG9uJywgJy1waCcsICc3LjAnLCAnLXRuJywgJzgnLCAnLW1hJywgJzIwMCcsICctbWV0YWxfYmluZGluZycsICctaW1hZScsICc8aW5maWxlLm1hZT4nLCAnLW9tYWUnLCAnPG91dGZpbGUubWFlPic=

> <r_epik_Ionization_Penalty>
0.695251

> <r_epik_Ionization_Penalty_Charging>
0.608065

> <r_epik_Ionization_Penalty_Neutral>
0.0871863

> <r_epik_State_Penalty>
0.731955

> <r_epik_Charging_Adjusted_Penalty>
1.34002

> <i_epik_Tot_Q>
1

> <i_epik_Tot_abs_Q>
1

> <r_epik_Metal_State_Penalty>
0.652186

> <b_epik_Metal_Only>
0

> <s_lp_Force_Field>
OPLS_2005

> <r_lp_Energy>
22.6642

> <b_lp_Chiralities_Consistent>
1

> <s_lp_Variant>
AV-unprocessed.smi:1554-8

> <Gold.Version>
5.8.1

> <Gold.Id.Protein>
6NUR|6NUR_protein|mol2

> <Gold.PLP.Fitness>
46.6894

> <Gold.PLP.PLP>
-42.6386

> <Gold.PLP.part.hbond>
-2.0000

> <Gold.PLP.part.metal>
0.0000

> <Gold.PLP.part.buried>
-1.4228

> <Gold.PLP.part.nonpolar>
-38.9985

> <Gold.PLP.part.repulsive>
0.2565

> <Gold.PLP.ligand.clash>
0.0202

> <Gold.PLP.ligand.torsion>
0.9962

> <Gold.PLP.Chemscore.Hbond>
1.0000

> <Gold.PLP.Chemscore.CHOScore>
1.0000

> <Gold.PLP.Chemscore.Metal>
0.0000

> <Gold.Chemscore.Hbonds>
donor molecule, donor type, donor heavy atom, donor atom, acceptor molecule, acceptor atom, score
      L1  H    10    31       P1  8028  0.93
      L1  C     6    27       P1  8028  0.71

> <Gold.PLP.Chemscore.Internal.Correction>
0.0634

> <Gold.Rescore>
     Score         DG    S(hbond)    S(metal)    S(lipo)     H(rot)  DE(clash)    DE(int)     intcor
     15.97     -17.42       0.99        0.00     118.71       2.05       0.40       1.05       ----

> <Gold.Chemscore.Fitness>
15.9728

> <Gold.Chemscore.DG>
-17.4238

> <Gold.Chemscore.ZeroCoef>
-5.4800

> <Gold.Chemscore.Hbond>
0.9922

> <Gold.Chemscore.Metal>
0.0000

> <Gold.Chemscore.Lipo>
118.7141

> <Gold.Chemscore.Internal_Hbond>
0.0000

> <Gold.Chemscore.DEClash>
0.4005

> <Gold.Chemscore.DEInternal>
1.0505

> <Gold.Chemscore.Rot>
2.0546

> <Gold.Chemscore.Internal.Correction>
   9.000000E+99

> <Gold.Chemscore.Hbonds>
donor molecule, donor type, donor heavy atom, donor atom, acceptor molecule, acceptor atom, score
      L1  H    10    31       P1  8028  0.90

> <Gold.Chemscore.Hbond.Weighted>
-3.3139

> <Gold.Chemscore.Metal.Weighted>
-0.0000

> <Gold.Chemscore.Lipo.Weighted>
-13.8895

> <Gold.Chemscore.Internal_Hbond.Weighted>
0.0000

> <Gold.Chemscore.DEClash.Weighted>
0.4005

> <Gold.Chemscore.DEInternal.Weighted>
1.0505

> <Gold.Chemscore.Rot.Weighted>
5.2597

> <Gold.Chemscore.Internal.Correction.Weighted>
   9.000000E+99

> <Gold.Protein.RotatedTorsions>
[ 6907 6896 6895 6894 ] final  154.82 input  -60.11 | X-H torsion
[ 7974 7965 7964 7962 ] final  -82.53 input  175.53 | X-H torsion
[ 8008 7997 7996 7995 ] final -111.62 input   59.86 | X-H torsion
[ 10167 10162 10161 10158 ] final  -55.57 input  -65.29 | X-H torsion
[ 10718 10713 10712 10709 ] final  175.77 input   66.30 | X-H torsion
[ 10763 10752 10751 10750 ] final    0.06 input  -60.55 | X-H torsion
[ 11005 11000 10999 10996 ] final   14.41 input  -57.11 | X-H torsion

> <Gold.Protein.ActiveResidues>
 VAL166  LYS551  ARG553  GLY616  TRP617  ASP618  TYR619  PRO620  LYS621  CYS622 
 ASP623  PHE694  ASN695  SER759  ASP760  ASP761  ALA762  ILE779  LEU786  VAL792 
 PHE793  MET794  SER795  GLU796  ALA797  LYS798  CYS799  TRP800  GLU811  SER814 

> <Gold.Protein.RotatedAtoms>
  152.0531  133.4028  159.4385 H   0  0  0  0  0  0  0  0  0  0  0  0  # atno 6907 bound_to 6896
  150.6869  134.3286  159.4826 H   0  0  0  0  0  0  0  0  0  0  0  0  # atno 6908 bound_to 6896
  152.1098  134.9282  160.0617 H   0  0  0  0  0  0  0  0  0  0  0  0  # atno 6909 bound_to 6896
  145.5321  140.9520  143.1597 H   0  0  0  0  0  0  0  0  0  0  0  0  # atno 7974 bound_to 7965
  154.9926  140.0395  157.2326 H   0  0  0  0  0  0  0  0  0  0  0  0  # atno 8008 bound_to 7997
  154.7615  140.2785  155.6187 H   0  0  0  0  0  0  0  0  0  0  0  0  # atno 8009 bound_to 7997
  156.2905  140.2627  156.2395 H   0  0  0  0  0  0  0  0  0  0  0  0  # atno 8010 bound_to 7997
  140.6367  143.2486  151.5100 H   0  0  0  0  0  0  0  0  0  0  0  0  # atno 10167 bound_to 10162
  156.9299  130.9968  151.2989 H   0  0  0  0  0  0  0  0  0  0  0  0  # atno 10718 bound_to 10713
  153.3255  135.6972  153.6993 H   0  0  0  0  0  0  0  0  0  0  0  0  # atno 10763 bound_to 10752
  153.5816  135.3497  155.2877 H   0  0  0  0  0  0  0  0  0  0  0  0  # atno 10764 bound_to 10752
  154.8607  135.4296  154.2431 H   0  0  0  0  0  0  0  0  0  0  0  0  # atno 10765 bound_to 10752
  140.4698  134.1043  155.7730 H   0  0  0  0  0  0  0  0  0  0  0  0  # atno 11005 bound_to 11000
  144.7620  139.6933  143.7230 LP  0  0  0  0  0  0  0  0  0  0  0  0  # atno 17320 bound_to 7965
  146.2037  139.5348  142.9726 LP  0  0  0  0  0  0  0  0  0  0  0  0  # atno 17321 bound_to 7965
  139.5577  144.2235  152.1639 LP  0  0  0  0  0  0  0  0  0  0  0  0  # atno 17342 bound_to 10162
  140.1493  144.5129  150.6697 LP  0  0  0  0  0  0  0  0  0  0  0  0  # atno 17343 bound_to 10162
  157.5853  130.8405  149.8581 LP  0  0  0  0  0  0  0  0  0  0  0  0  # atno 17370 bound_to 10713
  156.0452  130.3729  150.1336 LP  0  0  0  0  0  0  0  0  0  0  0  0  # atno 17371 bound_to 10713
  141.1582  133.8842  157.1919 LP  0  0  0  0  0  0  0  0  0  0  0  0  # atno 17394 bound_to 11000
  139.9892  135.0071  156.9936 LP  0  0  0  0  0  0  0  0  0  0  0  0  # atno 17395 bound_to 11000

$$$$
