#       Name:                AV-unprocessed.smi:1244
#       Creating user name   scv26
#       Creation time:       Fri Mar 27 04:32:30 2020


#       File generated by GOLD software.
#

@<TRIPOS>MOLECULE
AV-unprocessed.smi:1244
    61    63     1
SMALL
NO_CHARGES


@<TRIPOS>ATOM
      1 ****        -5.4618   3.9859  -2.3011 C.3            1 S1                 0.0000
      2 ****        -3.9434   3.7782  -2.2974 C.3            1 S1                 0.0000
      3 ****        -3.5246   2.5666  -1.4437 C.3            1 S1                 0.0000
      4 ****        -2.0598   2.3566  -1.5223 N.4            1 S1                 1.0000
      5 ****        -1.6000   1.2333  -0.6690 C.3            1 S1                 0.0000
      6 ****        -0.1166   1.3679  -0.2788 C.3            1 S1                 0.0000
      7 ****         0.3071   0.2652   0.5759 N.am           1 S1                 0.0000
      8 ****         0.6563  -0.9517   0.1358 C.2            1 S1                 0.0000
      9 ****         0.6663  -1.2628  -1.0551 O.2            1 S1                 0.0000
     10 ****         0.9955  -1.7581   1.1555 N.am           1 S1                 0.0000
     11 ****         1.4829  -3.0955   1.1062 C.ar           1 S1                 0.0000
     12 ****         1.1130  -3.9887   0.0702 C.ar           1 S1                 0.0000
     13 ****         1.5717  -5.3166   0.1059 C.ar           1 S1                 0.0000
     14 ****         2.3731  -5.7139   1.1885 C.ar           1 S1                 0.0000
     15 ****         2.7215  -4.8821   2.1898 N.ar           1 S1                 0.0000
     16 ****         2.3001  -3.5937   2.1622 C.ar           1 S1                 0.0000
     17 ****         2.7090  -2.7669   3.2344 N.3            1 S1                 0.0000
     18 ****         3.2731  -3.3517   4.4463 C.3            1 S1                 0.0000
     19 ****         3.9306  -2.1858   5.1789 C.3            1 S1                 0.0000
     20 ****         4.4619  -1.3361   4.0287 C.3            1 S1                 0.0000
     21 ****         3.4210  -1.5314   2.9209 C.3            1 S1                 0.0000
     22 ****        -1.6326   2.2323  -2.9378 C.3            1 S1                 0.0000
     23 ****        -2.1059   3.4491  -3.7554 C.3            1 S1                 0.0000
     24 ****        -1.7588   3.3158  -5.2421 C.3            1 S1                 0.0000
     25 ****        -3.5199   3.5672  -3.6396 O.3            1 S1                 0.0000
     26 ****        -5.8361   4.1627  -1.2926 H              1 S1                 0.0000
     27 ****        -5.9793   3.1141  -2.7026 H              1 S1                 0.0000
     28 ****        -5.7359   4.8463  -2.9121 H              1 S1                 0.0000
     29 ****        -3.4716   4.6830  -1.9101 H              1 S1                 0.0000
     30 ****        -3.8168   2.7321  -0.4060 H              1 S1                 0.0000
     31 ****        -4.0401   1.6666  -1.7836 H              1 S1                 0.0000
     32 ****        -2.1890   1.2139   0.2494 H              1 S1                 0.0000
     33 ****        -1.7908   0.2855  -1.1753 H              1 S1                 0.0000
     34 ****         0.5263   1.4121  -1.1586 H              1 S1                 0.0000
     35 ****         0.0410   2.2989   0.2663 H              1 S1                 0.0000
     36 ****         0.3332   0.4391   1.5702 H              1 S1                 0.0000
     37 ****         1.0096  -1.3327   2.0710 H              1 S1                 0.0000
     38 ****         0.4667  -3.6881  -0.7397 H              1 S1                 0.0000
     39 ****         1.3042  -6.0166  -0.6717 H              1 S1                 0.0000
     40 ****         2.7396  -6.7274   1.2569 H              1 S1                 0.0000
     41 ****         2.5034  -3.8296   5.0525 H              1 S1                 0.0000
     42 ****         4.0299  -4.0976   4.2005 H              1 S1                 0.0000
     43 ****         3.1811  -1.6267   5.7408 H              1 S1                 0.0000
     44 ****         4.7095  -2.5040   5.8722 H              1 S1                 0.0000
     45 ****         4.6007  -0.2893   4.3006 H              1 S1                 0.0000
     46 ****         5.4254  -1.7280   3.6999 H              1 S1                 0.0000
     47 ****         3.8889  -1.5646   1.9360 H              1 S1                 0.0000
     48 ****         2.7110  -0.7044   2.9314 H              1 S1                 0.0000
     49 ****        -0.5475   2.1542  -2.9998 H              1 S1                 0.0000
     50 ****        -2.0424   1.3140  -3.3619 H              1 S1                 0.0000
     51 ****        -1.6372   4.3564  -3.3700 H              1 S1                 0.0000
     52 ****        -0.6819   3.2296  -5.3880 H              1 S1                 0.0000
     53 ****        -2.1009   4.1862  -5.8021 H              1 S1                 0.0000
     54 ****        -2.2278   2.4339  -5.6795 H              1 S1                 0.0000
     55 ****        -1.6345   3.1954  -1.1536 H              1 S1                 0.0000
     56 ****         0.4050  -0.5921  -1.7492 LP             1 S1                 0.0000
     57 ****         0.9358  -2.1862  -1.3284 LP             1 S1                 0.0000
     58 ****         3.2859  -5.2121   2.9465 LP             1 S1                 0.0000
     59 ****         1.7623  -2.5417   3.4645 LP             1 S1                 0.0000
     60 ****        -3.8234   4.3404  -4.1964 LP             1 S1                 0.0000
     61 ****        -3.9404   2.7261  -3.9796 LP             1 S1                 0.0000
@<TRIPOS>BOND
    1    1    2 1     
    2    1   26 1     
    3    1   27 1     
    4    1   28 1     
    5    2   25 1     
    6    2    3 1     
    7    2   29 1     
    8    3    4 1     
    9    3   30 1     
   10    3   31 1     
   11    4    5 1     
   12    4   22 1     
   13    4   55 1     
   14    5    6 1     
   15    5   32 1     
   16    5   33 1     
   17    6    7 1     
   18    6   34 1     
   19    6   35 1     
   20    7    8 am    
   21    7   36 1     
   22    8    9 2     
   23    8   10 am    
   24   10   11 1     
   25   10   37 1     
   26   11   16 ar    
   27   11   12 ar    
   28   12   13 ar    
   29   12   38 1     
   30   13   14 ar    
   31   13   39 1     
   32   14   15 ar    
   33   14   40 1     
   34   15   16 ar    
   35   16   17 1     
   36   17   21 1     
   37   17   18 1     
   38   18   19 1     
   39   18   41 1     
   40   18   42 1     
   41   19   20 1     
   42   19   43 1     
   43   19   44 1     
   44   20   21 1     
   45   20   45 1     
   46   20   46 1     
   47   21   47 1     
   48   21   48 1     
   49   22   23 1     
   50   22   49 1     
   51   22   50 1     
   52   23   24 1     
   53   23   25 1     
   54   23   51 1     
   55   24   52 1     
   56   24   53 1     
   57   24   54 1     
   58    9   56 1     
   59    9   57 1     
   60   15   58 1     
   61   17   59 1     
   62   25   60 1     
   63   25   61 1     
@<TRIPOS>SUBSTRUCTURE
      1 S1             1
@<TRIPOS>SET
LONE_PAIRS      STATIC     ATOMS    <user>   **** ""
6 56 57 58 59 60 61
DONOR_HYDROGENS      STATIC     ATOMS    <user>   **** ""
3 55 36 37
ATOM$BLUE        STATIC     ATOMS    COLORGROUP SYSTEM
6 56 57 58 59 60 61
ATOM$RED        STATIC     ATOMS    COLORGROUP SYSTEM
3 55 36 37
