#       Name:                AV-unprocessed.smi:2144
#       Creating user name   scv26
#       Creation time:       Fri Mar 27 11:50:05 2020


#       File generated by GOLD software.
#

@<TRIPOS>MOLECULE
AV-unprocessed.smi:2144
    47    49     1
SMALL
NO_CHARGES


@<TRIPOS>ATOM
      1 ****        -1.4215   2.7600  -3.3557 O.3            1 S1                 0.0000
      2 ****        -1.1787   1.8514  -2.3005 C.3            1 S1                 0.0000
      3 ****        -1.3782   2.4369  -0.9307 C.2            1 S1                 0.0000
      4 ****        -1.8469   3.6704  -0.7260 N.2            1 S1                 0.0000
      5 ****        -1.8724   3.7645   0.6513 C.ar           1 S1                 0.0000
      6 ****        -2.2733   4.8278   1.4919 C.ar           1 S1                 0.0000
      7 ****        -2.2125   4.6911   2.8943 C.ar           1 S1                 0.0000
      8 ****        -1.7509   3.4920   3.4748 C.ar           1 S1                 0.0000
      9 ****        -1.3472   2.4203   2.6554 C.ar           1 S1                 0.0000
     10 ****        -1.4100   2.5618   1.2559 C.ar           1 S1                 0.0000
     11 ****        -1.0967   1.7242   0.1891 N.pl3          1 S1                 0.0000
     12 ****        -0.5803   0.3646   0.2807 C.3            1 S1                 0.0000
     13 ****         0.9600   0.3017   0.2142 C.3            1 S1                 0.0000
     14 ****         1.5234   1.0517   1.2722 O.3            1 S1                 0.0000
     15 ****         1.4932  -1.1356   0.3022 C.3            1 S1                 0.0000
     16 ****         1.0820  -1.8513  -0.8549 O.3            1 S1                 0.0000
     17 ****         1.4504  -3.1749  -0.9715 C.ar           1 S1                 0.0000
     18 ****         2.2433  -3.8665  -0.0203 C.ar           1 S1                 0.0000
     19 ****         2.5780  -5.2200  -0.2194 C.ar           1 S1                 0.0000
     20 ****         2.1269  -5.8984  -1.3665 C.ar           1 S1                 0.0000
     21 ****         1.3385  -5.2211  -2.3148 C.ar           1 S1                 0.0000
     22 ****         1.0030  -3.8676  -2.1168 C.ar           1 S1                 0.0000
     23 ****         0.2423  -3.2270  -3.0366 F              1 S1                 0.0000
     24 ****        -1.2783   2.3134  -4.1758 H              1 S1                 0.0000
     25 ****        -1.8432   0.9957  -2.4216 H              1 S1                 0.0000
     26 ****        -0.1561   1.4870  -2.3931 H              1 S1                 0.0000
     27 ****        -2.6282   5.7502   1.0569 H              1 S1                 0.0000
     28 ****        -2.5213   5.5100   3.5274 H              1 S1                 0.0000
     29 ****        -1.7067   3.3957   4.5497 H              1 S1                 0.0000
     30 ****        -0.9923   1.5015   3.0976 H              1 S1                 0.0000
     31 ****        -0.9358  -0.0787   1.2115 H              1 S1                 0.0000
     32 ****        -1.0205  -0.2314  -0.5190 H              1 S1                 0.0000
     33 ****         1.3074   0.7474  -0.7179 H              1 S1                 0.0000
     34 ****         1.2280   0.6851   2.0914 H              1 S1                 0.0000
     35 ****         2.5836  -1.1177   0.3489 H              1 S1                 0.0000
     36 ****         1.1225  -1.6192   1.2077 H              1 S1                 0.0000
     37 ****         2.6095  -3.3809   0.8714 H              1 S1                 0.0000
     38 ****         3.1833  -5.7381   0.5098 H              1 S1                 0.0000
     39 ****         2.3853  -6.9359  -1.5186 H              1 S1                 0.0000
     40 ****         0.9908  -5.7401  -3.1957 H              1 S1                 0.0000
     41 ****        -0.7969   3.5374  -3.2816 LP             1 S1                 0.0000
     42 ****        -2.3659   3.0856  -3.3096 LP             1 S1                 0.0000
     43 ****        -2.1136   4.3565  -1.4029 LP             1 S1                 0.0000
     44 ****         1.2289   2.0049   1.2038 LP             1 S1                 0.0000
     45 ****         2.5212   1.0068   1.2232 LP             1 S1                 0.0000
     46 ****         1.4540  -1.3697  -1.6484 LP             1 S1                 0.0000
     47 ****         0.0829  -1.8187  -0.8834 LP             1 S1                 0.0000
@<TRIPOS>BOND
    1    1    2 1     
    2    1   24 1     
    3    2    3 1     
    4    2   25 1     
    5    2   26 1     
    6    3   11 1     
    7    3    4 2     
    8    4    5 1     
    9    5   10 ar    
   10    5    6 ar    
   11    6    7 ar    
   12    6   27 1     
   13    7    8 ar    
   14    7   28 1     
   15    8    9 ar    
   16    8   29 1     
   17    9   10 ar    
   18    9   30 1     
   19   10   11 1     
   20   11   12 1     
   21   12   13 1     
   22   12   31 1     
   23   12   32 1     
   24   13   14 1     
   25   13   15 1     
   26   13   33 1     
   27   14   34 1     
   28   15   16 1     
   29   15   35 1     
   30   15   36 1     
   31   16   17 1     
   32   17   22 ar    
   33   17   18 ar    
   34   18   19 ar    
   35   18   37 1     
   36   19   20 ar    
   37   19   38 1     
   38   20   21 ar    
   39   20   39 1     
   40   21   22 ar    
   41   21   40 1     
   42   22   23 1     
   43    1   41 1     
   44    1   42 1     
   45    4   43 1     
   46   14   44 1     
   47   14   45 1     
   48   16   46 1     
   49   16   47 1     
@<TRIPOS>SUBSTRUCTURE
      1 S1             1
@<TRIPOS>SET
LONE_PAIRS      STATIC     ATOMS    <user>   **** ""
7 41 42 43 44 45 46 47
DONOR_HYDROGENS      STATIC     ATOMS    <user>   **** ""
2 24 34
ATOM$BLUE        STATIC     ATOMS    COLORGROUP SYSTEM
7 41 42 43 44 45 46 47
ATOM$RED        STATIC     ATOMS    COLORGROUP SYSTEM
2 24 34
