#       Name:                AV-unprocessed.smi:2696
#       Creating user name   scv26
#       Creation time:       Fri Mar 27 14:45:18 2020


#       File generated by GOLD software.
#

@<TRIPOS>MOLECULE
AV-unprocessed.smi:2696
    48    49     1
SMALL
NO_CHARGES


@<TRIPOS>ATOM
      1 ****        -1.2328   4.0553   0.3975 C.3            1 S1                 0.0000
      2 ****        -2.3648   3.0155   0.3898 C.3            1 S1                 0.0000
      3 ****        -3.5114   3.4171   1.3301 C.3            1 S1                 0.0000
      4 ****        -1.8458   1.6191   0.7063 C.2            1 S1                 0.0000
      5 ****        -1.2307   1.3212   1.8760 C.2            1 S1                 0.0000
      6 ****        -0.7246  -0.0264   2.1348 C.2            1 S1                 0.0000
      7 ****        -0.1859  -0.3361   3.1972 O.2            1 S1                 0.0000
      8 ****        -0.8848  -0.9095   1.1063 N.am           1 S1                 0.0000
      9 ****        -0.3553  -2.2871   1.1967 C.3            1 S1                 0.0000
     10 ****         1.1646  -2.4257   0.8720 C.3            1 S1                 0.0000
     11 ****         1.4930  -3.8858   0.4936 C.3            1 S1                 0.0000
     12 ****         1.8641  -2.2615   2.0931 O.3            1 S1                 0.0000
     13 ****         1.6395  -1.4489  -0.2156 C.ar           1 S1                 0.0000
     14 ****         2.3971  -0.2999   0.1138 C.ar           1 S1                 0.0000
     15 ****         2.7909   0.6085  -0.8862 C.ar           1 S1                 0.0000
     16 ****         2.4293   0.3828  -2.2264 C.ar           1 S1                 0.0000
     17 ****         1.6684  -0.7515  -2.5751 C.ar           1 S1                 0.0000
     18 ****         1.2768  -0.9753  -4.0282 C.3            1 S1                 0.0000
     19 ****         0.3690  -1.9440  -4.1550 F              1 S1                 0.0000
     20 ****         0.7660   0.1458  -4.5375 F              1 S1                 0.0000
     21 ****         2.3590  -1.3114  -4.7292 F              1 S1                 0.0000
     22 ****         1.2832  -1.6631  -1.5678 C.ar           1 S1                 0.0000
     23 ****        -1.5686  -0.5582  -0.0765 C.2            1 S1                 0.0000
     24 ****        -2.0215   0.6382  -0.2749 N.2            1 S1                 0.0000
     25 ****        -0.4335   3.7684  -0.2867 H              1 S1                 0.0000
     26 ****        -0.7970   4.1700   1.3903 H              1 S1                 0.0000
     27 ****        -1.5988   5.0332   0.0838 H              1 S1                 0.0000
     28 ****        -2.7711   2.9924  -0.6228 H              1 S1                 0.0000
     29 ****        -4.3228   2.6897   1.2899 H              1 S1                 0.0000
     30 ****        -3.9250   4.3864   1.0504 H              1 S1                 0.0000
     31 ****        -3.1767   3.4869   2.3655 H              1 S1                 0.0000
     32 ****        -1.0988   2.0843   2.6289 H              1 S1                 0.0000
     33 ****        -0.5868  -2.7245   2.1701 H              1 S1                 0.0000
     34 ****        -0.9079  -2.9182   0.4978 H              1 S1                 0.0000
     35 ****         0.9658  -4.2092  -0.4035 H              1 S1                 0.0000
     36 ****         1.2083  -4.5764   1.2887 H              1 S1                 0.0000
     37 ****         2.5605  -4.0177   0.3108 H              1 S1                 0.0000
     38 ****         1.5255  -2.8812   2.7210 H              1 S1                 0.0000
     39 ****         2.6744  -0.0921   1.1365 H              1 S1                 0.0000
     40 ****         3.3668   1.4833  -0.6229 H              1 S1                 0.0000
     41 ****         2.7326   1.0860  -2.9881 H              1 S1                 0.0000
     42 ****         0.6886  -2.5238  -1.8319 H              1 S1                 0.0000
     43 ****        -1.6770  -1.3556  -0.8133 H              1 S1                 0.0000
     44 ****        -0.0814   0.3449   3.9220 LP             1 S1                 0.0000
     45 ****         0.1472  -1.2688   3.3357 LP             1 S1                 0.0000
     46 ****         1.7324  -1.3307   2.4340 LP             1 S1                 0.0000
     47 ****         2.8392  -2.4284   1.9476 LP             1 S1                 0.0000
     48 ****        -2.4955   0.8602  -1.1270 LP             1 S1                 0.0000
@<TRIPOS>BOND
    1    1    2 1     
    2    1   25 1     
    3    1   26 1     
    4    1   27 1     
    5    2    3 1     
    6    2    4 1     
    7    2   28 1     
    8    3   29 1     
    9    3   30 1     
   10    3   31 1     
   11    4   24 1     
   12    4    5 2     
   13    5    6 1     
   14    5   32 1     
   15    6    7 2     
   16    6    8 am    
   17    8    9 1     
   18    8   23 1     
   19    9   10 1     
   20    9   33 1     
   21    9   34 1     
   22   10   11 1     
   23   10   12 1     
   24   10   13 1     
   25   11   35 1     
   26   11   36 1     
   27   11   37 1     
   28   12   38 1     
   29   13   22 ar    
   30   13   14 ar    
   31   14   15 ar    
   32   14   39 1     
   33   15   16 ar    
   34   15   40 1     
   35   16   17 ar    
   36   16   41 1     
   37   17   18 1     
   38   17   22 ar    
   39   18   19 1     
   40   18   20 1     
   41   18   21 1     
   42   22   42 1     
   43   23   24 2     
   44   23   43 1     
   45    7   44 1     
   46    7   45 1     
   47   12   46 1     
   48   12   47 1     
   49   24   48 1     
@<TRIPOS>SUBSTRUCTURE
      1 S1             1
@<TRIPOS>SET
LONE_PAIRS      STATIC     ATOMS    <user>   **** ""
5 44 45 46 47 48
DONOR_HYDROGENS      STATIC     ATOMS    <user>   **** ""
1 38
ATOM$BLUE        STATIC     ATOMS    COLORGROUP SYSTEM
5 44 45 46 47 48
ATOM$RED        STATIC     ATOMS    COLORGROUP SYSTEM
1 38
