AV-unprocessed.smi:2753|AV-procd|sdf|10613|dock2
  -GOLD-   2272015 63D 1   1.00000     0.00000
 Structure written by MMmdl.
 27 28  0  0  0  0  0  0  0  0  3 V2000
  153.3129  137.7002  161.0146 F   0  0  0  0  0  0  0  0  0  0  0  0
  153.3108  138.1723  159.7680 C   0  0  0  0  0  0  0  0  0  0  0  0
  154.3415  137.6459  159.1069 F   0  0  0  0  0  0  0  0  0  0  0  0
  152.1799  137.8057  159.1655 F   0  0  0  0  0  0  0  0  0  0  0  0
  153.4218  139.6841  159.7862 C   0  0  0  0  0  0  0  0  0  0  0  0
  154.4638  140.2994  160.5410 C   0  0  0  0  0  0  0  0  0  0  0  0
  154.2985  141.6142  160.3594 N   0  5  0  0  0  0  0  0  0  0  0  0
  153.2369  141.8344  159.5555 C   0  0  0  0  0  0  0  0  0  0  0  0
  152.7393  143.1960  159.1161 C   0  0  2  0  0  0  0  0  0  0  0  0
  152.3979  144.1027  160.3124 C   0  0  0  0  0  0  0  0  0  0  0  0
  151.8778  145.4626  159.8217 C   0  0  0  0  0  0  0  0  0  0  0  0
  150.7046  145.2821  158.8434 C   0  0  0  0  0  0  0  0  0  0  0  0
  151.0973  144.4196  157.7075 N   0  3  0  0  0  0  0  0  0  0  0  0
  151.5606  143.0809  158.1322 C   0  0  0  0  0  0  0  0  0  0  0  0
  152.6957  140.6545  159.1982 N   0  0  0  0  0  0  0  0  0  0  0  0
  155.2639  139.9096  161.1579 H   0  0  0  0  0  0  0  0  0  0  0  0
  153.5663  143.6645  158.5797 H   0  0  0  0  0  0  0  0  0  0  0  0
  151.6383  143.6257  160.9335 H   0  0  0  0  0  0  0  0  0  0  0  0
  153.2759  144.2420  160.9443 H   0  0  0  0  0  0  0  0  0  0  0  0
  151.5666  146.0708  160.6713 H   0  0  0  0  0  0  0  0  0  0  0  0
  152.6849  146.0075  159.3299 H   0  0  0  0  0  0  0  0  0  0  0  0
  149.8496  144.8368  159.3540 H   0  0  0  0  0  0  0  0  0  0  0  0
  150.3795  146.2495  158.4600 H   0  0  0  0  0  0  0  0  0  0  0  0
  150.3076  144.3098  157.0878 H   0  0  0  0  0  0  0  0  0  0  0  0
  151.8557  142.5115  157.2503 H   0  0  0  0  0  0  0  0  0  0  0  0
  150.7288  142.5466  158.5937 H   0  0  0  0  0  0  0  0  0  0  0  0
  151.8477  144.8716  157.2049 H   0  0  0  0  0  0  0  0  0  0  0  0
  1  2  1  0  0  0  0
  2  3  1  0  0  0  0
  2  4  1  0  0  0  0
  2  5  1  0  0  0  0
  5 15  1  0  0  0  0
  5  6  2  0  0  0  0
  6  7  1  0  0  0  0
  6 16  1  0  0  0  0
  7  8  1  0  0  0  0
  8  9  1  0  0  0  0
  8 15  2  0  0  0  0
  9 14  1  0  0  0  0
  9 10  1  0  0  0  0
  9 17  1  0  0  0  0
 10 11  1  0  0  0  0
 10 18  1  0  0  0  0
 10 19  1  0  0  0  0
 11 12  1  0  0  0  0
 11 20  1  0  0  0  0
 11 21  1  0  0  0  0
 12 13  1  0  0  0  0
 12 22  1  0  0  0  0
 12 23  1  0  0  0  0
 13 14  1  0  0  0  0
 13 24  1  0  0  0  0
 13 27  1  0  0  0  0
 14 25  1  0  0  0  0
 14 26  1  0  0  0  0
M  CHG  1   7  -1
M  CHG  1  13   1
M  END
> <s_m_source_file>
AV-unprocessed.smi

> <i_m_source_file_index>
2753

> <i_lp_mmshare_version>
43012

> <i_f3d_flags>
0

> <s_epik_input>
RkMoRikoRiljMVtjSF1bbkhdYyhuMSlbQ0BASF0yW0NIMl1bQ0gyXVtDSDJdW05IXVtDSDJdMg==

> <s_epik_cmdline>
J2VwaWtfcHl0aG9uJywgJy1waCcsICc3LjAnLCAnLXRuJywgJzgnLCAnLW1hJywgJzIwMCcsICctbWV0YWxfYmluZGluZycsICctaW1hZScsICc8aW5maWxlLm1hZT4nLCAnLW9tYWUnLCAnPG91dGZpbGUubWFlPic=

> <r_lp_tautomer_probability>
0.5

> <r_epik_Ionization_Penalty>
6.42345

> <r_epik_Ionization_Penalty_Charging>
5.19935

> <r_epik_Ionization_Penalty_Neutral>
1.22411

> <r_epik_State_Penalty>
5.30226

> <r_epik_Charging_Adjusted_Penalty>
10.5016

> <i_epik_Tot_Q>
0

> <i_epik_Tot_abs_Q>
2

> <r_epik_Metal_State_Penalty>
1.35744

> <b_epik_Metal_Only>
1

> <s_lp_Force_Field>
OPLS_2005

> <r_lp_Energy>
18.3827

> <b_lp_Chiralities_Consistent>
1

> <s_lp_Variant>
AV-unprocessed.smi:2753-5

> <Gold.Version>
5.8.1

> <Gold.Id.Protein>
6NUR|6NUR_protein|mol2

> <Gold.PLP.Fitness>
38.5004

> <Gold.PLP.PLP>
-32.9155

> <Gold.PLP.part.hbond>
-1.0000

> <Gold.PLP.part.metal>
0.0000

> <Gold.PLP.part.buried>
-5.0139

> <Gold.PLP.part.nonpolar>
-26.7970

> <Gold.PLP.part.repulsive>
0.0527

> <Gold.PLP.ligand.clash>
0.0000

> <Gold.PLP.ligand.torsion>
0.2282

> <Gold.PLP.Chemscore.Hbond>
2.0000

> <Gold.PLP.Chemscore.CHOScore>
0.0000

> <Gold.PLP.Chemscore.Metal>
0.0000

> <Gold.Chemscore.Hbonds>
donor molecule, donor type, donor heavy atom, donor atom, acceptor molecule, acceptor atom, score
      L1  H    13    24       P1  8028  2.00

> <Gold.PLP.Chemscore.Internal.Correction>
0.0414

> <Gold.Rescore>
     Score         DG    S(hbond)    S(metal)    S(lipo)     H(rot)  DE(clash)    DE(int)     intcor
     14.91     -14.99       0.91        0.00      77.10       1.00       0.01       0.07       ----

> <Gold.Chemscore.Fitness>
14.9087

> <Gold.Chemscore.DG>
-14.9948

> <Gold.Chemscore.ZeroCoef>
-5.4800

> <Gold.Chemscore.Hbond>
0.9143

> <Gold.Chemscore.Metal>
0.0000

> <Gold.Chemscore.Lipo>
77.1043

> <Gold.Chemscore.Internal_Hbond>
0.0000

> <Gold.Chemscore.DEClash>
0.0149

> <Gold.Chemscore.DEInternal>
0.0713

> <Gold.Chemscore.Rot>
1.0000

> <Gold.Chemscore.Internal.Correction>
   9.000000E+99

> <Gold.Chemscore.Hbonds>
donor molecule, donor type, donor heavy atom, donor atom, acceptor molecule, acceptor atom, score
      L1  H    13    24       P1  8028  0.79

> <Gold.Chemscore.Hbond.Weighted>
-3.0536

> <Gold.Chemscore.Metal.Weighted>
-0.0000

> <Gold.Chemscore.Lipo.Weighted>
-9.0212

> <Gold.Chemscore.Internal_Hbond.Weighted>
0.0000

> <Gold.Chemscore.DEClash.Weighted>
0.0149

> <Gold.Chemscore.DEInternal.Weighted>
0.0713

> <Gold.Chemscore.Rot.Weighted>
2.5600

> <Gold.Chemscore.Internal.Correction.Weighted>
   9.000000E+99

> <Gold.Protein.RotatedTorsions>
[ 6907 6896 6895 6894 ] final -107.40 input  -60.11 | X-H torsion
[ 7974 7965 7964 7962 ] final  -34.44 input  175.53 | X-H torsion
[ 8008 7997 7996 7995 ] final   84.38 input   59.86 | X-H torsion
[ 10167 10162 10161 10158 ] final -104.39 input  -65.29 | X-H torsion
[ 10718 10713 10712 10709 ] final  129.96 input   66.30 | X-H torsion
[ 10763 10752 10751 10750 ] final -156.19 input  -60.55 | X-H torsion
[ 11005 11000 10999 10996 ] final -146.79 input  -57.11 | X-H torsion

> <Gold.Protein.ActiveResidues>
 VAL166  LYS551  ARG553  GLY616  TRP617  ASP618  TYR619  PRO620  LYS621  CYS622 
 ASP623  PHE694  ASN695  SER759  ASP760  ASP761  ALA762  ILE779  LEU786  VAL792 
 PHE793  MET794  SER795  GLU796  ALA797  LYS798  CYS799  TRP800  GLU811  SER814 

> <Gold.Protein.RotatedAtoms>
  150.7442  133.9833  159.3582 H   0  0  0  0  0  0  0  0  0  0  0  0  # atno 6907 bound_to 6896
  151.7775  135.0768  160.0378 H   0  0  0  0  0  0  0  0  0  0  0  0  # atno 6908 bound_to 6896
  152.3296  133.5907  159.5837 H   0  0  0  0  0  0  0  0  0  0  0  0  # atno 6909 bound_to 6896
  146.0829  140.6039  142.8900 H   0  0  0  0  0  0  0  0  0  0  0  0  # atno 7974 bound_to 7965
  155.9363  140.3411  155.6290 H   0  0  0  0  0  0  0  0  0  0  0  0  # atno 8008 bound_to 7997
  155.7095  140.0770  157.2395 H   0  0  0  0  0  0  0  0  0  0  0  0  # atno 8009 bound_to 7997
  154.4094  140.1625  156.2267 H   0  0  0  0  0  0  0  0  0  0  0  0  # atno 8010 bound_to 7997
  140.2097  143.3755  152.1060 H   0  0  0  0  0  0  0  0  0  0  0  0  # atno 10167 bound_to 10162
  157.5106  131.1096  150.9298 H   0  0  0  0  0  0  0  0  0  0  0  0  # atno 10718 bound_to 10713
  154.7731  135.3151  154.8148 H   0  0  0  0  0  0  0  0  0  0  0  0  # atno 10763 bound_to 10752
  153.8878  135.6828  153.4767 H   0  0  0  0  0  0  0  0  0  0  0  0  # atno 10764 bound_to 10752
  153.1349  135.4764  154.9342 H   0  0  0  0  0  0  0  0  0  0  0  0  # atno 10765 bound_to 10752
  140.7783  134.3109  157.5053 H   0  0  0  0  0  0  0  0  0  0  0  0  # atno 11005 bound_to 11000
  144.7305  140.4658  143.6941 LP  0  0  0  0  0  0  0  0  0  0  0  0  # atno 17320 bound_to 7965
  145.6184  139.1521  143.3036 LP  0  0  0  0  0  0  0  0  0  0  0  0  # atno 17321 bound_to 7965
  139.5184  144.7006  151.5505 LP  0  0  0  0  0  0  0  0  0  0  0  0  # atno 17342 bound_to 10162
  140.6332  143.9036  150.6624 LP  0  0  0  0  0  0  0  0  0  0  0  0  # atno 17343 bound_to 10162
  156.9939  130.5574  149.5305 LP  0  0  0  0  0  0  0  0  0  0  0  0  # atno 17370 bound_to 10713
  156.0287  130.5379  150.8476 LP  0  0  0  0  0  0  0  0  0  0  0  0  # atno 17371 bound_to 10713
  139.8746  134.9303  156.3498 LP  0  0  0  0  0  0  0  0  0  0  0  0  # atno 17394 bound_to 11000
  140.9507  133.7453  156.0268 LP  0  0  0  0  0  0  0  0  0  0  0  0  # atno 17395 bound_to 11000

$$$$
