AV-unprocessed.smi:3053|AV-procd|sdf|11637|dock2
  -GOLD-   2272017 33D 1   1.00000     0.00000
 Structure written by MMmdl.
 31 32  0  0  0  0  0  0  0  0  1 V2000
  148.5225  145.3192  161.0116 C   0  0  0  0  0  0  0  0  0  0  0  0
  149.6197  144.7523  160.1782 C   0  0  0  0  0  0  0  0  0  0  0  0
  149.4899  143.6461  159.4417 N   0  0  0  0  0  0  0  0  0  0  0  0
  150.6688  143.3049  158.7717 C   0  0  0  0  0  0  0  0  0  0  0  0
  150.7236  142.0565  157.9393 C   0  0  0  0  0  0  0  0  0  0  0  0
  150.9903  142.3232  156.4439 C   0  0  0  0  0  0  0  0  0  0  0  0
  149.7663  142.2822  155.6458 N   0  0  0  0  0  0  0  0  0  0  0  0
  149.4427  141.3210  154.7656 C   0  0  0  0  0  0  0  0  0  0  0  0
  150.1342  140.3201  154.5713 O   0  0  0  0  0  0  0  0  0  0  0  0
  148.1371  141.5262  153.9856 C   0  0  2  0  0  0  0  0  0  0  0  0
  146.8788  141.4114  154.8611 C   0  0  0  0  0  0  0  0  0  0  0  0
  146.2157  140.2411  154.3186 N   0  0  0  0  0  0  0  0  0  0  0  0
  146.8437  139.7201  153.2626 C   0  0  0  0  0  0  0  0  0  0  0  0
  146.4784  138.7418  152.6162 O   0  0  0  0  0  0  0  0  0  0  0  0
  147.9387  140.4481  153.0313 N   0  0  0  0  0  0  0  0  0  0  0  0
  151.6937  144.1910  158.9940 C   0  0  0  0  0  0  0  0  0  0  0  0
  151.2236  145.4686  160.0798 S   0  0  0  0  0  0  0  0  0  0  0  0
  147.5509  145.0021  160.6315 H   0  0  0  0  0  0  0  0  0  0  0  0
  148.5642  146.4084  160.9973 H   0  0  0  0  0  0  0  0  0  0  0  0
  148.6253  144.9774  162.0416 H   0  0  0  0  0  0  0  0  0  0  0  0
  151.4940  141.3875  158.3243 H   0  0  0  0  0  0  0  0  0  0  0  0
  149.7855  141.5091  158.0381 H   0  0  0  0  0  0  0  0  0  0  0  0
  151.4949  143.2831  156.3220 H   0  0  0  0  0  0  0  0  0  0  0  0
  151.6772  141.5711  156.0559 H   0  0  0  0  0  0  0  0  0  0  0  0
  149.1330  143.0624  155.7459 H   0  0  0  0  0  0  0  0  0  0  0  0
  148.1533  142.4769  153.4500 H   0  0  0  0  0  0  0  0  0  0  0  0
  147.0970  141.2660  155.9204 H   0  0  0  0  0  0  0  0  0  0  0  0
  146.2367  142.2868  154.7583 H   0  0  0  0  0  0  0  0  0  0  0  0
  145.3582  139.8730  154.7045 H   0  0  0  0  0  0  0  0  0  0  0  0
  148.5992  140.2510  152.2935 H   0  0  0  0  0  0  0  0  0  0  0  0
  152.6993  144.1580  158.6021 H   0  0  0  0  0  0  0  0  0  0  0  0
  1  2  1  0  0  0  0
  1 18  1  0  0  0  0
  1 19  1  0  0  0  0
  1 20  1  0  0  0  0
  2 17  1  0  0  0  0
  2  3  2  0  0  0  0
  3  4  1  0  0  0  0
  4  5  1  0  0  0  0
  4 16  2  0  0  0  0
  5  6  1  0  0  0  0
  5 21  1  0  0  0  0
  5 22  1  0  0  0  0
  6  7  1  0  0  0  0
  6 23  1  0  0  0  0
  6 24  1  0  0  0  0
  7  8  1  0  0  0  0
  7 25  1  0  0  0  0
  8  9  2  0  0  0  0
  8 10  1  0  0  0  0
 10 15  1  0  0  0  0
 10 11  1  0  0  0  0
 10 26  1  0  0  0  0
 11 12  1  0  0  0  0
 11 27  1  0  0  0  0
 11 28  1  0  0  0  0
 12 13  1  0  0  0  0
 12 29  1  0  0  0  0
 13 14  2  0  0  0  0
 13 15  1  0  0  0  0
 15 30  1  0  0  0  0
 16 17  1  0  0  0  0
 16 31  1  0  0  0  0
M  END
> <s_m_source_file>
AV-unprocessed.smi

> <i_m_source_file_index>
3053

> <i_lp_mmshare_version>
43012

> <i_f3d_flags>
0

> <s_epik_input>
W0NIM11jMW5jKFtjSF1zMSlbQ0gyXVtDSDJdW05IXUMoPU8pW0NAQEhdMltDSDJdW05IXUMoPU8pW05IXTI=

> <s_epik_cmdline>
J2VwaWtfcHl0aG9uJywgJy1waCcsICc3LjAnLCAnLXRuJywgJzgnLCAnLW1hJywgJzIwMCcsICctbWV0YWxfYmluZGluZycsICctaW1hZScsICc8aW5maWxlLm1hZT4nLCAnLW9tYWUnLCAnPG91dGZpbGUubWFlPic=

> <r_epik_Ionization_Penalty>
0.00110852

> <r_epik_Ionization_Penalty_Charging>
0

> <r_epik_Ionization_Penalty_Neutral>
0.00110852

> <r_epik_State_Penalty>
0.000695988

> <r_epik_Charging_Adjusted_Penalty>
0.000695988

> <i_epik_Tot_Q>
0

> <i_epik_Tot_abs_Q>
0

> <r_epik_Metal_State_Penalty>
-0

> <b_epik_Metal_Only>
0

> <s_lp_Force_Field>
OPLS_2005

> <r_lp_Energy>
23.9072

> <b_lp_Chiralities_Consistent>
1

> <s_lp_Variant>
AV-unprocessed.smi:3053-1

> <Gold.Version>
5.8.1

> <Gold.Id.Protein>
6NUR|6NUR_protein|mol2

> <Gold.PLP.Fitness>
45.2309

> <Gold.PLP.PLP>
-37.0390

> <Gold.PLP.part.hbond>
-4.4051

> <Gold.PLP.part.metal>
0.0000

> <Gold.PLP.part.buried>
-7.5582

> <Gold.PLP.part.nonpolar>
-26.1489

> <Gold.PLP.part.repulsive>
0.8085

> <Gold.PLP.ligand.clash>
0.0000

> <Gold.PLP.ligand.torsion>
0.4208

> <Gold.PLP.Chemscore.Hbond>
2.9920

> <Gold.PLP.Chemscore.CHOScore>
0.0000

> <Gold.PLP.Chemscore.Metal>
0.0000

> <Gold.Chemscore.Hbonds>
donor molecule, donor type, donor heavy atom, donor atom, acceptor molecule, acceptor atom, score
      L1  H     7    25       P1  8028  0.98
      L1  H    15    30       P1  7957  0.98
      P1  H  7989  7998       L1     9  0.99

> <Gold.PLP.Chemscore.Internal.Correction>
0.0576

> <Gold.Rescore>
     Score         DG    S(hbond)    S(metal)    S(lipo)     H(rot)  DE(clash)    DE(int)     intcor
     17.51     -17.87       2.66        0.00      74.28       2.02       0.01       0.35       ----

> <Gold.Chemscore.Fitness>
17.5101

> <Gold.Chemscore.DG>
-17.8688

> <Gold.Chemscore.ZeroCoef>
-5.4800

> <Gold.Chemscore.Hbond>
2.6593

> <Gold.Chemscore.Metal>
0.0000

> <Gold.Chemscore.Lipo>
74.2803

> <Gold.Chemscore.Internal_Hbond>
0.0000

> <Gold.Chemscore.DEClash>
0.0075

> <Gold.Chemscore.DEInternal>
0.3512

> <Gold.Chemscore.Rot>
2.0250

> <Gold.Chemscore.Internal.Correction>
   9.000000E+99

> <Gold.Chemscore.Hbonds>
donor molecule, donor type, donor heavy atom, donor atom, acceptor molecule, acceptor atom, score
      L1  H     7    25       P1  8028  0.93
      L1  H    15    30       P1  7957  0.92
      P1  H  7989  7998       L1     9  0.52

> <Gold.Chemscore.Hbond.Weighted>
-8.8820

> <Gold.Chemscore.Metal.Weighted>
-0.0000

> <Gold.Chemscore.Lipo.Weighted>
-8.6908

> <Gold.Chemscore.Internal_Hbond.Weighted>
0.0000

> <Gold.Chemscore.DEClash.Weighted>
0.0075

> <Gold.Chemscore.DEInternal.Weighted>
0.3512

> <Gold.Chemscore.Rot.Weighted>
5.1840

> <Gold.Chemscore.Internal.Correction.Weighted>
   9.000000E+99

> <Gold.Protein.RotatedTorsions>
[ 6907 6896 6895 6894 ] final   23.53 input  -60.11 | X-H torsion
[ 7974 7965 7964 7962 ] final   34.65 input  175.53 | X-H torsion
[ 8008 7997 7996 7995 ] final    8.85 input   59.86 | X-H torsion
[ 10167 10162 10161 10158 ] final   23.55 input  -65.29 | X-H torsion
[ 10718 10713 10712 10709 ] final  150.95 input   66.30 | X-H torsion
[ 10763 10752 10751 10750 ] final  -35.21 input  -60.55 | X-H torsion
[ 11005 11000 10999 10996 ] final    8.97 input  -57.11 | X-H torsion

> <Gold.Protein.ActiveResidues>
 VAL166  LYS551  ARG553  GLY616  TRP617  ASP618  TYR619  PRO620  LYS621  CYS622 
 ASP623  PHE694  ASN695  SER759  ASP760  ASP761  ALA762  ILE779  LEU786  VAL792 
 PHE793  MET794  SER795  GLU796  ALA797  LYS798  CYS799  TRP800  GLU811  SER814 

> <Gold.Protein.RotatedAtoms>
  151.9438  135.0201  160.0537 H   0  0  0  0  0  0  0  0  0  0  0  0  # atno 6907 bound_to 6896
  152.2013  133.4838  159.5068 H   0  0  0  0  0  0  0  0  0  0  0  0  # atno 6908 bound_to 6896
  150.6955  134.1504  159.4181 H   0  0  0  0  0  0  0  0  0  0  0  0  # atno 6909 bound_to 6896
  146.1338  139.6242  142.9209 H   0  0  0  0  0  0  0  0  0  0  0  0  # atno 7974 bound_to 7965
  154.7722  140.2804  155.6129 H   0  0  0  0  0  0  0  0  0  0  0  0  # atno 8008 bound_to 7997
  156.2936  140.2639  156.2455 H   0  0  0  0  0  0  0  0  0  0  0  0  # atno 8009 bound_to 7997
  154.9886  140.0374  157.2299 H   0  0  0  0  0  0  0  0  0  0  0  0  # atno 8010 bound_to 7997
  140.5260  143.9922  150.6440 H   0  0  0  0  0  0  0  0  0  0  0  0  # atno 10167 bound_to 10162
  157.2769  131.0828  151.1559 H   0  0  0  0  0  0  0  0  0  0  0  0  # atno 10718 bound_to 10713
  153.8594  135.6841  153.4784 H   0  0  0  0  0  0  0  0  0  0  0  0  # atno 10763 bound_to 10752
  153.1351  135.4681  154.9407 H   0  0  0  0  0  0  0  0  0  0  0  0  # atno 10764 bound_to 10752
  154.7766  135.3255  154.8029 H   0  0  0  0  0  0  0  0  0  0  0  0  # atno 10765 bound_to 10752
  140.5309  134.0467  155.7873 H   0  0  0  0  0  0  0  0  0  0  0  0  # atno 11005 bound_to 11000
  145.5202  141.0432  143.2439 LP  0  0  0  0  0  0  0  0  0  0  0  0  # atno 17320 bound_to 7965
  144.7718  139.6718  143.7191 LP  0  0  0  0  0  0  0  0  0  0  0  0  # atno 17321 bound_to 7965
  140.3284  143.3093  152.0712 LP  0  0  0  0  0  0  0  0  0  0  0  0  # atno 17342 bound_to 10162
  139.4938  144.6526  151.6643 LP  0  0  0  0  0  0  0  0  0  0  0  0  # atno 17343 bound_to 10162
  157.3009  130.6842  149.6163 LP  0  0  0  0  0  0  0  0  0  0  0  0  # atno 17370 bound_to 10713
  155.9664  130.4392  150.5250 LP  0  0  0  0  0  0  0  0  0  0  0  0  # atno 17371 bound_to 10713
  141.1281  133.9348  157.2592 LP  0  0  0  0  0  0  0  0  0  0  0  0  # atno 17394 bound_to 11000
  139.9554  135.0166  156.9114 LP  0  0  0  0  0  0  0  0  0  0  0  0  # atno 17395 bound_to 11000

$$$$
