AV-unprocessed.smi:2298|AV-procd|sdf|9226|dock2
  -GOLD-   2272012443D 1   1.00000     0.00000
 Structure written by MMmdl.
 38 39  0  0  0  0  0  0  0  0  2 V2000
  150.6868  141.2742  155.6623 C   0  0  0  0  0  0  0  0  0  0  0  0
  149.3728  141.0025  154.9552 C   0  0  0  0  0  0  0  0  0  0  0  0
  148.4784  142.0127  154.8820 N   0  3  0  0  0  0  0  0  0  0  0  0
  147.2752  141.8873  154.2851 C   0  0  0  0  0  0  0  0  0  0  0  0
  146.9071  140.6620  153.6965 C   0  0  0  0  0  0  0  0  0  0  0  0
  147.8145  139.5726  153.7280 C   0  0  0  0  0  0  0  0  0  0  0  0
  147.5152  138.2965  153.1731 N   0  0  0  0  0  0  0  0  0  0  0  0
  146.3116  137.7487  152.9331 C   0  0  0  0  0  0  0  0  0  0  0  0
  145.2285  138.2876  153.1598 O   0  0  0  0  0  0  0  0  0  0  0  0
  146.4323  136.5278  152.3921 N   0  0  0  0  0  0  0  0  0  0  0  0
  145.3200  135.6653  152.0034 C   0  0  1  0  0  0  0  0  0  0  0  0
  145.2009  135.6341  150.4678 C   0  0  0  0  0  0  0  0  0  0  0  0
  144.0759  134.6914  150.0104 C   0  0  0  0  0  0  0  0  0  0  0  0
  144.2770  133.2742  150.5738 C   0  0  2  0  0  0  0  0  0  0  0  0
  143.1921  132.4554  150.1921 O   0  0  0  0  0  0  0  0  0  0  0  0
  144.3875  133.2994  152.1078 C   0  0  0  0  0  0  0  0  0  0  0  0
  145.5124  134.2414  152.5665 C   0  0  0  0  0  0  0  0  0  0  0  0
  149.0601  139.7474  154.3810 C   0  0  0  0  0  0  0  0  0  0  0  0
  150.1968  138.4440  154.4719 Cl  0  0  0  0  0  0  0  0  0  0  0  0
  144.3929  136.0802  152.4043 H   0  0  0  0  0  0  0  0  0  0  0  0
  145.1861  132.8429  150.1528 H   0  0  0  0  0  0  0  0  0  0  0  0
  151.5214  141.1386  154.9739 H   0  0  0  0  0  0  0  0  0  0  0  0
  150.8165  140.5893  156.5007 H   0  0  0  0  0  0  0  0  0  0  0  0
  150.7293  142.2938  156.0482 H   0  0  0  0  0  0  0  0  0  0  0  0
  146.6438  142.7638  154.3013 H   0  0  0  0  0  0  0  0  0  0  0  0
  145.9310  140.5789  153.2434 H   0  0  0  0  0  0  0  0  0  0  0  0
  148.3135  137.7677  152.8522 H   0  0  0  0  0  0  0  0  0  0  0  0
  147.3614  136.1647  152.2359 H   0  0  0  0  0  0  0  0  0  0  0  0
  145.0136  136.6387  150.0866 H   0  0  0  0  0  0  0  0  0  0  0  0
  146.1449  135.3077  150.0289 H   0  0  0  0  0  0  0  0  0  0  0  0
  143.1153  135.0897  150.3407 H   0  0  0  0  0  0  0  0  0  0  0  0
  144.0409  134.6605  148.9207 H   0  0  0  0  0  0  0  0  0  0  0  0
  142.4819  133.0103  149.9079 H   0  0  0  0  0  0  0  0  0  0  0  0
  143.4424  133.6282  152.5427 H   0  0  0  0  0  0  0  0  0  0  0  0
  144.5704  132.2935  152.4875 H   0  0  0  0  0  0  0  0  0  0  0  0
  146.4734  133.8417  152.2395 H   0  0  0  0  0  0  0  0  0  0  0  0
  145.5429  134.2662  153.6564 H   0  0  0  0  0  0  0  0  0  0  0  0
  148.7221  142.9101  155.3021 H   0  0  0  0  0  0  0  0  0  0  0  0
  1  2  1  0  0  0  0
  1 22  1  0  0  0  0
  1 23  1  0  0  0  0
  1 24  1  0  0  0  0
  2 18  1  0  0  0  0
  2  3  2  0  0  0  0
  3  4  1  0  0  0  0
  3 38  1  0  0  0  0
  4  5  2  0  0  0  0
  4 25  1  0  0  0  0
  5  6  1  0  0  0  0
  5 26  1  0  0  0  0
  6  7  1  0  0  0  0
  6 18  2  0  0  0  0
  7  8  1  0  0  0  0
  7 27  1  0  0  0  0
  8  9  2  0  0  0  0
  8 10  1  0  0  0  0
 10 11  1  0  0  0  0
 10 28  1  0  0  0  0
 11 20  1  0  0  0  0
 11 17  1  0  0  0  0
 11 12  1  0  0  0  0
 12 13  1  0  0  0  0
 12 29  1  0  0  0  0
 12 30  1  0  0  0  0
 13 14  1  0  0  0  0
 13 31  1  0  0  0  0
 13 32  1  0  0  0  0
 14 21  1  0  0  0  0
 14 15  1  0  0  0  0
 14 16  1  0  0  0  0
 15 33  1  0  0  0  0
 16 17  1  0  0  0  0
 16 34  1  0  0  0  0
 16 35  1  0  0  0  0
 17 36  1  0  0  0  0
 17 37  1  0  0  0  0
 18 19  1  0  0  0  0
M  CHG  1   3   1
M  END
> <s_m_source_file>
AV-unprocessed.smi

> <i_m_source_file_index>
2298

> <i_lp_mmshare_version>
43012

> <i_f3d_flags>
0

> <s_epik_input>
W0NIM11jMW5bY0hdW2NIXWMoYzFDbClbTkhdQyg9TylbTkhdW0NASF0yW0NIMl1bQ0gyXVtDQEhdKFtPSF0pW0NIMl1bQ0gyXTI=

> <s_epik_cmdline>
J2VwaWtfcHl0aG9uJywgJy1waCcsICc3LjAnLCAnLXRuJywgJzgnLCAnLW1hJywgJzIwMCcsICctbWV0YWxfYmluZGluZycsICctaW1hZScsICc8aW5maWxlLm1hZT4nLCAnLW9tYWUnLCAnPG91dGZpbGUubWFlPic=

> <r_epik_Ionization_Penalty>
2.42586

> <r_epik_Ionization_Penalty_Charging>
2.42584

> <r_epik_Ionization_Penalty_Neutral>
2.16148e-05

> <r_epik_State_Penalty>
2.58553

> <r_epik_Charging_Adjusted_Penalty>
5.01136

> <i_epik_Tot_Q>
1

> <i_epik_Tot_abs_Q>
1

> <r_epik_Metal_State_Penalty>
2.59536

> <b_epik_Metal_Only>
0

> <s_lp_Force_Field>
OPLS_2005

> <r_lp_Energy>
18.0317

> <b_lp_Chiralities_Consistent>
1

> <s_lp_Variant>
AV-unprocessed.smi:2298-3

> <Gold.Version>
5.8.1

> <Gold.Id.Protein>
6NUR|6NUR_protein|mol2

> <Gold.PLP.Fitness>
46.3976

> <Gold.PLP.PLP>
-32.0278

> <Gold.PLP.part.hbond>
-4.2981

> <Gold.PLP.part.metal>
0.0000

> <Gold.PLP.part.buried>
-1.4926

> <Gold.PLP.part.nonpolar>
-29.4909

> <Gold.PLP.part.repulsive>
3.0781

> <Gold.PLP.ligand.clash>
0.0000

> <Gold.PLP.ligand.torsion>
0.2569

> <Gold.PLP.Chemscore.Hbond>
4.9600

> <Gold.PLP.Chemscore.CHOScore>
0.0000

> <Gold.PLP.Chemscore.Metal>
0.0000

> <Gold.Chemscore.Hbonds>
donor molecule, donor type, donor heavy atom, donor atom, acceptor molecule, acceptor atom, score
      L1  H     3    38       P1  8028  2.00
      L1  H     7    27       P1  7948  0.96
      L1  H    10    28       P1  7948  1.00
      L1  H    15    33       P1 10186  0.91

> <Gold.PLP.Chemscore.Internal.Correction>
0.0037

> <Gold.Rescore>
     Score         DG    S(hbond)    S(metal)    S(lipo)     H(rot)  DE(clash)    DE(int)     intcor
     21.14     -24.42       3.93        0.00      81.00       1.43       1.95       1.33       ----

> <Gold.Chemscore.Fitness>
21.1377

> <Gold.Chemscore.DG>
-24.4165

> <Gold.Chemscore.ZeroCoef>
-5.4800

> <Gold.Chemscore.Hbond>
3.9307

> <Gold.Chemscore.Metal>
0.0000

> <Gold.Chemscore.Lipo>
81.0026

> <Gold.Chemscore.Internal_Hbond>
0.0000

> <Gold.Chemscore.DEClash>
1.9461

> <Gold.Chemscore.DEInternal>
1.3327

> <Gold.Chemscore.Rot>
1.4333

> <Gold.Chemscore.Internal.Correction>
   9.000000E+99

> <Gold.Chemscore.Hbonds>
donor molecule, donor type, donor heavy atom, donor atom, acceptor molecule, acceptor atom, score
      L1  H     3    38       P1  8028  1.00
      L1  H     7    27       P1  7948  0.92
      L1  H    10    28       P1  7948  0.98
      L1  H    15    33       P1 10186  0.87

> <Gold.Chemscore.Hbond.Weighted>
-13.1285

> <Gold.Chemscore.Metal.Weighted>
-0.0000

> <Gold.Chemscore.Lipo.Weighted>
-9.4773

> <Gold.Chemscore.Internal_Hbond.Weighted>
0.0000

> <Gold.Chemscore.DEClash.Weighted>
1.9461

> <Gold.Chemscore.DEInternal.Weighted>
1.3327

> <Gold.Chemscore.Rot.Weighted>
3.6693

> <Gold.Chemscore.Internal.Correction.Weighted>
   9.000000E+99

> <Gold.Protein.RotatedTorsions>
[ 6907 6896 6895 6894 ] final  -50.15 input  -60.11 | X-H torsion
[ 7974 7965 7964 7962 ] final -137.20 input  175.53 | X-H torsion
[ 8008 7997 7996 7995 ] final  150.92 input   59.86 | X-H torsion
[ 10167 10162 10161 10158 ] final -155.05 input  -65.29 | X-H torsion
[ 10718 10713 10712 10709 ] final  -17.51 input   66.30 | X-H torsion
[ 10763 10752 10751 10750 ] final   28.89 input  -60.55 | X-H torsion
[ 11005 11000 10999 10996 ] final   12.72 input  -57.11 | X-H torsion

> <Gold.Protein.ActiveResidues>
 VAL166  LYS551  ARG553  GLY616  TRP617  ASP618  TYR619  PRO620  LYS621  CYS622 
 ASP623  PHE694  ASN695  SER759  ASP760  ASP761  ALA762  ILE779  LEU786  VAL792 
 PHE793  MET794  SER795  GLU796  ALA797  LYS798  CYS799  TRP800  GLU811  SER814 

> <Gold.Protein.RotatedAtoms>
  150.8736  134.8114  159.7172 H   0  0  0  0  0  0  0  0  0  0  0  0  # atno 6907 bound_to 6896
  152.4731  134.4908  159.9704 H   0  0  0  0  0  0  0  0  0  0  0  0  # atno 6908 bound_to 6896
  151.4993  133.3469  159.2902 H   0  0  0  0  0  0  0  0  0  0  0  0  # atno 6909 bound_to 6896
  144.8861  140.6577  143.5175 H   0  0  0  0  0  0  0  0  0  0  0  0  # atno 7974 bound_to 7965
  156.2696  140.2062  156.6094 H   0  0  0  0  0  0  0  0  0  0  0  0  # atno 8008 bound_to 7997
  154.6843  140.0536  157.0322 H   0  0  0  0  0  0  0  0  0  0  0  0  # atno 8009 bound_to 7997
  155.0955  140.3201  155.4564 H   0  0  0  0  0  0  0  0  0  0  0  0  # atno 8010 bound_to 7997
  139.6963  143.9337  152.2408 H   0  0  0  0  0  0  0  0  0  0  0  0  # atno 10167 bound_to 10162
  156.5725  130.4753  149.6356 H   0  0  0  0  0  0  0  0  0  0  0  0  # atno 10718 bound_to 10713
  153.0463  135.6502  154.0807 H   0  0  0  0  0  0  0  0  0  0  0  0  # atno 10763 bound_to 10752
  154.0504  135.2896  155.3343 H   0  0  0  0  0  0  0  0  0  0  0  0  # atno 10764 bound_to 10752
  154.6723  135.5351  153.8221 H   0  0  0  0  0  0  0  0  0  0  0  0  # atno 10765 bound_to 10752
  140.4888  134.0861  155.7767 H   0  0  0  0  0  0  0  0  0  0  0  0  # atno 11005 bound_to 11000
  145.3866  139.1625  143.4252 LP  0  0  0  0  0  0  0  0  0  0  0  0  # atno 17320 bound_to 7965
  146.3025  140.3951  142.8699 LP  0  0  0  0  0  0  0  0  0  0  0  0  # atno 17321 bound_to 7965
  139.9167  144.6824  150.8505 LP  0  0  0  0  0  0  0  0  0  0  0  0  # atno 17342 bound_to 10162
  140.7697  143.3404  151.2220 LP  0  0  0  0  0  0  0  0  0  0  0  0  # atno 17343 bound_to 10162
  156.2702  130.7013  151.1808 LP  0  0  0  0  0  0  0  0  0  0  0  0  # atno 17370 bound_to 10713
  157.7345  131.0581  150.5521 LP  0  0  0  0  0  0  0  0  0  0  0  0  # atno 17371 bound_to 10713
  141.1494  133.8996  157.2135 LP  0  0  0  0  0  0  0  0  0  0  0  0  # atno 17394 bound_to 11000
  139.9781  135.0107  156.9683 LP  0  0  0  0  0  0  0  0  0  0  0  0  # atno 17395 bound_to 11000

$$$$
