AV-unprocessed.smi:2152|AV-procd|sdf|8763|dock4
  -GOLD-   2272011543D 1   1.00000     0.00000
 Structure written by MMmdl.
 41 42  0  0  0  0  0  0  0  0  1 V2000
  152.0476  144.4368  158.1949 C   0  0  0  0  0  0  0  0  0  0  0  0
  152.6993  143.9433  159.4984 C   0  0  1  0  0  0  0  0  0  0  0  0
  151.7825  144.1817  160.7166 C   0  0  0  0  0  0  0  0  0  0  0  0
  152.4526  143.7357  162.0260 C   0  0  0  0  0  0  0  0  0  0  0  0
  152.8958  142.2668  161.9560 C   0  0  0  0  0  0  0  0  0  0  0  0
  153.8128  142.0201  160.7458 C   0  0  0  0  0  0  0  0  0  0  0  0
  153.1594  142.4662  159.4190 C   0  0  1  0  0  0  0  0  0  0  0  0
  152.0463  141.5861  159.0624 N   0  0  0  0  0  0  0  0  0  0  0  0
  152.0674  140.2454  159.0950 C   0  0  0  0  0  0  0  0  0  0  0  0
  153.0615  139.5905  159.4107 O   0  0  0  0  0  0  0  0  0  0  0  0
  150.7645  139.5424  158.6926 C   0  0  0  0  0  0  0  0  0  0  0  0
  150.9045  138.7386  157.4716 N   0  0  0  0  0  0  0  0  0  0  0  0
  151.0044  139.3683  156.2440 C   0  0  0  0  0  0  0  0  0  0  0  0
  151.1473  138.7049  155.0761 C   0  0  0  0  0  0  0  0  0  0  0  0
  151.2049  137.2489  155.0467 C   0  0  0  0  0  0  0  0  0  0  0  0
  151.3461  136.5971  154.0110 O   0  0  0  0  0  0  0  0  0  0  0  0
  151.0923  136.6291  156.3121 N   0  0  0  0  0  0  0  0  0  0  0  0
  151.1603  135.1828  156.3299 C   0  0  0  0  0  0  0  0  0  0  0  0
  150.9497  137.3281  157.5337 C   0  0  0  0  0  0  0  0  0  0  0  0
  150.8704  136.7509  158.6209 O   0  0  0  0  0  0  0  0  0  0  0  0
  151.1127  143.9161  157.9867 H   0  0  0  0  0  0  0  0  0  0  0  0
  152.7115  144.2850  157.3434 H   0  0  0  0  0  0  0  0  0  0  0  0
  151.8238  145.5024  158.2503 H   0  0  0  0  0  0  0  0  0  0  0  0
  153.5947  144.5487  159.6479 H   0  0  0  0  0  0  0  0  0  0  0  0
  151.5221  145.2385  160.7848 H   0  0  0  0  0  0  0  0  0  0  0  0
  150.8426  143.6438  160.5872 H   0  0  0  0  0  0  0  0  0  0  0  0
  153.3177  144.3687  162.2269 H   0  0  0  0  0  0  0  0  0  0  0  0
  151.7660  143.8772  162.8612 H   0  0  0  0  0  0  0  0  0  0  0  0
  153.4142  141.9924  162.8750 H   0  0  0  0  0  0  0  0  0  0  0  0
  152.0192  141.6205  161.8934 H   0  0  0  0  0  0  0  0  0  0  0  0
  154.7430  142.5717  160.8877 H   0  0  0  0  0  0  0  0  0  0  0  0
  154.0933  140.9672  160.7005 H   0  0  0  0  0  0  0  0  0  0  0  0
  153.9104  142.3947  158.6299 H   0  0  0  0  0  0  0  0  0  0  0  0
  151.1873  142.0371  158.7828 H   0  0  0  0  0  0  0  0  0  0  0  0
  150.4098  138.9133  159.5112 H   0  0  0  0  0  0  0  0  0  0  0  0
  149.9974  140.3056  158.5545 H   0  0  0  0  0  0  0  0  0  0  0  0
  150.9719  140.4478  156.2142 H   0  0  0  0  0  0  0  0  0  0  0  0
  151.2232  139.2585  154.1517 H   0  0  0  0  0  0  0  0  0  0  0  0
  150.9153  134.7872  157.3151 H   0  0  0  0  0  0  0  0  0  0  0  0
  152.1791  134.9093  156.0505 H   0  0  0  0  0  0  0  0  0  0  0  0
  150.4340  134.8077  155.6065 H   0  0  0  0  0  0  0  0  0  0  0  0
  1  2  1  0  0  0  0
  1 21  1  0  0  0  0
  1 22  1  0  0  0  0
  1 23  1  0  0  0  0
  2  7  1  0  0  0  0
  2  3  1  0  0  0  0
  2 24  1  0  0  0  0
  3  4  1  0  0  0  0
  3 25  1  0  0  0  0
  3 26  1  0  0  0  0
  4  5  1  0  0  0  0
  4 27  1  0  0  0  0
  4 28  1  0  0  0  0
  5  6  1  0  0  0  0
  5 29  1  0  0  0  0
  5 30  1  0  0  0  0
  6  7  1  0  0  0  0
  6 31  1  0  0  0  0
  6 32  1  0  0  0  0
  7  8  1  0  0  0  0
  7 33  1  0  0  0  0
  8  9  1  0  0  0  0
  8 34  1  0  0  0  0
  9 10  2  0  0  0  0
  9 11  1  0  0  0  0
 11 12  1  0  0  0  0
 11 35  1  0  0  0  0
 11 36  1  0  0  0  0
 12 19  1  0  0  0  0
 12 13  1  0  0  0  0
 13 14  2  0  0  0  0
 13 37  1  0  0  0  0
 14 15  1  0  0  0  0
 14 38  1  0  0  0  0
 15 16  2  0  0  0  0
 15 17  1  0  0  0  0
 17 18  1  0  0  0  0
 17 19  1  0  0  0  0
 18 39  1  0  0  0  0
 18 40  1  0  0  0  0
 18 41  1  0  0  0  0
 19 20  2  0  0  0  0
M  END
> <s_m_source_file>
AV-unprocessed.smi

> <i_m_source_file_index>
2152

> <i_lp_mmshare_version>
43012

> <i_f3d_flags>
0

> <s_epik_input>
W0NIM11bQ0BASF0xW0NIMl1bQ0gyXVtDSDJdW0NIMl1bQ0BIXTFbTkhdQyg9TylbQ0gyXW4yW2NIXVtjSF1jKD1PKW4oW0NIM10pYzI9Tw==

> <s_epik_cmdline>
J2VwaWtfcHl0aG9uJywgJy1waCcsICc3LjAnLCAnLXRuJywgJzgnLCAnLW1hJywgJzIwMCcsICctbWV0YWxfYmluZGluZycsICctaW1hZScsICc8aW5maWxlLm1hZT4nLCAnLW9tYWUnLCAnPG91dGZpbGUubWFlPic=

> <r_lp_tautomer_probability>
1

> <r_epik_Ionization_Penalty>
3.20555e-08

> <r_epik_Ionization_Penalty_Charging>
1.30086e-08

> <r_epik_Ionization_Penalty_Neutral>
1.90469e-08

> <r_epik_State_Penalty>
-0

> <r_epik_Charging_Adjusted_Penalty>
1.30086e-08

> <i_epik_Tot_Q>
0

> <i_epik_Tot_abs_Q>
0

> <r_epik_Metal_State_Penalty>
-0

> <b_epik_Metal_Only>
0

> <s_lp_Force_Field>
OPLS_2005

> <r_lp_Energy>
17.5723

> <b_lp_Chiralities_Consistent>
1

> <s_lp_Variant>
AV-unprocessed.smi:2152-2

> <Gold.Version>
5.8.1

> <Gold.Id.Protein>
6NUR|6NUR_protein|mol2

> <Gold.PLP.Fitness>
45.2813

> <Gold.PLP.PLP>
-40.8383

> <Gold.PLP.part.hbond>
-1.8155

> <Gold.PLP.part.metal>
0.0000

> <Gold.PLP.part.buried>
-6.8325

> <Gold.PLP.part.nonpolar>
-36.3168

> <Gold.PLP.part.repulsive>
2.9289

> <Gold.PLP.ligand.clash>
0.0000

> <Gold.PLP.ligand.torsion>
0.3073

> <Gold.PLP.Chemscore.Hbond>
1.6825

> <Gold.PLP.Chemscore.CHOScore>
0.0000

> <Gold.PLP.Chemscore.Metal>
0.0000

> <Gold.Chemscore.Hbonds>
donor molecule, donor type, donor heavy atom, donor atom, acceptor molecule, acceptor atom, score
      P1  H  6896  6909       L1    20  0.81
      P1  H 10752 10764       L1    16  1.00

> <Gold.PLP.Chemscore.Internal.Correction>
0.0100

> <Gold.Rescore>
     Score         DG    S(hbond)    S(metal)    S(lipo)     H(rot)  DE(clash)    DE(int)     intcor
     17.98     -19.92       1.79        0.00     105.79       1.52       0.24       1.70       ----

> <Gold.Chemscore.Fitness>
17.9811

> <Gold.Chemscore.DG>
-19.9183

> <Gold.Chemscore.ZeroCoef>
-5.4800

> <Gold.Chemscore.Hbond>
1.7854

> <Gold.Chemscore.Metal>
0.0000

> <Gold.Chemscore.Lipo>
105.7873

> <Gold.Chemscore.Internal_Hbond>
0.0000

> <Gold.Chemscore.DEClash>
0.2373

> <Gold.Chemscore.DEInternal>
1.7000

> <Gold.Chemscore.Rot>
1.5242

> <Gold.Chemscore.Internal.Correction>
   9.000000E+99

> <Gold.Chemscore.Hbonds>
donor molecule, donor type, donor heavy atom, donor atom, acceptor molecule, acceptor atom, score
      P1  H  6896  6909       L1    20  0.76
      P1  H 10752 10764       L1    16  0.78

> <Gold.Chemscore.Hbond.Weighted>
-5.9631

> <Gold.Chemscore.Metal.Weighted>
-0.0000

> <Gold.Chemscore.Lipo.Weighted>
-12.3771

> <Gold.Chemscore.Internal_Hbond.Weighted>
0.0000

> <Gold.Chemscore.DEClash.Weighted>
0.2373

> <Gold.Chemscore.DEInternal.Weighted>
1.7000

> <Gold.Chemscore.Rot.Weighted>
3.9019

> <Gold.Chemscore.Internal.Correction.Weighted>
   9.000000E+99

> <Gold.Protein.RotatedTorsions>
[ 6907 6896 6895 6894 ] final   88.56 input  -60.11 | X-H torsion
[ 7974 7965 7964 7962 ] final -120.63 input  175.53 | X-H torsion
[ 8008 7997 7996 7995 ] final   17.73 input   59.86 | X-H torsion
[ 10167 10162 10161 10158 ] final -129.41 input  -65.29 | X-H torsion
[ 10718 10713 10712 10709 ] final -157.67 input   66.30 | X-H torsion
[ 10763 10752 10751 10750 ] final  -96.70 input  -60.55 | X-H torsion
[ 11005 11000 10999 10996 ] final  100.52 input  -57.11 | X-H torsion

> <Gold.Protein.ActiveResidues>
 VAL166  LYS551  ARG553  GLY616  TRP617  ASP618  TYR619  PRO620  LYS621  CYS622 
 ASP623  PHE694  ASN695  SER759  ASP760  ASP761  ALA762  ILE779  LEU786  VAL792 
 PHE793  MET794  SER795  GLU796  ALA797  LYS798  CYS799  TRP800  GLU811  SER814 

> <Gold.Protein.RotatedAtoms>
  152.5426  134.2103  159.8747 H   0  0  0  0  0  0  0  0  0  0  0  0  # atno 6907 bound_to 6896
  151.2086  133.4562  159.2605 H   0  0  0  0  0  0  0  0  0  0  0  0  # atno 6908 bound_to 6896
  151.0919  134.9934  159.8462 H   0  0  0  0  0  0  0  0  0  0  0  0  # atno 6909 bound_to 6896
  145.0493  140.8205  143.4219 H   0  0  0  0  0  0  0  0  0  0  0  0  # atno 7974 bound_to 7965
  154.8956  140.2993  155.5346 H   0  0  0  0  0  0  0  0  0  0  0  0  # atno 8008 bound_to 7997
  156.3020  140.2416  156.3912 H   0  0  0  0  0  0  0  0  0  0  0  0  # atno 8009 bound_to 7997
  154.8573  140.0407  157.1632 H   0  0  0  0  0  0  0  0  0  0  0  0  # atno 8010 bound_to 7997
  139.9401  143.6173  152.2506 H   0  0  0  0  0  0  0  0  0  0  0  0  # atno 10167 bound_to 10162
  156.5435  130.8574  151.2757 H   0  0  0  0  0  0  0  0  0  0  0  0  # atno 10718 bound_to 10713
  154.7263  135.5074  153.8891 H   0  0  0  0  0  0  0  0  0  0  0  0  # atno 10763 bound_to 10752
  153.0908  135.6658  153.9867 H   0  0  0  0  0  0  0  0  0  0  0  0  # atno 10764 bound_to 10752
  153.9679  135.3041  155.3408 H   0  0  0  0  0  0  0  0  0  0  0  0  # atno 10765 bound_to 10752
  139.8771  134.9143  156.4768 H   0  0  0  0  0  0  0  0  0  0  0  0  # atno 11005 bound_to 11000
  145.1548  139.2493  143.5422 LP  0  0  0  0  0  0  0  0  0  0  0  0  # atno 17320 bound_to 7965
  146.3516  140.1260  142.8598 LP  0  0  0  0  0  0  0  0  0  0  0  0  # atno 17321 bound_to 7965
  139.6712  144.7661  151.1780 LP  0  0  0  0  0  0  0  0  0  0  0  0  # atno 17342 bound_to 10162
  140.7613  143.5863  150.8842 LP  0  0  0  0  0  0  0  0  0  0  0  0  # atno 17343 bound_to 10162
  157.7401  130.9843  150.2355 LP  0  0  0  0  0  0  0  0  0  0  0  0  # atno 17370 bound_to 10713
  156.2949  130.3750  149.7805 LP  0  0  0  0  0  0  0  0  0  0  0  0  # atno 17371 bound_to 10713
  140.8756  133.7956  155.9411 LP  0  0  0  0  0  0  0  0  0  0  0  0  # atno 17394 bound_to 11000
  140.8907  134.2498  157.5096 LP  0  0  0  0  0  0  0  0  0  0  0  0  # atno 17395 bound_to 11000

$$$$
