#       Name:                AV-unprocessed.smi:1047
#       Creating user name   scv26
#       Creation time:       Fri Mar 27 03:02:27 2020


#       File generated by GOLD software.
#

@<TRIPOS>MOLECULE
AV-unprocessed.smi:1047
    62    64     1
SMALL
NO_CHARGES


@<TRIPOS>ATOM
      1 ****        -4.6438   5.8347   0.3789 C.3            1 S1                 0.0000
      2 ****        -4.1181   4.3995   0.5241 C.3            1 S1                 0.0000
      3 ****        -2.6639   4.2823   0.6232 N.3            1 S1                 0.0000
      4 ****        -2.1387   4.8574   1.8592 C.3            1 S1                 0.0000
      5 ****        -0.6125   4.6963   1.9622 C.3            1 S1                 0.0000
      6 ****        -0.2672   3.3200   1.8420 O.3            1 S1                 0.0000
      7 ****        -0.7115   2.7390   0.6184 C.3            1 S1                 0.0000
      8 ****        -0.2746   1.2681   0.5992 C.3            1 S1                 0.0000
      9 ****         1.1956   1.1506   0.5328 N.4            1 S1                 1.0000
     10 ****         1.6854  -0.2421   0.5334 C.3            1 S1                 0.0000
     11 ****         3.2244  -0.3062   0.4634 C.3            1 S1                 0.0000
     12 ****         3.7661   0.2227   1.6576 O.3            1 S1                 0.0000
     13 ****         3.7741  -1.7382   0.3065 C.3            1 S1                 0.0000
     14 ****         3.3203  -2.3838  -0.9120 N.pl3          1 S1                 0.0000
     15 ****         3.8436  -2.2421  -2.1449 C.2            1 S1                 0.0000
     16 ****         3.2703  -2.9245  -3.1316 N.2            1 S1                 0.0000
     17 ****         2.2610  -3.5928  -2.4600 C.ar           1 S1                 0.0000
     18 ****         1.2805  -4.4901  -2.9362 C.ar           1 S1                 0.0000
     19 ****         0.3300  -5.0581  -2.0583 C.ar           1 S1                 0.0000
     20 ****        -0.7054  -6.0203  -2.6140 C.3            1 S1                 0.0000
     21 ****         0.3510  -4.7290  -0.6791 C.ar           1 S1                 0.0000
     22 ****        -0.6611  -5.3263   0.2824 C.3            1 S1                 0.0000
     23 ****         1.3249  -3.8358  -0.1861 C.ar           1 S1                 0.0000
     24 ****         2.2658  -3.2775  -1.0697 C.ar           1 S1                 0.0000
     25 ****        -2.2436   2.8884   0.5329 C.3            1 S1                 0.0000
     26 ****        -5.7208   5.8316   0.2112 H              1 S1                 0.0000
     27 ****        -4.1792   6.3406  -0.4679 H              1 S1                 0.0000
     28 ****        -4.4586   6.4303   1.2725 H              1 S1                 0.0000
     29 ****        -4.5891   3.9253   1.3863 H              1 S1                 0.0000
     30 ****        -4.4576   3.8390  -0.3480 H              1 S1                 0.0000
     31 ****        -2.3811   5.9182   1.9171 H              1 S1                 0.0000
     32 ****        -2.6108   4.3809   2.7199 H              1 S1                 0.0000
     33 ****        -0.1098   5.2735   1.1847 H              1 S1                 0.0000
     34 ****        -0.2554   5.0718   2.9211 H              1 S1                 0.0000
     35 ****        -0.2503   3.2633  -0.2209 H              1 S1                 0.0000
     36 ****        -0.6467   0.7518   1.4852 H              1 S1                 0.0000
     37 ****        -0.7037   0.7669  -0.2696 H              1 S1                 0.0000
     38 ****         1.5192   1.6078  -0.3077 H              1 S1                 0.0000
     39 ****         1.3227  -0.7633   1.4207 H              1 S1                 0.0000
     40 ****         1.2469  -0.7418  -0.3305 H              1 S1                 0.0000
     41 ****         3.5800   0.3019  -0.3697 H              1 S1                 0.0000
     42 ****         3.5770   1.1473   1.6988 H              1 S1                 0.0000
     43 ****         4.8652  -1.7244   0.2950 H              1 S1                 0.0000
     44 ****         3.4817  -2.3558   1.1570 H              1 S1                 0.0000
     45 ****         4.6911  -1.5979  -2.3288 H              1 S1                 0.0000
     46 ****         1.2644  -4.7408  -3.9868 H              1 S1                 0.0000
     47 ****        -0.6422  -6.9846  -2.1089 H              1 S1                 0.0000
     48 ****        -0.5575  -6.1926  -3.6806 H              1 S1                 0.0000
     49 ****        -1.7107  -5.6215  -2.4756 H              1 S1                 0.0000
     50 ****        -0.5231  -4.9438   1.2942 H              1 S1                 0.0000
     51 ****        -0.5585  -6.4111   0.3175 H              1 S1                 0.0000
     52 ****        -1.6768  -5.0838  -0.0305 H              1 S1                 0.0000
     53 ****         1.3518  -3.5782   0.8623 H              1 S1                 0.0000
     54 ****        -2.7110   2.3099   1.3318 H              1 S1                 0.0000
     55 ****        -2.5947   2.4598  -0.4067 H              1 S1                 0.0000
     56 ****         1.5869   1.6278   1.3325 H              1 S1                 0.0000
     57 ****        -2.2911   4.8001  -0.1468 LP             1 S1                 0.0000
     58 ****        -0.6827   2.8197   2.6017 LP             1 S1                 0.0000
     59 ****         0.7279   3.2356   1.8920 LP             1 S1                 0.0000
     60 ****         4.7561   0.0824   1.6674 LP             1 S1                 0.0000
     61 ****         3.3562  -0.2386   2.4446 LP             1 S1                 0.0000
     62 ****         3.5061  -2.9486  -4.1031 LP             1 S1                 0.0000
@<TRIPOS>BOND
    1    1    2 1     
    2    1   26 1     
    3    1   27 1     
    4    1   28 1     
    5    2    3 1     
    6    2   29 1     
    7    2   30 1     
    8    3   25 1     
    9    3    4 1     
   10    4    5 1     
   11    4   31 1     
   12    4   32 1     
   13    5    6 1     
   14    5   33 1     
   15    5   34 1     
   16    6    7 1     
   17    7    8 1     
   18    7   25 1     
   19    7   35 1     
   20    8    9 1     
   21    8   36 1     
   22    8   37 1     
   23    9   10 1     
   24    9   38 1     
   25    9   56 1     
   26   10   11 1     
   27   10   39 1     
   28   10   40 1     
   29   11   12 1     
   30   11   13 1     
   31   11   41 1     
   32   12   42 1     
   33   13   14 1     
   34   13   43 1     
   35   13   44 1     
   36   14   24 1     
   37   14   15 1     
   38   15   16 2     
   39   15   45 1     
   40   16   17 1     
   41   17   24 ar    
   42   17   18 ar    
   43   18   19 ar    
   44   18   46 1     
   45   19   20 1     
   46   19   21 ar    
   47   20   47 1     
   48   20   48 1     
   49   20   49 1     
   50   21   22 1     
   51   21   23 ar    
   52   22   50 1     
   53   22   51 1     
   54   22   52 1     
   55   23   24 ar    
   56   23   53 1     
   57   25   54 1     
   58   25   55 1     
   59    3   57 1     
   60    6   58 1     
   61    6   59 1     
   62   12   60 1     
   63   12   61 1     
   64   16   62 1     
@<TRIPOS>SUBSTRUCTURE
      1 S1             1
@<TRIPOS>SET
LONE_PAIRS      STATIC     ATOMS    <user>   **** ""
6 57 58 59 60 61 62
DONOR_HYDROGENS      STATIC     ATOMS    <user>   **** ""
3 38 56 42
ATOM$BLUE        STATIC     ATOMS    COLORGROUP SYSTEM
6 57 58 59 60 61 62
ATOM$RED        STATIC     ATOMS    COLORGROUP SYSTEM
3 38 56 42
