AV-unprocessed.smi:2013|AV-procd|sdf|8158|dock10
  -GOLD-   2272010403D 1   1.00000     0.00000
 Structure written by MMmdl.
 51 52  0  0  0  0  0  0  0  0  2 V2000
  148.0385  141.7266  154.1209 C   0  0  0  0  0  0  0  0  0  0  0  0
  146.6262  141.7369  154.7305 C   0  0  0  0  0  0  0  0  0  0  0  0
  145.9301  143.0852  154.4761 C   0  0  0  0  0  0  0  0  0  0  0  0
  146.5592  141.3237  156.2292 C   0  0  1  0  0  0  0  0  0  0  0  0
  147.1827  142.3499  157.2143 C   0  0  0  0  0  0  0  0  0  0  0  0
  148.6247  142.4902  157.0495 N   0  0  0  0  0  0  0  0  0  0  0  0
  149.5304  141.5329  157.3004 C   0  0  0  0  0  0  0  0  0  0  0  0
  149.2305  140.4091  157.7021 O   0  0  0  0  0  0  0  0  0  0  0  0
  151.0002  141.8962  157.0650 C   0  0  0  0  0  0  0  0  0  0  0  0
  151.7807  141.8739  158.3088 N   0  0  0  0  0  0  0  0  0  0  0  0
  151.6358  142.9088  159.2150 C   0  0  0  0  0  0  0  0  0  0  0  0
  152.3133  142.9800  160.3814 C   0  0  0  0  0  0  0  0  0  0  0  0
  153.2619  141.9399  160.7576 C   0  0  0  0  0  0  0  0  0  0  0  0
  153.9044  141.9555  161.8085 O   0  0  0  0  0  0  0  0  0  0  0  0
  153.3942  140.8945  159.8157 N   0  0  0  0  0  0  0  0  0  0  0  0
  154.3271  139.8399  160.1552 C   0  0  0  0  0  0  0  0  0  0  0  0
  152.6800  140.8226  158.5965 C   0  0  0  0  0  0  0  0  0  0  0  0
  152.8237  139.8919  157.8002 O   0  0  0  0  0  0  0  0  0  0  0  0
  145.1824  140.8830  156.6166 N   0  3  0  0  0  0  0  0  0  0  0  0
  144.5707  139.9363  155.6522 C   0  0  0  0  0  0  0  0  0  0  0  0
  143.0994  139.6754  156.0197 C   0  0  0  0  0  0  0  0  0  0  0  0
  143.0082  139.1997  157.3573 O   0  0  0  0  0  0  0  0  0  0  0  0
  143.5204  140.1385  158.2949 C   0  0  0  0  0  0  0  0  0  0  0  0
  145.0099  140.3802  158.0054 C   0  0  0  0  0  0  0  0  0  0  0  0
  148.6634  142.5166  154.5364 H   0  0  0  0  0  0  0  0  0  0  0  0
  147.9926  141.8891  153.0437 H   0  0  0  0  0  0  0  0  0  0  0  0
  148.5415  140.7732  154.2795 H   0  0  0  0  0  0  0  0  0  0  0  0
  146.0480  141.0024  154.1690 H   0  0  0  0  0  0  0  0  0  0  0  0
  146.4576  143.9088  154.9581 H   0  0  0  0  0  0  0  0  0  0  0  0
  144.9066  143.0794  154.8518 H   0  0  0  0  0  0  0  0  0  0  0  0
  145.8833  143.3053  153.4092 H   0  0  0  0  0  0  0  0  0  0  0  0
  147.1954  140.4394  156.2924 H   0  0  0  0  0  0  0  0  0  0  0  0
  146.7537  143.3416  157.0746 H   0  0  0  0  0  0  0  0  0  0  0  0
  146.9654  142.0650  158.2453 H   0  0  0  0  0  0  0  0  0  0  0  0
  148.9632  143.3859  156.7266 H   0  0  0  0  0  0  0  0  0  0  0  0
  151.4301  141.1902  156.3526 H   0  0  0  0  0  0  0  0  0  0  0  0
  151.0583  142.8700  156.5759 H   0  0  0  0  0  0  0  0  0  0  0  0
  150.9452  143.7053  158.9783 H   0  0  0  0  0  0  0  0  0  0  0  0
  152.1521  143.8176  161.0443 H   0  0  0  0  0  0  0  0  0  0  0  0
  154.4032  139.1020  159.3574 H   0  0  0  0  0  0  0  0  0  0  0  0
  153.9586  139.3667  161.0670 H   0  0  0  0  0  0  0  0  0  0  0  0
  155.3012  140.3057  160.3151 H   0  0  0  0  0  0  0  0  0  0  0  0
  144.6184  140.3451  154.6420 H   0  0  0  0  0  0  0  0  0  0  0  0
  145.1325  139.0009  155.6487 H   0  0  0  0  0  0  0  0  0  0  0  0
  142.5053  140.5835  155.9052 H   0  0  0  0  0  0  0  0  0  0  0  0
  142.6716  138.9289  155.3502 H   0  0  0  0  0  0  0  0  0  0  0  0
  142.9556  141.0710  158.2467 H   0  0  0  0  0  0  0  0  0  0  0  0
  143.3926  139.7381  159.3010 H   0  0  0  0  0  0  0  0  0  0  0  0
  145.5517  139.4429  158.1386 H   0  0  0  0  0  0  0  0  0  0  0  0
  145.4124  141.0870  158.7289 H   0  0  0  0  0  0  0  0  0  0  0  0
  144.6185  141.7185  156.5525 H   0  0  0  0  0  0  0  0  0  0  0  0
  1  2  1  0  0  0  0
  1 25  1  0  0  0  0
  1 26  1  0  0  0  0
  1 27  1  0  0  0  0
  2  3  1  0  0  0  0
  2  4  1  0  0  0  0
  2 28  1  0  0  0  0
  3 29  1  0  0  0  0
  3 30  1  0  0  0  0
  3 31  1  0  0  0  0
  4  5  1  0  0  0  0
  4 19  1  0  0  0  0
  4 32  1  0  0  0  0
  5  6  1  0  0  0  0
  5 33  1  0  0  0  0
  5 34  1  0  0  0  0
  6  7  1  0  0  0  0
  6 35  1  0  0  0  0
  7  8  2  0  0  0  0
  7  9  1  0  0  0  0
  9 10  1  0  0  0  0
  9 36  1  0  0  0  0
  9 37  1  0  0  0  0
 10 17  1  0  0  0  0
 10 11  1  0  0  0  0
 11 12  2  0  0  0  0
 11 38  1  0  0  0  0
 12 13  1  0  0  0  0
 12 39  1  0  0  0  0
 13 14  2  0  0  0  0
 13 15  1  0  0  0  0
 15 16  1  0  0  0  0
 15 17  1  0  0  0  0
 16 40  1  0  0  0  0
 16 41  1  0  0  0  0
 16 42  1  0  0  0  0
 17 18  2  0  0  0  0
 19 24  1  0  0  0  0
 19 20  1  0  0  0  0
 19 51  1  0  0  0  0
 20 21  1  0  0  0  0
 20 43  1  0  0  0  0
 20 44  1  0  0  0  0
 21 22  1  0  0  0  0
 21 45  1  0  0  0  0
 21 46  1  0  0  0  0
 22 23  1  0  0  0  0
 23 24  1  0  0  0  0
 23 47  1  0  0  0  0
 23 48  1  0  0  0  0
 24 49  1  0  0  0  0
 24 50  1  0  0  0  0
M  CHG  1  19   1
M  END
> <s_m_source_file>
AV-unprocessed.smi

> <i_m_source_file_index>
2013

> <i_lp_mmshare_version>
43012

> <i_f3d_flags>
0

> <s_epik_input>
W0NIMl0xW0NIMl1PW0NIMl1bQ0gyXU4xW0NASF0oW0NIXShbQ0gzXSlbQ0gzXSlbQ0gyXVtOSF1DKD1PKVtDSDJdbjJbY0hdW2NIXWMoPU8pbihbQ0gzXSljMj1P

> <s_epik_cmdline>
J2VwaWtfcHl0aG9uJywgJy1waCcsICc3LjAnLCAnLXRuJywgJzgnLCAnLW1hJywgJzIwMCcsICctbWV0YWxfYmluZGluZycsICctaW1hZScsICc8aW5maWxlLm1hZT4nLCAnLW9tYWUnLCAnPG91dGZpbGUubWFlPic=

> <r_lp_tautomer_probability>
1

> <r_epik_Ionization_Penalty>
0.370738

> <r_epik_Ionization_Penalty_Charging>
0.370738

> <r_epik_Ionization_Penalty_Neutral>
8.1827e-08

> <r_epik_State_Penalty>
0.368162

> <r_epik_Charging_Adjusted_Penalty>
0.7389

> <i_epik_Tot_Q>
1

> <i_epik_Tot_abs_Q>
1

> <r_epik_Metal_State_Penalty>
0.368194

> <b_epik_Metal_Only>
0

> <s_lp_Force_Field>
OPLS_2005

> <r_lp_Energy>
35.5949

> <b_lp_Chiralities_Consistent>
1

> <s_lp_Variant>
AV-unprocessed.smi:2013-2

> <Gold.Version>
5.8.1

> <Gold.Id.Protein>
6NUR|6NUR_protein|mol2

> <Gold.PLP.Fitness>
43.2675

> <Gold.PLP.PLP>
-37.8729

> <Gold.PLP.part.hbond>
-2.7768

> <Gold.PLP.part.metal>
0.0000

> <Gold.PLP.part.buried>
-4.8028

> <Gold.PLP.part.nonpolar>
-30.4455

> <Gold.PLP.part.repulsive>
0.0316

> <Gold.PLP.ligand.clash>
0.0000

> <Gold.PLP.ligand.torsion>
0.5232

> <Gold.PLP.Chemscore.Hbond>
2.0000

> <Gold.PLP.Chemscore.CHOScore>
0.0000

> <Gold.PLP.Chemscore.Metal>
0.0000

> <Gold.Chemscore.Hbonds>
donor molecule, donor type, donor heavy atom, donor atom, acceptor molecule, acceptor atom, score
      L1  H     6    35       P1  8028  1.00
      P1  H  7997  8009       L1    18  1.00

> <Gold.PLP.Chemscore.Internal.Correction>
0.4409

> <Gold.Rescore>
     Score         DG    S(hbond)    S(metal)    S(lipo)     H(rot)  DE(clash)    DE(int)     intcor
     12.54     -13.00       1.90        0.00      59.96       2.28       0.00       0.46       ----

> <Gold.Chemscore.Fitness>
12.5379

> <Gold.Chemscore.DG>
-13.0037

> <Gold.Chemscore.ZeroCoef>
-5.4800

> <Gold.Chemscore.Hbond>
1.9010

> <Gold.Chemscore.Metal>
0.0000

> <Gold.Chemscore.Lipo>
59.9556

> <Gold.Chemscore.Internal_Hbond>
0.0000

> <Gold.Chemscore.DEClash>
0.0009

> <Gold.Chemscore.DEInternal>
0.4649

> <Gold.Chemscore.Rot>
2.2814

> <Gold.Chemscore.Internal.Correction>
   9.000000E+99

> <Gold.Chemscore.Hbonds>
donor molecule, donor type, donor heavy atom, donor atom, acceptor molecule, acceptor atom, score
      L1  H     6    35       P1  8028  0.84
      P1  H  7997  8009       L1    18  0.80

> <Gold.Chemscore.Hbond.Weighted>
-6.3493

> <Gold.Chemscore.Metal.Weighted>
-0.0000

> <Gold.Chemscore.Lipo.Weighted>
-7.0148

> <Gold.Chemscore.Internal_Hbond.Weighted>
0.0000

> <Gold.Chemscore.DEClash.Weighted>
0.0009

> <Gold.Chemscore.DEInternal.Weighted>
0.4649

> <Gold.Chemscore.Rot.Weighted>
5.8404

> <Gold.Chemscore.Internal.Correction.Weighted>
   9.000000E+99

> <Gold.Protein.RotatedTorsions>
[ 6907 6896 6895 6894 ] final  -99.57 input  -60.11 | X-H torsion
[ 7974 7965 7964 7962 ] final   99.52 input  175.53 | X-H torsion
[ 8008 7997 7996 7995 ] final  176.03 input   59.86 | X-H torsion
[ 10167 10162 10161 10158 ] final  107.56 input  -65.29 | X-H torsion
[ 10718 10713 10712 10709 ] final -119.87 input   66.30 | X-H torsion
[ 10763 10752 10751 10750 ] final -104.37 input  -60.55 | X-H torsion
[ 11005 11000 10999 10996 ] final  174.05 input  -57.11 | X-H torsion

> <Gold.Protein.ActiveResidues>
 VAL166  LYS551  ARG553  GLY616  TRP617  ASP618  TYR619  PRO620  LYS621  CYS622 
 ASP623  PHE694  ASN695  SER759  ASP760  ASP761  ALA762  ILE779  LEU786  VAL792 
 PHE793  MET794  SER795  GLU796  ALA797  LYS798  CYS799  TRP800  GLU811  SER814 

> <Gold.Protein.RotatedAtoms>
  150.7085  134.1020  159.3968 H   0  0  0  0  0  0  0  0  0  0  0  0  # atno 6907 bound_to 6896
  151.9006  135.0377  160.0515 H   0  0  0  0  0  0  0  0  0  0  0  0  # atno 6908 bound_to 6896
  152.2417  133.5106  159.5311 H   0  0  0  0  0  0  0  0  0  0  0  0  # atno 6909 bound_to 6896
  145.3977  139.2352  143.3317 H   0  0  0  0  0  0  0  0  0  0  0  0  # atno 7974 bound_to 7965
  156.0807  140.1394  156.9715 H   0  0  0  0  0  0  0  0  0  0  0  0  # atno 8008 bound_to 7997
  154.4584  140.0952  156.6872 H   0  0  0  0  0  0  0  0  0  0  0  0  # atno 8009 bound_to 7997
  155.5079  140.3453  155.4385 H   0  0  0  0  0  0  0  0  0  0  0  0  # atno 8010 bound_to 7997
  139.6917  144.7107  151.1336 H   0  0  0  0  0  0  0  0  0  0  0  0  # atno 10167 bound_to 10162
  156.1214  130.6326  150.9470 H   0  0  0  0  0  0  0  0  0  0  0  0  # atno 10718 bound_to 10713
  154.7873  135.4789  153.9974 H   0  0  0  0  0  0  0  0  0  0  0  0  # atno 10763 bound_to 10752
  153.1579  135.6803  153.8792 H   0  0  0  0  0  0  0  0  0  0  0  0  # atno 10764 bound_to 10752
  153.8416  135.3178  155.3404 H   0  0  0  0  0  0  0  0  0  0  0  0  # atno 10765 bound_to 10752
  140.3471  134.7227  157.4242 H   0  0  0  0  0  0  0  0  0  0  0  0  # atno 11005 bound_to 11000
  146.2767  140.4670  142.8793 LP  0  0  0  0  0  0  0  0  0  0  0  0  # atno 17320 bound_to 7965
  144.8395  140.6835  143.6238 LP  0  0  0  0  0  0  0  0  0  0  0  0  # atno 17321 bound_to 7965
  140.7684  143.5549  150.9163 LP  0  0  0  0  0  0  0  0  0  0  0  0  # atno 17342 bound_to 10162
  139.9227  143.6587  152.3093 LP  0  0  0  0  0  0  0  0  0  0  0  0  # atno 17343 bound_to 10162
  157.6397  131.0912  150.8276 LP  0  0  0  0  0  0  0  0  0  0  0  0  # atno 17370 bound_to 10713
  156.8372  130.5035  149.5325 LP  0  0  0  0  0  0  0  0  0  0  0  0  # atno 17371 bound_to 10713
  140.0733  134.5832  155.8618 LP  0  0  0  0  0  0  0  0  0  0  0  0  # atno 17394 bound_to 11000
  141.2022  133.6624  156.5996 LP  0  0  0  0  0  0  0  0  0  0  0  0  # atno 17395 bound_to 11000

$$$$
