#       Name:                AV-unprocessed.smi:849
#       Creating user name   scv26
#       Creation time:       Fri Mar 27 01:41:40 2020


#       File generated by GOLD software.
#

@<TRIPOS>MOLECULE
AV-unprocessed.smi:849
    41    43     1
SMALL
NO_CHARGES


@<TRIPOS>ATOM
      1 ****        -0.5700   4.0688  -0.1849 O.3            1 S1                 0.0000
      2 ****        -0.3499   3.5003   1.0865 C.3            1 S1                 0.0000
      3 ****        -0.7830   2.0718   1.1516 C.2            1 S1                 0.0000
      4 ****        -2.0764   1.6495   1.2222 N.pl3          1 S1                 1.0000
      5 ****        -2.1194   0.2570   1.2699 C.ar           1 S1                 0.0000
      6 ****        -3.1997  -0.6169   1.3443 C.ar           1 S1                 0.0000
      7 ****        -2.8985  -1.9939   1.3787 C.ar           1 S1                 0.0000
      8 ****        -1.5667  -2.4543   1.3417 C.ar           1 S1                 0.0000
      9 ****        -0.4804  -1.5582   1.2680 C.ar           1 S1                 0.0000
     10 ****        -0.7850  -0.1968   1.2291 C.ar           1 S1                 0.0000
     11 ****         0.0074   0.9568   1.1429 N.pl3          1 S1                 0.0000
     12 ****         1.4752   0.8219   1.0668 C.3            1 S1                 0.0000
     13 ****         2.0331   0.8218  -0.3758 C.3            1 S1                 0.0000
     14 ****         1.7205   2.0463  -1.0120 O.3            1 S1                 0.0000
     15 ****         1.5912  -0.4005  -1.1812 C.ar           1 S1                 0.0000
     16 ****         0.4540  -0.3225  -2.0197 C.ar           1 S1                 0.0000
     17 ****         0.0232  -1.4440  -2.7526 C.ar           1 S1                 0.0000
     18 ****         0.7254  -2.6585  -2.6566 C.ar           1 S1                 0.0000
     19 ****         1.8552  -2.7499  -1.8231 C.ar           1 S1                 0.0000
     20 ****         2.2892  -1.6311  -1.0841 C.ar           1 S1                 0.0000
     21 ****         3.6665  -1.8106  -0.0544 Cl             1 S1                 0.0000
     22 ****        -0.0036   3.6347  -0.8055 H              1 S1                 0.0000
     23 ****         0.7057   3.5905   1.3399 H              1 S1                 0.0000
     24 ****        -0.9051   4.0744   1.8285 H              1 S1                 0.0000
     25 ****        -4.2210  -0.2663   1.3738 H              1 S1                 0.0000
     26 ****        -3.7048  -2.7109   1.4354 H              1 S1                 0.0000
     27 ****        -1.3736  -3.5169   1.3696 H              1 S1                 0.0000
     28 ****         0.5336  -1.9275   1.2372 H              1 S1                 0.0000
     29 ****         1.9060   1.6518   1.6270 H              1 S1                 0.0000
     30 ****         1.7814  -0.0757   1.6035 H              1 S1                 0.0000
     31 ****         3.1211   0.8122  -0.3161 H              1 S1                 0.0000
     32 ****         2.1868   2.0832  -1.8335 H              1 S1                 0.0000
     33 ****        -0.1065   0.5974  -2.0985 H              1 S1                 0.0000
     34 ****        -0.8477  -1.3721  -3.3874 H              1 S1                 0.0000
     35 ****         0.3965  -3.5200  -3.2188 H              1 S1                 0.0000
     36 ****         2.3890  -3.6860  -1.7476 H              1 S1                 0.0000
     37 ****        -2.8715   2.2754   1.2350 H              1 S1                 0.0000
     38 ****        -0.3586   5.0458  -0.1598 LP             1 S1                 0.0000
     39 ****        -1.5252   3.9411  -0.4518 LP             1 S1                 0.0000
     40 ****         2.0001   2.8101  -0.4303 LP             1 S1                 0.0000
     41 ****         0.7361   2.0980  -1.1798 LP             1 S1                 0.0000
@<TRIPOS>BOND
    1    1    2 1     
    2    1   22 1     
    3    2    3 1     
    4    2   23 1     
    5    2   24 1     
    6    3   11 1     
    7    3    4 2     
    8    4    5 1     
    9    4   37 1     
   10    5   10 ar    
   11    5    6 ar    
   12    6    7 ar    
   13    6   25 1     
   14    7    8 ar    
   15    7   26 1     
   16    8    9 ar    
   17    8   27 1     
   18    9   10 ar    
   19    9   28 1     
   20   10   11 1     
   21   11   12 1     
   22   12   13 1     
   23   12   29 1     
   24   12   30 1     
   25   13   14 1     
   26   13   15 1     
   27   13   31 1     
   28   14   32 1     
   29   15   20 ar    
   30   15   16 ar    
   31   16   17 ar    
   32   16   33 1     
   33   17   18 ar    
   34   17   34 1     
   35   18   19 ar    
   36   18   35 1     
   37   19   20 ar    
   38   19   36 1     
   39   20   21 1     
   40    1   38 1     
   41    1   39 1     
   42   14   40 1     
   43   14   41 1     
@<TRIPOS>SUBSTRUCTURE
      1 S1             1
@<TRIPOS>SET
LONE_PAIRS      STATIC     ATOMS    <user>   **** ""
4 38 39 40 41
DONOR_HYDROGENS      STATIC     ATOMS    <user>   **** ""
3 22 37 32
ATOM$BLUE        STATIC     ATOMS    COLORGROUP SYSTEM
4 38 39 40 41
ATOM$RED        STATIC     ATOMS    COLORGROUP SYSTEM
3 22 37 32
