AV-unprocessed.smi:231|AV-procd|sdf|1766|dock9
  -GOLD-   2262020303D 1   1.00000     0.00000
 Structure written by MMmdl.
 50 53  0  0  0  0  0  0  0  0  1 V2000
  146.6666  142.1736  154.0138 C   0  0  0  0  0  0  0  0  0  0  0  0
  148.1159  141.6908  153.8755 C   0  0  0  0  0  0  0  0  0  0  0  0
  148.5138  140.7466  154.9172 N   0  0  0  0  0  0  0  0  0  0  0  0
  147.9448  139.5187  154.8687 C   0  0  0  0  0  0  0  0  0  0  0  0
  148.0117  138.7515  155.9851 N   0  0  0  0  0  0  0  0  0  0  0  0
  147.4783  137.5264  155.9877 C   0  0  0  0  0  0  0  0  0  0  0  0
  146.8378  136.8931  155.0032 N   0  0  0  0  0  0  0  0  0  0  0  0
  146.7457  137.6734  153.8880 C   0  0  0  0  0  0  0  0  0  0  0  0
  147.2650  138.9898  153.7363 C   0  0  0  0  0  0  0  0  0  0  0  0
  146.9821  139.4640  152.4617 N   0  0  0  0  0  0  0  0  0  0  0  0
  146.3518  138.4774  151.8858 C   0  0  0  0  0  0  0  0  0  0  0  0
  146.1453  137.3711  152.6786 N   0  0  0  0  0  0  0  0  0  0  0  0
  145.5282  136.1366  152.2924 C   0  0  0  0  0  0  0  0  0  0  0  0
  146.1520  134.7821  152.6468 C   0  0  0  0  0  0  0  0  0  0  0  0
  145.5816  134.1945  151.3348 C   0  0  0  0  0  0  0  0  0  0  0  0
  146.4820  133.2021  150.5731 C   0  0  0  0  0  0  0  0  0  0  0  0
  146.6401  131.9752  151.2571 O   0  0  0  0  0  0  0  0  0  0  0  0
  144.2013  133.5275  151.4918 C   0  0  0  0  0  0  0  0  0  0  0  0
  143.5761  133.3246  150.2407 O   0  0  0  0  0  0  0  0  0  0  0  0
  145.5581  135.6589  150.8376 C   0  0  0  0  0  0  0  0  0  0  0  0
  149.6215  141.0347  155.8431 C   0  0  1  0  0  0  0  0  0  0  0  0
  149.1806  141.0706  157.3211 C   0  0  0  0  0  0  0  0  0  0  0  0
  149.7125  139.7728  157.9460 C   0  0  0  0  0  0  0  0  0  0  0  0
  150.7332  139.3220  157.0215 N   0  0  0  0  0  0  0  0  0  0  0  0
  150.7116  139.9649  155.8544 C   0  0  0  0  0  0  0  0  0  0  0  0
  151.4726  139.7550  154.9126 O   0  0  0  0  0  0  0  0  0  0  0  0
  146.4295  142.9008  153.2374 H   0  0  0  0  0  0  0  0  0  0  0  0
  146.4956  142.6534  154.9772 H   0  0  0  0  0  0  0  0  0  0  0  0
  145.9605  141.3497  153.9145 H   0  0  0  0  0  0  0  0  0  0  0  0
  148.2490  141.2105  152.9055 H   0  0  0  0  0  0  0  0  0  0  0  0
  148.7853  142.5527  153.8757 H   0  0  0  0  0  0  0  0  0  0  0  0
  147.5803  136.9743  156.9102 H   0  0  0  0  0  0  0  0  0  0  0  0
  146.0167  138.5339  150.8604 H   0  0  0  0  0  0  0  0  0  0  0  0
  144.5006  136.1936  152.6551 H   0  0  0  0  0  0  0  0  0  0  0  0
  147.2421  134.8221  152.6736 H   0  0  0  0  0  0  0  0  0  0  0  0
  145.7595  134.3319  153.5590 H   0  0  0  0  0  0  0  0  0  0  0  0
  146.0704  132.9836  149.5872 H   0  0  0  0  0  0  0  0  0  0  0  0
  147.4772  133.6182  150.4132 H   0  0  0  0  0  0  0  0  0  0  0  0
  147.4236  131.5533  150.9390 H   0  0  0  0  0  0  0  0  0  0  0  0
  144.2856  132.5670  152.0011 H   0  0  0  0  0  0  0  0  0  0  0  0
  143.5329  134.1358  152.1013 H   0  0  0  0  0  0  0  0  0  0  0  0
  142.8260  133.8967  150.1835 H   0  0  0  0  0  0  0  0  0  0  0  0
  144.6779  135.9363  150.2572 H   0  0  0  0  0  0  0  0  0  0  0  0
  146.4712  135.9616  150.3224 H   0  0  0  0  0  0  0  0  0  0  0  0
  150.0687  141.9916  155.5702 H   0  0  0  0  0  0  0  0  0  0  0  0
  149.6596  141.9201  157.8102 H   0  0  0  0  0  0  0  0  0  0  0  0
  148.1085  141.1979  157.4687 H   0  0  0  0  0  0  0  0  0  0  0  0
  150.1189  139.9310  158.9453 H   0  0  0  0  0  0  0  0  0  0  0  0
  148.9282  139.0167  158.0059 H   0  0  0  0  0  0  0  0  0  0  0  0
  151.3805  138.5801  157.2457 H   0  0  0  0  0  0  0  0  0  0  0  0
  1  2  1  0  0  0  0
  1 27  1  0  0  0  0
  1 28  1  0  0  0  0
  1 29  1  0  0  0  0
  2  3  1  0  0  0  0
  2 30  1  0  0  0  0
  2 31  1  0  0  0  0
  3  4  1  0  0  0  0
  3 21  1  0  0  0  0
  4  9  1  0  0  0  0
  4  5  2  0  0  0  0
  5  6  1  0  0  0  0
  6  7  2  0  0  0  0
  6 32  1  0  0  0  0
  7  8  1  0  0  0  0
  8 12  1  0  0  0  0
  8  9  2  0  0  0  0
  9 10  1  0  0  0  0
 10 11  2  0  0  0  0
 11 12  1  0  0  0  0
 11 33  1  0  0  0  0
 12 13  1  0  0  0  0
 13 20  1  0  0  0  0
 13 14  1  0  0  0  0
 13 34  1  0  0  0  0
 14 15  1  0  0  0  0
 14 35  1  0  0  0  0
 14 36  1  0  0  0  0
 15 16  1  0  0  0  0
 15 18  1  0  0  0  0
 15 20  1  0  0  0  0
 16 17  1  0  0  0  0
 16 37  1  0  0  0  0
 16 38  1  0  0  0  0
 17 39  1  0  0  0  0
 18 19  1  0  0  0  0
 18 40  1  0  0  0  0
 18 41  1  0  0  0  0
 19 42  1  0  0  0  0
 20 43  1  0  0  0  0
 20 44  1  0  0  0  0
 21 25  1  0  0  0  0
 21 22  1  0  0  0  0
 21 45  1  0  0  0  0
 22 23  1  0  0  0  0
 22 46  1  0  0  0  0
 22 47  1  0  0  0  0
 23 24  1  0  0  0  0
 23 48  1  0  0  0  0
 23 49  1  0  0  0  0
 24 25  1  0  0  0  0
 24 50  1  0  0  0  0
 25 26  2  0  0  0  0
M  END
> <s_m_source_file>
AV-unprocessed.smi

> <i_m_source_file_index>
231

> <i_lp_mmshare_version>
43012

> <i_f3d_flags>
0

> <s_epik_input>
Tz1DMVtOSF1bQ0gyXVtDSDJdW0NASF0xTihbQ0gyXVtDSDNdKWMobltjSF1uMiljKGMyMyluW2NIXW4zW0NIXShbQ0gyXTQpW0NIMl1DNChbQ0gyXVtPSF0pW0NIMl1bT0hd

> <s_epik_cmdline>
J2VwaWtfcHl0aG9uJywgJy1waCcsICc3LjAnLCAnLXRuJywgJzgnLCAnLW1hJywgJzIwMCcsICctbWV0YWxfYmluZGluZycsICctaW1hZScsICc8aW5maWxlLm1hZT4nLCAnLW9tYWUnLCAnPG91dGZpbGUubWFlPic=

> <r_lp_tautomer_probability>
1

> <r_epik_Ionization_Penalty>
0.000842899

> <r_epik_Ionization_Penalty_Charging>
0

> <r_epik_Ionization_Penalty_Neutral>
0.000842899

> <r_epik_State_Penalty>
0.000441286

> <r_epik_Charging_Adjusted_Penalty>
0.000441286

> <i_epik_Tot_Q>
0

> <i_epik_Tot_abs_Q>
0

> <r_epik_Metal_State_Penalty>
-0

> <b_epik_Metal_Only>
0

> <s_lp_Force_Field>
OPLS_2005

> <r_lp_Energy>
52.3391

> <b_lp_Chiralities_Consistent>
1

> <s_lp_Variant>
AV-unprocessed.smi:231-2

> <Gold.Version>
5.8.1

> <Gold.Id.Protein>
6NUR|6NUR_protein|mol2

> <Gold.PLP.Fitness>
49.1872

> <Gold.PLP.PLP>
-38.6269

> <Gold.PLP.part.hbond>
-3.0000

> <Gold.PLP.part.metal>
0.0000

> <Gold.PLP.part.buried>
-4.5535

> <Gold.PLP.part.nonpolar>
-31.8435

> <Gold.PLP.part.repulsive>
1.5121

> <Gold.PLP.ligand.clash>
0.0000

> <Gold.PLP.ligand.torsion>
1.0943

> <Gold.PLP.Chemscore.Hbond>
3.0000

> <Gold.PLP.Chemscore.CHOScore>
1.0000

> <Gold.PLP.Chemscore.Metal>
0.0000

> <Gold.Chemscore.Hbonds>
donor molecule, donor type, donor heavy atom, donor atom, acceptor molecule, acceptor atom, score
      L1  H    17    39       P1 10747  1.00
      L1  H    19    42       P1 10186  1.00
      P1  H  7989  7998       L1    26  1.00
      L1  C    11    33       P1 10171  1.00

> <Gold.PLP.Chemscore.Internal.Correction>
0.7489

> <Gold.Rescore>
     Score         DG    S(hbond)    S(metal)    S(lipo)     H(rot)  DE(clash)    DE(int)     intcor
      7.34     -13.56       2.98        0.00      63.20       3.63       0.02       6.20       ----

> <Gold.Chemscore.Fitness>
7.3382

> <Gold.Chemscore.DG>
-13.5557

> <Gold.Chemscore.ZeroCoef>
-5.4800

> <Gold.Chemscore.Hbond>
2.9833

> <Gold.Chemscore.Metal>
0.0000

> <Gold.Chemscore.Lipo>
63.2042

> <Gold.Chemscore.Internal_Hbond>
0.0000

> <Gold.Chemscore.DEClash>
0.0207

> <Gold.Chemscore.DEInternal>
6.1968

> <Gold.Chemscore.Rot>
3.6264

> <Gold.Chemscore.Internal.Correction>
   9.000000E+99

> <Gold.Chemscore.Hbonds>
donor molecule, donor type, donor heavy atom, donor atom, acceptor molecule, acceptor atom, score
      L1  H    17    39       P1 10747  1.00
      L1  H    19    42       P1 10186  0.94
      P1  H  7989  7998       L1    26  0.99

> <Gold.Chemscore.Hbond.Weighted>
-9.9643

> <Gold.Chemscore.Metal.Weighted>
-0.0000

> <Gold.Chemscore.Lipo.Weighted>
-7.3949

> <Gold.Chemscore.Internal_Hbond.Weighted>
0.0000

> <Gold.Chemscore.DEClash.Weighted>
0.0207

> <Gold.Chemscore.DEInternal.Weighted>
6.1968

> <Gold.Chemscore.Rot.Weighted>
9.2835

> <Gold.Chemscore.Internal.Correction.Weighted>
   9.000000E+99

> <Gold.Protein.RotatedTorsions>
[ 6907 6896 6895 6894 ] final   32.33 input  -60.11 | X-H torsion
[ 7974 7965 7964 7962 ] final  -63.44 input  175.53 | X-H torsion
[ 8008 7997 7996 7995 ] final  -88.32 input   59.86 | X-H torsion
[ 10167 10162 10161 10158 ] final  127.28 input  -65.29 | X-H torsion
[ 10718 10713 10712 10709 ] final  -89.96 input   66.30 | X-H torsion
[ 10763 10752 10751 10750 ] final  129.12 input  -60.55 | X-H torsion
[ 11005 11000 10999 10996 ] final -118.21 input  -57.11 | X-H torsion

> <Gold.Protein.ActiveResidues>
 VAL166  LYS551  ARG553  GLY616  TRP617  ASP618  TYR619  PRO620  LYS621  CYS622 
 ASP623  PHE694  ASN695  SER759  ASP760  ASP761  ALA762  ILE779  LEU786  VAL792 
 PHE793  MET794  SER795  GLU796  ALA797  LYS798  CYS799  TRP800  GLU811  SER814 

> <Gold.Protein.RotatedAtoms>
  152.0729  134.9521  160.0574 H   0  0  0  0  0  0  0  0  0  0  0  0  # atno 6907 bound_to 6896
  152.0840  133.4162  159.4522 H   0  0  0  0  0  0  0  0  0  0  0  0  # atno 6908 bound_to 6896
  150.6836  134.2868  159.4693 H   0  0  0  0  0  0  0  0  0  0  0  0  # atno 6909 bound_to 6896
  145.7790  140.8772  143.0340 H   0  0  0  0  0  0  0  0  0  0  0  0  # atno 7974 bound_to 7965
  154.6734  140.0555  157.0190 H   0  0  0  0  0  0  0  0  0  0  0  0  # atno 8008 bound_to 7997
  155.1056  140.3233  155.4516 H   0  0  0  0  0  0  0  0  0  0  0  0  # atno 8009 bound_to 7997
  156.2666  140.2023  156.6181 H   0  0  0  0  0  0  0  0  0  0  0  0  # atno 8010 bound_to 7997
  139.5586  144.6866  151.4108 H   0  0  0  0  0  0  0  0  0  0  0  0  # atno 10167 bound_to 10162
  155.9986  130.4892  150.5250 H   0  0  0  0  0  0  0  0  0  0  0  0  # atno 10718 bound_to 10713
  153.7366  135.3230  155.3296 H   0  0  0  0  0  0  0  0  0  0  0  0  # atno 10763 bound_to 10752
  154.8309  135.4535  154.1068 H   0  0  0  0  0  0  0  0  0  0  0  0  # atno 10764 bound_to 10752
  153.2231  135.6950  153.8058 H   0  0  0  0  0  0  0  0  0  0  0  0  # atno 10765 bound_to 10752
  141.0302  133.9993  157.3155 H   0  0  0  0  0  0  0  0  0  0  0  0  # atno 11005 bound_to 11000
  144.6799  139.9962  143.7484 LP  0  0  0  0  0  0  0  0  0  0  0  0  # atno 17320 bound_to 7965
  146.0093  139.3156  143.0880 LP  0  0  0  0  0  0  0  0  0  0  0  0  # atno 17321 bound_to 7965
  140.6863  143.7966  150.7191 LP  0  0  0  0  0  0  0  0  0  0  0  0  # atno 17342 bound_to 10162
  140.1435  143.4420  152.2178 LP  0  0  0  0  0  0  0  0  0  0  0  0  # atno 17343 bound_to 10162
  157.3206  131.0681  151.1934 LP  0  0  0  0  0  0  0  0  0  0  0  0  # atno 17370 bound_to 10713
  157.2849  130.6768  149.6084 LP  0  0  0  0  0  0  0  0  0  0  0  0  # atno 17371 bound_to 10713
  139.9202  135.0200  156.8037 LP  0  0  0  0  0  0  0  0  0  0  0  0  # atno 17394 bound_to 11000
  140.6421  133.9809  155.7712 LP  0  0  0  0  0  0  0  0  0  0  0  0  # atno 17395 bound_to 11000

$$$$
