AV-unprocessed.smi:149|AV-procd|sdf|1240|dock5
  -GOLD-   2262018453D 1   1.00000     0.00000
 Structure written by MMmdl.
 59 63  0  0  0  0  0  0  0  0  1 V2000
  149.9085  144.2891  160.0122 C   0  0  0  0  0  0  0  0  0  0  0  0
  150.6235  143.9066  158.7046 C   0  0  2  0  0  0  0  0  0  0  0  0
  149.9380  142.8349  157.8628 C   0  0  0  0  0  0  0  0  0  0  0  0
  150.9650  142.4019  156.9262 N   0  0  0  0  0  0  0  0  0  0  0  0
  150.7292  141.3669  156.0767 C   0  0  0  0  0  0  0  0  0  0  0  0
  151.7306  140.4796  155.8331 N   0  0  0  0  0  0  0  0  0  0  0  0
  151.5401  139.4471  155.0077 C   0  0  0  0  0  0  0  0  0  0  0  0
  150.4415  139.1142  154.3299 N   0  0  0  0  0  0  0  0  0  0  0  0
  149.4273  139.9924  154.5714 C   0  0  0  0  0  0  0  0  0  0  0  0
  149.4804  141.1304  155.4277 C   0  0  0  0  0  0  0  0  0  0  0  0
  148.2402  141.7610  155.4387 N   0  0  0  0  0  0  0  0  0  0  0  0
  147.5037  141.0429  154.6365 C   0  0  0  0  0  0  0  0  0  0  0  0
  148.1463  139.9783  154.0482 N   0  0  0  0  0  0  0  0  0  0  0  0
  147.5695  139.0091  153.1637 C   0  0  0  0  0  0  0  0  0  0  0  0
  146.2064  139.2480  152.5102 C   0  0  0  0  0  0  0  0  0  0  0  0
  145.9285  137.7295  152.5509 C   0  0  0  0  0  0  0  0  0  0  0  0
  144.4950  137.3370  152.9462 C   0  0  0  0  0  0  0  0  0  0  0  0
  144.0062  138.1594  153.9862 O   0  0  0  0  0  0  0  0  0  0  0  0
  146.3345  136.9555  151.2804 C   0  0  0  0  0  0  0  0  0  0  0  0
  146.2143  137.7602  150.1249 O   0  0  0  0  0  0  0  0  0  0  0  0
  146.9663  137.7071  153.6961 C   0  0  0  0  0  0  0  0  0  0  0  0
  152.2801  142.5550  157.5371 C   0  0  0  0  0  0  0  0  0  0  0  0
  152.0885  143.4300  158.7965 C   0  0  2  0  0  0  0  0  0  0  0  0
  152.5227  142.8241  160.0667 N   0  0  0  0  0  0  0  0  0  0  0  0
  153.7291  141.9972  159.9811 C   0  0  0  0  0  0  0  0  0  0  0  0
  154.0539  141.3366  161.3308 C   0  0  0  0  0  0  0  0  0  0  0  0
  154.1986  142.3423  162.3290 O   0  0  0  0  0  0  0  0  0  0  0  0
  153.0328  143.1476  162.4735 C   0  0  0  0  0  0  0  0  0  0  0  0
  152.6890  143.8116  161.1286 C   0  0  0  0  0  0  0  0  0  0  0  0
  149.7542  143.4379  160.6726 H   0  0  0  0  0  0  0  0  0  0  0  0
  148.9273  144.7152  159.8022 H   0  0  0  0  0  0  0  0  0  0  0  0
  150.4801  145.0377  160.5614 H   0  0  0  0  0  0  0  0  0  0  0  0
  150.6389  144.8085  158.0900 H   0  0  0  0  0  0  0  0  0  0  0  0
  149.6176  141.9940  158.4786 H   0  0  0  0  0  0  0  0  0  0  0  0
  149.0655  143.2345  157.3442 H   0  0  0  0  0  0  0  0  0  0  0  0
  152.3899  138.7951  154.8702 H   0  0  0  0  0  0  0  0  0  0  0  0
  146.4658  141.2765  154.4482 H   0  0  0  0  0  0  0  0  0  0  0  0
  148.3294  138.8021  152.4085 H   0  0  0  0  0  0  0  0  0  0  0  0
  145.5331  139.8221  153.1500 H   0  0  0  0  0  0  0  0  0  0  0  0
  146.2540  139.6788  151.5096 H   0  0  0  0  0  0  0  0  0  0  0  0
  143.8132  137.3948  152.0974 H   0  0  0  0  0  0  0  0  0  0  0  0
  144.4594  136.3046  153.2959 H   0  0  0  0  0  0  0  0  0  0  0  0
  143.7751  138.9996  153.6208 H   0  0  0  0  0  0  0  0  0  0  0  0
  147.3583  136.5868  151.3469 H   0  0  0  0  0  0  0  0  0  0  0  0
  145.7071  136.0756  151.1378 H   0  0  0  0  0  0  0  0  0  0  0  0
  145.4312  138.2832  150.2042 H   0  0  0  0  0  0  0  0  0  0  0  0
  147.6510  136.8585  153.6855 H   0  0  0  0  0  0  0  0  0  0  0  0
  146.5140  137.8292  154.6822 H   0  0  0  0  0  0  0  0  0  0  0  0
  152.7278  141.5860  157.7551 H   0  0  0  0  0  0  0  0  0  0  0  0
  152.9382  143.0641  156.8325 H   0  0  0  0  0  0  0  0  0  0  0  0
  152.6940  144.3279  158.6623 H   0  0  0  0  0  0  0  0  0  0  0  0
  153.6194  141.2236  159.2244 H   0  0  0  0  0  0  0  0  0  0  0  0
  154.5850  142.5998  159.6789 H   0  0  0  0  0  0  0  0  0  0  0  0
  153.2670  140.6374  161.6181 H   0  0  0  0  0  0  0  0  0  0  0  0
  154.9807  140.7672  161.2610 H   0  0  0  0  0  0  0  0  0  0  0  0
  152.2016  142.5335  162.8238 H   0  0  0  0  0  0  0  0  0  0  0  0
  153.2141  143.9053  163.2358 H   0  0  0  0  0  0  0  0  0  0  0  0
  153.4786  144.5161  160.8640 H   0  0  0  0  0  0  0  0  0  0  0  0
  151.7746  144.3947  161.2411 H   0  0  0  0  0  0  0  0  0  0  0  0
  1  2  1  0  0  0  0
  1 30  1  0  0  0  0
  1 31  1  0  0  0  0
  1 32  1  0  0  0  0
  2 23  1  0  0  0  0
  2  3  1  0  0  0  0
  2 33  1  0  0  0  0
  3  4  1  0  0  0  0
  3 34  1  0  0  0  0
  3 35  1  0  0  0  0
  4  5  1  0  0  0  0
  4 22  1  0  0  0  0
  5 10  1  0  0  0  0
  5  6  2  0  0  0  0
  6  7  1  0  0  0  0
  7  8  2  0  0  0  0
  7 36  1  0  0  0  0
  8  9  1  0  0  0  0
  9 13  1  0  0  0  0
  9 10  2  0  0  0  0
 10 11  1  0  0  0  0
 11 12  2  0  0  0  0
 12 13  1  0  0  0  0
 12 37  1  0  0  0  0
 13 14  1  0  0  0  0
 14 21  1  0  0  0  0
 14 15  1  0  0  0  0
 14 38  1  0  0  0  0
 15 16  1  0  0  0  0
 15 39  1  0  0  0  0
 15 40  1  0  0  0  0
 16 17  1  0  0  0  0
 16 19  1  0  0  0  0
 16 21  1  0  0  0  0
 17 18  1  0  0  0  0
 17 41  1  0  0  0  0
 17 42  1  0  0  0  0
 18 43  1  0  0  0  0
 19 20  1  0  0  0  0
 19 44  1  0  0  0  0
 19 45  1  0  0  0  0
 20 46  1  0  0  0  0
 21 47  1  0  0  0  0
 21 48  1  0  0  0  0
 22 23  1  0  0  0  0
 22 49  1  0  0  0  0
 22 50  1  0  0  0  0
 23 24  1  0  0  0  0
 23 51  1  0  0  0  0
 24 29  1  0  0  0  0
 24 25  1  0  0  0  0
 25 26  1  0  0  0  0
 25 52  1  0  0  0  0
 25 53  1  0  0  0  0
 26 27  1  0  0  0  0
 26 54  1  0  0  0  0
 26 55  1  0  0  0  0
 27 28  1  0  0  0  0
 28 29  1  0  0  0  0
 28 56  1  0  0  0  0
 28 57  1  0  0  0  0
 29 58  1  0  0  0  0
 29 59  1  0  0  0  0
M  END
> <s_m_source_file>
AV-unprocessed.smi

> <i_m_source_file_index>
149

> <i_lp_mmshare_version>
43012

> <i_f3d_flags>
0

> <s_epik_input>
W0NIMl0xW0NIMl1PW0NIMl1bQ0gyXU4xW0NAQEhdMltDSDJdTihbQ0gyXVtDQEhdMltDSDNdKWMobltjSF1uMyljKGMzNCluW2NIXW40W0NIXShbQ0gyXTUpW0NIMl1DNShbQ0gyXVtPSF0pW0NIMl1bT0hd

> <s_epik_cmdline>
J2VwaWtfcHl0aG9uJywgJy1waCcsICc3LjAnLCAnLXRuJywgJzgnLCAnLW1hJywgJzIwMCcsICctbWV0YWxfYmluZGluZycsICctaW1hZScsICc8aW5maWxlLm1hZT4nLCAnLW9tYWUnLCAnPG91dGZpbGUubWFlPic=

> <r_lp_tautomer_probability>
1

> <r_epik_Ionization_Penalty>
0.41918

> <r_epik_Ionization_Penalty_Charging>
0

> <r_epik_Ionization_Penalty_Neutral>
0.41918

> <r_epik_State_Penalty>
0.654916

> <r_epik_Charging_Adjusted_Penalty>
0.654916

> <i_epik_Tot_Q>
0

> <i_epik_Tot_abs_Q>
0

> <r_epik_Metal_State_Penalty>
0.653217

> <b_epik_Metal_Only>
0

> <s_lp_Force_Field>
OPLS_2005

> <r_lp_Energy>
80.6686

> <b_lp_Chiralities_Consistent>
1

> <s_lp_Variant>
AV-unprocessed.smi:149-7

> <Gold.Version>
5.8.1

> <Gold.Id.Protein>
6NUR|6NUR_protein|mol2

> <Gold.PLP.Fitness>
50.6656

> <Gold.PLP.PLP>
-45.5850

> <Gold.PLP.part.hbond>
-4.0000

> <Gold.PLP.part.metal>
0.0000

> <Gold.PLP.part.buried>
-0.0428

> <Gold.PLP.part.nonpolar>
-42.9311

> <Gold.PLP.part.repulsive>
1.0938

> <Gold.PLP.ligand.clash>
0.0000

> <Gold.PLP.ligand.torsion>
2.0445

> <Gold.PLP.Chemscore.Hbond>
2.7200

> <Gold.PLP.Chemscore.CHOScore>
0.0000

> <Gold.PLP.Chemscore.Metal>
0.0000

> <Gold.Chemscore.Hbonds>
donor molecule, donor type, donor heavy atom, donor atom, acceptor molecule, acceptor atom, score
      L1  H    18    43       P1 10175  1.00
      L1  H    20    46       P1 10171  1.00
      P1  H  7954  7966       L1    20  0.45

> <Gold.PLP.Chemscore.Internal.Correction>
1.0096

> <Gold.Rescore>
     Score         DG    S(hbond)    S(metal)    S(lipo)     H(rot)  DE(clash)    DE(int)     intcor
     13.26     -19.39       2.47        0.00     121.55       3.34       3.15       2.99       ----

> <Gold.Chemscore.Fitness>
13.2560

> <Gold.Chemscore.DG>
-19.3948

> <Gold.Chemscore.ZeroCoef>
-5.4800

> <Gold.Chemscore.Hbond>
2.4694

> <Gold.Chemscore.Metal>
0.0000

> <Gold.Chemscore.Lipo>
121.5507

> <Gold.Chemscore.Internal_Hbond>
0.0000

> <Gold.Chemscore.DEClash>
3.1462

> <Gold.Chemscore.DEInternal>
2.9927

> <Gold.Chemscore.Rot>
3.3416

> <Gold.Chemscore.Internal.Correction>
   9.000000E+99

> <Gold.Chemscore.Hbonds>
donor molecule, donor type, donor heavy atom, donor atom, acceptor molecule, acceptor atom, score
      L1  H    18    43       P1 10175  1.00
      L1  H    20    46       P1 10171  0.95
      P1  H  7954  7966       L1    20  0.04

> <Gold.Chemscore.Hbond.Weighted>
-8.2479

> <Gold.Chemscore.Metal.Weighted>
-0.0000

> <Gold.Chemscore.Lipo.Weighted>
-14.2214

> <Gold.Chemscore.Internal_Hbond.Weighted>
0.0000

> <Gold.Chemscore.DEClash.Weighted>
3.1462

> <Gold.Chemscore.DEInternal.Weighted>
2.9927

> <Gold.Chemscore.Rot.Weighted>
8.5545

> <Gold.Chemscore.Internal.Correction.Weighted>
   9.000000E+99

> <Gold.Protein.RotatedTorsions>
[ 6907 6896 6895 6894 ] final -130.47 input  -60.11 | X-H torsion
[ 7974 7965 7964 7962 ] final  -81.88 input  175.53 | X-H torsion
[ 8008 7997 7996 7995 ] final  163.32 input   59.86 | X-H torsion
[ 10167 10162 10161 10158 ] final  -93.87 input  -65.29 | X-H torsion
[ 10718 10713 10712 10709 ] final  -90.35 input   66.30 | X-H torsion
[ 10763 10752 10751 10750 ] final    6.27 input  -60.55 | X-H torsion
[ 11005 11000 10999 10996 ] final  -60.05 input  -57.11 | X-H torsion

> <Gold.Protein.ActiveResidues>
 VAL166  LYS551  ARG553  GLY616  TRP617  ASP618  TYR619  PRO620  LYS621  CYS622 
 ASP623  PHE694  ASN695  SER759  ASP760  ASP761  ALA762  ILE779  LEU786  VAL792 
 PHE793  MET794  SER795  GLU796  ALA797  LYS798  CYS799  TRP800  GLU811  SER814 

> <Gold.Protein.RotatedAtoms>
  150.9401  133.6666  159.2792 H   0  0  0  0  0  0  0  0  0  0  0  0  # atno 6907 bound_to 6896
  151.4058  135.0976  159.9580 H   0  0  0  0  0  0  0  0  0  0  0  0  # atno 6908 bound_to 6896
  152.5065  133.8885  159.7436 H   0  0  0  0  0  0  0  0  0  0  0  0  # atno 6909 bound_to 6896
  145.5407  140.9510  143.1552 H   0  0  0  0  0  0  0  0  0  0  0  0  # atno 7974 bound_to 7965
  156.1965  140.1726  156.7986 H   0  0  0  0  0  0  0  0  0  0  0  0  # atno 8008 bound_to 7997
  154.5537  140.0713  156.8740 H   0  0  0  0  0  0  0  0  0  0  0  0  # atno 8009 bound_to 7997
  155.2980  140.3359  155.4251 H   0  0  0  0  0  0  0  0  0  0  0  0  # atno 8010 bound_to 7997
  140.3203  143.3053  152.0054 H   0  0  0  0  0  0  0  0  0  0  0  0  # atno 10167 bound_to 10162
  155.9987  130.4906  150.5309 H   0  0  0  0  0  0  0  0  0  0  0  0  # atno 10718 bound_to 10713
  153.2497  135.6912  153.7693 H   0  0  0  0  0  0  0  0  0  0  0  0  # atno 10763 bound_to 10752
  153.6792  135.3331  155.3174 H   0  0  0  0  0  0  0  0  0  0  0  0  # atno 10764 bound_to 10752
  154.8389  135.4518  154.1449 H   0  0  0  0  0  0  0  0  0  0  0  0  # atno 10765 bound_to 10752
  141.1272  133.6620  156.5165 H   0  0  0  0  0  0  0  0  0  0  0  0  # atno 11005 bound_to 11000
  144.7578  139.7030  143.7247 LP  0  0  0  0  0  0  0  0  0  0  0  0  # atno 17320 bound_to 7965
  146.1983  139.5262  142.9760 LP  0  0  0  0  0  0  0  0  0  0  0  0  # atno 17321 bound_to 7965
  139.4875  144.6316  151.7058 LP  0  0  0  0  0  0  0  0  0  0  0  0  # atno 17342 bound_to 10162
  140.5490  144.0457  150.6119 LP  0  0  0  0  0  0  0  0  0  0  0  0  # atno 17343 bound_to 10162
  157.3259  131.0690  151.1897 LP  0  0  0  0  0  0  0  0  0  0  0  0  # atno 17370 bound_to 10713
  157.2795  130.6743  149.6059 LP  0  0  0  0  0  0  0  0  0  0  0  0  # atno 17371 bound_to 10713
  140.4327  134.7087  157.4950 LP  0  0  0  0  0  0  0  0  0  0  0  0  # atno 17394 bound_to 11000
  140.0283  134.6444  155.9142 LP  0  0  0  0  0  0  0  0  0  0  0  0  # atno 17395 bound_to 11000

$$$$
