#       Name:                AV-unprocessed.smi:2976
#       Creating user name   scv26
#       Creation time:       Fri Mar 27 16:27:59 2020


#       File generated by GOLD software.
#

@<TRIPOS>MOLECULE
AV-unprocessed.smi:2976
    45    46     1
SMALL
NO_CHARGES


@<TRIPOS>ATOM
      1 ****        -3.8474   0.1449   0.4812 C.3            1 S1                 0.0000
      2 ****        -3.1720  -1.1890   0.1018 C.3            1 S1                 0.0000
      3 ****        -3.6377  -1.6890  -1.2809 C.3            1 S1                 0.0000
      4 ****        -3.0376  -0.8635  -2.4297 C.3            1 S1                 0.0000
      5 ****        -1.5049  -0.8404  -2.3526 C.3            1 S1                 0.0000
      6 ****        -1.0061  -0.3325  -0.9862 C.3            1 S1                 0.0000
      7 ****         0.4541  -0.4078  -0.9643 N.am           1 S1                 0.0000
      8 ****         1.2894   0.5786  -0.6028 C.2            1 S1                 0.0000
      9 ****         0.9110   1.7014  -0.2666 O.2            1 S1                 0.0000
     10 ****         2.7860   0.2385  -0.6378 C.3            1 S1                 0.0000
     11 ****         3.5638   0.9523   0.3858 N.am           1 S1                 0.0000
     12 ****         4.2983   2.0181  -0.1035 N.2            1 S1                 0.0000
     13 ****         5.0129   2.7208   0.7063 C.2            1 S1                 0.0000
     14 ****         5.0803   2.4338   2.1221 C.2            1 S1                 0.0000
     15 ****         6.0571   3.4116   3.1598 Cl             1 S1                 0.0000
     16 ****         4.3594   1.3844   2.5909 C.2            1 S1                 0.0000
     17 ****         4.3895   0.9789   4.2728 Cl             1 S1                 0.0000
     18 ****         3.5349   0.5596   1.6970 C.2            1 S1                 0.0000
     19 ****         2.8721  -0.4045   2.0823 O.2            1 S1                 0.0000
     20 ****        -1.6215  -1.1593   0.1752 C.3            1 S1                 0.0000
     21 ****        -1.1102  -0.7328   1.5662 C.3            1 S1                 0.0000
     22 ****        -3.5273   0.9662  -0.1592 H              1 S1                 0.0000
     23 ****        -3.6298   0.4255   1.5114 H              1 S1                 0.0000
     24 ****        -4.9317   0.0680   0.3970 H              1 S1                 0.0000
     25 ****        -3.5174  -1.9222   0.8321 H              1 S1                 0.0000
     26 ****        -3.3427  -2.7320  -1.4025 H              1 S1                 0.0000
     27 ****        -4.7265  -1.6762  -1.3414 H              1 S1                 0.0000
     28 ****        -3.3520  -1.2802  -3.3868 H              1 S1                 0.0000
     29 ****        -3.4236   0.1557  -2.4000 H              1 S1                 0.0000
     30 ****        -1.1232  -1.8462  -2.5343 H              1 S1                 0.0000
     31 ****        -1.1088  -0.2127  -3.1517 H              1 S1                 0.0000
     32 ****        -1.3218   0.7065  -0.8824 H              1 S1                 0.0000
     33 ****         0.8621  -1.2932  -1.2269 H              1 S1                 0.0000
     34 ****         2.9252  -0.8380  -0.5205 H              1 S1                 0.0000
     35 ****         3.1606   0.4751  -1.6352 H              1 S1                 0.0000
     36 ****         5.6060   3.5700   0.3669 H              1 S1                 0.0000
     37 ****        -1.2912  -2.1905   0.0383 H              1 S1                 0.0000
     38 ****        -1.2660   0.3318   1.7422 H              1 S1                 0.0000
     39 ****        -0.0437  -0.9289   1.6773 H              1 S1                 0.0000
     40 ****        -1.6197  -1.2820   2.3582 H              1 S1                 0.0000
     41 ****        -0.0654   1.9168  -0.2533 LP             1 S1                 0.0000
     42 ****         1.5802   2.3976  -0.0069 LP             1 S1                 0.0000
     43 ****         4.2747   2.2412  -1.0780 LP             1 S1                 0.0000
     44 ****         2.3293  -0.9315   1.4284 LP             1 S1                 0.0000
     45 ****         2.8769  -0.6603   3.0490 LP             1 S1                 0.0000
@<TRIPOS>BOND
    1    1    2 1     
    2    1   22 1     
    3    1   23 1     
    4    1   24 1     
    5    2   20 1     
    6    2    3 1     
    7    2   25 1     
    8    3    4 1     
    9    3   26 1     
   10    3   27 1     
   11    4    5 1     
   12    4   28 1     
   13    4   29 1     
   14    5    6 1     
   15    5   30 1     
   16    5   31 1     
   17    6    7 1     
   18    6   20 1     
   19    6   32 1     
   20    7    8 am    
   21    7   33 1     
   22    8    9 2     
   23    8   10 1     
   24   10   11 1     
   25   10   34 1     
   26   10   35 1     
   27   11   18 am    
   28   11   12 1     
   29   12   13 2     
   30   13   14 1     
   31   13   36 1     
   32   14   15 1     
   33   14   16 2     
   34   16   17 1     
   35   16   18 1     
   36   18   19 2     
   37   20   21 1     
   38   20   37 1     
   39   21   38 1     
   40   21   39 1     
   41   21   40 1     
   42    9   41 1     
   43    9   42 1     
   44   12   43 1     
   45   19   44 1     
   46   19   45 1     
@<TRIPOS>SUBSTRUCTURE
      1 S1             1
@<TRIPOS>SET
LONE_PAIRS      STATIC     ATOMS    <user>   **** ""
5 41 42 43 44 45
DONOR_HYDROGENS      STATIC     ATOMS    <user>   **** ""
1 33
ATOM$BLUE        STATIC     ATOMS    COLORGROUP SYSTEM
5 41 42 43 44 45
ATOM$RED        STATIC     ATOMS    COLORGROUP SYSTEM
1 33
