AV-unprocessed.smi:2465|AV-procd|sdf|9722|dock4
  -GOLD-   2272013363D 1   1.00000     0.00000
 Structure written by MMmdl.
 40 41  0  0  0  0  0  0  0  0  1 V2000
  147.4141  133.2391  152.2225 C   0  0  0  0  0  0  0  0  0  0  0  0
  146.1131  133.5287  151.4951 C   0  0  0  0  0  0  0  0  0  0  0  0
  145.3345  132.4615  151.0017 C   0  0  0  0  0  0  0  0  0  0  0  0
  144.1343  132.7560  150.3277 C   0  0  0  0  0  0  0  0  0  0  0  0
  143.6914  134.0129  150.1221 N   0  0  0  0  0  0  0  0  0  0  0  0
  144.4369  135.0335  150.5963 C   0  0  0  0  0  0  0  0  0  0  0  0
  145.6538  134.8543  151.3018 C   0  0  0  0  0  0  0  0  0  0  0  0
  146.4478  135.9350  151.7805 N   0  0  0  0  0  0  0  0  0  0  0  0
  146.0461  137.0951  152.3278 C   0  0  0  0  0  0  0  0  0  0  0  0
  144.8772  137.4166  152.5407 O   0  0  0  0  0  0  0  0  0  0  0  0
  147.0941  137.8697  152.6419 N   0  0  0  0  0  0  0  0  0  0  0  0
  147.0043  139.1883  153.2584 C   0  0  0  0  0  0  0  0  0  0  0  0
  148.0533  139.3674  154.3671 C   0  0  0  0  0  0  0  0  0  0  0  0
  148.2922  140.8456  154.7129 C   0  0  0  0  0  0  0  0  0  0  0  0
  149.3478  140.9964  155.7099 N   0  0  0  0  0  0  0  0  0  0  0  0
  149.0926  141.6894  156.9614 C   0  0  0  0  0  0  0  0  0  0  0  0
  150.3447  141.4419  157.8148 C   0  0  0  0  0  0  0  0  0  0  0  0
  151.4105  140.9178  156.8463 C   0  0  0  0  0  0  0  0  0  0  0  0
  150.6133  140.5752  155.5991 C   0  0  0  0  0  0  0  0  0  0  0  0
  151.1010  139.9870  154.6350 O   0  0  0  0  0  0  0  0  0  0  0  0
  147.6157  132.1682  152.2646 H   0  0  0  0  0  0  0  0  0  0  0  0
  147.3691  133.6146  153.2452 H   0  0  0  0  0  0  0  0  0  0  0  0
  148.2504  133.7190  151.7135 H   0  0  0  0  0  0  0  0  0  0  0  0
  145.6464  131.4359  151.1332 H   0  0  0  0  0  0  0  0  0  0  0  0
  143.5164  131.9604  149.9385 H   0  0  0  0  0  0  0  0  0  0  0  0
  144.0431  136.0130  150.3753 H   0  0  0  0  0  0  0  0  0  0  0  0
  147.4451  135.7824  151.7527 H   0  0  0  0  0  0  0  0  0  0  0  0
  148.0208  137.5244  152.4387 H   0  0  0  0  0  0  0  0  0  0  0  0
  147.1559  139.9368  152.4803 H   0  0  0  0  0  0  0  0  0  0  0  0
  145.9991  139.3483  153.6520 H   0  0  0  0  0  0  0  0  0  0  0  0
  147.7325  138.8384  155.2657 H   0  0  0  0  0  0  0  0  0  0  0  0
  148.9904  138.9042  154.0552 H   0  0  0  0  0  0  0  0  0  0  0  0
  148.5573  141.4057  153.8149 H   0  0  0  0  0  0  0  0  0  0  0  0
  147.3724  141.2916  155.0935 H   0  0  0  0  0  0  0  0  0  0  0  0
  148.9584  142.7536  156.7627 H   0  0  0  0  0  0  0  0  0  0  0  0
  148.1907  141.3146  157.4471 H   0  0  0  0  0  0  0  0  0  0  0  0
  150.6683  142.3473  158.3295 H   0  0  0  0  0  0  0  0  0  0  0  0
  150.1354  140.6888  158.5756 H   0  0  0  0  0  0  0  0  0  0  0  0
  152.1451  141.6874  156.6076 H   0  0  0  0  0  0  0  0  0  0  0  0
  151.9316  140.0442  157.2394 H   0  0  0  0  0  0  0  0  0  0  0  0
  1  2  1  0  0  0  0
  1 21  1  0  0  0  0
  1 22  1  0  0  0  0
  1 23  1  0  0  0  0
  2  7  1  0  0  0  0
  2  3  2  0  0  0  0
  3  4  1  0  0  0  0
  3 24  1  0  0  0  0
  4  5  2  0  0  0  0
  4 25  1  0  0  0  0
  5  6  1  0  0  0  0
  6  7  2  0  0  0  0
  6 26  1  0  0  0  0
  7  8  1  0  0  0  0
  8  9  1  0  0  0  0
  8 27  1  0  0  0  0
  9 10  2  0  0  0  0
  9 11  1  0  0  0  0
 11 12  1  0  0  0  0
 11 28  1  0  0  0  0
 12 13  1  0  0  0  0
 12 29  1  0  0  0  0
 12 30  1  0  0  0  0
 13 14  1  0  0  0  0
 13 31  1  0  0  0  0
 13 32  1  0  0  0  0
 14 15  1  0  0  0  0
 14 33  1  0  0  0  0
 14 34  1  0  0  0  0
 15 19  1  0  0  0  0
 15 16  1  0  0  0  0
 16 17  1  0  0  0  0
 16 35  1  0  0  0  0
 16 36  1  0  0  0  0
 17 18  1  0  0  0  0
 17 37  1  0  0  0  0
 17 38  1  0  0  0  0
 18 19  1  0  0  0  0
 18 39  1  0  0  0  0
 18 40  1  0  0  0  0
 19 20  2  0  0  0  0
M  END
> <s_m_source_file>
AV-unprocessed.smi

> <i_m_source_file_index>
2465

> <i_lp_mmshare_version>
43012

> <i_f3d_flags>
0

> <s_epik_input>
W0NIM11jMVtjSF1bY0hdbltjSF1jMVtOSF1DKD1PKVtOSF1bQ0gyXVtDSDJdW0NIMl1OMltDSDJdW0NIMl1bQ0gyXUMyPU8=

> <s_epik_cmdline>
J2VwaWtfcHl0aG9uJywgJy1waCcsICc3LjAnLCAnLXRuJywgJzgnLCAnLW1hJywgJzIwMCcsICctbWV0YWxfYmluZGluZycsICctaW1hZScsICc8aW5maWxlLm1hZT4nLCAnLW9tYWUnLCAnPG91dGZpbGUubWFlPic=

> <r_epik_Ionization_Penalty>
0.0211997

> <r_epik_Ionization_Penalty_Charging>
0

> <r_epik_Ionization_Penalty_Neutral>
0.0211997

> <r_epik_State_Penalty>
0.0170047

> <r_epik_Charging_Adjusted_Penalty>
0.0170047

> <i_epik_Tot_Q>
0

> <i_epik_Tot_abs_Q>
0

> <r_epik_Metal_State_Penalty>
0.0163833

> <b_epik_Metal_Only>
0

> <s_lp_Force_Field>
OPLS_2005

> <r_lp_Energy>
19.6331

> <b_lp_Chiralities_Consistent>
1

> <s_lp_Variant>
AV-unprocessed.smi:2465-1

> <Gold.Version>
5.8.1

> <Gold.Id.Protein>
6NUR|6NUR_protein|mol2

> <Gold.PLP.Fitness>
43.7364

> <Gold.PLP.PLP>
-32.8674

> <Gold.PLP.part.hbond>
-2.7487

> <Gold.PLP.part.metal>
0.0000

> <Gold.PLP.part.buried>
-5.9935

> <Gold.PLP.part.nonpolar>
-28.8179

> <Gold.PLP.part.repulsive>
3.7937

> <Gold.PLP.ligand.clash>
0.0000

> <Gold.PLP.ligand.torsion>
0.4901

> <Gold.PLP.Chemscore.Hbond>
2.9353

> <Gold.PLP.Chemscore.CHOScore>
0.9988

> <Gold.PLP.Chemscore.Metal>
0.0000

> <Gold.Chemscore.Hbonds>
donor molecule, donor type, donor heavy atom, donor atom, acceptor molecule, acceptor atom, score
      L1  H     8    27       P1  7948  1.00
      L1  H    11    28       P1  7948  0.94
      P1  H  7989  7998       L1    20  1.00
      L1  C     6    26       P1 10171  0.78

> <Gold.PLP.Chemscore.Internal.Correction>
0.0472

> <Gold.Rescore>
     Score         DG    S(hbond)    S(metal)    S(lipo)     H(rot)  DE(clash)    DE(int)     intcor
     18.15     -18.60       2.91        0.00      67.21       1.74       0.03       0.43       ----

> <Gold.Chemscore.Fitness>
18.1462

> <Gold.Chemscore.DG>
-18.6018

> <Gold.Chemscore.ZeroCoef>
-5.4800

> <Gold.Chemscore.Hbond>
2.9088

> <Gold.Chemscore.Metal>
0.0000

> <Gold.Chemscore.Lipo>
67.2095

> <Gold.Chemscore.Internal_Hbond>
0.0000

> <Gold.Chemscore.DEClash>
0.0279

> <Gold.Chemscore.DEInternal>
0.4276

> <Gold.Chemscore.Rot>
1.7410

> <Gold.Chemscore.Internal.Correction>
   9.000000E+99

> <Gold.Chemscore.Hbonds>
donor molecule, donor type, donor heavy atom, donor atom, acceptor molecule, acceptor atom, score
      L1  H     8    27       P1  7948  0.93
      L1  H    11    28       P1  7948  0.91
      P1  H  7989  7998       L1    20  0.88

> <Gold.Chemscore.Hbond.Weighted>
-9.7153

> <Gold.Chemscore.Metal.Weighted>
-0.0000

> <Gold.Chemscore.Lipo.Weighted>
-7.8635

> <Gold.Chemscore.Internal_Hbond.Weighted>
0.0000

> <Gold.Chemscore.DEClash.Weighted>
0.0279

> <Gold.Chemscore.DEInternal.Weighted>
0.4276

> <Gold.Chemscore.Rot.Weighted>
4.4571

> <Gold.Chemscore.Internal.Correction.Weighted>
   9.000000E+99

> <Gold.Protein.RotatedTorsions>
[ 6907 6896 6895 6894 ] final   32.83 input  -60.11 | X-H torsion
[ 7974 7965 7964 7962 ] final  -43.07 input  175.53 | X-H torsion
[ 8008 7997 7996 7995 ] final   83.28 input   59.86 | X-H torsion
[ 10167 10162 10161 10158 ] final  -41.98 input  -65.29 | X-H torsion
[ 10718 10713 10712 10709 ] final  114.11 input   66.30 | X-H torsion
[ 10763 10752 10751 10750 ] final  128.85 input  -60.55 | X-H torsion
[ 11005 11000 10999 10996 ] final   90.76 input  -57.11 | X-H torsion

> <Gold.Protein.ActiveResidues>
 VAL166  LYS551  ARG553  GLY616  TRP617  ASP618  TYR619  PRO620  LYS621  CYS622 
 ASP623  PHE694  ASN695  SER759  ASP760  ASP761  ALA762  ILE779  LEU786  VAL792 
 PHE793  MET794  SER795  GLU796  ALA797  LYS798  CYS799  TRP800  GLU811  SER814 

> <Gold.Protein.RotatedAtoms>
  152.0800  134.9477  160.0573 H   0  0  0  0  0  0  0  0  0  0  0  0  # atno 6907 bound_to 6896
  152.0770  133.4129  159.4492 H   0  0  0  0  0  0  0  0  0  0  0  0  # atno 6908 bound_to 6896
  150.6836  134.2946  159.4724 H   0  0  0  0  0  0  0  0  0  0  0  0  # atno 6909 bound_to 6896
  146.0055  140.7025  142.9250 H   0  0  0  0  0  0  0  0  0  0  0  0  # atno 7974 bound_to 7965
  155.9219  140.3420  155.6179 H   0  0  0  0  0  0  0  0  0  0  0  0  # atno 8008 bound_to 7997
  155.7263  140.0790  157.2327 H   0  0  0  0  0  0  0  0  0  0  0  0  # atno 8009 bound_to 7997
  154.4071  140.1596  156.2446 H   0  0  0  0  0  0  0  0  0  0  0  0  # atno 8010 bound_to 7997
  140.6984  143.3063  151.3144 H   0  0  0  0  0  0  0  0  0  0  0  0  # atno 10167 bound_to 10162
  157.6300  131.0994  150.7138 H   0  0  0  0  0  0  0  0  0  0  0  0  # atno 10718 bound_to 10713
  153.7322  135.3237  155.3288 H   0  0  0  0  0  0  0  0  0  0  0  0  # atno 10763 bound_to 10752
  154.8322  135.4525  154.1110 H   0  0  0  0  0  0  0  0  0  0  0  0  # atno 10764 bound_to 10752
  153.2261  135.6954  153.8025 H   0  0  0  0  0  0  0  0  0  0  0  0  # atno 10765 bound_to 10752
  139.8850  134.8633  156.3331 H   0  0  0  0  0  0  0  0  0  0  0  0  # atno 11005 bound_to 11000
  144.6934  140.3307  143.7216 LP  0  0  0  0  0  0  0  0  0  0  0  0  # atno 17320 bound_to 7965
  145.7422  139.1768  143.2369 LP  0  0  0  0  0  0  0  0  0  0  0  0  # atno 17321 bound_to 7965
  139.6470  144.0432  152.2598 LP  0  0  0  0  0  0  0  0  0  0  0  0  # atno 17342 bound_to 10162
  139.9956  144.6330  150.7775 LP  0  0  0  0  0  0  0  0  0  0  0  0  # atno 17343 bound_to 10162
  156.7479  130.4759  149.5463 LP  0  0  0  0  0  0  0  0  0  0  0  0  # atno 17370 bound_to 10713
  156.1497  130.6301  151.0579 LP  0  0  0  0  0  0  0  0  0  0  0  0  # atno 17371 bound_to 10713
  140.9709  133.7328  156.0533 LP  0  0  0  0  0  0  0  0  0  0  0  0  # atno 17394 bound_to 11000
  140.7872  134.3659  157.5473 LP  0  0  0  0  0  0  0  0  0  0  0  0  # atno 17395 bound_to 11000

$$$$
