AV-unprocessed.smi:3119|AV-procd|sdf|11891|dock9
  -GOLD-   2272017283D 1   1.00000     0.00000
 Structure written by MMmdl.
 32 33  0  0  0  0  0  0  0  0  2 V2000
  149.3937  141.3804  154.1150 O   0  0  0  0  0  0  0  0  0  0  0  0
  148.4937  141.2695  154.9484 C   0  0  0  0  0  0  0  0  0  0  0  0
  148.7282  141.0776  156.2541 N   0  0  0  0  0  0  0  0  0  0  0  0
  150.0571  140.9639  156.8394 C   0  0  0  0  0  0  0  0  0  0  0  0
  150.9298  142.1637  156.4478 C   0  0  0  0  0  0  0  0  0  0  0  0
  151.3570  142.9772  157.6543 C   0  0  0  0  0  0  0  0  0  0  0  0
  152.1829  142.4416  158.6664 C   0  0  0  0  0  0  0  0  0  0  0  0
  152.5523  143.2560  159.7574 C   0  0  0  0  0  0  0  0  0  0  0  0
  152.0898  144.5871  159.8129 C   0  0  0  0  0  0  0  0  0  0  0  0
  151.2684  145.0713  158.7743 C   0  0  0  0  0  0  0  0  0  0  0  0
  150.9367  144.2600  157.7456 N   0  3  0  0  0  0  0  0  0  0  0  0
  147.0190  141.3508  154.5313 C   0  0  0  0  0  0  0  0  0  0  0  0
  146.5907  142.7276  153.9951 C   0  0  0  0  0  0  0  0  0  0  0  0
  145.3133  142.6116  154.8317 C   0  0  0  0  0  0  0  0  0  0  0  0
  146.0254  141.5611  155.6886 C   0  0  0  0  0  0  0  0  0  0  0  0
  147.9369  141.0012  156.8770 H   0  0  0  0  0  0  0  0  0  0  0  0
  149.9730  140.9070  157.9261 H   0  0  0  0  0  0  0  0  0  0  0  0
  150.5176  140.0340  156.5018 H   0  0  0  0  0  0  0  0  0  0  0  0
  151.8201  141.8233  155.9166 H   0  0  0  0  0  0  0  0  0  0  0  0
  150.3870  142.8103  155.7567 H   0  0  0  0  0  0  0  0  0  0  0  0
  152.5326  141.4210  158.6081 H   0  0  0  0  0  0  0  0  0  0  0  0
  153.1837  142.8643  160.5415 H   0  0  0  0  0  0  0  0  0  0  0  0
  152.3619  145.2274  160.6395 H   0  0  0  0  0  0  0  0  0  0  0  0
  150.8710  146.0750  158.7345 H   0  0  0  0  0  0  0  0  0  0  0  0
  146.7076  140.5397  153.8699 H   0  0  0  0  0  0  0  0  0  0  0  0
  147.2309  143.5514  154.3160 H   0  0  0  0  0  0  0  0  0  0  0  0
  146.4150  142.7570  152.9194 H   0  0  0  0  0  0  0  0  0  0  0  0
  145.0339  143.5209  155.3645 H   0  0  0  0  0  0  0  0  0  0  0  0
  144.4759  142.1985  154.2673 H   0  0  0  0  0  0  0  0  0  0  0  0
  145.4124  140.6895  155.9188 H   0  0  0  0  0  0  0  0  0  0  0  0
  146.4646  141.9861  156.5929 H   0  0  0  0  0  0  0  0  0  0  0  0
  150.3431  144.6320  157.0037 H   0  0  0  0  0  0  0  0  0  0  0  0
  1  2  2  0  0  0  0
  2  3  1  0  0  0  0
  2 12  1  0  0  0  0
  3  4  1  0  0  0  0
  3 16  1  0  0  0  0
  4  5  1  0  0  0  0
  4 17  1  0  0  0  0
  4 18  1  0  0  0  0
  5  6  1  0  0  0  0
  5 19  1  0  0  0  0
  5 20  1  0  0  0  0
  6 11  1  0  0  0  0
  6  7  2  0  0  0  0
  7  8  1  0  0  0  0
  7 21  1  0  0  0  0
  8  9  2  0  0  0  0
  8 22  1  0  0  0  0
  9 10  1  0  0  0  0
  9 23  1  0  0  0  0
 10 11  2  0  0  0  0
 10 24  1  0  0  0  0
 11 32  1  0  0  0  0
 12 15  1  0  0  0  0
 12 13  1  0  0  0  0
 12 25  1  0  0  0  0
 13 14  1  0  0  0  0
 13 26  1  0  0  0  0
 13 27  1  0  0  0  0
 14 15  1  0  0  0  0
 14 28  1  0  0  0  0
 14 29  1  0  0  0  0
 15 30  1  0  0  0  0
 15 31  1  0  0  0  0
M  CHG  1  11   1
M  END
> <s_m_source_file>
AV-unprocessed.smi

> <i_m_source_file_index>
3119

> <i_lp_mmshare_version>
43012

> <i_f3d_flags>
0

> <s_epik_input>
W0NIMl0xW0NIMl1bQ0gyXVtDSF0xQyg9TylbTkhdW0NIMl1bQ0gyXWMyW2NIXVtjSF1bY0hdW2NIXW4y

> <s_epik_cmdline>
J2VwaWtfcHl0aG9uJywgJy1waCcsICc3LjAnLCAnLXRuJywgJzgnLCAnLW1hJywgJzIwMCcsICctbWV0YWxfYmluZGluZycsICctaW1hZScsICc8aW5maWxlLm1hZT4nLCAnLW9tYWUnLCAnPG91dGZpbGUubWFlPic=

> <r_epik_Ionization_Penalty>
1.82741

> <r_epik_Ionization_Penalty_Charging>
1.82741

> <r_epik_Ionization_Penalty_Neutral>
1.62845e-08

> <r_epik_State_Penalty>
1.94311

> <r_epik_Charging_Adjusted_Penalty>
3.77052

> <i_epik_Tot_Q>
1

> <i_epik_Tot_abs_Q>
1

> <r_epik_Metal_State_Penalty>
1.96982

> <b_epik_Metal_Only>
0

> <s_lp_Force_Field>
OPLS_2005

> <r_lp_Energy>
15.9357

> <b_lp_Chiralities_Consistent>
1

> <s_lp_Variant>
AV-unprocessed.smi:3119-2

> <Gold.Version>
5.8.1

> <Gold.Id.Protein>
6NUR|6NUR_protein|mol2

> <Gold.PLP.Fitness>
44.8794

> <Gold.PLP.PLP>
-37.1949

> <Gold.PLP.part.hbond>
-3.0000

> <Gold.PLP.part.metal>
0.0000

> <Gold.PLP.part.buried>
-4.7371

> <Gold.PLP.part.nonpolar>
-28.6782

> <Gold.PLP.part.repulsive>
0.2519

> <Gold.PLP.ligand.clash>
0.0000

> <Gold.PLP.ligand.torsion>
0.6272

> <Gold.PLP.Chemscore.Hbond>
2.8444

> <Gold.PLP.Chemscore.CHOScore>
0.0000

> <Gold.PLP.Chemscore.Metal>
0.0000

> <Gold.Chemscore.Hbonds>
donor molecule, donor type, donor heavy atom, donor atom, acceptor molecule, acceptor atom, score
      L1  H    11    32       P1  8028  2.00
      P1  H  7989  7998       L1     1  0.06
      P1  H  8011  8017       L1     1  0.58

> <Gold.PLP.Chemscore.Internal.Correction>
0.4058

> <Gold.Rescore>
     Score         DG    S(hbond)    S(metal)    S(lipo)     H(rot)  DE(clash)    DE(int)     intcor
     16.55     -18.79       1.88        0.00      93.50       1.53       0.23       2.02       ----

> <Gold.Chemscore.Fitness>
16.5490

> <Gold.Chemscore.DG>
-18.7937

> <Gold.Chemscore.ZeroCoef>
-5.4800

> <Gold.Chemscore.Hbond>
1.8817

> <Gold.Chemscore.Metal>
0.0000

> <Gold.Chemscore.Lipo>
93.5042

> <Gold.Chemscore.Internal_Hbond>
0.0000

> <Gold.Chemscore.DEClash>
0.2297

> <Gold.Chemscore.DEInternal>
2.0151

> <Gold.Chemscore.Rot>
1.5278

> <Gold.Chemscore.Internal.Correction>
   9.000000E+99

> <Gold.Chemscore.Hbonds>
donor molecule, donor type, donor heavy atom, donor atom, acceptor molecule, acceptor atom, score
      L1  H    11    32       P1  8028  0.64
      P1  H  7989  7998       L1     1  0.07
      P1  H  8011  8017       L1     1  0.58

> <Gold.Chemscore.Hbond.Weighted>
-6.2849

> <Gold.Chemscore.Metal.Weighted>
-0.0000

> <Gold.Chemscore.Lipo.Weighted>
-10.9400

> <Gold.Chemscore.Internal_Hbond.Weighted>
0.0000

> <Gold.Chemscore.DEClash.Weighted>
0.2297

> <Gold.Chemscore.DEInternal.Weighted>
2.0151

> <Gold.Chemscore.Rot.Weighted>
3.9111

> <Gold.Chemscore.Internal.Correction.Weighted>
   9.000000E+99

> <Gold.Protein.RotatedTorsions>
[ 6907 6896 6895 6894 ] final  159.51 input  -60.11 | X-H torsion
[ 7974 7965 7964 7962 ] final  124.19 input  175.53 | X-H torsion
[ 8008 7997 7996 7995 ] final  -61.31 input   59.86 | X-H torsion
[ 10167 10162 10161 10158 ] final  119.31 input  -65.29 | X-H torsion
[ 10718 10713 10712 10709 ] final  -22.83 input   66.30 | X-H torsion
[ 10763 10752 10751 10750 ] final  -54.76 input  -60.55 | X-H torsion
[ 11005 11000 10999 10996 ] final   67.76 input  -57.11 | X-H torsion

> <Gold.Protein.ActiveResidues>
 VAL166  LYS551  ARG553  GLY616  TRP617  ASP618  TYR619  PRO620  LYS621  CYS622 
 ASP623  PHE694  ASN695  SER759  ASP760  ASP761  ALA762  ILE779  LEU786  VAL792 
 PHE793  MET794  SER795  GLU796  ALA797  LYS798  CYS799  TRP800  GLU811  SER814 

> <Gold.Protein.RotatedAtoms>
  151.9845  133.3769  159.4120 H   0  0  0  0  0  0  0  0  0  0  0  0  # atno 6907 bound_to 6896
  150.6930  134.4003  159.5125 H   0  0  0  0  0  0  0  0  0  0  0  0  # atno 6908 bound_to 6896
  152.1727  134.8820  160.0584 H   0  0  0  0  0  0  0  0  0  0  0  0  # atno 6909 bound_to 6896
  145.0873  139.3613  143.4878 H   0  0  0  0  0  0  0  0  0  0  0  0  # atno 7974 bound_to 7965
  154.4441  140.1020  156.6410 H   0  0  0  0  0  0  0  0  0  0  0  0  # atno 8008 bound_to 7997
  155.5501  140.3485  155.4448 H   0  0  0  0  0  0  0  0  0  0  0  0  # atno 8009 bound_to 7997
  156.0535  140.1309  157.0013 H   0  0  0  0  0  0  0  0  0  0  0  0  # atno 8010 bound_to 7997
  139.6054  144.7068  151.2965 H   0  0  0  0  0  0  0  0  0  0  0  0  # atno 10167 bound_to 10162
  156.4992  130.4584  149.6711 H   0  0  0  0  0  0  0  0  0  0  0  0  # atno 10718 bound_to 10713
  154.1800  135.6445  153.5031 H   0  0  0  0  0  0  0  0  0  0  0  0  # atno 10763 bound_to 10752
  153.0062  135.5403  154.6524 H   0  0  0  0  0  0  0  0  0  0  0  0  # atno 10764 bound_to 10752
  154.5886  135.2932  155.0632 H   0  0  0  0  0  0  0  0  0  0  0  0  # atno 10765 bound_to 10752
  139.9751  134.6835  156.0369 H   0  0  0  0  0  0  0  0  0  0  0  0  # atno 11005 bound_to 11000
  146.3531  140.0691  142.8624 LP  0  0  0  0  0  0  0  0  0  0  0  0  # atno 17320 bound_to 7965
  145.1107  140.9403  143.4658 LP  0  0  0  0  0  0  0  0  0  0  0  0  # atno 17321 bound_to 7965
  140.7281  143.6944  150.7895 LP  0  0  0  0  0  0  0  0  0  0  0  0  # atno 17342 bound_to 10162
  140.0529  143.5231  152.2665 LP  0  0  0  0  0  0  0  0  0  0  0  0  # atno 17343 bound_to 10162
  156.3350  130.7351  151.2287 LP  0  0  0  0  0  0  0  0  0  0  0  0  # atno 17370 bound_to 10713
  157.7465  131.0419  150.4670 LP  0  0  0  0  0  0  0  0  0  0  0  0  # atno 17371 bound_to 10713
  141.1429  133.6561  156.3782 LP  0  0  0  0  0  0  0  0  0  0  0  0  # atno 17394 bound_to 11000
  140.5211  134.6303  157.5318 LP  0  0  0  0  0  0  0  0  0  0  0  0  # atno 17395 bound_to 11000

$$$$
