AV-unprocessed.smi:946|AV-procd|sdf|4236|dock8
  -GOLD-   22720 2143D 1   1.00000     0.00000
 Structure written by MMmdl.
 42 43  0  0  0  0  0  0  0  0  1 V2000
  152.5945  138.0909  158.4778 C   0  0  0  0  0  0  0  0  0  0  0  0
  151.1791  138.6055  158.1792 C   0  0  2  0  0  0  0  0  0  0  0  0
  151.0715  139.9061  158.7499 O   0  0  0  0  0  0  0  0  0  0  0  0
  151.6852  140.9529  158.0072 C   0  0  0  0  0  0  0  0  0  0  0  0
  151.4846  142.2710  158.7663 C   0  0  1  0  0  0  0  0  0  0  0  0
  152.4694  142.4173  159.9427 C   0  0  0  0  0  0  0  0  0  0  0  0
  152.2967  143.7812  160.6217 C   0  0  0  0  0  0  0  0  0  0  0  0
  152.4011  144.8965  159.5764 C   0  0  0  0  0  0  0  0  0  0  0  0
  151.4381  144.6265  158.4092 C   0  0  0  0  0  0  0  0  0  0  0  0
  151.7007  143.3431  157.8508 O   0  0  0  0  0  0  0  0  0  0  0  0
  150.1132  137.6730  158.7760 C   0  0  0  0  0  0  0  0  0  0  0  0
  150.4602  136.6355  159.3415 O   0  0  0  0  0  0  0  0  0  0  0  0
  148.8372  138.0815  158.6417 N   0  0  0  0  0  0  0  0  0  0  0  0
  147.6540  137.4290  159.0780 C   0  0  0  0  0  0  0  0  0  0  0  0
  146.5112  137.6647  158.2826 C   0  0  0  0  0  0  0  0  0  0  0  0
  145.2892  137.0582  158.6301 C   0  0  0  0  0  0  0  0  0  0  0  0
  145.2399  136.2309  159.7659 C   0  0  0  0  0  0  0  0  0  0  0  0
  146.4241  136.0465  160.5109 C   0  0  0  0  0  0  0  0  0  0  0  0
  146.4574  135.1694  161.7547 C   0  0  0  0  0  0  0  0  0  0  0  0
  145.2355  134.7695  162.1095 F   0  0  0  0  0  0  0  0  0  0  0  0
  147.2037  134.0893  161.5234 F   0  0  0  0  0  0  0  0  0  0  0  0
  146.9892  135.8502  162.7701 F   0  0  0  0  0  0  0  0  0  0  0  0
  147.5955  136.6312  160.1724 N   0  0  0  0  0  0  0  0  0  0  0  0
  152.7480  137.0924  158.0668 H   0  0  0  0  0  0  0  0  0  0  0  0
  152.7883  138.0461  159.5504 H   0  0  0  0  0  0  0  0  0  0  0  0
  153.3449  138.7473  158.0365 H   0  0  0  0  0  0  0  0  0  0  0  0
  151.0578  138.6714  157.0963 H   0  0  0  0  0  0  0  0  0  0  0  0
  152.7508  140.7384  157.9142 H   0  0  0  0  0  0  0  0  0  0  0  0
  151.2781  141.0334  156.9985 H   0  0  0  0  0  0  0  0  0  0  0  0
  150.4615  142.3099  159.1453 H   0  0  0  0  0  0  0  0  0  0  0  0
  152.3144  141.6187  160.6690 H   0  0  0  0  0  0  0  0  0  0  0  0
  153.4935  142.3168  159.5806 H   0  0  0  0  0  0  0  0  0  0  0  0
  151.3231  143.8269  161.1113 H   0  0  0  0  0  0  0  0  0  0  0  0
  153.0468  143.9179  161.4011 H   0  0  0  0  0  0  0  0  0  0  0  0
  152.1821  145.8627  160.0315 H   0  0  0  0  0  0  0  0  0  0  0  0
  153.4231  144.9520  159.1995 H   0  0  0  0  0  0  0  0  0  0  0  0
  150.3996  144.6860  158.7382 H   0  0  0  0  0  0  0  0  0  0  0  0
  151.5695  145.3810  157.6334 H   0  0  0  0  0  0  0  0  0  0  0  0
  148.6981  138.9564  158.1581 H   0  0  0  0  0  0  0  0  0  0  0  0
  146.5660  138.3012  157.4113 H   0  0  0  0  0  0  0  0  0  0  0  0
  144.4043  137.2244  158.0333 H   0  0  0  0  0  0  0  0  0  0  0  0
  144.3135  135.7543  160.0503 H   0  0  0  0  0  0  0  0  0  0  0  0
  1  2  1  0  0  0  0
  1 24  1  0  0  0  0
  1 25  1  0  0  0  0
  1 26  1  0  0  0  0
  2  3  1  0  0  0  0
  2 11  1  0  0  0  0
  2 27  1  0  0  0  0
  3  4  1  0  0  0  0
  4  5  1  0  0  0  0
  4 28  1  0  0  0  0
  4 29  1  0  0  0  0
  5 10  1  0  0  0  0
  5  6  1  0  0  0  0
  5 30  1  0  0  0  0
  6  7  1  0  0  0  0
  6 31  1  0  0  0  0
  6 32  1  0  0  0  0
  7  8  1  0  0  0  0
  7 33  1  0  0  0  0
  7 34  1  0  0  0  0
  8  9  1  0  0  0  0
  8 35  1  0  0  0  0
  8 36  1  0  0  0  0
  9 10  1  0  0  0  0
  9 37  1  0  0  0  0
  9 38  1  0  0  0  0
 11 12  2  0  0  0  0
 11 13  1  0  0  0  0
 13 14  1  0  0  0  0
 13 39  1  0  0  0  0
 14 23  1  0  0  0  0
 14 15  2  0  0  0  0
 15 16  1  0  0  0  0
 15 40  1  0  0  0  0
 16 17  2  0  0  0  0
 16 41  1  0  0  0  0
 17 18  1  0  0  0  0
 17 42  1  0  0  0  0
 18 19  1  0  0  0  0
 18 23  2  0  0  0  0
 19 20  1  0  0  0  0
 19 21  1  0  0  0  0
 19 22  1  0  0  0  0
M  END
> <s_m_source_file>
AV-unprocessed.smi

> <i_m_source_file_index>
946

> <i_lp_mmshare_version>
43012

> <i_f3d_flags>
0

> <s_epik_input>
TzFbQ0gyXVtDSDJdW0NIMl1bQ0gyXVtDQEhdMVtDSDJdT1tDQEBIXShbQ0gzXSlDKD1PKVtOSF1jMltjSF1bY0hdW2NIXWMobjIpQyhGKShGKUY=

> <s_epik_cmdline>
J2VwaWtfcHl0aG9uJywgJy1waCcsICc3LjAnLCAnLXRuJywgJzgnLCAnLW1hJywgJzIwMCcsICctbWV0YWxfYmluZGluZycsICctaW1hZScsICc8aW5maWxlLm1hZT4nLCAnLW9tYWUnLCAnPG91dGZpbGUubWFlPic=

> <r_lp_tautomer_probability>
1

> <r_epik_Ionization_Penalty>
1.32683e-06

> <r_epik_Ionization_Penalty_Charging>
0

> <r_epik_Ionization_Penalty_Neutral>
1.32683e-06

> <r_epik_State_Penalty>
-0

> <r_epik_Charging_Adjusted_Penalty>
0

> <i_epik_Tot_Q>
0

> <i_epik_Tot_abs_Q>
0

> <r_epik_Metal_State_Penalty>
-0

> <b_epik_Metal_Only>
0

> <s_lp_Force_Field>
OPLS_2005

> <r_lp_Energy>
15.6569

> <b_lp_Chiralities_Consistent>
1

> <s_lp_Variant>
AV-unprocessed.smi:946-3

> <Gold.Version>
5.8.1

> <Gold.Id.Protein>
6NUR|6NUR_protein|mol2

> <Gold.PLP.Fitness>
43.9458

> <Gold.PLP.PLP>
-42.3115

> <Gold.PLP.part.hbond>
-1.0000

> <Gold.PLP.part.metal>
0.0000

> <Gold.PLP.part.buried>
-7.1957

> <Gold.PLP.part.nonpolar>
-35.2659

> <Gold.PLP.part.repulsive>
0.3000

> <Gold.PLP.ligand.clash>
0.0000

> <Gold.PLP.ligand.torsion>
0.7191

> <Gold.PLP.Chemscore.Hbond>
1.0000

> <Gold.PLP.Chemscore.CHOScore>
0.0000

> <Gold.PLP.Chemscore.Metal>
0.0000

> <Gold.Chemscore.Hbonds>
donor molecule, donor type, donor heavy atom, donor atom, acceptor molecule, acceptor atom, score
      P1  H  6896  6907       L1    12  1.00

> <Gold.PLP.Chemscore.Internal.Correction>
0.0725

> <Gold.Rescore>
     Score         DG    S(hbond)    S(metal)    S(lipo)     H(rot)  DE(clash)    DE(int)     intcor
     13.56     -15.22       1.06        0.00      91.26       1.76       0.15       1.50       ----

> <Gold.Chemscore.Fitness>
13.5628

> <Gold.Chemscore.DG>
-15.2181

> <Gold.Chemscore.ZeroCoef>
-5.4800

> <Gold.Chemscore.Hbond>
1.0646

> <Gold.Chemscore.Metal>
0.0000

> <Gold.Chemscore.Lipo>
91.2572

> <Gold.Chemscore.Internal_Hbond>
0.0000

> <Gold.Chemscore.DEClash>
0.1528

> <Gold.Chemscore.DEInternal>
1.5025

> <Gold.Chemscore.Rot>
1.7557

> <Gold.Chemscore.Internal.Correction>
   9.000000E+99

> <Gold.Chemscore.Hbonds>
donor molecule, donor type, donor heavy atom, donor atom, acceptor molecule, acceptor atom, score
      P1  H  6896  6907       L1    12  1.00

> <Gold.Chemscore.Hbond.Weighted>
-3.5556

> <Gold.Chemscore.Metal.Weighted>
-0.0000

> <Gold.Chemscore.Lipo.Weighted>
-10.6771

> <Gold.Chemscore.Internal_Hbond.Weighted>
0.0000

> <Gold.Chemscore.DEClash.Weighted>
0.1528

> <Gold.Chemscore.DEInternal.Weighted>
1.5025

> <Gold.Chemscore.Rot.Weighted>
4.4946

> <Gold.Chemscore.Internal.Correction.Weighted>
   9.000000E+99

> <Gold.Protein.RotatedTorsions>
[ 6907 6896 6895 6894 ] final  -26.58 input  -60.11 | X-H torsion
[ 7974 7965 7964 7962 ] final  -89.58 input  175.53 | X-H torsion
[ 8008 7997 7996 7995 ] final  155.30 input   59.86 | X-H torsion
[ 10167 10162 10161 10158 ] final   17.38 input  -65.29 | X-H torsion
[ 10718 10713 10712 10709 ] final -167.65 input   66.30 | X-H torsion
[ 10763 10752 10751 10750 ] final  -74.01 input  -60.55 | X-H torsion
[ 11005 11000 10999 10996 ] final   15.42 input  -57.11 | X-H torsion

> <Gold.Protein.ActiveResidues>
 VAL166  LYS551  ARG553  GLY616  TRP617  ASP618  TYR619  PRO620  LYS621  CYS622 
 ASP623  PHE694  ASN695  SER759  ASP760  ASP761  ALA762  ILE779  LEU786  VAL792 
 PHE793  MET794  SER795  GLU796  ALA797  LYS798  CYS799  TRP800  GLU811  SER814 

> <Gold.Protein.RotatedAtoms>
  151.1589  135.0264  159.8701 H   0  0  0  0  0  0  0  0  0  0  0  0  # atno 6907 bound_to 6896
  152.5452  134.1302  159.8446 H   0  0  0  0  0  0  0  0  0  0  0  0  # atno 6908 bound_to 6896
  151.1395  133.4935  159.2630 H   0  0  0  0  0  0  0  0  0  0  0  0  # atno 6909 bound_to 6896
  145.4379  140.9558  143.2091 H   0  0  0  0  0  0  0  0  0  0  0  0  # atno 7974 bound_to 7965
  156.2485  140.1943  156.6780 H   0  0  0  0  0  0  0  0  0  0  0  0  # atno 8008 bound_to 7997
  154.6343  140.0592  156.9796 H   0  0  0  0  0  0  0  0  0  0  0  0  # atno 8009 bound_to 7997
  155.1662  140.3264  155.4404 H   0  0  0  0  0  0  0  0  0  0  0  0  # atno 8010 bound_to 7997
  140.5730  143.9125  150.6728 H   0  0  0  0  0  0  0  0  0  0  0  0  # atno 10167 bound_to 10162
  156.6854  130.9138  151.3062 H   0  0  0  0  0  0  0  0  0  0  0  0  # atno 10718 bound_to 10713
  154.4673  135.5878  153.6297 H   0  0  0  0  0  0  0  0  0  0  0  0  # atno 10763 bound_to 10752
  152.9830  135.6058  154.3411 H   0  0  0  0  0  0  0  0  0  0  0  0  # atno 10764 bound_to 10752
  154.3290  135.2842  155.2461 H   0  0  0  0  0  0  0  0  0  0  0  0  # atno 10765 bound_to 10752
  140.4585  134.1151  155.7713 H   0  0  0  0  0  0  0  0  0  0  0  0  # atno 11005 bound_to 11000
  144.8140  139.5910  143.7016 LP  0  0  0  0  0  0  0  0  0  0  0  0  # atno 17320 bound_to 7965
  146.2572  139.6329  142.9387 LP  0  0  0  0  0  0  0  0  0  0  0  0  # atno 17321 bound_to 7965
  140.2605  143.3527  152.1327 LP  0  0  0  0  0  0  0  0  0  0  0  0  # atno 17342 bound_to 10162
  139.5127  144.6922  151.5729 LP  0  0  0  0  0  0  0  0  0  0  0  0  # atno 17343 bound_to 10162
  157.7028  130.9352  150.0838 LP  0  0  0  0  0  0  0  0  0  0  0  0  # atno 17370 bound_to 10713
  156.1836  130.3651  149.9002 LP  0  0  0  0  0  0  0  0  0  0  0  0  # atno 17371 bound_to 10713
  141.1632  133.8753  157.1789 LP  0  0  0  0  0  0  0  0  0  0  0  0  # atno 17394 bound_to 11000
  139.9960  135.0046  157.0084 LP  0  0  0  0  0  0  0  0  0  0  0  0  # atno 17395 bound_to 11000

$$$$
