AV-unprocessed.smi:277|AV-procd|sdf|2086|dock3
  -GOLD-   2262021363D 1   1.00000     0.00000
 Structure written by MMmdl.
 54 58  0  0  0  0  0  0  0  0  1 V2000
  153.7606  131.2329  156.6601 O   0  0  0  0  0  0  0  0  0  0  0  0
  152.8875  130.6921  155.9834 C   0  0  0  0  0  0  0  0  0  0  0  0
  151.4366  131.1358  156.0009 C   0  0  0  0  0  0  0  0  0  0  0  0
  150.8354  130.2073  155.0504 N   0  0  0  0  0  0  0  0  0  0  0  0
  149.5780  130.3690  154.5614 C   0  0  0  0  0  0  0  0  0  0  0  0
  148.8604  129.2560  154.2547 N   0  0  0  0  0  0  0  0  0  0  0  0
  147.6177  129.3572  153.7766 C   0  0  0  0  0  0  0  0  0  0  0  0
  146.9072  130.4580  153.5309 N   0  0  0  0  0  0  0  0  0  0  0  0
  147.6185  131.5822  153.8296 C   0  0  0  0  0  0  0  0  0  0  0  0
  148.9494  131.6308  154.3373 C   0  0  0  0  0  0  0  0  0  0  0  0
  149.3354  132.9579  154.4953 N   0  0  0  0  0  0  0  0  0  0  0  0
  148.2970  133.6476  154.1113 C   0  0  0  0  0  0  0  0  0  0  0  0
  147.2113  132.9006  153.7154 N   0  0  0  0  0  0  0  0  0  0  0  0
  145.9287  133.4024  153.2412 C   0  0  0  0  0  0  0  0  0  0  0  0
  145.6473  133.2076  151.7181 C   0  0  0  0  0  0  0  0  0  0  0  0
  146.5348  134.2225  150.9421 C   0  0  0  0  0  0  0  0  0  0  0  0
  146.3187  135.5576  151.3541 O   0  0  0  0  0  0  0  0  0  0  0  0
  145.9254  131.7505  151.2629 C   0  0  0  0  0  0  0  0  0  0  0  0
  145.4685  131.4836  149.8173 C   0  0  0  0  0  0  0  0  0  0  0  0
  144.0808  131.7679  149.6898 O   0  0  0  0  0  0  0  0  0  0  0  0
  143.7635  133.1279  149.9587 C   0  0  0  0  0  0  0  0  0  0  0  0
  144.1536  133.4861  151.4058 C   0  0  0  0  0  0  0  0  0  0  0  0
  151.8196  129.3133  154.4554 C   0  0  0  0  0  0  0  0  0  0  0  0
  153.0536  129.6697  155.1359 N   0  0  0  0  0  0  0  0  0  0  0  0
  154.3087  129.0057  154.7931 C   0  0  0  0  0  0  0  0  0  0  0  0
  155.2856  129.8247  153.9689 C   0  0  0  0  0  0  0  0  0  0  0  0
  156.7519  129.4618  153.8984 C   0  0  0  0  0  0  0  0  0  0  0  0
  156.3156  130.6894  154.6580 C   0  0  0  0  0  0  0  0  0  0  0  0
  151.0041  131.0233  156.9958 H   0  0  0  0  0  0  0  0  0  0  0  0
  151.3518  132.1731  155.6736 H   0  0  0  0  0  0  0  0  0  0  0  0
  147.1207  128.4223  153.5626 H   0  0  0  0  0  0  0  0  0  0  0  0
  148.2910  134.7278  154.1150 H   0  0  0  0  0  0  0  0  0  0  0  0
  145.1460  132.9184  153.8271 H   0  0  0  0  0  0  0  0  0  0  0  0
  145.8808  134.4597  153.5036 H   0  0  0  0  0  0  0  0  0  0  0  0
  147.5965  134.0164  151.0623 H   0  0  0  0  0  0  0  0  0  0  0  0
  146.3333  134.1600  149.8720 H   0  0  0  0  0  0  0  0  0  0  0  0
  147.1562  135.9570  151.5335 H   0  0  0  0  0  0  0  0  0  0  0  0
  146.9813  131.5034  151.3740 H   0  0  0  0  0  0  0  0  0  0  0  0
  145.3863  131.0501  151.8995 H   0  0  0  0  0  0  0  0  0  0  0  0
  146.0442  132.0651  149.0969 H   0  0  0  0  0  0  0  0  0  0  0  0
  145.6296  130.4347  149.5683 H   0  0  0  0  0  0  0  0  0  0  0  0
  144.2481  133.7801  149.2322 H   0  0  0  0  0  0  0  0  0  0  0  0
  142.6903  133.2636  149.8236 H   0  0  0  0  0  0  0  0  0  0  0  0
  143.5158  132.8926  152.0590 H   0  0  0  0  0  0  0  0  0  0  0  0
  143.9102  134.5295  151.6100 H   0  0  0  0  0  0  0  0  0  0  0  0
  151.5660  128.2690  154.6421 H   0  0  0  0  0  0  0  0  0  0  0  0
  151.9157  129.4817  153.3819 H   0  0  0  0  0  0  0  0  0  0  0  0
  154.8144  128.7147  155.7147 H   0  0  0  0  0  0  0  0  0  0  0  0
  154.0814  128.0773  154.2675 H   0  0  0  0  0  0  0  0  0  0  0  0
  154.8478  130.2543  153.0696 H   0  0  0  0  0  0  0  0  0  0  0  0
  157.0893  128.6044  154.4772 H   0  0  0  0  0  0  0  0  0  0  0  0
  157.2587  129.6093  152.9469 H   0  0  0  0  0  0  0  0  0  0  0  0
  156.5342  131.6591  154.2157 H   0  0  0  0  0  0  0  0  0  0  0  0
  156.3658  130.6503  155.7446 H   0  0  0  0  0  0  0  0  0  0  0  0
  1  2  2  0  0  0  0
  2 24  1  0  0  0  0
  2  3  1  0  0  0  0
  3  4  1  0  0  0  0
  3 29  1  0  0  0  0
  3 30  1  0  0  0  0
  4  5  1  0  0  0  0
  4 23  1  0  0  0  0
  5 10  1  0  0  0  0
  5  6  2  0  0  0  0
  6  7  1  0  0  0  0
  7  8  2  0  0  0  0
  7 31  1  0  0  0  0
  8  9  1  0  0  0  0
  9 13  1  0  0  0  0
  9 10  2  0  0  0  0
 10 11  1  0  0  0  0
 11 12  2  0  0  0  0
 12 13  1  0  0  0  0
 12 32  1  0  0  0  0
 13 14  1  0  0  0  0
 14 15  1  0  0  0  0
 14 33  1  0  0  0  0
 14 34  1  0  0  0  0
 15 22  1  0  0  0  0
 15 16  1  0  0  0  0
 15 18  1  0  0  0  0
 16 17  1  0  0  0  0
 16 35  1  0  0  0  0
 16 36  1  0  0  0  0
 17 37  1  0  0  0  0
 18 19  1  0  0  0  0
 18 38  1  0  0  0  0
 18 39  1  0  0  0  0
 19 20  1  0  0  0  0
 19 40  1  0  0  0  0
 19 41  1  0  0  0  0
 20 21  1  0  0  0  0
 21 22  1  0  0  0  0
 21 42  1  0  0  0  0
 21 43  1  0  0  0  0
 22 44  1  0  0  0  0
 22 45  1  0  0  0  0
 23 24  1  0  0  0  0
 23 46  1  0  0  0  0
 23 47  1  0  0  0  0
 24 25  1  0  0  0  0
 25 26  1  0  0  0  0
 25 48  1  0  0  0  0
 25 49  1  0  0  0  0
 26 28  1  0  0  0  0
 26 27  1  0  0  0  0
 26 50  1  0  0  0  0
 27 28  1  0  0  0  0
 27 51  1  0  0  0  0
 27 52  1  0  0  0  0
 28 53  1  0  0  0  0
 28 54  1  0  0  0  0
M  END
> <s_m_source_file>
AV-unprocessed.smi

> <i_m_source_file_index>
277

> <i_lp_mmshare_version>
43012

> <i_f3d_flags>
0

> <s_epik_input>
W0NIMl0xW0NIMl1bQ0hdMVtDSDJdTjJbQ0gyXU4oW0NIMl1DMj1PKWMobltjSF1uMyljKGMzNCluW2NIXW40W0NIMl1DNShbQ0gyXVtPSF0pW0NIMl1bQ0gyXU9bQ0gyXVtDSDJdNQ==

> <s_epik_cmdline>
J2VwaWtfcHl0aG9uJywgJy1waCcsICc3LjAnLCAnLXRuJywgJzgnLCAnLW1hJywgJzIwMCcsICctbWV0YWxfYmluZGluZycsICctaW1hZScsICc8aW5maWxlLm1hZT4nLCAnLW9tYWUnLCAnPG91dGZpbGUubWFlPic=

> <r_lp_tautomer_probability>
1

> <r_epik_Ionization_Penalty>
0.00033977

> <r_epik_Ionization_Penalty_Charging>
0

> <r_epik_Ionization_Penalty_Neutral>
0.00033977

> <r_epik_State_Penalty>
-0

> <r_epik_Charging_Adjusted_Penalty>
0

> <i_epik_Tot_Q>
0

> <i_epik_Tot_abs_Q>
0

> <r_epik_Metal_State_Penalty>
-0

> <b_epik_Metal_Only>
0

> <s_epik_Chemistry_Notes>
This compound contains an acetal/aminal-like group ( X-CH(R)-Y where X, Y are N, S, or O) that may be acid/base labile, releasing an aldehyde.

> <s_lp_Force_Field>
OPLS_2005

> <r_lp_Energy>
42.4244

> <b_lp_Chiralities_Consistent>
1

> <s_lp_Variant>
AV-unprocessed.smi:277-1

> <Gold.Version>
5.8.1

> <Gold.Id.Protein>
6NUR|6NUR_protein|mol2

> <Gold.PLP.Fitness>
48.4406

> <Gold.PLP.PLP>
-44.2057

> <Gold.PLP.part.hbond>
-2.0000

> <Gold.PLP.part.metal>
0.0000

> <Gold.PLP.part.buried>
-5.0843

> <Gold.PLP.part.nonpolar>
-36.4981

> <Gold.PLP.part.repulsive>
0.4494

> <Gold.PLP.ligand.clash>
0.0000

> <Gold.PLP.ligand.torsion>
1.2477

> <Gold.PLP.Chemscore.Hbond>
1.6334

> <Gold.PLP.Chemscore.CHOScore>
0.3792

> <Gold.PLP.Chemscore.Metal>
0.0000

> <Gold.Chemscore.Hbonds>
donor molecule, donor type, donor heavy atom, donor atom, acceptor molecule, acceptor atom, score
      L1  H    17    37       P1  7948  1.00
      P1  H 10785 10796       L1    20  0.63
      L1  C    12    32       P1  7948  0.34

> <Gold.PLP.Chemscore.Internal.Correction>
0.6928

> <Gold.Rescore>
     Score         DG    S(hbond)    S(metal)    S(lipo)     H(rot)  DE(clash)    DE(int)     intcor
     10.63     -13.28       1.52        0.00      84.49       2.80       0.20       2.45       ----

> <Gold.Chemscore.Fitness>
10.6268

> <Gold.Chemscore.DG>
-13.2755

> <Gold.Chemscore.ZeroCoef>
-5.4800

> <Gold.Chemscore.Hbond>
1.5217

> <Gold.Chemscore.Metal>
0.0000

> <Gold.Chemscore.Lipo>
84.4948

> <Gold.Chemscore.Internal_Hbond>
0.0000

> <Gold.Chemscore.DEClash>
0.2017

> <Gold.Chemscore.DEInternal>
2.4470

> <Gold.Chemscore.Rot>
2.8019

> <Gold.Chemscore.Internal.Correction>
   9.000000E+99

> <Gold.Chemscore.Hbonds>
donor molecule, donor type, donor heavy atom, donor atom, acceptor molecule, acceptor atom, score
      L1  H    17    37       P1  7948  1.00
      P1  H 10785 10796       L1    20  0.37

> <Gold.Chemscore.Hbond.Weighted>
-5.0826

> <Gold.Chemscore.Metal.Weighted>
-0.0000

> <Gold.Chemscore.Lipo.Weighted>
-9.8859

> <Gold.Chemscore.Internal_Hbond.Weighted>
0.0000

> <Gold.Chemscore.DEClash.Weighted>
0.2017

> <Gold.Chemscore.DEInternal.Weighted>
2.4470

> <Gold.Chemscore.Rot.Weighted>
7.1729

> <Gold.Chemscore.Internal.Correction.Weighted>
   9.000000E+99

> <Gold.Protein.RotatedTorsions>
[ 6907 6896 6895 6894 ] final -176.87 input  -60.11 | X-H torsion
[ 7974 7965 7964 7962 ] final  132.96 input  175.53 | X-H torsion
[ 8008 7997 7996 7995 ] final -104.82 input   59.86 | X-H torsion
[ 10167 10162 10161 10158 ] final  -64.67 input  -65.29 | X-H torsion
[ 10718 10713 10712 10709 ] final  -89.86 input   66.30 | X-H torsion
[ 10763 10752 10751 10750 ] final  143.44 input  -60.55 | X-H torsion
[ 11005 11000 10999 10996 ] final -111.96 input  -57.11 | X-H torsion

> <Gold.Protein.ActiveResidues>
 VAL166  LYS551  ARG553  GLY616  TRP617  ASP618  TYR619  PRO620  LYS621  CYS622 
 ASP623  PHE694  ASN695  SER759  ASP760  ASP761  ALA762  ILE779  LEU786  VAL792 
 PHE793  MET794  SER795  GLU796  ALA797  LYS798  CYS799  TRP800  GLU811  SER814 

> <Gold.Protein.RotatedAtoms>
  151.6119  133.3346  159.3068 H   0  0  0  0  0  0  0  0  0  0  0  0  # atno 6907 bound_to 6896
  150.8152  134.7333  159.6735 H   0  0  0  0  0  0  0  0  0  0  0  0  # atno 6908 bound_to 6896
  152.4248  134.5894  160.0021 H   0  0  0  0  0  0  0  0  0  0  0  0  # atno 6909 bound_to 6896
  144.9914  139.4403  143.5337 H   0  0  0  0  0  0  0  0  0  0  0  0  # atno 7974 bound_to 7965
  154.8908  140.0416  157.1837 H   0  0  0  0  0  0  0  0  0  0  0  0  # atno 8008 bound_to 7997
  154.8543  140.2934  155.5558 H   0  0  0  0  0  0  0  0  0  0  0  0  # atno 8009 bound_to 7997
  156.2997  140.2459  156.3506 H   0  0  0  0  0  0  0  0  0  0  0  0  # atno 8010 bound_to 7997
  140.5784  143.2324  151.6393 H   0  0  0  0  0  0  0  0  0  0  0  0  # atno 10167 bound_to 10162
  155.9985  130.4888  150.5235 H   0  0  0  0  0  0  0  0  0  0  0  0  # atno 10718 bound_to 10713
  153.9724  135.2949  155.3426 H   0  0  0  0  0  0  0  0  0  0  0  0  # atno 10763 bound_to 10752
  154.7314  135.5066  153.8974 H   0  0  0  0  0  0  0  0  0  0  0  0  # atno 10764 bound_to 10752
  153.0893  135.6703  153.9998 H   0  0  0  0  0  0  0  0  0  0  0  0  # atno 10765 bound_to 10752
  141.0703  133.9390  157.2498 H   0  0  0  0  0  0  0  0  0  0  0  0  # atno 11005 bound_to 11000
  146.3432  139.9248  142.8761 LP  0  0  0  0  0  0  0  0  0  0  0  0  # atno 17320 bound_to 7965
  145.2280  140.9962  143.4007 LP  0  0  0  0  0  0  0  0  0  0  0  0  # atno 17321 bound_to 7965
  139.5156  144.3374  152.0771 LP  0  0  0  0  0  0  0  0  0  0  0  0  # atno 17342 bound_to 10162
  140.2521  144.4158  150.6218 LP  0  0  0  0  0  0  0  0  0  0  0  0  # atno 17343 bound_to 10162
  157.3193  131.0679  151.1944 LP  0  0  0  0  0  0  0  0  0  0  0  0  # atno 17370 bound_to 10713
  157.2862  130.6774  149.6091 LP  0  0  0  0  0  0  0  0  0  0  0  0  # atno 17371 bound_to 10713
  139.9517  135.0174  156.9012 LP  0  0  0  0  0  0  0  0  0  0  0  0  # atno 17394 bound_to 11000
  140.5687  134.0464  155.7423 LP  0  0  0  0  0  0  0  0  0  0  0  0  # atno 17395 bound_to 11000

$$$$
