AV-unprocessed.smi:2822|AV-procd|sdf|10861|dock4
  -GOLD-   2272015303D 1   1.00000     0.00000
 Structure written by MMmdl.
 41 43  0  0  0  0  0  0  0  0  3 V2000
  151.5043  145.4885  160.1299 Cl  0  0  0  0  0  0  0  0  0  0  0  0
  152.1882  143.9007  160.1136 C   0  0  0  0  0  0  0  0  0  0  0  0
  152.9195  143.4539  161.2335 C   0  0  0  0  0  0  0  0  0  0  0  0
  153.4587  142.2165  161.2384 N   0  3  0  0  0  0  0  0  0  0  0  0
  153.3328  141.3628  160.2007 C   0  0  0  0  0  0  0  0  0  0  0  0
  152.6125  141.7517  159.0527 C   0  0  0  0  0  0  0  0  0  0  0  0
  152.0256  143.0408  158.9992 C   0  0  0  0  0  0  0  0  0  0  0  0
  151.2981  143.4893  157.8859 N   0  0  0  0  0  0  0  0  0  0  0  0
  151.2605  142.7270  156.6471 C   0  0  0  0  0  0  0  0  0  0  0  0
  150.4904  141.4026  156.8238 C   0  0  1  0  0  0  0  0  0  0  0  0
  149.0929  141.5905  157.4453 C   0  0  0  0  0  0  0  0  0  0  0  0
  148.1465  142.2016  156.4821 N   0  3  2  0  0  0  0  0  0  0  0  0
  146.8031  142.4174  157.0779 C   0  0  0  0  0  0  0  0  0  0  0  0
  145.8648  143.1291  156.0906 C   0  0  0  0  0  0  0  0  0  0  0  0
  145.7605  142.3433  154.7781 C   0  0  0  0  0  0  0  0  0  0  0  0
  147.1602  142.1132  154.1939 C   0  0  0  0  0  0  0  0  0  0  0  0
  148.0916  141.4264  155.2134 C   0  0  1  0  0  0  0  0  0  0  0  0
  149.5101  141.2589  154.6377 C   0  0  0  0  0  0  0  0  0  0  0  0
  150.3732  140.6699  155.6040 O   0  0  0  0  0  0  0  0  0  0  0  0
  153.0881  144.0470  162.1206 H   0  0  0  0  0  0  0  0  0  0  0  0
  153.8103  140.4008  160.3179 H   0  0  0  0  0  0  0  0  0  0  0  0
  152.5266  141.0559  158.2315 H   0  0  0  0  0  0  0  0  0  0  0  0
  150.6499  144.2568  157.9988 H   0  0  0  0  0  0  0  0  0  0  0  0
  150.7609  143.3295  155.8876 H   0  0  0  0  0  0  0  0  0  0  0  0
  152.2748  142.5501  156.2900 H   0  0  0  0  0  0  0  0  0  0  0  0
  151.0693  140.7783  157.5058 H   0  0  0  0  0  0  0  0  0  0  0  0
  148.7021  140.6212  157.7590 H   0  0  0  0  0  0  0  0  0  0  0  0
  149.1608  142.2067  158.3429 H   0  0  0  0  0  0  0  0  0  0  0  0
  146.3758  141.4579  157.3738 H   0  0  0  0  0  0  0  0  0  0  0  0
  146.8982  143.0150  157.9851 H   0  0  0  0  0  0  0  0  0  0  0  0
  144.8756  143.2462  156.5343 H   0  0  0  0  0  0  0  0  0  0  0  0
  146.2352  144.1353  155.8897 H   0  0  0  0  0  0  0  0  0  0  0  0
  145.2726  141.3846  154.9587 H   0  0  0  0  0  0  0  0  0  0  0  0
  145.1374  142.8824  154.0638 H   0  0  0  0  0  0  0  0  0  0  0  0
  147.0852  141.5079  153.2895 H   0  0  0  0  0  0  0  0  0  0  0  0
  147.5860  143.0706  153.8895 H   0  0  0  0  0  0  0  0  0  0  0  0
  147.6921  140.4360  155.4400 H   0  0  0  0  0  0  0  0  0  0  0  0
  149.4823  140.6078  153.7637 H   0  0  0  0  0  0  0  0  0  0  0  0
  149.9129  142.2125  154.2956 H   0  0  0  0  0  0  0  0  0  0  0  0
  148.5114  143.1143  156.2505 H   0  0  0  0  0  0  0  0  0  0  0  0
  153.9837  141.9147  162.0599 H   0  0  0  0  0  0  0  0  0  0  0  0
  1  2  1  0  0  0  0
  2  7  1  0  0  0  0
  2  3  2  0  0  0  0
  3  4  1  0  0  0  0
  3 20  1  0  0  0  0
  4  5  2  0  0  0  0
  4 41  1  0  0  0  0
  5  6  1  0  0  0  0
  5 21  1  0  0  0  0
  6  7  2  0  0  0  0
  6 22  1  0  0  0  0
  7  8  1  0  0  0  0
  8  9  1  0  0  0  0
  8 23  1  0  0  0  0
  9 10  1  0  0  0  0
  9 24  1  0  0  0  0
  9 25  1  0  0  0  0
 10 19  1  0  0  0  0
 10 11  1  0  0  0  0
 10 26  1  0  0  0  0
 11 12  1  0  0  0  0
 11 27  1  0  0  0  0
 11 28  1  0  0  0  0
 12 17  1  0  0  0  0
 12 13  1  0  0  0  0
 12 40  1  0  0  0  0
 13 14  1  0  0  0  0
 13 29  1  0  0  0  0
 13 30  1  0  0  0  0
 14 15  1  0  0  0  0
 14 31  1  0  0  0  0
 14 32  1  0  0  0  0
 15 16  1  0  0  0  0
 15 33  1  0  0  0  0
 15 34  1  0  0  0  0
 16 17  1  0  0  0  0
 16 35  1  0  0  0  0
 16 36  1  0  0  0  0
 17 18  1  0  0  0  0
 17 37  1  0  0  0  0
 18 19  1  0  0  0  0
 18 38  1  0  0  0  0
 18 39  1  0  0  0  0
M  CHG  1   4   1
M  CHG  1  12   1
M  END
> <s_m_source_file>
AV-unprocessed.smi

> <i_m_source_file_index>
2822

> <i_lp_mmshare_version>
43012

> <i_f3d_flags>
0

> <s_epik_input>
Q2xjMVtjSF1uW2NIXVtjSF1jMVtOSF1bQ0gyXVtDQEhdKFtDSDJdMilPW0NIMl1bQ0BASF0oTjIzKVtDSDJdW0NIMl1bQ0gyXVtDSDJdMw==

> <s_epik_cmdline>
J2VwaWtfcHl0aG9uJywgJy1waCcsICc3LjAnLCAnLXRuJywgJzgnLCAnLW1hJywgJzIwMCcsICctbWV0YWxfYmluZGluZycsICctaW1hZScsICc8aW5maWxlLm1hZT4nLCAnLW9tYWUnLCAnPG91dGZpbGUubWFlPic=

> <r_lp_tautomer_probability>
1

> <r_epik_Ionization_Penalty>
0.254999

> <r_epik_Ionization_Penalty_Charging>
0.254956

> <r_epik_Ionization_Penalty_Neutral>
4.33524e-05

> <r_epik_State_Penalty>
0.230978

> <r_epik_Charging_Adjusted_Penalty>
0.485934

> <i_epik_Tot_Q>
2

> <i_epik_Tot_abs_Q>
2

> <r_epik_Metal_State_Penalty>
3.47007

> <b_epik_Metal_Only>
0

> <s_lp_Force_Field>
OPLS_2005

> <r_lp_Energy>
41.9056

> <b_lp_Chiralities_Consistent>
1

> <s_lp_Variant>
AV-unprocessed.smi:2822-2

> <Gold.Version>
5.8.1

> <Gold.Id.Protein>
6NUR|6NUR_protein|mol2

> <Gold.PLP.Fitness>
47.0027

> <Gold.PLP.PLP>
-41.1304

> <Gold.PLP.part.hbond>
-1.0000

> <Gold.PLP.part.metal>
0.0000

> <Gold.PLP.part.buried>
-6.2874

> <Gold.PLP.part.nonpolar>
-33.3278

> <Gold.PLP.part.repulsive>
0.1259

> <Gold.PLP.ligand.clash>
0.0000

> <Gold.PLP.ligand.torsion>
0.0678

> <Gold.PLP.Chemscore.Hbond>
2.0000

> <Gold.PLP.Chemscore.CHOScore>
0.0000

> <Gold.PLP.Chemscore.Metal>
0.0000

> <Gold.Chemscore.Hbonds>
donor molecule, donor type, donor heavy atom, donor atom, acceptor molecule, acceptor atom, score
      L1  H    12    40       P1  8028  2.00

> <Gold.PLP.Chemscore.Internal.Correction>
0.0079

> <Gold.Rescore>
     Score         DG    S(hbond)    S(metal)    S(lipo)     H(rot)  DE(clash)    DE(int)     intcor
     19.12     -19.45       0.97        0.00     117.99       1.20       0.28       0.05       ----

> <Gold.Chemscore.Fitness>
19.1155

> <Gold.Chemscore.DG>
-19.4504

> <Gold.Chemscore.ZeroCoef>
-5.4800

> <Gold.Chemscore.Hbond>
0.9665

> <Gold.Chemscore.Metal>
0.0000

> <Gold.Chemscore.Lipo>
117.9889

> <Gold.Chemscore.Internal_Hbond>
0.0000

> <Gold.Chemscore.DEClash>
0.2822

> <Gold.Chemscore.DEInternal>
0.0527

> <Gold.Chemscore.Rot>
1.1962

> <Gold.Chemscore.Internal.Correction>
   9.000000E+99

> <Gold.Chemscore.Hbonds>
donor molecule, donor type, donor heavy atom, donor atom, acceptor molecule, acceptor atom, score
      L1  H    12    40       P1  8028  0.91

> <Gold.Chemscore.Hbond.Weighted>
-3.2280

> <Gold.Chemscore.Metal.Weighted>
-0.0000

> <Gold.Chemscore.Lipo.Weighted>
-13.8047

> <Gold.Chemscore.Internal_Hbond.Weighted>
0.0000

> <Gold.Chemscore.DEClash.Weighted>
0.2822

> <Gold.Chemscore.DEInternal.Weighted>
0.0527

> <Gold.Chemscore.Rot.Weighted>
3.0623

> <Gold.Chemscore.Internal.Correction.Weighted>
   9.000000E+99

> <Gold.Protein.RotatedTorsions>
[ 6907 6896 6895 6894 ] final  -13.74 input  -60.11 | X-H torsion
[ 7974 7965 7964 7962 ] final -161.68 input  175.53 | X-H torsion
[ 8008 7997 7996 7995 ] final   47.68 input   59.86 | X-H torsion
[ 10167 10162 10161 10158 ] final  -88.96 input  -65.29 | X-H torsion
[ 10718 10713 10712 10709 ] final  164.71 input   66.30 | X-H torsion
[ 10763 10752 10751 10750 ] final  -74.80 input  -60.55 | X-H torsion
[ 11005 11000 10999 10996 ] final -123.12 input  -57.11 | X-H torsion

> <Gold.Protein.ActiveResidues>
 VAL166  LYS551  ARG553  GLY616  TRP617  ASP618  TYR619  PRO620  LYS621  CYS622 
 ASP623  PHE694  ASN695  SER759  ASP760  ASP761  ALA762  ILE779  LEU786  VAL792 
 PHE793  MET794  SER795  GLU796  ALA797  LYS798  CYS799  TRP800  GLU811  SER814 

> <Gold.Protein.RotatedAtoms>
  151.3503  135.0883  159.9400 H   0  0  0  0  0  0  0  0  0  0  0  0  # atno 6907 bound_to 6896
  152.5189  133.9359  159.7613 H   0  0  0  0  0  0  0  0  0  0  0  0  # atno 6908 bound_to 6896
  150.9733  133.6267  159.2764 H   0  0  0  0  0  0  0  0  0  0  0  0  # atno 6909 bound_to 6896
  144.7383  140.3362  143.6143 H   0  0  0  0  0  0  0  0  0  0  0  0  # atno 7974 bound_to 7965
  155.3731  140.3425  155.4244 H   0  0  0  0  0  0  0  0  0  0  0  0  # atno 8008 bound_to 7997
  156.1651  140.1613  156.8578 H   0  0  0  0  0  0  0  0  0  0  0  0  # atno 8009 bound_to 7997
  154.5177  140.0774  156.8096 H   0  0  0  0  0  0  0  0  0  0  0  0  # atno 8010 bound_to 7997
  140.3695  143.2801  151.9517 H   0  0  0  0  0  0  0  0  0  0  0  0  # atno 10167 bound_to 10162
  157.0905  131.0416  151.2539 H   0  0  0  0  0  0  0  0  0  0  0  0  # atno 10718 bound_to 10713
  154.4780  135.5852  153.6368 H   0  0  0  0  0  0  0  0  0  0  0  0  # atno 10763 bound_to 10752
  152.9843  135.6083  154.3283 H   0  0  0  0  0  0  0  0  0  0  0  0  # atno 10764 bound_to 10752
  154.3171  135.2844  155.2517 H   0  0  0  0  0  0  0  0  0  0  0  0  # atno 10765 bound_to 10752
  140.9943  134.0494  157.3617 H   0  0  0  0  0  0  0  0  0  0  0  0  # atno 11005 bound_to 11000
  145.7421  139.1767  143.2370 LP  0  0  0  0  0  0  0  0  0  0  0  0  # atno 17320 bound_to 7965
  146.1126  140.7409  142.9496 LP  0  0  0  0  0  0  0  0  0  0  0  0  # atno 17321 bound_to 7965
  139.4805  144.5920  151.7756 LP  0  0  0  0  0  0  0  0  0  0  0  0  # atno 17342 bound_to 10162
  140.5047  144.1115  150.5979 LP  0  0  0  0  0  0  0  0  0  0  0  0  # atno 17343 bound_to 10162
  157.4725  130.7717  149.7337 LP  0  0  0  0  0  0  0  0  0  0  0  0  # atno 17370 bound_to 10713
  155.9899  130.3948  150.3051 LP  0  0  0  0  0  0  0  0  0  0  0  0  # atno 17371 bound_to 10713
  139.9007  135.0163  156.7254 LP  0  0  0  0  0  0  0  0  0  0  0  0  # atno 17394 bound_to 11000
  140.6991  133.9322  155.8013 LP  0  0  0  0  0  0  0  0  0  0  0  0  # atno 17395 bound_to 11000

$$$$
