AV-unprocessed.smi:2613|AV-procd|sdf|10213|dock9
  -GOLD-   2272014223D 1   1.00000     0.00000
 Structure written by MMmdl.
 28 29  0  0  0  0  0  0  0  0  3 V2000
  146.4956  139.5176  152.0230 C   0  0  0  0  0  0  0  0  0  0  0  0
  147.6576  139.5913  152.9552 C   0  0  0  0  0  0  0  0  0  0  0  0
  148.5449  138.5898  153.2142 N   0  3  0  0  0  0  0  0  0  0  0  0
  149.4919  139.0266  154.1419 C   0  0  0  0  0  0  0  0  0  0  0  0
  150.5793  138.3716  154.7086 C   0  0  0  0  0  0  0  0  0  0  0  0
  151.3611  139.0985  155.6391 C   0  0  0  0  0  0  0  0  0  0  0  0
  152.5487  138.4424  156.2898 C   0  0  0  0  0  0  0  0  0  0  0  0
  153.2086  139.0872  157.1345 O   0  0  0  0  0  0  0  0  0  0  0  0
  152.8393  137.2692  155.9665 O   0  5  0  0  0  0  0  0  0  0  0  0
  151.0264  140.4371  155.9587 C   0  0  0  0  0  0  0  0  0  0  0  0
  149.9212  141.0917  155.3763 C   0  0  0  0  0  0  0  0  0  0  0  0
  149.1665  140.3582  154.4643 C   0  0  0  0  0  0  0  0  0  0  0  0
  148.0308  140.6654  153.7075 N   0  0  0  0  0  0  0  0  0  0  0  0
  147.4315  142.0010  153.8192 C   0  0  0  0  0  0  0  0  0  0  0  0
  146.2788  142.0276  154.8322 C   0  0  0  0  0  0  0  0  0  0  0  0
  145.4343  140.9191  154.6150 O   0  0  0  0  0  0  0  0  0  0  0  0
  146.3941  138.5115  151.6155 H   0  0  0  0  0  0  0  0  0  0  0  0
  146.6323  140.2153  151.1967 H   0  0  0  0  0  0  0  0  0  0  0  0
  145.5754  139.7746  152.5480 H   0  0  0  0  0  0  0  0  0  0  0  0
  150.8151  137.3495  154.4494 H   0  0  0  0  0  0  0  0  0  0  0  0
  151.6267  140.9868  156.6696 H   0  0  0  0  0  0  0  0  0  0  0  0
  149.6826  142.1123  155.6356 H   0  0  0  0  0  0  0  0  0  0  0  0
  148.2109  142.7160  154.0854 H   0  0  0  0  0  0  0  0  0  0  0  0
  147.0727  142.2880  152.8300 H   0  0  0  0  0  0  0  0  0  0  0  0
  146.6620  141.9877  155.8524 H   0  0  0  0  0  0  0  0  0  0  0  0
  145.6950  142.9435  154.7364 H   0  0  0  0  0  0  0  0  0  0  0  0
  144.8884  141.0973  153.8642 H   0  0  0  0  0  0  0  0  0  0  0  0
  148.5044  137.6729  152.7880 H   0  0  0  0  0  0  0  0  0  0  0  0
  1  2  1  0  0  0  0
  1 17  1  0  0  0  0
  1 18  1  0  0  0  0
  1 19  1  0  0  0  0
  2 13  1  0  0  0  0
  2  3  2  0  0  0  0
  3  4  1  0  0  0  0
  3 28  1  0  0  0  0
  4 12  2  0  0  0  0
  4  5  1  0  0  0  0
  5  6  2  0  0  0  0
  5 20  1  0  0  0  0
  6  7  1  0  0  0  0
  6 10  1  0  0  0  0
  7  8  2  0  0  0  0
  7  9  1  0  0  0  0
 10 11  2  0  0  0  0
 10 21  1  0  0  0  0
 11 12  1  0  0  0  0
 11 22  1  0  0  0  0
 12 13  1  0  0  0  0
 13 14  1  0  0  0  0
 14 15  1  0  0  0  0
 14 23  1  0  0  0  0
 14 24  1  0  0  0  0
 15 16  1  0  0  0  0
 15 25  1  0  0  0  0
 15 26  1  0  0  0  0
 16 27  1  0  0  0  0
M  CHG  1   3   1
M  CHG  1   9  -1
M  END
> <s_m_source_file>
AV-unprocessed.smi

> <i_m_source_file_index>
2613

> <i_lp_mmshare_version>
43012

> <i_f3d_flags>
0

> <s_epik_input>
W09IXVtDSDJdW0NIMl1uKGMobjEpW0NIM10pYyhjMTIpW2NIXVtjSF1jKFtjSF0yKUMoPU8pW09IXQ==

> <s_epik_cmdline>
J2VwaWtfcHl0aG9uJywgJy1waCcsICc3LjAnLCAnLXRuJywgJzgnLCAnLW1hJywgJzIwMCcsICctbWV0YWxfYmluZGluZycsICctaW1hZScsICc8aW5maWxlLm1hZT4nLCAnLW9tYWUnLCAnPG91dGZpbGUubWFlPic=

> <r_epik_Ionization_Penalty>
0.929425

> <r_epik_Ionization_Penalty_Charging>
0.929425

> <r_epik_Ionization_Penalty_Neutral>
5.76694e-08

> <r_epik_State_Penalty>
0.971794

> <r_epik_Charging_Adjusted_Penalty>
1.90122

> <i_epik_Tot_Q>
0

> <i_epik_Tot_abs_Q>
2

> <r_epik_Metal_State_Penalty>
4.93694

> <b_epik_Metal_Only>
0

> <s_lp_Force_Field>
OPLS_2005

> <r_lp_Energy>
5.88702

> <b_lp_Chiralities_Consistent>
1

> <s_lp_Variant>
AV-unprocessed.smi:2613-2

> <Gold.Version>
5.8.1

> <Gold.Id.Protein>
6NUR|6NUR_protein|mol2

> <Gold.PLP.Fitness>
50.4245

> <Gold.PLP.PLP>
-32.4670

> <Gold.PLP.part.hbond>
-5.0000

> <Gold.PLP.part.metal>
0.0000

> <Gold.PLP.part.buried>
3.9401

> <Gold.PLP.part.nonpolar>
-31.4257

> <Gold.PLP.part.repulsive>
0.0656

> <Gold.PLP.ligand.clash>
0.0000

> <Gold.PLP.ligand.torsion>
0.3939

> <Gold.PLP.Chemscore.Hbond>
6.2480

> <Gold.PLP.Chemscore.CHOScore>
0.0000

> <Gold.PLP.Chemscore.Metal>
0.0000

> <Gold.Chemscore.Hbonds>
donor molecule, donor type, donor heavy atom, donor atom, acceptor molecule, acceptor atom, score
      L1  H     3    28       P1  7948  2.00
      L1  H    16    27       P1 10175  1.00
      P1  H  7997  8010       L1     8  2.00
      P1  H 10752 10765       L1     9  1.28

> <Gold.PLP.Chemscore.Internal.Correction>
0.0014

> <Gold.Rescore>
     Score         DG    S(hbond)    S(metal)    S(lipo)     H(rot)  DE(clash)    DE(int)     intcor
     17.90     -19.83       3.50        0.00      63.45       1.86       1.52       0.42       ----

> <Gold.Chemscore.Fitness>
17.8961

> <Gold.Chemscore.DG>
-19.8331

> <Gold.Chemscore.ZeroCoef>
-5.4800

> <Gold.Chemscore.Hbond>
3.4988

> <Gold.Chemscore.Metal>
0.0000

> <Gold.Chemscore.Lipo>
63.4474

> <Gold.Chemscore.Internal_Hbond>
0.0000

> <Gold.Chemscore.DEClash>
1.5164

> <Gold.Chemscore.DEInternal>
0.4207

> <Gold.Chemscore.Rot>
1.8579

> <Gold.Chemscore.Internal.Correction>
   9.000000E+99

> <Gold.Chemscore.Hbonds>
donor molecule, donor type, donor heavy atom, donor atom, acceptor molecule, acceptor atom, score
      L1  H     3    28       P1  7948  1.00
      L1  H    16    27       P1 10175  0.66
      P1  H  7997  8010       L1     8  0.91
      P1  H 10752 10765       L1     9  0.61

> <Gold.Chemscore.Hbond.Weighted>
-11.6859

> <Gold.Chemscore.Metal.Weighted>
-0.0000

> <Gold.Chemscore.Lipo.Weighted>
-7.4233

> <Gold.Chemscore.Internal_Hbond.Weighted>
0.0000

> <Gold.Chemscore.DEClash.Weighted>
1.5164

> <Gold.Chemscore.DEInternal.Weighted>
0.4207

> <Gold.Chemscore.Rot.Weighted>
4.7561

> <Gold.Chemscore.Internal.Correction.Weighted>
   9.000000E+99

> <Gold.Protein.RotatedTorsions>
[ 6907 6896 6895 6894 ] final  -99.44 input  -60.11 | X-H torsion
[ 7974 7965 7964 7962 ] final  -83.51 input  175.53 | X-H torsion
[ 8008 7997 7996 7995 ] final   66.18 input   59.86 | X-H torsion
[ 10167 10162 10161 10158 ] final  -60.01 input  -65.29 | X-H torsion
[ 10718 10713 10712 10709 ] final  -39.73 input   66.30 | X-H torsion
[ 10763 10752 10751 10750 ] final -151.15 input  -60.55 | X-H torsion
[ 11005 11000 10999 10996 ] final   67.72 input  -57.11 | X-H torsion

> <Gold.Protein.ActiveResidues>
 VAL166  LYS551  ARG553  GLY616  TRP617  ASP618  TYR619  PRO620  LYS621  CYS622 
 ASP623  PHE694  ASN695  SER759  ASP760  ASP761  ALA762  ILE779  LEU786  VAL792 
 PHE793  MET794  SER795  GLU796  ALA797  LYS798  CYS799  TRP800  GLU811  SER814 

> <Gold.Protein.RotatedAtoms>
  150.7080  134.1040  159.3975 H   0  0  0  0  0  0  0  0  0  0  0  0  # atno 6907 bound_to 6896
  151.9027  135.0369  160.0517 H   0  0  0  0  0  0  0  0  0  0  0  0  # atno 6908 bound_to 6896
  152.2401  133.5093  159.5302 H   0  0  0  0  0  0  0  0  0  0  0  0  # atno 6909 bound_to 6896
  145.5190  140.9533  143.1666 H   0  0  0  0  0  0  0  0  0  0  0  0  # atno 7974 bound_to 7965
  155.6734  140.3497  155.4827 H   0  0  0  0  0  0  0  0  0  0  0  0  # atno 8008 bound_to 7997
  155.9669  140.1148  157.0869 H   0  0  0  0  0  0  0  0  0  0  0  0  # atno 8009 bound_to 7997
  154.4156  140.1164  156.5240 H   0  0  0  0  0  0  0  0  0  0  0  0  # atno 8010 bound_to 7997
  140.6099  143.2384  151.5735 H   0  0  0  0  0  0  0  0  0  0  0  0  # atno 10167 bound_to 10162
  156.2892  130.4226  149.8256 H   0  0  0  0  0  0  0  0  0  0  0  0  # atno 10718 bound_to 10713
  154.8075  135.3267  154.7392 H   0  0  0  0  0  0  0  0  0  0  0  0  # atno 10763 bound_to 10752
  153.8048  135.6900  153.4854 H   0  0  0  0  0  0  0  0  0  0  0  0  # atno 10764 bound_to 10752
  153.1831  135.4579  154.9998 H   0  0  0  0  0  0  0  0  0  0  0  0  # atno 10765 bound_to 10752
  139.9754  134.6831  156.0364 H   0  0  0  0  0  0  0  0  0  0  0  0  # atno 11005 bound_to 11000
  144.7686  139.6786  143.7204 LP  0  0  0  0  0  0  0  0  0  0  0  0  # atno 17320 bound_to 7965
  146.2118  139.5480  142.9676 LP  0  0  0  0  0  0  0  0  0  0  0  0  # atno 17321 bound_to 7965
  139.5353  144.2799  152.1237 LP  0  0  0  0  0  0  0  0  0  0  0  0  # atno 17342 bound_to 10162
  140.1996  144.4671  150.6438 LP  0  0  0  0  0  0  0  0  0  0  0  0  # atno 17343 bound_to 10162
  156.5675  130.8410  151.3347 LP  0  0  0  0  0  0  0  0  0  0  0  0  # atno 17370 bound_to 10713
  157.7337  130.9735  150.1993 LP  0  0  0  0  0  0  0  0  0  0  0  0  # atno 17371 bound_to 10713
  141.1431  133.6561  156.3788 LP  0  0  0  0  0  0  0  0  0  0  0  0  # atno 17394 bound_to 11000
  140.5206  134.6308  157.5316 LP  0  0  0  0  0  0  0  0  0  0  0  0  # atno 17395 bound_to 11000

$$$$
