AV-unprocessed.smi:160|AV-procd|sdf|1373|dock2
  -GOLD-   2262019 93D 1   1.00000     0.00000
 Structure written by MMmdl.
 28 29  0  0  0  0  0  0  0  0  2 V2000
  152.0173  137.1788  153.9169 N   0  5  0  0  0  0  0  0  0  0  0  0
  152.6631  138.2305  154.4660 C   0  0  0  0  0  0  0  0  0  0  0  0
  153.8826  138.3849  154.5245 O   0  0  0  0  0  0  0  0  0  0  0  0
  151.7572  139.2897  155.0472 C   0  0  0  0  0  0  0  0  0  0  0  0
  151.9187  139.7115  156.3386 N   0  0  0  0  0  0  0  0  0  0  0  0
  150.9417  140.6062  156.3936 C   0  0  0  0  0  0  0  0  0  0  0  0
  150.2496  140.7338  155.2582 N   0  0  0  0  0  0  0  0  0  0  0  0
  149.0880  141.6286  154.9422 C   0  0  2  0  0  0  0  0  0  0  0  0
  148.3445  141.8164  156.1098 O   0  0  0  0  0  0  0  0  0  0  0  0
  147.1598  141.0277  156.0593 C   0  0  1  0  0  0  0  0  0  0  0  0
  146.1057  141.6091  157.0143 C   0  0  0  0  0  0  0  0  0  0  0  0
  146.3661  141.1933  158.3377 O   0  0  0  0  0  0  0  0  0  0  0  0
  146.7809  141.1496  154.5823 C   0  0  2  0  0  0  0  0  0  0  0  0
  145.8463  140.1708  154.1668 O   0  0  0  0  0  0  0  0  0  0  0  0
  148.1299  141.0513  153.8717 C   0  0  2  0  0  0  0  0  0  0  0  0
  148.4367  139.7276  153.4595 O   0  0  0  0  0  0  0  0  0  0  0  0
  150.7693  139.8653  154.3549 N   0  0  0  0  0  0  0  0  0  0  0  0
  149.5474  142.5717  154.6441 H   0  0  0  0  0  0  0  0  0  0  0  0
  147.3858  139.9875  156.3023 H   0  0  0  0  0  0  0  0  0  0  0  0
  146.3570  142.1381  154.3991 H   0  0  0  0  0  0  0  0  0  0  0  0
  148.1513  141.6927  152.9903 H   0  0  0  0  0  0  0  0  0  0  0  0
  151.9072  137.1515  152.8962 H   0  0  0  0  0  0  0  0  0  0  0  0
  150.7275  141.1834  157.2809 H   0  0  0  0  0  0  0  0  0  0  0  0
  146.0745  142.6976  156.9569 H   0  0  0  0  0  0  0  0  0  0  0  0
  145.1147  141.2421  156.7468 H   0  0  0  0  0  0  0  0  0  0  0  0
  146.4001  140.2494  158.3561 H   0  0  0  0  0  0  0  0  0  0  0  0
  145.1973  140.5891  153.6222 H   0  0  0  0  0  0  0  0  0  0  0  0
  148.9449  139.7676  152.6639 H   0  0  0  0  0  0  0  0  0  0  0  0
  1  2  1  0  0  0  0
  1 22  1  0  0  0  0
  2  3  2  0  0  0  0
  2  4  1  0  0  0  0
  4 17  2  0  0  0  0
  4  5  1  0  0  0  0
  5  6  2  0  0  0  0
  6  7  1  0  0  0  0
  6 23  1  0  0  0  0
  7  8  1  0  0  0  0
  7 17  1  0  0  0  0
  8 18  1  0  0  0  0
  8 15  1  0  0  0  0
  8  9  1  0  0  0  0
  9 10  1  0  0  0  0
 10 19  1  0  0  0  0
 10 11  1  0  0  0  0
 10 13  1  0  0  0  0
 11 12  1  0  0  0  0
 11 24  1  0  0  0  0
 11 25  1  0  0  0  0
 12 26  1  0  0  0  0
 13 20  1  0  0  0  0
 13 14  1  0  0  0  0
 13 15  1  0  0  0  0
 14 27  1  0  0  0  0
 15 21  1  0  0  0  0
 15 16  1  0  0  0  0
 16 28  1  0  0  0  0
M  CHG  1   1  -1
M  END
> <s_m_source_file>
AV-unprocessed.smi

> <i_m_source_file_index>
160

> <i_lp_mmshare_version>
43012

> <i_f3d_flags>
0

> <s_epik_input>
W05IMl1DKD1PKWMxbltjSF1uKG4xKVtDQEBIXTJPW0NASF0oW0NIMl1bT0hdKVtDQEBIXShbT0hdKVtDQEhdMltPSF0=

> <s_epik_cmdline>
J2VwaWtfcHl0aG9uJywgJy1waCcsICc3LjAnLCAnLXRuJywgJzgnLCAnLW1hJywgJzIwMCcsICctbWV0YWxfYmluZGluZycsICctaW1hZScsICc8aW5maWxlLm1hZT4nLCAnLW9tYWUnLCAnPG91dGZpbGUubWFlPic=

> <r_lp_tautomer_probability>
1

> <r_epik_Ionization_Penalty>
6.6993

> <r_epik_Ionization_Penalty_Charging>
6.6993

> <r_epik_Ionization_Penalty_Neutral>
6.01698e-06

> <r_epik_State_Penalty>
6.69929

> <r_epik_Charging_Adjusted_Penalty>
13.3986

> <i_epik_Tot_Q>
-1

> <i_epik_Tot_abs_Q>
1

> <r_epik_Metal_State_Penalty>
2.62798

> <b_epik_Metal_Only>
1

> <s_epik_Chemistry_Notes>
This compound contains an acetal/aminal-like group ( X-CH(R)-Y where X, Y are N, S, or O) that may be acid/base labile, releasing an aldehyde.

> <s_lp_Force_Field>
OPLS_2005

> <r_lp_Energy>
50.1619

> <b_lp_Chiralities_Consistent>
1

> <s_lp_Variant>
AV-unprocessed.smi:160-31

> <Gold.Version>
5.8.1

> <Gold.Id.Protein>
6NUR|6NUR_protein|mol2

> <Gold.PLP.Fitness>
42.6490

> <Gold.PLP.PLP>
-28.9876

> <Gold.PLP.part.hbond>
-7.1045

> <Gold.PLP.part.metal>
0.0000

> <Gold.PLP.part.buried>
-3.5304

> <Gold.PLP.part.nonpolar>
-19.5770

> <Gold.PLP.part.repulsive>
1.1036

> <Gold.PLP.ligand.clash>
0.0000

> <Gold.PLP.ligand.torsion>
1.8554

> <Gold.PLP.Chemscore.Hbond>
5.7840

> <Gold.PLP.Chemscore.CHOScore>
0.0000

> <Gold.PLP.Chemscore.Metal>
0.0000

> <Gold.Chemscore.Hbonds>
donor molecule, donor type, donor heavy atom, donor atom, acceptor molecule, acceptor atom, score
      L1  H     1    22       P1  7949  0.82
      L1  H    14    27       P1 10175  1.00
      L1  H    16    28       P1  7957  1.00
      P1  H  7989  7998       L1    17  0.95
      P1  H 10752 10765       L1     1  2.00

> <Gold.PLP.Chemscore.Internal.Correction>
0.0202

> <Gold.Rescore>
     Score         DG    S(hbond)    S(metal)    S(lipo)     H(rot)  DE(clash)    DE(int)     intcor
      4.98      -8.77       3.61        0.00      13.62       4.04       0.02       3.76       ----

> <Gold.Chemscore.Fitness>
4.9830

> <Gold.Chemscore.DG>
-8.7714

> <Gold.Chemscore.ZeroCoef>
-5.4800

> <Gold.Chemscore.Hbond>
3.6050

> <Gold.Chemscore.Metal>
0.0000

> <Gold.Chemscore.Lipo>
13.6223

> <Gold.Chemscore.Internal_Hbond>
0.0000

> <Gold.Chemscore.DEClash>
0.0234

> <Gold.Chemscore.DEInternal>
3.7650

> <Gold.Chemscore.Rot>
4.0403

> <Gold.Chemscore.Internal.Correction>
   9.000000E+99

> <Gold.Chemscore.Hbonds>
donor molecule, donor type, donor heavy atom, donor atom, acceptor molecule, acceptor atom, score
      L1  H     1    22       P1  7949  0.80
      L1  H    14    27       P1 10175  0.93
      L1  H    16    28       P1  7957  1.00
      P1  H  7989  7998       L1    17  0.05
      P1  H  7997  8010       L1     5  0.01
      P1  H 10752 10765       L1     1  0.20

> <Gold.Chemscore.Hbond.Weighted>
-12.0407

> <Gold.Chemscore.Metal.Weighted>
-0.0000

> <Gold.Chemscore.Lipo.Weighted>
-1.5938

> <Gold.Chemscore.Internal_Hbond.Weighted>
0.0000

> <Gold.Chemscore.DEClash.Weighted>
0.0234

> <Gold.Chemscore.DEInternal.Weighted>
3.7650

> <Gold.Chemscore.Rot.Weighted>
10.3431

> <Gold.Chemscore.Internal.Correction.Weighted>
   9.000000E+99

> <Gold.Protein.RotatedTorsions>
[ 6907 6896 6895 6894 ] final  179.64 input  -60.11 | X-H torsion
[ 7974 7965 7964 7962 ] final  144.32 input  175.53 | X-H torsion
[ 8008 7997 7996 7995 ] final   60.35 input   59.86 | X-H torsion
[ 10167 10162 10161 10158 ] final  165.36 input  -65.29 | X-H torsion
[ 10718 10713 10712 10709 ] final   -5.96 input   66.30 | X-H torsion
[ 10763 10752 10751 10750 ] final  157.92 input  -60.55 | X-H torsion
[ 11005 11000 10999 10996 ] final -123.31 input  -57.11 | X-H torsion

> <Gold.Protein.ActiveResidues>
 VAL166  LYS551  ARG553  GLY616  TRP617  ASP618  TYR619  PRO620  LYS621  CYS622 
 ASP623  PHE694  ASN695  SER759  ASP760  ASP761  ALA762  ILE779  LEU786  VAL792 
 PHE793  MET794  SER795  GLU796  ALA797  LYS798  CYS799  TRP800  GLU811  SER814 

> <Gold.Protein.RotatedAtoms>
  151.6684  133.3314  159.3190 H   0  0  0  0  0  0  0  0  0  0  0  0  # atno 6907 bound_to 6896
  150.7880  134.6884  159.6492 H   0  0  0  0  0  0  0  0  0  0  0  0  # atno 6908 bound_to 6896
  152.3953  134.6378  160.0143 H   0  0  0  0  0  0  0  0  0  0  0  0  # atno 6909 bound_to 6896
  144.8845  139.5649  143.5827 H   0  0  0  0  0  0  0  0  0  0  0  0  # atno 7974 bound_to 7965
  155.5809  140.3491  155.4540 H   0  0  0  0  0  0  0  0  0  0  0  0  # atno 8008 bound_to 7997
  156.0374  140.1288  157.0218 H   0  0  0  0  0  0  0  0  0  0  0  0  # atno 8009 bound_to 7997
  154.4377  140.1031  156.6172 H   0  0  0  0  0  0  0  0  0  0  0  0  # atno 8010 bound_to 7997
  139.4904  144.4140  151.9266 H   0  0  0  0  0  0  0  0  0  0  0  0  # atno 10167 bound_to 10162
  156.7389  130.5203  149.5828 H   0  0  0  0  0  0  0  0  0  0  0  0  # atno 10718 bound_to 10713
  154.2079  135.2787  155.2968 H   0  0  0  0  0  0  0  0  0  0  0  0  # atno 10763 bound_to 10752
  154.5802  135.5592  153.7181 H   0  0  0  0  0  0  0  0  0  0  0  0  # atno 10764 bound_to 10752
  153.0071  135.6343  154.2218 H   0  0  0  0  0  0  0  0  0  0  0  0  # atno 10765 bound_to 10752
  140.9928  134.0514  157.3633 H   0  0  0  0  0  0  0  0  0  0  0  0  # atno 11005 bound_to 11000
  146.3016  139.7444  142.9087 LP  0  0  0  0  0  0  0  0  0  0  0  0  # atno 17320 bound_to 7965
  145.3893  141.0370  143.3133 LP  0  0  0  0  0  0  0  0  0  0  0  0  # atno 17321 bound_to 7965
  140.3582  144.3005  150.5938 LP  0  0  0  0  0  0  0  0  0  0  0  0  # atno 17342 bound_to 10162
  140.5426  143.2220  151.8060 LP  0  0  0  0  0  0  0  0  0  0  0  0  # atno 17343 bound_to 10162
  156.1478  130.6289  151.0555 LP  0  0  0  0  0  0  0  0  0  0  0  0  # atno 17370 bound_to 10713
  157.6827  131.0833  150.7327 LP  0  0  0  0  0  0  0  0  0  0  0  0  # atno 17371 bound_to 10713
  139.9000  135.0161  156.7223 LP  0  0  0  0  0  0  0  0  0  0  0  0  # atno 17394 bound_to 11000
  140.7013  133.9304  155.8026 LP  0  0  0  0  0  0  0  0  0  0  0  0  # atno 17395 bound_to 11000

$$$$
