#       Name:                AV-unprocessed.smi:261
#       Creating user name   scv26
#       Creation time:       Thu Mar 26 21:18:10 2020


#       File generated by GOLD software.
#

@<TRIPOS>MOLECULE
AV-unprocessed.smi:261
    62    65     1
SMALL
NO_CHARGES


@<TRIPOS>ATOM
      1 ****        -6.0872   3.8445  -2.4714 C.3            1 S1                 0.0000
      2 ****        -4.6963   3.7720  -2.2042 O.3            1 S1                 0.0000
      3 ****        -4.3660   2.8727  -1.1558 C.3            1 S1                 0.0000
      4 ****        -4.4801   1.4000  -1.5581 C.3            1 S1                 0.0000
      5 ****        -3.5352   0.6694  -0.5874 C.3            1 S1                 0.0000
      6 ****        -4.2836   0.1900   0.6747 C.2            1 S1                 0.0000
      7 ****        -3.9944   0.7561   1.8514 N.am           1 S1                 0.0000
      8 ****        -5.1205  -0.7052   0.5827 O.2            1 S1                 0.0000
      9 ****        -2.4965   1.6675  -0.3172 N.pl3          1 S1                 0.0000
     10 ****        -1.2144   1.3805   0.0454 C.ar           1 S1                 0.0000
     11 ****        -0.3294   2.4112   0.1086 N.ar           1 S1                 0.0000
     12 ****         0.9423   2.2033   0.4583 C.ar           1 S1                 0.0000
     13 ****         1.5385   1.0577   0.7865 N.ar           1 S1                 0.0000
     14 ****         0.6623   0.0152   0.7327 C.ar           1 S1                 0.0000
     15 ****        -0.7173   0.0821   0.3774 C.ar           1 S1                 0.0000
     16 ****        -1.2692  -1.1936   0.4475 N.2            1 S1                 0.0000
     17 ****        -0.2814  -1.9622   0.8142 C.2            1 S1                 0.0000
     18 ****         0.9166  -1.3163   1.0060 N.pl3          1 S1                 0.0000
     19 ****         2.1770  -1.9136   1.4105 C.3            1 S1                 0.0000
     20 ****         3.1451  -2.0986   0.2251 C.3            1 S1                 0.0000
     21 ****         2.5534  -2.9662  -0.7237 O.3            1 S1                 0.0000
     22 ****         4.5018  -2.6836   0.6607 C.3            1 S1                 0.0000
     23 ****         5.5107  -2.8507  -0.4794 C.3            1 S1                 0.0000
     24 ****         6.8295  -2.7548   0.2515 C.3            1 S1                 0.0000
     25 ****         6.5259  -1.6694   1.2772 C.3            1 S1                 0.0000
     26 ****         5.1437  -1.8118   1.5913 O.3            1 S1                 0.0000
     27 ****        -2.8877   2.9935  -0.7860 C.3            1 S1                 0.0000
     28 ****        -4.9727   3.0677  -0.2693 H              1 S1                 0.0000
     29 ****        -3.1213  -0.1985  -1.1007 H              1 S1                 0.0000
     30 ****        -6.2674   4.5704  -3.2643 H              1 S1                 0.0000
     31 ****        -6.6419   4.1670  -1.5894 H              1 S1                 0.0000
     32 ****        -6.4834   2.8844  -2.8031 H              1 S1                 0.0000
     33 ****        -5.5074   1.0341  -1.5299 H              1 S1                 0.0000
     34 ****        -4.1191   1.2700  -2.5795 H              1 S1                 0.0000
     35 ****        -4.4759   0.4539   2.6859 H              1 S1                 0.0000
     36 ****        -3.2962   1.4838   1.8999 H              1 S1                 0.0000
     37 ****         1.5716   3.0809   0.4778 H              1 S1                 0.0000
     38 ****        -0.4004  -3.0270   0.9522 H              1 S1                 0.0000
     39 ****         2.6243  -1.2709   2.1697 H              1 S1                 0.0000
     40 ****         1.9736  -2.8705   1.8936 H              1 S1                 0.0000
     41 ****         3.3106  -1.1346  -0.2581 H              1 S1                 0.0000
     42 ****         2.4171  -3.8077  -0.3164 H              1 S1                 0.0000
     43 ****         4.3593  -3.6451   1.1572 H              1 S1                 0.0000
     44 ****         5.3895  -3.7898  -1.0203 H              1 S1                 0.0000
     45 ****         5.4244  -2.0316  -1.1950 H              1 S1                 0.0000
     46 ****         7.0521  -3.6981   0.7526 H              1 S1                 0.0000
     47 ****         7.6668  -2.5044  -0.4004 H              1 S1                 0.0000
     48 ****         7.1492  -1.7497   2.1680 H              1 S1                 0.0000
     49 ****         6.6809  -0.6812   0.8420 H              1 S1                 0.0000
     50 ****        -2.2926   3.2502  -1.6641 H              1 S1                 0.0000
     51 ****        -2.7294   3.7607  -0.0267 H              1 S1                 0.0000
     52 ****        -4.3748   4.6845  -1.9513 LP             1 S1                 0.0000
     53 ****        -4.2295   3.4728  -3.0364 LP             1 S1                 0.0000
     54 ****        -5.3139  -1.1195  -0.3067 LP             1 S1                 0.0000
     55 ****        -5.6081  -1.0195   1.3972 LP             1 S1                 0.0000
     56 ****        -0.6354   3.3378  -0.1099 LP             1 S1                 0.0000
     57 ****         2.5024   0.9738   1.0391 LP             1 S1                 0.0000
     58 ****        -2.2139  -1.4616   0.2585 LP             1 S1                 0.0000
     59 ****         3.1598  -3.0675  -1.5124 LP             1 S1                 0.0000
     60 ****         1.6765  -2.5906  -1.0235 LP             1 S1                 0.0000
     61 ****         5.0537  -2.1911   2.5122 LP             1 S1                 0.0000
     62 ****         4.7049  -0.9139   1.5563 LP             1 S1                 0.0000
@<TRIPOS>BOND
    1    1    2 1     
    2    1   30 1     
    3    1   31 1     
    4    1   32 1     
    5    2    3 1     
    6    3   28 1     
    7    3   27 1     
    8    3    4 1     
    9    4    5 1     
   10    4   33 1     
   11    4   34 1     
   12    5   29 1     
   13    5    6 1     
   14    5    9 1     
   15    6    7 am    
   16    6    8 2     
   17    7   35 1     
   18    7   36 1     
   19    9   10 1     
   20    9   27 1     
   21   10   15 ar    
   22   10   11 ar    
   23   11   12 ar    
   24   12   13 ar    
   25   12   37 1     
   26   13   14 ar    
   27   14   18 1     
   28   14   15 ar    
   29   15   16 1     
   30   16   17 2     
   31   17   18 1     
   32   17   38 1     
   33   18   19 1     
   34   19   20 1     
   35   19   39 1     
   36   19   40 1     
   37   20   21 1     
   38   20   22 1     
   39   20   41 1     
   40   21   42 1     
   41   22   26 1     
   42   22   23 1     
   43   22   43 1     
   44   23   24 1     
   45   23   44 1     
   46   23   45 1     
   47   24   25 1     
   48   24   46 1     
   49   24   47 1     
   50   25   26 1     
   51   25   48 1     
   52   25   49 1     
   53   27   50 1     
   54   27   51 1     
   55    2   52 1     
   56    2   53 1     
   57    8   54 1     
   58    8   55 1     
   59   11   56 1     
   60   13   57 1     
   61   16   58 1     
   62   21   59 1     
   63   21   60 1     
   64   26   61 1     
   65   26   62 1     
@<TRIPOS>SUBSTRUCTURE
      1 S1             1
@<TRIPOS>SET
LONE_PAIRS      STATIC     ATOMS    <user>   **** ""
11 52 53 54 55 56 57 58 59 60 61 62
DONOR_HYDROGENS      STATIC     ATOMS    <user>   **** ""
3 35 36 42
ATOM$BLUE        STATIC     ATOMS    COLORGROUP SYSTEM
11 52 53 54 55 56 57 58 59 60 61 62
ATOM$RED        STATIC     ATOMS    COLORGROUP SYSTEM
3 35 36 42
