AV-unprocessed.smi:2881|AV-procd|sdf|11062|dock5
  -GOLD-   2272015533D 1   1.00000     0.00000
 Structure written by MMmdl.
 40 42  0  0  0  0  0  0  0  0  1 V2000
  145.9873  132.4663  151.6680 C   0  0  0  0  0  0  0  0  0  0  0  0
  146.9645  133.0486  152.6317 C   0  0  0  0  0  0  0  0  0  0  0  0
  148.2370  132.6788  152.9644 C   0  0  0  0  0  0  0  0  0  0  0  0
  148.6401  133.6372  153.9410 C   0  0  0  0  0  0  0  0  0  0  0  0
  149.9601  133.7277  154.6582 C   0  0  0  0  0  0  0  0  0  0  0  0
  150.0442  135.0413  155.4355 C   0  0  0  0  0  0  0  0  0  0  0  0
  150.3172  135.0310  156.6356 O   0  0  0  0  0  0  0  0  0  0  0  0
  149.8096  136.1641  154.7393 N   0  0  0  0  0  0  0  0  0  0  0  0
  149.8587  137.5176  155.2852 C   0  0  1  0  0  0  0  0  0  0  0  0
  151.2542  137.8119  155.8784 C   0  0  2  0  0  0  0  0  0  0  0  0
  151.1536  139.0495  156.7882 C   0  0  0  0  0  0  0  0  0  0  0  0
  150.9853  140.1954  155.7731 C   0  0  0  0  0  0  0  0  0  0  0  0
  150.9958  139.4606  154.4150 C   0  0  1  0  0  0  0  0  0  0  0  0
  152.0240  138.3691  154.6842 C   0  0  0  0  0  0  0  0  0  0  0  0
  149.7159  138.6147  154.1988 C   0  0  2  0  0  0  0  0  0  0  0  0
  148.3786  139.3796  154.2502 C   0  0  0  0  0  0  0  0  0  0  0  0
  148.3726  140.4280  153.3047 O   0  0  0  0  0  0  0  0  0  0  0  0
  147.6892  134.5251  154.1986 N   0  0  0  0  0  0  0  0  0  0  0  0
  146.6754  134.1571  153.3936 N   0  0  0  0  0  0  0  0  0  0  0  0
  145.8025  134.6652  153.3743 H   0  0  0  0  0  0  0  0  0  0  0  0
  146.4638  131.7171  151.0352 H   0  0  0  0  0  0  0  0  0  0  0  0
  145.5726  133.2384  151.0198 H   0  0  0  0  0  0  0  0  0  0  0  0
  145.1626  131.9868  152.1956 H   0  0  0  0  0  0  0  0  0  0  0  0
  148.8022  131.8491  152.5663 H   0  0  0  0  0  0  0  0  0  0  0  0
  150.0955  132.8882  155.3421 H   0  0  0  0  0  0  0  0  0  0  0  0
  150.7821  133.6791  153.9433 H   0  0  0  0  0  0  0  0  0  0  0  0
  149.5970  136.0759  153.7559 H   0  0  0  0  0  0  0  0  0  0  0  0
  149.0961  137.6133  156.0607 H   0  0  0  0  0  0  0  0  0  0  0  0
  151.7187  136.9558  156.3696 H   0  0  0  0  0  0  0  0  0  0  0  0
  150.3207  138.9865  157.4891 H   0  0  0  0  0  0  0  0  0  0  0  0
  152.0681  139.1831  157.3673 H   0  0  0  0  0  0  0  0  0  0  0  0
  150.0838  140.7824  155.9422 H   0  0  0  0  0  0  0  0  0  0  0  0
  151.8308  140.8814  155.8387 H   0  0  0  0  0  0  0  0  0  0  0  0
  151.2358  140.1085  153.5716 H   0  0  0  0  0  0  0  0  0  0  0  0
  153.0102  138.7562  154.9470 H   0  0  0  0  0  0  0  0  0  0  0  0
  152.1286  137.6574  153.8631 H   0  0  0  0  0  0  0  0  0  0  0  0
  149.7922  138.1542  153.2115 H   0  0  0  0  0  0  0  0  0  0  0  0
  147.5564  138.7046  154.0135 H   0  0  0  0  0  0  0  0  0  0  0  0
  148.1736  139.7798  155.2425 H   0  0  0  0  0  0  0  0  0  0  0  0
  148.9173  140.1765  152.5745 H   0  0  0  0  0  0  0  0  0  0  0  0
  1  2  1  0  0  0  0
  1 21  1  0  0  0  0
  1 22  1  0  0  0  0
  1 23  1  0  0  0  0
  2 19  1  0  0  0  0
  2  3  2  0  0  0  0
  3  4  1  0  0  0  0
  3 24  1  0  0  0  0
  4  5  1  0  0  0  0
  4 18  2  0  0  0  0
  5  6  1  0  0  0  0
  5 25  1  0  0  0  0
  5 26  1  0  0  0  0
  6  7  2  0  0  0  0
  6  8  1  0  0  0  0
  8  9  1  0  0  0  0
  8 27  1  0  0  0  0
  9 15  1  0  0  0  0
  9 10  1  0  0  0  0
  9 28  1  0  0  0  0
 10 14  1  0  0  0  0
 10 11  1  0  0  0  0
 10 29  1  0  0  0  0
 11 12  1  0  0  0  0
 11 30  1  0  0  0  0
 11 31  1  0  0  0  0
 12 13  1  0  0  0  0
 12 32  1  0  0  0  0
 12 33  1  0  0  0  0
 13 14  1  0  0  0  0
 13 15  1  0  0  0  0
 13 34  1  0  0  0  0
 14 35  1  0  0  0  0
 14 36  1  0  0  0  0
 15 16  1  0  0  0  0
 15 37  1  0  0  0  0
 16 17  1  0  0  0  0
 16 38  1  0  0  0  0
 16 39  1  0  0  0  0
 17 40  1  0  0  0  0
 18 19  1  0  0  0  0
 19 20  1  0  0  0  0
M  END
> <s_m_source_file>
AV-unprocessed.smi

> <i_m_source_file_index>
2881

> <i_lp_mmshare_version>
43012

> <i_f3d_flags>
0

> <s_epik_input>
W0NIM11jMVtjSF1jKG5bbkhdMSlbQ0gyXUMoPU8pW05IXVtDQEhdKFtDQEBIXTIzKVtDQEhdKFtDSDJdW09IXSlbQ0BASF0oW0NIMl0zKVtDSDJdW0NIMl0y

> <s_epik_cmdline>
J2VwaWtfcHl0aG9uJywgJy1waCcsICc3LjAnLCAnLXRuJywgJzgnLCAnLW1hJywgJzIwMCcsICctbWV0YWxfYmluZGluZycsICctaW1hZScsICc8aW5maWxlLm1hZT4nLCAnLW9tYWUnLCAnPG91dGZpbGUubWFlPic=

> <r_lp_tautomer_probability>
0.5

> <r_epik_Ionization_Penalty>
9.4349e-05

> <r_epik_Ionization_Penalty_Charging>
0

> <r_epik_Ionization_Penalty_Neutral>
9.4349e-05

> <r_epik_State_Penalty>
0.41068

> <r_epik_Charging_Adjusted_Penalty>
0.41068

> <i_epik_Tot_Q>
0

> <i_epik_Tot_abs_Q>
0

> <r_epik_Metal_State_Penalty>
0.4107

> <b_epik_Metal_Only>
0

> <s_lp_Force_Field>
OPLS_2005

> <r_lp_Energy>
47.6032

> <b_lp_Chiralities_Consistent>
1

> <s_lp_Variant>
AV-unprocessed.smi:2881-8

> <Gold.Version>
5.8.1

> <Gold.Id.Protein>
6NUR|6NUR_protein|mol2

> <Gold.PLP.Fitness>
36.4227

> <Gold.PLP.PLP>
-30.7489

> <Gold.PLP.part.hbond>
-1.7277

> <Gold.PLP.part.metal>
0.0000

> <Gold.PLP.part.buried>
-2.6747

> <Gold.PLP.part.nonpolar>
-26.3324

> <Gold.PLP.part.repulsive>
0.6246

> <Gold.PLP.ligand.clash>
0.0000

> <Gold.PLP.ligand.torsion>
0.1680

> <Gold.PLP.Chemscore.Hbond>
1.9913

> <Gold.PLP.Chemscore.CHOScore>
0.0000

> <Gold.PLP.Chemscore.Metal>
0.0000

> <Gold.Chemscore.Hbonds>
donor molecule, donor type, donor heavy atom, donor atom, acceptor molecule, acceptor atom, score
      L1  H     8    27       P1  7948  1.00
      L1  H    17    40       P1  7957  1.00

> <Gold.PLP.Chemscore.Internal.Correction>
0.0360

> <Gold.Rescore>
     Score         DG    S(hbond)    S(metal)    S(lipo)     H(rot)  DE(clash)    DE(int)     intcor
     11.89     -14.67       1.96        0.00      72.31       2.28       0.02       2.76       ----

> <Gold.Chemscore.Fitness>
11.8891

> <Gold.Chemscore.DG>
-14.6743

> <Gold.Chemscore.ZeroCoef>
-5.4800

> <Gold.Chemscore.Hbond>
1.9640

> <Gold.Chemscore.Metal>
0.0000

> <Gold.Chemscore.Lipo>
72.3057

> <Gold.Chemscore.Internal_Hbond>
0.0000

> <Gold.Chemscore.DEClash>
0.0232

> <Gold.Chemscore.DEInternal>
2.7620

> <Gold.Chemscore.Rot>
2.2755

> <Gold.Chemscore.Internal.Correction>
   9.000000E+99

> <Gold.Chemscore.Hbonds>
donor molecule, donor type, donor heavy atom, donor atom, acceptor molecule, acceptor atom, score
      L1  H     8    27       P1  7948  0.44
      L1  H    17    40       P1  7957  0.97

> <Gold.Chemscore.Hbond.Weighted>
-6.5598

> <Gold.Chemscore.Metal.Weighted>
-0.0000

> <Gold.Chemscore.Lipo.Weighted>
-8.4598

> <Gold.Chemscore.Internal_Hbond.Weighted>
0.0000

> <Gold.Chemscore.DEClash.Weighted>
0.0232

> <Gold.Chemscore.DEInternal.Weighted>
2.7620

> <Gold.Chemscore.Rot.Weighted>
5.8252

> <Gold.Chemscore.Internal.Correction.Weighted>
   9.000000E+99

> <Gold.Protein.RotatedTorsions>
[ 6907 6896 6895 6894 ] final  -86.73 input  -60.11 | X-H torsion
[ 7974 7965 7964 7962 ] final  161.15 input  175.53 | X-H torsion
[ 8008 7997 7996 7995 ] final   28.87 input   59.86 | X-H torsion
[ 10167 10162 10161 10158 ] final   29.63 input  -65.29 | X-H torsion
[ 10718 10713 10712 10709 ] final -131.73 input   66.30 | X-H torsion
[ 10763 10752 10751 10750 ] final  115.52 input  -60.55 | X-H torsion
[ 11005 11000 10999 10996 ] final -152.37 input  -57.11 | X-H torsion

> <Gold.Protein.ActiveResidues>
 VAL166  LYS551  ARG553  GLY616  TRP617  ASP618  TYR619  PRO620  LYS621  CYS622 
 ASP623  PHE694  ASN695  SER759  ASP760  ASP761  ALA762  ILE779  LEU786  VAL792 
 PHE793  MET794  SER795  GLU796  ALA797  LYS798  CYS799  TRP800  GLU811  SER814 

> <Gold.Protein.RotatedAtoms>
  150.6866  134.3005  159.4704 H   0  0  0  0  0  0  0  0  0  0  0  0  # atno 6907 bound_to 6896
  152.0901  134.9410  160.0581 H   0  0  0  0  0  0  0  0  0  0  0  0  # atno 6908 bound_to 6896
  152.0729  133.4081  159.4504 H   0  0  0  0  0  0  0  0  0  0  0  0  # atno 6909 bound_to 6896
  144.7700  139.7857  143.6300 H   0  0  0  0  0  0  0  0  0  0  0  0  # atno 7974 bound_to 7965
  155.0655  140.3194  155.4647 H   0  0  0  0  0  0  0  0  0  0  0  0  # atno 8008 bound_to 7997
  156.2803  140.2121  156.5727 H   0  0  0  0  0  0  0  0  0  0  0  0  # atno 8009 bound_to 7997
  154.7097  140.0499  157.0525 H   0  0  0  0  0  0  0  0  0  0  0  0  # atno 8010 bound_to 7997
  140.4749  144.0706  150.6248 H   0  0  0  0  0  0  0  0  0  0  0  0  # atno 10167 bound_to 10162
  156.2274  130.7016  151.0821 H   0  0  0  0  0  0  0  0  0  0  0  0  # atno 10718 bound_to 10713
  153.5235  135.3593  155.2643 H   0  0  0  0  0  0  0  0  0  0  0  0  # atno 10763 bound_to 10752
  154.8733  135.4051  154.3233 H   0  0  0  0  0  0  0  0  0  0  0  0  # atno 10764 bound_to 10752
  153.3908  135.7071  153.6563 H   0  0  0  0  0  0  0  0  0  0  0  0  # atno 10765 bound_to 10752
  140.7196  134.3742  157.5185 H   0  0  0  0  0  0  0  0  0  0  0  0  # atno 11005 bound_to 11000
  146.1839  139.5045  142.9848 LP  0  0  0  0  0  0  0  0  0  0  0  0  # atno 17320 bound_to 7965
  145.6352  141.0296  143.1841 LP  0  0  0  0  0  0  0  0  0  0  0  0  # atno 17321 bound_to 7965
  140.3931  143.2742  152.0037 LP  0  0  0  0  0  0  0  0  0  0  0  0  # atno 17342 bound_to 10162
  139.4824  144.6061  151.7519 LP  0  0  0  0  0  0  0  0  0  0  0  0  # atno 17343 bound_to 10162
  157.7117  131.0731  150.6478 LP  0  0  0  0  0  0  0  0  0  0  0  0  # atno 17370 bound_to 10713
  156.6543  130.4494  149.5708 LP  0  0  0  0  0  0  0  0  0  0  0  0  # atno 17371 bound_to 10713
  139.8851  134.8946  156.2661 LP  0  0  0  0  0  0  0  0  0  0  0  0  # atno 17394 bound_to 11000
  141.0015  133.7149  156.0967 LP  0  0  0  0  0  0  0  0  0  0  0  0  # atno 17395 bound_to 11000

$$$$
