AV-unprocessed.smi:1878|AV-procd|sdf|7628|dock9
  -GOLD-   22720 9353D 1   1.00000     0.00000
 Structure written by MMmdl.
 34 35  0  0  0  0  0  0  0  0  2 V2000
  150.5545  134.9075  156.3467 O   0  0  0  0  0  0  0  0  0  0  0  0
  150.4253  135.3953  155.2216 C   0  0  0  0  0  0  0  0  0  0  0  0
  149.4325  134.9798  154.4252 N   0  0  0  0  0  0  0  0  0  0  0  0
  148.4492  133.9616  154.7744 C   0  0  0  0  0  0  0  0  0  0  0  0
  148.6299  132.6984  153.9210 C   0  0  0  0  0  0  0  0  0  0  0  0
  149.8094  132.1442  154.1990 F   0  0  0  0  0  0  0  0  0  0  0  0
  147.6685  131.8147  154.1899 F   0  0  0  0  0  0  0  0  0  0  0  0
  148.5962  133.0042  152.6238 F   0  0  0  0  0  0  0  0  0  0  0  0
  151.2080  136.3493  154.6663 N   0  5  0  0  0  0  0  0  0  0  0  0
  151.3253  137.5504  155.2536 C   0  0  0  0  0  0  0  0  0  0  0  0
  150.8424  138.7259  154.6397 C   0  0  0  0  0  0  0  0  0  0  0  0
  150.9818  139.9657  155.2914 C   0  0  0  0  0  0  0  0  0  0  0  0
  151.6009  140.0054  156.5618 C   0  0  0  0  0  0  0  0  0  0  0  0
  151.7670  141.2235  157.2508 N   0  0  0  0  0  0  0  0  0  0  0  0
  152.2081  141.2676  158.6362 C   0  0  0  0  0  0  0  0  0  0  0  0
  152.1264  142.7443  159.0197 C   0  0  0  0  0  0  0  0  0  0  0  0
  150.9471  143.2529  158.1906 C   0  0  0  0  0  0  0  0  0  0  0  0
  150.9994  142.4127  156.9091 C   0  0  0  0  0  0  0  0  0  0  0  0
  152.0680  138.8842  157.1584 N   0  0  0  0  0  0  0  0  0  0  0  0
  151.9290  137.7021  156.5215 C   0  0  0  0  0  0  0  0  0  0  0  0
  149.3558  135.4002  153.5106 H   0  0  0  0  0  0  0  0  0  0  0  0
  148.5507  133.7143  155.8322 H   0  0  0  0  0  0  0  0  0  0  0  0
  147.4445  134.3631  154.6330 H   0  0  0  0  0  0  0  0  0  0  0  0
  150.3709  138.6807  153.6686 H   0  0  0  0  0  0  0  0  0  0  0  0
  150.6213  140.8604  154.8068 H   0  0  0  0  0  0  0  0  0  0  0  0
  151.5335  140.6713  159.2522 H   0  0  0  0  0  0  0  0  0  0  0  0
  153.2196  140.8762  158.7505 H   0  0  0  0  0  0  0  0  0  0  0  0
  151.9953  142.8980  160.0910 H   0  0  0  0  0  0  0  0  0  0  0  0
  153.0396  143.2564  158.7135 H   0  0  0  0  0  0  0  0  0  0  0  0
  150.0163  143.0499  158.7220 H   0  0  0  0  0  0  0  0  0  0  0  0
  150.9942  144.3247  157.9958 H   0  0  0  0  0  0  0  0  0  0  0  0
  151.5189  142.9496  156.1150 H   0  0  0  0  0  0  0  0  0  0  0  0
  149.9948  142.1708  156.5611 H   0  0  0  0  0  0  0  0  0  0  0  0
  152.3183  136.8420  157.0467 H   0  0  0  0  0  0  0  0  0  0  0  0
  1  2  2  0  0  0  0
  2  3  1  0  0  0  0
  2  9  1  0  0  0  0
  3  4  1  0  0  0  0
  3 21  1  0  0  0  0
  4  5  1  0  0  0  0
  4 22  1  0  0  0  0
  4 23  1  0  0  0  0
  5  6  1  0  0  0  0
  5  7  1  0  0  0  0
  5  8  1  0  0  0  0
  9 10  1  0  0  0  0
 10 20  1  0  0  0  0
 10 11  2  0  0  0  0
 11 12  1  0  0  0  0
 11 24  1  0  0  0  0
 12 13  2  0  0  0  0
 12 25  1  0  0  0  0
 13 14  1  0  0  0  0
 13 19  1  0  0  0  0
 14 18  1  0  0  0  0
 14 15  1  0  0  0  0
 15 16  1  0  0  0  0
 15 26  1  0  0  0  0
 15 27  1  0  0  0  0
 16 17  1  0  0  0  0
 16 28  1  0  0  0  0
 16 29  1  0  0  0  0
 17 18  1  0  0  0  0
 17 30  1  0  0  0  0
 17 31  1  0  0  0  0
 18 32  1  0  0  0  0
 18 33  1  0  0  0  0
 19 20  2  0  0  0  0
 20 34  1  0  0  0  0
M  CHG  1   9  -1
M  END
> <s_m_source_file>
AV-unprocessed.smi

> <i_m_source_file_index>
1878

> <i_lp_mmshare_version>
43012

> <i_f3d_flags>
0

> <s_epik_input>
RkMoRikoRilbQ0gyXVtOSF1DKD1PKVtOSF1jMVtjSF1bY0hdYyhuW2NIXTEpTjJbQ0gyXVtDSDJdW0NIMl1bQ0gyXTI=

> <s_epik_cmdline>
J2VwaWtfcHl0aG9uJywgJy1waCcsICc3LjAnLCAnLXRuJywgJzgnLCAnLW1hJywgJzIwMCcsICctbWV0YWxfYmluZGluZycsICctaW1hZScsICc8aW5maWxlLm1hZT4nLCAnLW9tYWUnLCAnPG91dGZpbGUubWFlPic=

> <r_lp_tautomer_probability>
1

> <r_epik_Ionization_Penalty>
8.41125

> <r_epik_Ionization_Penalty_Charging>
6.79601

> <r_epik_Ionization_Penalty_Neutral>
1.61524

> <r_epik_State_Penalty>
6.86553

> <r_epik_Charging_Adjusted_Penalty>
13.6615

> <i_epik_Tot_Q>
-1

> <i_epik_Tot_abs_Q>
1

> <r_epik_Metal_State_Penalty>
2.85642

> <b_epik_Metal_Only>
1

> <s_lp_Force_Field>
OPLS_2005

> <r_lp_Energy>
22.1987

> <b_lp_Chiralities_Consistent>
1

> <s_lp_Variant>
AV-unprocessed.smi:1878-3

> <Gold.Version>
5.8.1

> <Gold.Id.Protein>
6NUR|6NUR_protein|mol2

> <Gold.PLP.Fitness>
41.8068

> <Gold.PLP.PLP>
-34.7209

> <Gold.PLP.part.hbond>
-2.0000

> <Gold.PLP.part.metal>
0.0000

> <Gold.PLP.part.buried>
-3.7084

> <Gold.PLP.part.nonpolar>
-28.3634

> <Gold.PLP.part.repulsive>
0.2016

> <Gold.PLP.ligand.clash>
0.0000

> <Gold.PLP.ligand.torsion>
1.3148

> <Gold.PLP.Chemscore.Hbond>
3.0000

> <Gold.PLP.Chemscore.CHOScore>
0.0000

> <Gold.PLP.Chemscore.Metal>
0.0000

> <Gold.Chemscore.Hbonds>
donor molecule, donor type, donor heavy atom, donor atom, acceptor molecule, acceptor atom, score
      L1  H     3    21       P1  7948  0.95
      P1  H 10752 10763       L1     9  2.00

> <Gold.PLP.Chemscore.Internal.Correction>
0.7155

> <Gold.Rescore>
     Score         DG    S(hbond)    S(metal)    S(lipo)     H(rot)  DE(clash)    DE(int)     intcor
     14.16     -15.65       1.35        0.00      70.24       1.00       0.13       1.36       ----

> <Gold.Chemscore.Fitness>
14.1557

> <Gold.Chemscore.DG>
-15.6520

> <Gold.Chemscore.ZeroCoef>
-5.4800

> <Gold.Chemscore.Hbond>
1.3514

> <Gold.Chemscore.Metal>
0.0000

> <Gold.Chemscore.Lipo>
70.2418

> <Gold.Chemscore.Internal_Hbond>
0.0000

> <Gold.Chemscore.DEClash>
0.1319

> <Gold.Chemscore.DEInternal>
1.3644

> <Gold.Chemscore.Rot>
1.0000

> <Gold.Chemscore.Internal.Correction>
   9.000000E+99

> <Gold.Chemscore.Hbonds>
donor molecule, donor type, donor heavy atom, donor atom, acceptor molecule, acceptor atom, score
      L1  H     3    21       P1  7948  0.22
      P1  H 10752 10763       L1     9  0.36

> <Gold.Chemscore.Hbond.Weighted>
-4.5137

> <Gold.Chemscore.Metal.Weighted>
-0.0000

> <Gold.Chemscore.Lipo.Weighted>
-8.2183

> <Gold.Chemscore.Internal_Hbond.Weighted>
0.0000

> <Gold.Chemscore.DEClash.Weighted>
0.1319

> <Gold.Chemscore.DEInternal.Weighted>
1.3644

> <Gold.Chemscore.Rot.Weighted>
2.5600

> <Gold.Chemscore.Internal.Correction.Weighted>
   9.000000E+99

> <Gold.Protein.RotatedTorsions>
[ 6907 6896 6895 6894 ] final  174.17 input  -60.11 | X-H torsion
[ 7974 7965 7964 7962 ] final  -87.20 input  175.53 | X-H torsion
[ 8008 7997 7996 7995 ] final   54.18 input   59.86 | X-H torsion
[ 10167 10162 10161 10158 ] final -128.35 input  -65.29 | X-H torsion
[ 10718 10713 10712 10709 ] final -144.68 input   66.30 | X-H torsion
[ 10763 10752 10751 10750 ] final   56.84 input  -60.55 | X-H torsion
[ 11005 11000 10999 10996 ] final -140.32 input  -57.11 | X-H torsion

> <Gold.Protein.ActiveResidues>
 VAL166  LYS551  ARG553  GLY616  TRP617  ASP618  TYR619  PRO620  LYS621  CYS622 
 ASP623  PHE694  ASN695  SER759  ASP760  ASP761  ALA762  ILE779  LEU786  VAL792 
 PHE793  MET794  SER795  GLU796  ALA797  LYS798  CYS799  TRP800  GLU811  SER814 

> <Gold.Protein.RotatedAtoms>
  151.7566  133.3331  159.3405 H   0  0  0  0  0  0  0  0  0  0  0  0  # atno 6907 bound_to 6896
  150.7514  134.6144  159.6112 H   0  0  0  0  0  0  0  0  0  0  0  0  # atno 6908 bound_to 6896
  152.3433  134.7107  160.0309 H   0  0  0  0  0  0  0  0  0  0  0  0  # atno 6909 bound_to 6896
  145.4697  140.9560  143.1924 H   0  0  0  0  0  0  0  0  0  0  0  0  # atno 7974 bound_to 7965
  155.4804  140.3468  155.4339 H   0  0  0  0  0  0  0  0  0  0  0  0  # atno 8008 bound_to 7997
  156.1042  140.1443  156.9454 H   0  0  0  0  0  0  0  0  0  0  0  0  # atno 8009 bound_to 7997
  154.4714  140.0899  156.7131 H   0  0  0  0  0  0  0  0  0  0  0  0  # atno 8010 bound_to 7997
  139.9512  143.6053  152.2475 H   0  0  0  0  0  0  0  0  0  0  0  0  # atno 10167 bound_to 10162
  156.3731  130.7798  151.1981 H   0  0  0  0  0  0  0  0  0  0  0  0  # atno 10718 bound_to 10713
  152.9839  135.5662  154.5293 H   0  0  0  0  0  0  0  0  0  0  0  0  # atno 10763 bound_to 10752
  154.4768  135.2787  155.1603 H   0  0  0  0  0  0  0  0  0  0  0  0  # atno 10764 bound_to 10752
  154.3129  135.6285  153.5526 H   0  0  0  0  0  0  0  0  0  0  0  0  # atno 10765 bound_to 10752
  140.8434  134.2374  157.4798 H   0  0  0  0  0  0  0  0  0  0  0  0  # atno 11005 bound_to 11000
  144.7953  139.6247  143.7095 LP  0  0  0  0  0  0  0  0  0  0  0  0  # atno 17320 bound_to 7965
  146.2404  139.5989  142.9495 LP  0  0  0  0  0  0  0  0  0  0  0  0  # atno 17321 bound_to 7965
  139.6627  144.7662  151.1932 LP  0  0  0  0  0  0  0  0  0  0  0  0  # atno 17342 bound_to 10162
  140.7582  143.5986  150.8723 LP  0  0  0  0  0  0  0  0  0  0  0  0  # atno 17343 bound_to 10162
  157.7486  131.0366  150.4418 LP  0  0  0  0  0  0  0  0  0  0  0  0  # atno 17370 bound_to 10713
  156.4648  130.4040  149.6554 LP  0  0  0  0  0  0  0  0  0  0  0  0  # atno 17371 bound_to 10713
  139.8703  134.9647  156.4503 LP  0  0  0  0  0  0  0  0  0  0  0  0  # atno 17394 bound_to 11000
  140.8870  133.7876  155.9530 LP  0  0  0  0  0  0  0  0  0  0  0  0  # atno 17395 bound_to 11000

$$$$
