AV-unprocessed.smi:1211|AV-procd|sdf|5081|dock5
  -GOLD-   22720 4133D 1   1.00000     0.00000
 Structure written by MMmdl.
 48 50  0  0  0  0  0  0  0  0  2 V2000
  144.0255  135.5460  150.6121 C   0  0  0  0  0  0  0  0  0  0  0  0
  144.5535  134.1264  150.7451 C   0  0  0  0  0  0  0  0  0  0  0  0
  143.8590  133.0699  150.1181 C   0  0  0  0  0  0  0  0  0  0  0  0
  144.3477  131.7581  150.2431 C   0  0  0  0  0  0  0  0  0  0  0  0
  145.5183  131.5569  150.9943 C   0  0  0  0  0  0  0  0  0  0  0  0
  146.1886  132.5605  151.5960 N   0  0  0  0  0  0  0  0  0  0  0  0
  145.7289  133.8324  151.4872 C   0  0  0  0  0  0  0  0  0  0  0  0
  146.3848  134.9403  152.0947 N   0  0  0  0  0  0  0  0  0  0  0  0
  145.9336  135.7438  153.0739 C   0  0  0  0  0  0  0  0  0  0  0  0
  144.8287  135.6645  153.6104 O   0  0  0  0  0  0  0  0  0  0  0  0
  146.8512  136.6630  153.4072 N   0  0  0  0  0  0  0  0  0  0  0  0
  146.6796  137.7020  154.4225 C   0  0  0  0  0  0  0  0  0  0  0  0
  147.9211  138.6393  154.5733 C   0  0  2  0  0  0  0  0  0  0  0  0
  149.1746  137.8112  154.4198 N   0  3  0  0  0  0  0  0  0  0  0  0
  150.4399  138.5965  154.4780 C   0  0  0  0  0  0  0  0  0  0  0  0
  151.6484  137.7169  154.1256 C   0  0  0  0  0  0  0  0  0  0  0  0
  151.7115  136.6283  155.0342 O   0  0  0  0  0  0  0  0  0  0  0  0
  150.5647  135.7977  154.9295 C   0  0  0  0  0  0  0  0  0  0  0  0
  149.2928  136.5944  155.2718 C   0  0  0  0  0  0  0  0  0  0  0  0
  147.8496  139.4059  155.9244 C   0  0  0  0  0  0  0  0  0  0  0  0
  146.7108  140.4269  155.8464 C   0  0  0  0  0  0  0  0  0  0  0  0
  146.6593  141.0259  154.1397 S   0  0  0  0  0  0  0  0  0  0  0  0
  147.8355  139.7831  153.5353 C   0  0  0  0  0  0  0  0  0  0  0  0
  143.1208  135.5782  150.0042 H   0  0  0  0  0  0  0  0  0  0  0  0
  144.7695  136.1876  150.1393 H   0  0  0  0  0  0  0  0  0  0  0  0
  143.7845  135.9567  151.5931 H   0  0  0  0  0  0  0  0  0  0  0  0
  142.9614  133.2589  149.5477 H   0  0  0  0  0  0  0  0  0  0  0  0
  143.8389  130.9280  149.7760 H   0  0  0  0  0  0  0  0  0  0  0  0
  145.9279  130.5648  151.1156 H   0  0  0  0  0  0  0  0  0  0  0  0
  147.3080  135.1397  151.7402 H   0  0  0  0  0  0  0  0  0  0  0  0
  147.7233  136.6642  152.8989 H   0  0  0  0  0  0  0  0  0  0  0  0
  145.8041  138.2799  154.1294 H   0  0  0  0  0  0  0  0  0  0  0  0
  146.3880  137.2539  155.3723 H   0  0  0  0  0  0  0  0  0  0  0  0
  150.4116  139.4381  153.7883 H   0  0  0  0  0  0  0  0  0  0  0  0
  150.5819  139.0082  155.4779 H   0  0  0  0  0  0  0  0  0  0  0  0
  151.5860  137.3555  153.0977 H   0  0  0  0  0  0  0  0  0  0  0  0
  152.5695  138.2950  154.2048 H   0  0  0  0  0  0  0  0  0  0  0  0
  150.4991  135.3777  153.9244 H   0  0  0  0  0  0  0  0  0  0  0  0
  150.6750  134.9575  155.6153 H   0  0  0  0  0  0  0  0  0  0  0  0
  149.2963  136.8747  156.3258 H   0  0  0  0  0  0  0  0  0  0  0  0
  148.4532  135.9204  155.1087 H   0  0  0  0  0  0  0  0  0  0  0  0
  147.7532  138.7488  156.7879 H   0  0  0  0  0  0  0  0  0  0  0  0
  148.7481  140.0007  156.0837 H   0  0  0  0  0  0  0  0  0  0  0  0
  145.7539  139.9654  156.0904 H   0  0  0  0  0  0  0  0  0  0  0  0
  146.8588  141.2536  156.5415 H   0  0  0  0  0  0  0  0  0  0  0  0
  148.8001  140.2809  153.4328 H   0  0  0  0  0  0  0  0  0  0  0  0
  147.5426  139.4367  152.5436 H   0  0  0  0  0  0  0  0  0  0  0  0
  149.1218  137.4508  153.4779 H   0  0  0  0  0  0  0  0  0  0  0  0
  1  2  1  0  0  0  0
  1 24  1  0  0  0  0
  1 25  1  0  0  0  0
  1 26  1  0  0  0  0
  2  7  1  0  0  0  0
  2  3  2  0  0  0  0
  3  4  1  0  0  0  0
  3 27  1  0  0  0  0
  4  5  2  0  0  0  0
  4 28  1  0  0  0  0
  5  6  1  0  0  0  0
  5 29  1  0  0  0  0
  6  7  2  0  0  0  0
  7  8  1  0  0  0  0
  8  9  1  0  0  0  0
  8 30  1  0  0  0  0
  9 10  2  0  0  0  0
  9 11  1  0  0  0  0
 11 12  1  0  0  0  0
 11 31  1  0  0  0  0
 12 13  1  0  0  0  0
 12 32  1  0  0  0  0
 12 33  1  0  0  0  0
 13 23  1  0  0  0  0
 13 14  1  0  0  0  0
 13 20  1  0  0  0  0
 14 19  1  0  0  0  0
 14 15  1  0  0  0  0
 14 48  1  0  0  0  0
 15 16  1  0  0  0  0
 15 34  1  0  0  0  0
 15 35  1  0  0  0  0
 16 17  1  0  0  0  0
 16 36  1  0  0  0  0
 16 37  1  0  0  0  0
 17 18  1  0  0  0  0
 18 19  1  0  0  0  0
 18 38  1  0  0  0  0
 18 39  1  0  0  0  0
 19 40  1  0  0  0  0
 19 41  1  0  0  0  0
 20 21  1  0  0  0  0
 20 42  1  0  0  0  0
 20 43  1  0  0  0  0
 21 22  1  0  0  0  0
 21 44  1  0  0  0  0
 21 45  1  0  0  0  0
 22 23  1  0  0  0  0
 23 46  1  0  0  0  0
 23 47  1  0  0  0  0
M  CHG  1  14   1
M  END
> <s_m_source_file>
AV-unprocessed.smi

> <i_m_source_file_index>
1211

> <i_lp_mmshare_version>
43012

> <i_f3d_flags>
0

> <s_epik_input>
W0NIM11jMVtjSF1bY0hdW2NIXW5jMVtOSF1DKD1PKVtOSF1bQ0gyXVtDQF0yKFtDSDJdW0NIMl1TW0NIMl0yKU4zW0NIMl1bQ0gyXU9bQ0gyXVtDSDJdMw==

> <s_epik_cmdline>
J2VwaWtfcHl0aG9uJywgJy1waCcsICc3LjAnLCAnLXRuJywgJzgnLCAnLW1hJywgJzIwMCcsICctbWV0YWxfYmluZGluZycsICctaW1hZScsICc8aW5maWxlLm1hZT4nLCAnLW9tYWUnLCAnPG91dGZpbGUubWFlPic=

> <r_epik_Ionization_Penalty>
2.03223

> <r_epik_Ionization_Penalty_Charging>
2.03219

> <r_epik_Ionization_Penalty_Neutral>
4.05816e-05

> <r_epik_State_Penalty>
2.16328

> <r_epik_Charging_Adjusted_Penalty>
4.19546

> <i_epik_Tot_Q>
1

> <i_epik_Tot_abs_Q>
1

> <r_epik_Metal_State_Penalty>
2.16328

> <b_epik_Metal_Only>
0

> <s_lp_Force_Field>
OPLS_2005

> <r_lp_Energy>
45.9337

> <b_lp_Chiralities_Consistent>
1

> <s_lp_Variant>
AV-unprocessed.smi:1211-4

> <Gold.Version>
5.8.1

> <Gold.Id.Protein>
6NUR|6NUR_protein|mol2

> <Gold.PLP.Fitness>
45.5521

> <Gold.PLP.PLP>
-32.5974

> <Gold.PLP.part.hbond>
-4.0000

> <Gold.PLP.part.metal>
0.0000

> <Gold.PLP.part.buried>
-4.0578

> <Gold.PLP.part.nonpolar>
-26.0606

> <Gold.PLP.part.repulsive>
0.2857

> <Gold.PLP.ligand.clash>
0.0000

> <Gold.PLP.ligand.torsion>
1.0078

> <Gold.PLP.Chemscore.Hbond>
4.9420

> <Gold.PLP.Chemscore.CHOScore>
0.0000

> <Gold.PLP.Chemscore.Metal>
0.0000

> <Gold.Chemscore.Hbonds>
donor molecule, donor type, donor heavy atom, donor atom, acceptor molecule, acceptor atom, score
      L1  H     8    30       P1  7948  0.99
      L1  H    11    31       P1  7948  1.00
      L1  H    14    48       P1  7948  2.00
      P1  H 10752 10765       L1    17  1.00

> <Gold.PLP.Chemscore.Internal.Correction>
0.1442

> <Gold.Rescore>
     Score         DG    S(hbond)    S(metal)    S(lipo)     H(rot)  DE(clash)    DE(int)     intcor
     21.23     -22.37       3.17        0.00      86.24       1.48       0.16       0.98       ----

> <Gold.Chemscore.Fitness>
21.2310

> <Gold.Chemscore.DG>
-22.3712

> <Gold.Chemscore.ZeroCoef>
-5.4800

> <Gold.Chemscore.Hbond>
3.1720

> <Gold.Chemscore.Metal>
0.0000

> <Gold.Chemscore.Lipo>
86.2446

> <Gold.Chemscore.Internal_Hbond>
0.0000

> <Gold.Chemscore.DEClash>
0.1571

> <Gold.Chemscore.DEInternal>
0.9831

> <Gold.Chemscore.Rot>
1.4820

> <Gold.Chemscore.Internal.Correction>
   9.000000E+99

> <Gold.Chemscore.Hbonds>
donor molecule, donor type, donor heavy atom, donor atom, acceptor molecule, acceptor atom, score
      L1  H     8    30       P1  7948  0.87
      L1  H    11    31       P1  7948  1.00
      L1  H    14    48       P1  7948  0.95
      P1  H 10752 10765       L1    17  0.40

> <Gold.Chemscore.Hbond.Weighted>
-10.5945

> <Gold.Chemscore.Metal.Weighted>
-0.0000

> <Gold.Chemscore.Lipo.Weighted>
-10.0906

> <Gold.Chemscore.Internal_Hbond.Weighted>
0.0000

> <Gold.Chemscore.DEClash.Weighted>
0.1571

> <Gold.Chemscore.DEInternal.Weighted>
0.9831

> <Gold.Chemscore.Rot.Weighted>
3.7939

> <Gold.Chemscore.Internal.Correction.Weighted>
   9.000000E+99

> <Gold.Protein.RotatedTorsions>
[ 6907 6896 6895 6894 ] final  165.30 input  -60.11 | X-H torsion
[ 7974 7965 7964 7962 ] final -118.47 input  175.53 | X-H torsion
[ 8008 7997 7996 7995 ] final  174.64 input   59.86 | X-H torsion
[ 10167 10162 10161 10158 ] final  179.70 input  -65.29 | X-H torsion
[ 10718 10713 10712 10709 ] final  172.91 input   66.30 | X-H torsion
[ 10763 10752 10751 10750 ] final -166.82 input  -60.55 | X-H torsion
[ 11005 11000 10999 10996 ] final -117.69 input  -57.11 | X-H torsion

> <Gold.Protein.ActiveResidues>
 VAL166  LYS551  ARG553  GLY616  TRP617  ASP618  TYR619  PRO620  LYS621  CYS622 
 ASP623  PHE694  ASN695  SER759  ASP760  ASP761  ALA762  ILE779  LEU786  VAL792 
 PHE793  MET794  SER795  GLU796  ALA797  LYS798  CYS799  TRP800  GLU811  SER814 

> <Gold.Protein.RotatedAtoms>
  151.8966  133.3528  159.3816 H   0  0  0  0  0  0  0  0  0  0  0  0  # atno 6907 bound_to 6896
  150.7090  134.4871  159.5507 H   0  0  0  0  0  0  0  0  0  0  0  0  # atno 6908 bound_to 6896
  152.2451  134.8190  160.0505 H   0  0  0  0  0  0  0  0  0  0  0  0  # atno 6909 bound_to 6896
  145.0734  140.8375  143.4082 H   0  0  0  0  0  0  0  0  0  0  0  0  # atno 7974 bound_to 7965
  156.0953  140.1429  156.9539 H   0  0  0  0  0  0  0  0  0  0  0  0  # atno 8008 bound_to 7997
  154.4667  140.0923  156.7086 H   0  0  0  0  0  0  0  0  0  0  0  0  # atno 8009 bound_to 7997
  155.4851  140.3446  155.4348 H   0  0  0  0  0  0  0  0  0  0  0  0  # atno 8010 bound_to 7997
  139.5348  144.2529  152.0770 H   0  0  0  0  0  0  0  0  0  0  0  0  # atno 10167 bound_to 10162
  156.9721  131.0093  151.2902 H   0  0  0  0  0  0  0  0  0  0  0  0  # atno 10718 bound_to 10713
  154.6794  135.2952  154.9633 H   0  0  0  0  0  0  0  0  0  0  0  0  # atno 10763 bound_to 10752
  154.0633  135.6628  153.4818 H   0  0  0  0  0  0  0  0  0  0  0  0  # atno 10764 bound_to 10752
  153.0538  135.5157  154.7830 H   0  0  0  0  0  0  0  0  0  0  0  0  # atno 10765 bound_to 10752
  141.0337  133.9942  157.3103 H   0  0  0  0  0  0  0  0  0  0  0  0  # atno 11005 bound_to 11000
  145.1264  139.2660  143.5562 LP  0  0  0  0  0  0  0  0  0  0  0  0  # atno 17320 bound_to 7965
  146.3529  140.0903  142.8613 LP  0  0  0  0  0  0  0  0  0  0  0  0  # atno 17321 bound_to 7965
  140.1998  144.4669  150.6437 LP  0  0  0  0  0  0  0  0  0  0  0  0  # atno 17342 bound_to 10162
  140.6548  143.2234  151.5994 LP  0  0  0  0  0  0  0  0  0  0  0  0  # atno 17343 bound_to 10162
  157.5585  130.8230  149.8236 LP  0  0  0  0  0  0  0  0  0  0  0  0  # atno 17370 bound_to 10713
  156.0279  130.3774  150.1772 LP  0  0  0  0  0  0  0  0  0  0  0  0  # atno 17371 bound_to 10713
  139.9226  135.0201  156.8119 LP  0  0  0  0  0  0  0  0  0  0  0  0  # atno 17394 bound_to 11000
  140.6360  133.9862  155.7684 LP  0  0  0  0  0  0  0  0  0  0  0  0  # atno 17395 bound_to 11000

$$$$
