AV-unprocessed.smi:2695|AV-procd|sdf|10408|dock7
  -GOLD-   2272014443D 1   1.00000     0.00000
 Structure written by MMmdl.
 41 42  0  0  0  0  0  0  0  0  2 V2000
  148.6491  140.0933  154.3539 C   0  0  0  0  0  0  0  0  0  0  0  0
  149.9409  139.4530  154.8480 C   0  0  0  0  0  0  0  0  0  0  0  0
  150.2529  138.1852  154.5000 C   0  0  0  0  0  0  0  0  0  0  0  0
  151.4353  137.5841  154.9113 C   0  0  0  0  0  0  0  0  0  0  0  0
  151.7272  136.4097  154.5951 O   0  5  0  0  0  0  0  0  0  0  0  0
  152.2753  138.3685  155.6907 C   0  0  0  0  0  0  0  0  0  0  0  0
  151.9976  139.7421  156.0919 C   0  0  0  0  0  0  0  0  0  0  0  0
  152.7866  140.3968  156.7759 O   0  0  0  0  0  0  0  0  0  0  0  0
  150.8033  140.2370  155.6602 N   0  0  0  0  0  0  0  0  0  0  0  0
  150.4185  141.6066  156.0710 C   0  0  0  0  0  0  0  0  0  0  0  0
  150.4173  141.8052  157.5938 C   0  0  0  0  0  0  0  0  0  0  0  0
  149.4173  141.5456  158.2639 O   0  0  0  0  0  0  0  0  0  0  0  0
  151.5650  142.2511  158.1261 N   0  0  0  0  0  0  0  0  0  0  0  0
  151.8136  142.4993  159.5468 C   0  0  1  0  0  0  0  0  0  0  0  0
  153.3028  142.1951  159.8512 C   0  0  0  0  0  0  0  0  0  0  0  0
  153.7913  140.8498  159.2965 C   0  0  0  0  0  0  0  0  0  0  0  0
  155.0720  140.5306  160.0729 C   0  0  0  0  0  0  0  0  0  0  0  0
  154.9807  141.3143  161.3893 C   0  0  0  0  0  0  0  0  0  0  0  0
  153.6599  142.0903  161.3389 C   0  0  0  0  0  0  0  0  0  0  0  0
  151.3823  143.9425  159.9050 C   0  0  0  0  0  0  0  0  0  0  0  0
  150.1070  144.1431  159.5713 F   0  0  0  0  0  0  0  0  0  0  0  0
  151.4915  144.1596  161.2149 F   0  0  0  0  0  0  0  0  0  0  0  0
  152.1369  144.8305  159.2567 F   0  0  0  0  0  0  0  0  0  0  0  0
  148.1998  139.4937  153.5617 H   0  0  0  0  0  0  0  0  0  0  0  0
  148.8200  141.0857  153.9372 H   0  0  0  0  0  0  0  0  0  0  0  0
  147.9225  140.1651  155.1634 H   0  0  0  0  0  0  0  0  0  0  0  0
  149.5644  137.6265  153.8819 H   0  0  0  0  0  0  0  0  0  0  0  0
  153.2078  137.9407  156.0310 H   0  0  0  0  0  0  0  0  0  0  0  0
  151.0485  142.3708  155.6198 H   0  0  0  0  0  0  0  0  0  0  0  0
  149.4255  141.8442  155.6839 H   0  0  0  0  0  0  0  0  0  0  0  0
  152.3306  142.4409  157.4958 H   0  0  0  0  0  0  0  0  0  0  0  0
  151.2083  141.8092  160.1378 H   0  0  0  0  0  0  0  0  0  0  0  0
  153.9212  142.9796  159.4115 H   0  0  0  0  0  0  0  0  0  0  0  0
  153.0468  140.0766  159.4934 H   0  0  0  0  0  0  0  0  0  0  0  0
  153.9609  140.8745  158.2194 H   0  0  0  0  0  0  0  0  0  0  0  0
  155.1790  139.4585  160.2412 H   0  0  0  0  0  0  0  0  0  0  0  0
  155.9447  140.8604  159.5078 H   0  0  0  0  0  0  0  0  0  0  0  0
  155.0213  140.6574  162.2586 H   0  0  0  0  0  0  0  0  0  0  0  0
  155.8208  142.0061  161.4646 H   0  0  0  0  0  0  0  0  0  0  0  0
  153.7477  143.0649  161.8196 H   0  0  0  0  0  0  0  0  0  0  0  0
  152.8888  141.5283  161.8677 H   0  0  0  0  0  0  0  0  0  0  0  0
  1  2  1  0  0  0  0
  1 24  1  0  0  0  0
  1 25  1  0  0  0  0
  1 26  1  0  0  0  0
  2  9  1  0  0  0  0
  2  3  2  0  0  0  0
  3  4  1  0  0  0  0
  3 27  1  0  0  0  0
  4  5  1  0  0  0  0
  4  6  2  0  0  0  0
  6  7  1  0  0  0  0
  6 28  1  0  0  0  0
  7  8  2  0  0  0  0
  7  9  1  0  0  0  0
  9 10  1  0  0  0  0
 10 11  1  0  0  0  0
 10 29  1  0  0  0  0
 10 30  1  0  0  0  0
 11 12  2  0  0  0  0
 11 13  1  0  0  0  0
 13 14  1  0  0  0  0
 13 31  1  0  0  0  0
 14 15  1  0  0  0  0
 14 20  1  0  0  0  0
 14 32  1  0  0  0  0
 15 19  1  0  0  0  0
 15 16  1  0  0  0  0
 15 33  1  0  0  0  0
 16 17  1  0  0  0  0
 16 34  1  0  0  0  0
 16 35  1  0  0  0  0
 17 18  1  0  0  0  0
 17 36  1  0  0  0  0
 17 37  1  0  0  0  0
 18 19  1  0  0  0  0
 18 38  1  0  0  0  0
 18 39  1  0  0  0  0
 19 40  1  0  0  0  0
 19 41  1  0  0  0  0
 20 21  1  0  0  0  0
 20 22  1  0  0  0  0
 20 23  1  0  0  0  0
M  CHG  1   5  -1
M  END
> <s_m_source_file>
AV-unprocessed.smi

> <i_m_source_file_index>
2695

> <i_lp_mmshare_version>
43012

> <i_f3d_flags>
0

> <s_epik_input>
W0NIM11jMVtjSF1jKFtPSF0pW2NIXWMoPU8pbjFbQ0gyXUMoPU8pW05IXVtDQEBIXShDKEYpKEYpRilbQ0hdMltDSDJdW0NIMl1bQ0gyXVtDSDJdMg==

> <s_epik_cmdline>
J2VwaWtfcHl0aG9uJywgJy1waCcsICc3LjAnLCAnLXRuJywgJzgnLCAnLW1hJywgJzIwMCcsICctbWV0YWxfYmluZGluZycsICctaW1hZScsICc8aW5maWxlLm1hZT4nLCAnLW9tYWUnLCAnPG91dGZpbGUubWFlPic=

> <r_lp_tautomer_probability>
1

> <r_epik_Ionization_Penalty>
0.176977

> <r_epik_Ionization_Penalty_Charging>
0.176977

> <r_epik_Ionization_Penalty_Neutral>
1.44272e-07

> <r_epik_State_Penalty>
0.160849

> <r_epik_Charging_Adjusted_Penalty>
0.337826

> <i_epik_Tot_Q>
-1

> <i_epik_Tot_abs_Q>
1

> <r_epik_Metal_State_Penalty>
0.16085

> <b_epik_Metal_Only>
0

> <s_lp_Force_Field>
OPLS_2005

> <r_lp_Energy>
41.7446

> <b_lp_Chiralities_Consistent>
1

> <s_lp_Variant>
AV-unprocessed.smi:2695-2

> <Gold.Version>
5.8.1

> <Gold.Id.Protein>
6NUR|6NUR_protein|mol2

> <Gold.PLP.Fitness>
58.3010

> <Gold.PLP.PLP>
-51.0332

> <Gold.PLP.part.hbond>
-2.0000

> <Gold.PLP.part.metal>
0.0000

> <Gold.PLP.part.buried>
-2.9528

> <Gold.PLP.part.nonpolar>
-46.9811

> <Gold.PLP.part.repulsive>
0.3365

> <Gold.PLP.ligand.clash>
0.0014

> <Gold.PLP.ligand.torsion>
0.9064

> <Gold.PLP.Chemscore.Hbond>
2.9280

> <Gold.PLP.Chemscore.CHOScore>
0.0000

> <Gold.PLP.Chemscore.Metal>
0.0000

> <Gold.Chemscore.Hbonds>
donor molecule, donor type, donor heavy atom, donor atom, acceptor molecule, acceptor atom, score
      P1  H  7997  8008       L1     8  0.77
      P1  H 10752 10764       L1     5  1.53

> <Gold.PLP.Chemscore.Internal.Correction>
0.2979

> <Gold.Rescore>
     Score         DG    S(hbond)    S(metal)    S(lipo)     H(rot)  DE(clash)    DE(int)     intcor
     14.16     -18.48       1.81        0.00      97.92       1.75       0.97       3.34       ----

> <Gold.Chemscore.Fitness>
14.1623

> <Gold.Chemscore.DG>
-18.4764

> <Gold.Chemscore.ZeroCoef>
-5.4800

> <Gold.Chemscore.Hbond>
1.8054

> <Gold.Chemscore.Metal>
0.0000

> <Gold.Chemscore.Lipo>
97.9158

> <Gold.Chemscore.Internal_Hbond>
0.0000

> <Gold.Chemscore.DEClash>
0.9730

> <Gold.Chemscore.DEInternal>
3.3411

> <Gold.Chemscore.Rot>
1.7539

> <Gold.Chemscore.Internal.Correction>
   9.000000E+99

> <Gold.Chemscore.Hbonds>
donor molecule, donor type, donor heavy atom, donor atom, acceptor molecule, acceptor atom, score
      P1  H  7997  8008       L1     8  0.75
      P1  H 10752 10764       L1     5  0.77

> <Gold.Chemscore.Hbond.Weighted>
-6.0301

> <Gold.Chemscore.Metal.Weighted>
-0.0000

> <Gold.Chemscore.Lipo.Weighted>
-11.4562

> <Gold.Chemscore.Internal_Hbond.Weighted>
0.0000

> <Gold.Chemscore.DEClash.Weighted>
0.9730

> <Gold.Chemscore.DEInternal.Weighted>
3.3411

> <Gold.Chemscore.Rot.Weighted>
4.4899

> <Gold.Chemscore.Internal.Correction.Weighted>
   9.000000E+99

> <Gold.Protein.RotatedTorsions>
[ 6907 6896 6895 6894 ] final   68.13 input  -60.11 | X-H torsion
[ 7974 7965 7964 7962 ] final   57.19 input  175.53 | X-H torsion
[ 8008 7997 7996 7995 ] final  -68.88 input   59.86 | X-H torsion
[ 10167 10162 10161 10158 ] final  -71.29 input  -65.29 | X-H torsion
[ 10718 10713 10712 10709 ] final -146.96 input   66.30 | X-H torsion
[ 10763 10752 10751 10750 ] final  -69.86 input  -60.55 | X-H torsion
[ 11005 11000 10999 10996 ] final   71.93 input  -57.11 | X-H torsion

> <Gold.Protein.ActiveResidues>
 VAL166  LYS551  ARG553  GLY616  TRP617  ASP618  TYR619  PRO620  LYS621  CYS622 
 ASP623  PHE694  ASN695  SER759  ASP760  ASP761  ALA762  ILE779  LEU786  VAL792 
 PHE793  MET794  SER795  GLU796  ALA797  LYS798  CYS799  TRP800  GLU811  SER814 

> <Gold.Protein.RotatedAtoms>
  152.4599  134.5207  159.9781 H   0  0  0  0  0  0  0  0  0  0  0  0  # atno 6907 bound_to 6896
  151.5259  133.3452  159.2917 H   0  0  0  0  0  0  0  0  0  0  0  0  # atno 6908 bound_to 6896
  150.8558  134.7926  159.7107 H   0  0  0  0  0  0  0  0  0  0  0  0  # atno 6909 bound_to 6896
  145.9317  139.3813  143.0417 H   0  0  0  0  0  0  0  0  0  0  0  0  # atno 7974 bound_to 7965
  154.4899  140.0864  156.7571 H   0  0  0  0  0  0  0  0  0  0  0  0  # atno 8008 bound_to 7997
  155.4257  140.3447  155.4257 H   0  0  0  0  0  0  0  0  0  0  0  0  # atno 8009 bound_to 7997
  156.1315  140.1502  156.9047 H   0  0  0  0  0  0  0  0  0  0  0  0  # atno 8010 bound_to 7997
  140.5284  143.2324  151.7305 H   0  0  0  0  0  0  0  0  0  0  0  0  # atno 10167 bound_to 10162
  156.4015  130.7936  151.2147 H   0  0  0  0  0  0  0  0  0  0  0  0  # atno 10718 bound_to 10713
  154.4094  135.6012  153.5944 H   0  0  0  0  0  0  0  0  0  0  0  0  # atno 10763 bound_to 10752
  152.9790  135.5925  154.4088 H   0  0  0  0  0  0  0  0  0  0  0  0  # atno 10764 bound_to 10752
  154.3898  135.2842  155.2140 H   0  0  0  0  0  0  0  0  0  0  0  0  # atno 10765 bound_to 10752
  139.9517  134.7215  156.0846 H   0  0  0  0  0  0  0  0  0  0  0  0  # atno 11005 bound_to 11000
  145.8418  140.9577  143.0795 LP  0  0  0  0  0  0  0  0  0  0  0  0  # atno 17320 bound_to 7965
  144.6766  140.0293  143.7483 LP  0  0  0  0  0  0  0  0  0  0  0  0  # atno 17321 bound_to 7965
  139.4946  144.4150  152.0039 LP  0  0  0  0  0  0  0  0  0  0  0  0  # atno 17342 bound_to 10162
  140.3251  144.3382  150.6000 LP  0  0  0  0  0  0  0  0  0  0  0  0  # atno 17343 bound_to 10162
  157.7504  131.0285  150.4053 LP  0  0  0  0  0  0  0  0  0  0  0  0  # atno 17370 bound_to 10713
  156.4334  130.3976  149.6745 LP  0  0  0  0  0  0  0  0  0  0  0  0  # atno 17371 bound_to 10713
  141.1181  133.6621  156.3146 LP  0  0  0  0  0  0  0  0  0  0  0  0  # atno 17394 bound_to 11000
  140.5703  134.5847  157.5456 LP  0  0  0  0  0  0  0  0  0  0  0  0  # atno 17395 bound_to 11000

$$$$
