#       Name:                AV-unprocessed.smi:72
#       Creating user name   scv26
#       Creation time:       Thu Mar 26 17:08:33 2020


#       File generated by GOLD software.
#

@<TRIPOS>MOLECULE
AV-unprocessed.smi:72
    41    42     1
SMALL
NO_CHARGES


@<TRIPOS>ATOM
      1 ****        -5.1204  -0.2827  -0.3324 N.pl3          1 S1                 0.0000
      2 ****        -3.7455  -0.3835  -0.3736 C.2            1 S1                 0.0000
      3 ****        -3.0242   0.7321   0.0742 N.2            1 S1                 0.0000
      4 ****        -1.7326   0.6427   0.0308 C.2            1 S1                 0.0000
      5 ****        -1.0762  -0.5533  -0.4664 N.am           1 S1                 0.0000
      6 ****         0.4341  -0.6565  -0.5140 C.3            1 S1                 0.0000
      7 ****         0.9593   0.5970  -0.8194 O.3            1 S1                 0.0000
      8 ****         2.2367   0.7124  -0.2128 C.3            1 S1                 0.0000
      9 ****         2.6264   2.1935  -0.0947 C.3            1 S1                 0.0000
     10 ****         3.1632   2.6504  -1.3175 O.3            1 S1                 0.0000
     11 ****         2.0302   0.0231   1.1407 C.3            1 S1                 0.0000
     12 ****         3.2598  -0.4778   1.6270 O.3            1 S1                 0.0000
     13 ****         1.0701  -1.1190   0.8174 C.3            1 S1                 0.0000
     14 ****         0.1481  -1.3124   1.8751 O.3            1 S1                 0.0000
     15 ****        -1.8691  -1.6562  -0.8852 C.2            1 S1                 0.0000
     16 ****        -1.3332  -2.6936  -1.2748 O.2            1 S1                 0.0000
     17 ****        -3.2596  -1.5055  -0.8224 N.2            1 S1                 0.0000
     18 ****         0.6791  -1.3197  -1.3450 H              1 S1                 0.0000
     19 ****         2.9646   0.1559  -0.8076 H              1 S1                 0.0000
     20 ****         1.5860   0.7186   1.8553 H              1 S1                 0.0000
     21 ****         1.6014  -2.0521   0.6234 H              1 S1                 0.0000
     22 ****        -5.7411  -1.0221  -0.6275 H              1 S1                 0.0000
     23 ****        -5.6083   0.5383  -0.0050 H              1 S1                 0.0000
     24 ****        -1.0652   1.4393   0.3630 H              1 S1                 0.0000
     25 ****         1.7744   2.8065   0.2007 H              1 S1                 0.0000
     26 ****         3.3960   2.3193   0.6673 H              1 S1                 0.0000
     27 ****         2.4989   2.5673  -1.9847 H              1 S1                 0.0000
     28 ****         3.6131  -1.0775   0.9879 H              1 S1                 0.0000
     29 ****        -0.4667  -1.9824   1.6180 H              1 S1                 0.0000
     30 ****        -3.4832   1.5546   0.4099 LP             1 S1                 0.0000
     31 ****         0.3537   1.3108  -0.4678 LP             1 S1                 0.0000
     32 ****         1.0473   0.6930  -1.8109 LP             1 S1                 0.0000
     33 ****         3.9600   2.0985  -1.5637 LP             1 S1                 0.0000
     34 ****         3.4356   3.6085  -1.2297 LP             1 S1                 0.0000
     35 ****         3.1106  -0.9564   2.4923 LP             1 S1                 0.0000
     36 ****         3.8990   0.2778   1.7700 LP             1 S1                 0.0000
     37 ****        -0.3398  -0.4589   2.0576 LP             1 S1                 0.0000
     38 ****         0.6358  -1.6004   2.6993 LP             1 S1                 0.0000
     39 ****        -0.3359  -2.7631  -1.2976 LP             1 S1                 0.0000
     40 ****        -1.8951  -3.4669  -1.5684 LP             1 S1                 0.0000
     41 ****        -3.8669  -2.2438  -1.1159 LP             1 S1                 0.0000
@<TRIPOS>BOND
    1    1    2 1     
    2    1   22 1     
    3    1   23 1     
    4    2   17 2     
    5    2    3 1     
    6    3    4 2     
    7    4    5 1     
    8    4   24 1     
    9    5    6 1     
   10    5   15 am    
   11    6   18 1     
   12    6   13 1     
   13    6    7 1     
   14    7    8 1     
   15    8   19 1     
   16    8    9 1     
   17    8   11 1     
   18    9   10 1     
   19    9   25 1     
   20    9   26 1     
   21   10   27 1     
   22   11   20 1     
   23   11   12 1     
   24   11   13 1     
   25   12   28 1     
   26   13   21 1     
   27   13   14 1     
   28   14   29 1     
   29   15   16 2     
   30   15   17 1     
   31    3   30 1     
   32    7   31 1     
   33    7   32 1     
   34   10   33 1     
   35   10   34 1     
   36   12   35 1     
   37   12   36 1     
   38   14   37 1     
   39   14   38 1     
   40   16   39 1     
   41   16   40 1     
   42   17   41 1     
@<TRIPOS>SUBSTRUCTURE
      1 S1             1
@<TRIPOS>SET
LONE_PAIRS      STATIC     ATOMS    <user>   **** ""
12 30 31 32 33 34 35 36 37 38 39 40 41
DONOR_HYDROGENS      STATIC     ATOMS    <user>   **** ""
5 22 23 27 28 29
ATOM$BLUE        STATIC     ATOMS    COLORGROUP SYSTEM
12 30 31 32 33 34 35 36 37 38 39 40 41
ATOM$RED        STATIC     ATOMS    COLORGROUP SYSTEM
5 22 23 27 28 29
