AV-unprocessed.smi:2168|AV-procd|sdf|8821|dock5
  -GOLD-   2272012 13D 1   1.00000     0.00000
 Structure written by MMmdl.
 46 47  0  0  0  0  0  0  0  0  3 V2000
  146.5439  132.9242  159.8760 C   0  0  0  0  0  0  0  0  0  0  0  0
  147.7250  133.6129  160.5791 C   0  0  0  0  0  0  0  0  0  0  0  0
  147.6011  135.0844  160.6119 N   0  0  0  0  0  0  0  0  0  0  0  0
  147.5466  135.7208  161.9435 C   0  0  0  0  0  0  0  0  0  0  0  0
  147.3833  134.7088  163.0878 C   0  0  0  0  0  0  0  0  0  0  0  0
  147.9379  136.0383  159.1938 S   0  0  0  0  0  0  0  0  0  0  0  0
  147.7581  137.4452  159.5888 O   0  0  0  0  0  0  0  0  0  0  0  0
  149.2682  135.6215  158.7209 O   0  0  0  0  0  0  0  0  0  0  0  0
  146.7328  135.4703  158.2715 N   0  5  0  0  0  0  0  0  0  0  0  0
  146.1184  136.3447  157.2937 C   0  0  0  0  0  0  0  0  0  0  0  0
  145.8770  135.6082  155.9861 C   0  0  0  0  0  0  0  0  0  0  0  0
  146.6707  135.8714  154.8472 C   0  0  0  0  0  0  0  0  0  0  0  0
  146.4344  135.1575  153.6538 C   0  0  0  0  0  0  0  0  0  0  0  0
  145.4050  134.1833  153.6021 C   0  0  0  0  0  0  0  0  0  0  0  0
  145.1070  133.4119  152.4558 N   0  0  0  0  0  0  0  0  0  0  0  0
  146.1672  133.1945  151.4749 C   0  0  0  0  0  0  0  0  0  0  0  0
  145.7690  132.0911  150.4801 C   0  0  0  0  0  0  0  0  0  0  0  0
  144.5134  132.4056  149.8902 O   0  0  0  0  0  0  0  0  0  0  0  0
  143.4770  132.4638  150.8629 C   0  0  0  0  0  0  0  0  0  0  0  0
  143.7761  133.5836  151.8733 C   0  0  0  0  0  0  0  0  0  0  0  0
  144.6730  133.9710  154.7232 N   0  3  0  0  0  0  0  0  0  0  0  0
  144.8651  134.6294  155.8875 C   0  0  0  0  0  0  0  0  0  0  0  0
  146.7130  131.8496  159.8094 H   0  0  0  0  0  0  0  0  0  0  0  0
  146.3968  133.2977  158.8635 H   0  0  0  0  0  0  0  0  0  0  0  0
  145.6129  133.0705  160.4233 H   0  0  0  0  0  0  0  0  0  0  0  0
  147.8007  133.2467  161.6030 H   0  0  0  0  0  0  0  0  0  0  0  0
  148.6591  133.3352  160.0901 H   0  0  0  0  0  0  0  0  0  0  0  0
  148.4518  136.3054  162.1044 H   0  0  0  0  0  0  0  0  0  0  0  0
  146.7202  136.4317  161.9610 H   0  0  0  0  0  0  0  0  0  0  0  0
  147.4112  135.2171  164.0515 H   0  0  0  0  0  0  0  0  0  0  0  0
  148.1813  133.9669  163.0864 H   0  0  0  0  0  0  0  0  0  0  0  0
  146.4305  134.1835  163.0281 H   0  0  0  0  0  0  0  0  0  0  0  0
  145.1633  136.7380  157.6437 H   0  0  0  0  0  0  0  0  0  0  0  0
  146.7382  137.2169  157.0839 H   0  0  0  0  0  0  0  0  0  0  0  0
  147.4631  136.6073  154.8734 H   0  0  0  0  0  0  0  0  0  0  0  0
  147.0521  135.3796  152.7975 H   0  0  0  0  0  0  0  0  0  0  0  0
  146.3635  134.1273  150.9447 H   0  0  0  0  0  0  0  0  0  0  0  0
  147.0905  132.8942  151.9705 H   0  0  0  0  0  0  0  0  0  0  0  0
  146.5196  132.0064  149.6944 H   0  0  0  0  0  0  0  0  0  0  0  0
  145.7173  131.1203  150.9758 H   0  0  0  0  0  0  0  0  0  0  0  0
  142.5290  132.6557  150.3607 H   0  0  0  0  0  0  0  0  0  0  0  0
  143.3800  131.5005  151.3666 H   0  0  0  0  0  0  0  0  0  0  0  0
  142.9987  133.5767  152.6372 H   0  0  0  0  0  0  0  0  0  0  0  0
  143.7312  134.5548  151.3790 H   0  0  0  0  0  0  0  0  0  0  0  0
  144.2079  134.3413  156.6967 H   0  0  0  0  0  0  0  0  0  0  0  0
  143.9375  133.2654  154.6912 H   0  0  0  0  0  0  0  0  0  0  0  0
  1  2  1  0  0  0  0
  1 23  1  0  0  0  0
  1 24  1  0  0  0  0
  1 25  1  0  0  0  0
  2  3  1  0  0  0  0
  2 26  1  0  0  0  0
  2 27  1  0  0  0  0
  3  4  1  0  0  0  0
  3  6  1  0  0  0  0
  4  5  1  0  0  0  0
  4 28  1  0  0  0  0
  4 29  1  0  0  0  0
  5 30  1  0  0  0  0
  5 31  1  0  0  0  0
  5 32  1  0  0  0  0
  6  7  2  0  0  0  0
  6  8  2  0  0  0  0
  6  9  1  0  0  0  0
  9 10  1  0  0  0  0
 10 11  1  0  0  0  0
 10 33  1  0  0  0  0
 10 34  1  0  0  0  0
 11 22  1  0  0  0  0
 11 12  2  0  0  0  0
 12 13  1  0  0  0  0
 12 35  1  0  0  0  0
 13 14  2  0  0  0  0
 13 36  1  0  0  0  0
 14 15  1  0  0  0  0
 14 21  1  0  0  0  0
 15 20  1  0  0  0  0
 15 16  1  0  0  0  0
 16 17  1  0  0  0  0
 16 37  1  0  0  0  0
 16 38  1  0  0  0  0
 17 18  1  0  0  0  0
 17 39  1  0  0  0  0
 17 40  1  0  0  0  0
 18 19  1  0  0  0  0
 19 20  1  0  0  0  0
 19 41  1  0  0  0  0
 19 42  1  0  0  0  0
 20 43  1  0  0  0  0
 20 44  1  0  0  0  0
 21 22  2  0  0  0  0
 21 46  1  0  0  0  0
 22 45  1  0  0  0  0
M  CHG  1   9  -1
M  CHG  1  21   1
M  END
> <s_m_source_file>
AV-unprocessed.smi

> <i_m_source_file_index>
2168

> <i_lp_mmshare_version>
43012

> <i_f3d_flags>
0

> <s_epik_input>
W0NIM11bQ0gyXU4oW0NIMl1bQ0gzXSlTKD1PKSg9TylbTkhdW0NIMl1jMVtjSF1bY0hdYyhuW2NIXTEpTjJbQ0gyXVtDSDJdT1tDSDJdW0NIMl0y

> <s_epik_cmdline>
J2VwaWtfcHl0aG9uJywgJy1waCcsICc3LjAnLCAnLXRuJywgJzgnLCAnLW1hJywgJzIwMCcsICctbWV0YWxfYmluZGluZycsICctaW1hZScsICc8aW5maWxlLm1hZT4nLCAnLW9tYWUnLCAnPG91dGZpbGUubWFlPic=

> <r_lp_tautomer_probability>
0.999994

> <r_epik_Ionization_Penalty>
2.67026

> <r_epik_Ionization_Penalty_Charging>
2.67026

> <r_epik_Ionization_Penalty_Neutral>
4.07977e-08

> <r_epik_State_Penalty>
4.05768

> <r_epik_Charging_Adjusted_Penalty>
6.72795

> <i_epik_Tot_Q>
0

> <i_epik_Tot_abs_Q>
2

> <r_epik_Metal_State_Penalty>
2.91237

> <b_epik_Metal_Only>
1

> <s_lp_Force_Field>
OPLS_2005

> <r_lp_Energy>
13.0843

> <b_lp_Chiralities_Consistent>
1

> <s_lp_Variant>
AV-unprocessed.smi:2168-4

> <Gold.Version>
5.8.1

> <Gold.Id.Protein>
6NUR|6NUR_protein|mol2

> <Gold.PLP.Fitness>
38.7711

> <Gold.PLP.PLP>
-29.0325

> <Gold.PLP.part.hbond>
-3.0000

> <Gold.PLP.part.metal>
0.0000

> <Gold.PLP.part.buried>
-4.8210

> <Gold.PLP.part.nonpolar>
-21.9126

> <Gold.PLP.part.repulsive>
0.2470

> <Gold.PLP.ligand.clash>
0.0000

> <Gold.PLP.ligand.torsion>
2.4940

> <Gold.PLP.Chemscore.Hbond>
3.6240

> <Gold.PLP.Chemscore.CHOScore>
0.0000

> <Gold.PLP.Chemscore.Metal>
0.0000

> <Gold.Chemscore.Hbonds>
donor molecule, donor type, donor heavy atom, donor atom, acceptor molecule, acceptor atom, score
      L1  H    21    46       P1 10957  2.00
      P1  H  6896  6909       L1     8  1.00
      P1  H  6934  6947       L1     7  0.51

> <Gold.PLP.Chemscore.Internal.Correction>
3.8545

> <Gold.Rescore>
     Score         DG    S(hbond)    S(metal)    S(lipo)     H(rot)  DE(clash)    DE(int)     intcor
     15.16     -17.69       2.76        0.00      63.08       1.72       0.05       2.47       ----

> <Gold.Chemscore.Fitness>
15.1618

> <Gold.Chemscore.DG>
-17.6853

> <Gold.Chemscore.ZeroCoef>
-5.4800

> <Gold.Chemscore.Hbond>
2.7598

> <Gold.Chemscore.Metal>
0.0000

> <Gold.Chemscore.Lipo>
63.0773

> <Gold.Chemscore.Internal_Hbond>
0.0000

> <Gold.Chemscore.DEClash>
0.0504

> <Gold.Chemscore.DEInternal>
2.4730

> <Gold.Chemscore.Rot>
1.7159

> <Gold.Chemscore.Internal.Correction>
   9.000000E+99

> <Gold.Chemscore.Hbonds>
donor molecule, donor type, donor heavy atom, donor atom, acceptor molecule, acceptor atom, score
      L1  H    21    46       P1 10957  0.98
      P1  H  6896  6909       L1     8  0.99
      P1  H  6934  6947       L1     7  0.51

> <Gold.Chemscore.Hbond.Weighted>
-9.2178

> <Gold.Chemscore.Metal.Weighted>
-0.0000

> <Gold.Chemscore.Lipo.Weighted>
-7.3800

> <Gold.Chemscore.Internal_Hbond.Weighted>
0.0000

> <Gold.Chemscore.DEClash.Weighted>
0.0504

> <Gold.Chemscore.DEInternal.Weighted>
2.4730

> <Gold.Chemscore.Rot.Weighted>
4.3926

> <Gold.Chemscore.Internal.Correction.Weighted>
   9.000000E+99

> <Gold.Protein.RotatedTorsions>
[ 6907 6896 6895 6894 ] final   58.55 input  -60.11 | X-H torsion
[ 7974 7965 7964 7962 ] final  -21.31 input  175.53 | X-H torsion
[ 8008 7997 7996 7995 ] final   55.45 input   59.86 | X-H torsion
[ 10167 10162 10161 10158 ] final   23.03 input  -65.29 | X-H torsion
[ 10718 10713 10712 10709 ] final  -33.42 input   66.30 | X-H torsion
[ 10763 10752 10751 10750 ] final -118.54 input  -60.55 | X-H torsion
[ 11005 11000 10999 10996 ] final -130.10 input  -57.11 | X-H torsion

> <Gold.Protein.ActiveResidues>
 VAL166  LYS551  ARG553  GLY616  TRP617  ASP618  TYR619  PRO620  LYS621  CYS622 
 ASP623  PHE694  ASN695  SER759  ASP760  ASP761  ALA762  ILE779  LEU786  VAL792 
 PHE793  MET794  SER795  GLU796  ALA797  LYS798  CYS799  TRP800  GLU811  SER814 

> <Gold.Protein.RotatedAtoms>
  152.3835  134.6554  160.0134 H   0  0  0  0  0  0  0  0  0  0  0  0  # atno 6907 bound_to 6896
  151.6810  133.3306  159.3227 H   0  0  0  0  0  0  0  0  0  0  0  0  # atno 6908 bound_to 6896
  150.7766  134.6717  159.6440 H   0  0  0  0  0  0  0  0  0  0  0  0  # atno 6909 bound_to 6896
  146.1740  140.4323  142.8521 H   0  0  0  0  0  0  0  0  0  0  0  0  # atno 7974 bound_to 7965
  155.5013  140.3474  155.4371 H   0  0  0  0  0  0  0  0  0  0  0  0  # atno 8008 bound_to 7997
  156.0912  140.1411  156.9617 H   0  0  0  0  0  0  0  0  0  0  0  0  # atno 8009 bound_to 7997
  154.4636  140.0926  156.6937 H   0  0  0  0  0  0  0  0  0  0  0  0  # atno 8010 bound_to 7997
  140.5302  143.9855  150.6461 H   0  0  0  0  0  0  0  0  0  0  0  0  # atno 10167 bound_to 10162
  156.3629  130.4327  149.7608 H   0  0  0  0  0  0  0  0  0  0  0  0  # atno 10718 bound_to 10713
  154.8590  135.4270  154.2156 H   0  0  0  0  0  0  0  0  0  0  0  0  # atno 10763 bound_to 10752
  153.3172  135.6980  153.7069 H   0  0  0  0  0  0  0  0  0  0  0  0  # atno 10764 bound_to 10752
  153.6138  135.3514  155.2961 H   0  0  0  0  0  0  0  0  0  0  0  0  # atno 10765 bound_to 10752
  140.9375  134.1237  157.4180 H   0  0  0  0  0  0  0  0  0  0  0  0  # atno 11005 bound_to 11000
  144.8207  140.6545  143.6355 LP  0  0  0  0  0  0  0  0  0  0  0  0  # atno 17320 bound_to 7965
  145.4262  139.1556  143.4047 LP  0  0  0  0  0  0  0  0  0  0  0  0  # atno 17321 bound_to 7965
  140.3228  143.3126  152.0767 LP  0  0  0  0  0  0  0  0  0  0  0  0  # atno 17342 bound_to 10162
  139.4951  144.6562  151.6566 LP  0  0  0  0  0  0  0  0  0  0  0  0  # atno 17343 bound_to 10162
  156.4765  130.8021  151.3037 LP  0  0  0  0  0  0  0  0  0  0  0  0  # atno 17370 bound_to 10713
  157.7475  131.0019  150.2981 LP  0  0  0  0  0  0  0  0  0  0  0  0  # atno 17371 bound_to 10713
  139.8811  135.0026  156.6134 LP  0  0  0  0  0  0  0  0  0  0  0  0  # atno 17394 bound_to 11000
  140.7779  133.8684  155.8544 LP  0  0  0  0  0  0  0  0  0  0  0  0  # atno 17395 bound_to 11000

$$$$
