#       Name:                AV-unprocessed.smi:2560
#       Creating user name   scv26
#       Creation time:       Fri Mar 27 14:08:39 2020


#       File generated by GOLD software.
#

@<TRIPOS>MOLECULE
AV-unprocessed.smi:2560
    35    36     1
SMALL
NO_CHARGES


@<TRIPOS>ATOM
      1 ****         7.9022  -0.0435  -0.7248 C.3            1 S1                 0.0000
      2 ****         7.7711   0.2951  -2.5016 S.3            1 S1                 0.0000
      3 ****         6.0551   0.5485  -2.8205 C.2            1 S1                 0.0000
      4 ****         5.6321   0.9110  -4.0450 N.2            1 S1                 0.0000
      5 ****         3.9489   1.0659  -4.0092 S.3            1 S1                 0.0000
      6 ****         3.9136   0.6253  -2.3273 C.2            1 S1                 0.0000
      7 ****         2.7006   0.5389  -1.5843 N.am           1 S1                 0.0000
      8 ****         2.4683   0.2016  -0.2974 C.2            1 S1                 0.0000
      9 ****         3.3918  -0.1009   0.4560 O.2            1 S1                 0.0000
     10 ****         1.1843   0.2199   0.0972 N.am           1 S1                 0.0000
     11 ****         0.6942  -0.0942   1.4341 C.3            1 S1                 0.0000
     12 ****        -0.6963   0.4976   1.6045 C.2            1 S1                 0.0000
     13 ****        -1.7268  -0.1593   2.1637 C.2            1 S1                 0.0000
     14 ****        -1.6217  -1.5705   2.7106 C.3            1 S1                 0.0000
     15 ****        -0.1591  -2.0129   2.8902 C.3            1 S1                 0.0000
     16 ****         0.7049  -1.6212   1.6819 C.3            1 S1                 0.0000
     17 ****         5.1357   0.3832  -1.8534 N.2            1 S1                 0.0000
     18 ****         8.9429  -0.2157  -0.4511 H              1 S1                 0.0000
     19 ****         7.3238  -0.9284  -0.4591 H              1 S1                 0.0000
     20 ****         7.5285   0.8032  -0.1486 H              1 S1                 0.0000
     21 ****         1.8689   0.7448  -2.1188 H              1 S1                 0.0000
     22 ****         0.4900   0.4785  -0.5893 H              1 S1                 0.0000
     23 ****         1.3319   0.3979   2.1704 H              1 S1                 0.0000
     24 ****        -0.8434   1.5053   1.2437 H              1 S1                 0.0000
     25 ****        -2.6938   0.3171   2.2294 H              1 S1                 0.0000
     26 ****        -2.1464  -1.6277   3.6646 H              1 S1                 0.0000
     27 ****        -2.1380  -2.2403   2.0224 H              1 S1                 0.0000
     28 ****         0.2531  -1.5464   3.7858 H              1 S1                 0.0000
     29 ****        -0.1137  -3.0895   3.0560 H              1 S1                 0.0000
     30 ****         0.3248  -2.1409   0.8009 H              1 S1                 0.0000
     31 ****         1.7279  -1.9707   1.8257 H              1 S1                 0.0000
     32 ****         6.2155   1.0634  -4.8428 LP             1 S1                 0.0000
     33 ****         4.3331  -0.0998   0.1186 LP             1 S1                 0.0000
     34 ****         3.2015  -0.3481   1.4061 LP             1 S1                 0.0000
     35 ****         5.3399   0.1164  -0.9115 LP             1 S1                 0.0000
@<TRIPOS>BOND
    1    1    2 1     
    2    1   18 1     
    3    1   19 1     
    4    1   20 1     
    5    2    3 1     
    6    3   17 1     
    7    3    4 2     
    8    4    5 1     
    9    5    6 1     
   10    6    7 1     
   11    6   17 2     
   12    7    8 am    
   13    7   21 1     
   14    8    9 2     
   15    8   10 am    
   16   10   11 1     
   17   10   22 1     
   18   11   16 1     
   19   11   12 1     
   20   11   23 1     
   21   12   13 2     
   22   12   24 1     
   23   13   14 1     
   24   13   25 1     
   25   14   15 1     
   26   14   26 1     
   27   14   27 1     
   28   15   16 1     
   29   15   28 1     
   30   15   29 1     
   31   16   30 1     
   32   16   31 1     
   33    4   32 1     
   34    9   33 1     
   35    9   34 1     
   36   17   35 1     
@<TRIPOS>SUBSTRUCTURE
      1 S1             1
@<TRIPOS>SET
LONE_PAIRS      STATIC     ATOMS    <user>   **** ""
4 32 33 34 35
DONOR_HYDROGENS      STATIC     ATOMS    <user>   **** ""
2 21 22
ATOM$BLUE        STATIC     ATOMS    COLORGROUP SYSTEM
4 32 33 34 35
ATOM$RED        STATIC     ATOMS    COLORGROUP SYSTEM
2 21 22
