#       Name:                AV-unprocessed.smi:244
#       Creating user name   scv26
#       Creation time:       Thu Mar 26 20:51:24 2020


#       File generated by GOLD software.
#

@<TRIPOS>MOLECULE
AV-unprocessed.smi:244
    67    71     1
SMALL
NO_CHARGES


@<TRIPOS>ATOM
      1 ****        -2.9368   1.8557   4.0912 C.3            1 S1                 0.0000
      2 ****        -3.3487   1.2173   2.8495 N.3            1 S1                 0.0000
      3 ****        -4.7599   0.8443   2.9381 C.3            1 S1                 0.0000
      4 ****        -5.2273   0.2610   1.5960 C.3            1 S1                 0.0000
      5 ****        -4.3894  -0.9773   1.2281 C.3            1 S1                 0.0000
      6 ****        -4.7644  -1.5524  -0.0259 O.3            1 S1                 0.0000
      7 ****        -4.3917  -0.7844  -1.1673 C.3            1 S1                 0.0000
      8 ****        -2.8765  -0.5410  -1.1608 C.3            1 S1                 0.0000
      9 ****        -2.4778   0.1024   0.0842 N.3            1 S1                 0.0000
     10 ****        -1.1929   0.5171   0.0551 C.ar           1 S1                 0.0000
     11 ****        -0.9779   1.8553   0.0480 N.ar           1 S1                 0.0000
     12 ****         0.2712   2.3300   0.0364 C.ar           1 S1                 0.0000
     13 ****         1.4218   1.6534   0.0248 N.ar           1 S1                 0.0000
     14 ****         1.2059   0.3064   0.0244 C.ar           1 S1                 0.0000
     15 ****        -0.0597  -0.3437   0.0404 C.ar           1 S1                 0.0000
     16 ****         0.1146  -1.7224   0.0382 N.2            1 S1                 0.0000
     17 ****         1.4104  -1.8782   0.0147 C.2            1 S1                 0.0000
     18 ****         2.1421  -0.7121  -0.0002 N.pl3          1 S1                 0.0000
     19 ****         3.5916  -0.5939  -0.0300 C.3            1 S1                 0.0000
     20 ****         4.1946  -0.6461  -1.4556 C.3            1 S1                 0.0000
     21 ****         3.9105  -1.9252  -1.9968 O.3            1 S1                 0.0000
     22 ****         3.5980   0.4268  -2.3935 C.3            1 S1                 0.0000
     23 ****         4.3483   0.5094  -3.7346 C.3            1 S1                 0.0000
     24 ****         5.7361   0.7239  -3.5083 O.3            1 S1                 0.0000
     25 ****         6.3492  -0.3452  -2.7985 C.3            1 S1                 0.0000
     26 ****         5.7254  -0.4728  -1.3974 C.3            1 S1                 0.0000
     27 ****        -2.8781  -0.6583   1.2721 C.3            1 S1                 0.0000
     28 ****        -2.5142   0.0373   2.6105 C.3            1 S1                 0.0000
     29 ****        -3.5290   2.7529   4.2741 H              1 S1                 0.0000
     30 ****        -1.8896   2.1562   4.0375 H              1 S1                 0.0000
     31 ****        -3.0580   1.1853   4.9431 H              1 S1                 0.0000
     32 ****        -4.9126   0.1239   3.7434 H              1 S1                 0.0000
     33 ****        -5.3567   1.7254   3.1770 H              1 S1                 0.0000
     34 ****        -6.2819  -0.0087   1.6545 H              1 S1                 0.0000
     35 ****        -5.1460   1.0344   0.8324 H              1 S1                 0.0000
     36 ****        -4.5921  -1.7392   1.9818 H              1 S1                 0.0000
     37 ****        -4.6759  -1.3344  -2.0644 H              1 S1                 0.0000
     38 ****        -4.9377   0.1580  -1.1980 H              1 S1                 0.0000
     39 ****        -2.3509  -1.4903  -1.2720 H              1 S1                 0.0000
     40 ****        -2.5974   0.0832  -2.0110 H              1 S1                 0.0000
     41 ****         0.3613   3.4063   0.0368 H              1 S1                 0.0000
     42 ****         1.8728  -2.8547   0.0017 H              1 S1                 0.0000
     43 ****         3.8635   0.3437   0.4565 H              1 S1                 0.0000
     44 ****         4.0112  -1.3880   0.5895 H              1 S1                 0.0000
     45 ****         4.2840  -1.9740  -2.8635 H              1 S1                 0.0000
     46 ****         2.5395   0.2390  -2.5778 H              1 S1                 0.0000
     47 ****         3.6560   1.4009  -1.9059 H              1 S1                 0.0000
     48 ****         4.1998  -0.3961  -4.3248 H              1 S1                 0.0000
     49 ****         3.9589   1.3377  -4.3269 H              1 S1                 0.0000
     50 ****         6.2505  -1.2749  -3.3612 H              1 S1                 0.0000
     51 ****         7.4166  -0.1411  -2.7123 H              1 S1                 0.0000
     52 ****         5.9647   0.4289  -0.8319 H              1 S1                 0.0000
     53 ****         6.1846  -1.3017  -0.8570 H              1 S1                 0.0000
     54 ****        -2.3427  -1.6078   1.2356 H              1 S1                 0.0000
     55 ****        -1.4598   0.3144   2.6322 H              1 S1                 0.0000
     56 ****        -2.6570  -0.6684   3.4303 H              1 S1                 0.0000
     57 ****        -3.2342   1.8513   2.0846 LP             1 S1                 0.0000
     58 ****        -5.7585  -1.6608  -0.0343 LP             1 S1                 0.0000
     59 ****        -4.3305  -2.4503  -0.0992 LP             1 S1                 0.0000
     60 ****        -3.0026   0.9494   0.1696 LP             1 S1                 0.0000
     61 ****        -1.7533   2.4868   0.0514 LP             1 S1                 0.0000
     62 ****         2.3264   2.0795   0.0173 LP             1 S1                 0.0000
     63 ****        -0.5902  -2.4316   0.0515 LP             1 S1                 0.0000
     64 ****         2.9206  -2.0574  -2.0482 LP             1 S1                 0.0000
     65 ****         4.3117  -2.6337  -1.4163 LP             1 S1                 0.0000
     66 ****         5.8475   1.5648  -2.9787 LP             1 S1                 0.0000
     67 ****         6.1925   0.8240  -4.3925 LP             1 S1                 0.0000
@<TRIPOS>BOND
    1    1    2 1     
    2    1   29 1     
    3    1   30 1     
    4    1   31 1     
    5    2   28 1     
    6    2    3 1     
    7    3    4 1     
    8    3   32 1     
    9    3   33 1     
   10    4    5 1     
   11    4   34 1     
   12    4   35 1     
   13    5   27 1     
   14    5    6 1     
   15    5   36 1     
   16    6    7 1     
   17    7    8 1     
   18    7   37 1     
   19    7   38 1     
   20    8    9 1     
   21    8   39 1     
   22    8   40 1     
   23    9   10 1     
   24    9   27 1     
   25   10   15 ar    
   26   10   11 ar    
   27   11   12 ar    
   28   12   13 ar    
   29   12   41 1     
   30   13   14 ar    
   31   14   18 1     
   32   14   15 ar    
   33   15   16 1     
   34   16   17 2     
   35   17   18 1     
   36   17   42 1     
   37   18   19 1     
   38   19   20 1     
   39   19   43 1     
   40   19   44 1     
   41   20   26 1     
   42   20   21 1     
   43   20   22 1     
   44   21   45 1     
   45   22   23 1     
   46   22   46 1     
   47   22   47 1     
   48   23   24 1     
   49   23   48 1     
   50   23   49 1     
   51   24   25 1     
   52   25   26 1     
   53   25   50 1     
   54   25   51 1     
   55   26   52 1     
   56   26   53 1     
   57   27   28 1     
   58   27   54 1     
   59   28   55 1     
   60   28   56 1     
   61    2   57 1     
   62    6   58 1     
   63    6   59 1     
   64    9   60 1     
   65   11   61 1     
   66   13   62 1     
   67   16   63 1     
   68   21   64 1     
   69   21   65 1     
   70   24   66 1     
   71   24   67 1     
@<TRIPOS>SUBSTRUCTURE
      1 S1             1
@<TRIPOS>SET
LONE_PAIRS      STATIC     ATOMS    <user>   **** ""
11 57 58 59 60 61 62 63 64 65 66 67
DONOR_HYDROGENS      STATIC     ATOMS    <user>   **** ""
1 45
ATOM$BLUE        STATIC     ATOMS    COLORGROUP SYSTEM
11 57 58 59 60 61 62 63 64 65 66 67
ATOM$RED        STATIC     ATOMS    COLORGROUP SYSTEM
1 45
