#       Name:                AV-unprocessed.smi:2946
#       Creating user name   scv26
#       Creation time:       Fri Mar 27 16:17:16 2020


#       File generated by GOLD software.
#

@<TRIPOS>MOLECULE
AV-unprocessed.smi:2946
    42    43     1
SMALL
NO_CHARGES


@<TRIPOS>ATOM
      1 ****        -0.2435   2.5633  -0.3312 C.3            1 S1                 0.0000
      2 ****        -1.2268   1.5089  -0.4742 N.am           1 S1                 0.0000
      3 ****        -0.9474   0.2195  -0.9352 C.2            1 S1                 0.0000
      4 ****         0.3583  -0.0651  -1.3179 N.pl3          1 S1                 0.0000
      5 ****         1.4699   0.8712  -1.2800 C.3            1 S1                 0.0000
      6 ****         2.0239   1.1216  -2.6876 C.3            1 S1                 0.0000
      7 ****         3.2626   2.0152  -2.7129 C.3            1 S1                 0.0000
      8 ****         3.2109   2.6656  -4.0879 C.3            1 S1                 0.0000
      9 ****         1.7994   2.3581  -4.5958 C.3            1 S1                 0.0000
     10 ****         1.0995   1.8705  -3.4605 O.3            1 S1                 0.0000
     11 ****        -1.9291  -0.7207  -1.0212 C.2            1 S1                 0.0000
     12 ****        -1.7091  -2.0377  -1.5312 C.1            1 S1                 0.0000
     13 ****        -1.5380  -3.1001  -1.9593 N.1            1 S1                 0.0000
     14 ****        -3.3088  -0.4382  -0.6321 C.2            1 S1                 0.0000
     15 ****        -4.2216  -1.2660  -0.6870 O.2            1 S1                 0.0000
     16 ****        -3.5368   0.8768  -0.1783 N.am           1 S1                 0.0000
     17 ****        -4.8961   1.1932   0.2134 C.3            1 S1                 0.0000
     18 ****        -2.5396   1.8705  -0.0829 C.2            1 S1                 0.0000
     19 ****        -2.7920   3.0080   0.3260 O.2            1 S1                 0.0000
     20 ****         0.7430   2.2132  -0.6270 H              1 S1                 0.0000
     21 ****        -0.2250   2.8542   0.7211 H              1 S1                 0.0000
     22 ****        -0.5516   3.3889  -0.9756 H              1 S1                 0.0000
     23 ****         0.4270  -0.6991  -2.1009 H              1 S1                 0.0000
     24 ****         1.1622   1.8176  -0.8353 H              1 S1                 0.0000
     25 ****         2.2473   0.4521  -0.6407 H              1 S1                 0.0000
     26 ****         2.2376   0.1775  -3.1930 H              1 S1                 0.0000
     27 ****         3.1884   2.7855  -1.9438 H              1 S1                 0.0000
     28 ****         4.1836   1.4578  -2.5411 H              1 S1                 0.0000
     29 ****         3.3848   3.7396  -4.0128 H              1 S1                 0.0000
     30 ****         3.9629   2.2500  -4.7597 H              1 S1                 0.0000
     31 ****         1.3050   3.2328  -5.0188 H              1 S1                 0.0000
     32 ****         1.8276   1.5798  -5.3600 H              1 S1                 0.0000
     33 ****        -4.9988   2.2389   0.5006 H              1 S1                 0.0000
     34 ****        -5.1460   0.5485   1.0578 H              1 S1                 0.0000
     35 ****        -5.5378   0.9898  -0.6460 H              1 S1                 0.0000
     36 ****         0.7436   2.6350  -2.9230 LP             1 S1                 0.0000
     37 ****         0.3419   1.2856  -3.7502 LP             1 S1                 0.0000
     38 ****        -1.3902  -4.0174  -2.3290 LP             1 S1                 0.0000
     39 ****        -4.0368  -2.1932  -1.0129 LP             1 S1                 0.0000
     40 ****        -5.1464  -1.0099  -0.4057 LP             1 S1                 0.0000
     41 ****        -2.0640   3.6911   0.3851 LP             1 S1                 0.0000
     42 ****        -3.7243   3.2461   0.5980 LP             1 S1                 0.0000
@<TRIPOS>BOND
    1    1    2 1     
    2    1   20 1     
    3    1   21 1     
    4    1   22 1     
    5    2   18 am    
    6    2    3 1     
    7    3    4 1     
    8    3   11 2     
    9    4    5 1     
   10    4   23 1     
   11    5    6 1     
   12    5   24 1     
   13    5   25 1     
   14    6   10 1     
   15    6    7 1     
   16    6   26 1     
   17    7    8 1     
   18    7   27 1     
   19    7   28 1     
   20    8    9 1     
   21    8   29 1     
   22    8   30 1     
   23    9   10 1     
   24    9   31 1     
   25    9   32 1     
   26   11   12 1     
   27   11   14 1     
   28   12   13 3     
   29   14   15 2     
   30   14   16 am    
   31   16   17 1     
   32   16   18 am    
   33   17   33 1     
   34   17   34 1     
   35   17   35 1     
   36   18   19 2     
   37   10   36 1     
   38   10   37 1     
   39   13   38 1     
   40   15   39 1     
   41   15   40 1     
   42   19   41 1     
   43   19   42 1     
@<TRIPOS>SUBSTRUCTURE
      1 S1             1
@<TRIPOS>SET
LONE_PAIRS      STATIC     ATOMS    <user>   **** ""
7 36 37 38 39 40 41 42
DONOR_HYDROGENS      STATIC     ATOMS    <user>   **** ""
1 23
ATOM$BLUE        STATIC     ATOMS    COLORGROUP SYSTEM
7 36 37 38 39 40 41 42
ATOM$RED        STATIC     ATOMS    COLORGROUP SYSTEM
1 23
