AV-unprocessed.smi:3287|AV-procd|sdf|12591|dock7
  -GOLD-   2272018513D 1   1.00000     0.00000
 Structure written by MMmdl.
 43 44  0  0  0  0  0  0  0  0  2 V2000
  149.1351  132.0812  157.1104 C   0  0  0  0  0  0  0  0  0  0  0  0
  150.2083  132.1278  156.0040 C   0  0  1  0  0  0  0  0  0  0  0  0
  149.8520  131.1980  154.8262 C   0  0  0  0  0  0  0  0  0  0  0  0
  148.7025  131.7548  153.9692 C   0  0  0  0  0  0  0  0  0  0  0  0
  149.0186  133.1684  153.4487 C   0  0  1  0  0  0  0  0  0  0  0  0
  147.8764  133.6789  152.6591 N   0  3  0  0  0  0  0  0  0  0  0  0
  146.6155  133.8533  153.4124 C   0  0  0  0  0  0  0  0  0  0  0  0
  145.5458  134.5613  152.5631 C   0  0  2  0  0  0  0  0  0  0  0  0
  144.5581  135.0936  153.4248 O   0  0  0  0  0  0  0  0  0  0  0  0
  144.9481  133.6133  151.5350 C   0  0  0  0  0  0  0  0  0  0  0  0
  145.7826  132.9088  150.6420 C   0  0  0  0  0  0  0  0  0  0  0  0
  145.1872  132.0341  149.7108 C   0  0  0  0  0  0  0  0  0  0  0  0
  143.8547  131.8330  149.6293 N   0  0  0  0  0  0  0  0  0  0  0  0
  143.0603  132.5074  150.4876 C   0  0  0  0  0  0  0  0  0  0  0  0
  143.5539  133.4036  151.4565 C   0  0  0  0  0  0  0  0  0  0  0  0
  149.3653  134.1113  154.6205 C   0  0  0  0  0  0  0  0  0  0  0  0
  150.5186  133.5532  155.4797 C   0  0  1  0  0  0  0  0  0  0  0  0
  150.9298  134.5338  156.5904 C   0  0  0  0  0  0  0  0  0  0  0  0
  148.1894  132.5144  156.7867 H   0  0  0  0  0  0  0  0  0  0  0  0
  149.4576  132.6182  158.0024 H   0  0  0  0  0  0  0  0  0  0  0  0
  148.9370  131.0533  157.4158 H   0  0  0  0  0  0  0  0  0  0  0  0
  151.1242  131.7368  156.4502 H   0  0  0  0  0  0  0  0  0  0  0  0
  150.7321  131.0661  154.1954 H   0  0  0  0  0  0  0  0  0  0  0  0
  149.5953  130.2038  155.1936 H   0  0  0  0  0  0  0  0  0  0  0  0
  148.5211  131.0830  153.1293 H   0  0  0  0  0  0  0  0  0  0  0  0
  147.7807  131.7679  154.5521 H   0  0  0  0  0  0  0  0  0  0  0  0
  149.8825  133.0919  152.7865 H   0  0  0  0  0  0  0  0  0  0  0  0
  148.1323  134.5897  152.3046 H   0  0  0  0  0  0  0  0  0  0  0  0
  146.2437  132.8751  153.7180 H   0  0  0  0  0  0  0  0  0  0  0  0
  146.8087  134.4215  154.3235 H   0  0  0  0  0  0  0  0  0  0  0  0
  146.0012  135.3999  152.0340 H   0  0  0  0  0  0  0  0  0  0  0  0
  144.0409  134.3788  153.7650 H   0  0  0  0  0  0  0  0  0  0  0  0
  146.8554  133.0313  150.6654 H   0  0  0  0  0  0  0  0  0  0  0  0
  145.7982  131.4801  149.0135 H   0  0  0  0  0  0  0  0  0  0  0  0
  141.9990  132.3266  150.4019 H   0  0  0  0  0  0  0  0  0  0  0  0
  142.8733  133.9148  152.1217 H   0  0  0  0  0  0  0  0  0  0  0  0
  149.6537  135.0907  154.2386 H   0  0  0  0  0  0  0  0  0  0  0  0
  148.4829  134.2755  155.2403 H   0  0  0  0  0  0  0  0  0  0  0  0
  151.3849  133.4618  154.8223 H   0  0  0  0  0  0  0  0  0  0  0  0
  150.0989  134.7610  157.2584 H   0  0  0  0  0  0  0  0  0  0  0  0
  151.2743  135.4782  156.1682 H   0  0  0  0  0  0  0  0  0  0  0  0
  151.7438  134.1282  157.1918 H   0  0  0  0  0  0  0  0  0  0  0  0
  147.7171  133.0646  151.8736 H   0  0  0  0  0  0  0  0  0  0  0  0
  1  2  1  0  0  0  0
  1 19  1  0  0  0  0
  1 20  1  0  0  0  0
  1 21  1  0  0  0  0
  2 17  1  0  0  0  0
  2  3  1  0  0  0  0
  2 22  1  0  0  0  0
  3  4  1  0  0  0  0
  3 23  1  0  0  0  0
  3 24  1  0  0  0  0
  4  5  1  0  0  0  0
  4 25  1  0  0  0  0
  4 26  1  0  0  0  0
  5  6  1  0  0  0  0
  5 16  1  0  0  0  0
  5 27  1  0  0  0  0
  6  7  1  0  0  0  0
  6 28  1  0  0  0  0
  6 43  1  0  0  0  0
  7  8  1  0  0  0  0
  7 29  1  0  0  0  0
  7 30  1  0  0  0  0
  8  9  1  0  0  0  0
  8 10  1  0  0  0  0
  8 31  1  0  0  0  0
  9 32  1  0  0  0  0
 10 15  1  0  0  0  0
 10 11  2  0  0  0  0
 11 12  1  0  0  0  0
 11 33  1  0  0  0  0
 12 13  2  0  0  0  0
 12 34  1  0  0  0  0
 13 14  1  0  0  0  0
 14 15  2  0  0  0  0
 14 35  1  0  0  0  0
 15 36  1  0  0  0  0
 16 17  1  0  0  0  0
 16 37  1  0  0  0  0
 16 38  1  0  0  0  0
 17 18  1  0  0  0  0
 17 39  1  0  0  0  0
 18 40  1  0  0  0  0
 18 41  1  0  0  0  0
 18 42  1  0  0  0  0
M  CHG  1   6   1
M  END
> <s_m_source_file>
AV-unprocessed.smi

> <i_m_source_file_index>
3287

> <i_lp_mmshare_version>
43012

> <i_f3d_flags>
0

> <s_epik_input>
W0NIM11bQ0BASF0xW0NIMl1bQ0gyXVtDQEhdKFtDSDJdW0NASF0xW0NIM10pW05IXVtDSDJdW0NASF0oW09IXSljMltjSF1bY0hdbltjSF1bY0hdMg==

> <s_epik_cmdline>
J2VwaWtfcHl0aG9uJywgJy1waCcsICc3LjAnLCAnLXRuJywgJzgnLCAnLW1hJywgJzIwMCcsICctbWV0YWxfYmluZGluZycsICctaW1hZScsICc8aW5maWxlLm1hZT4nLCAnLW9tYWUnLCAnPG91dGZpbGUubWFlPic=

> <r_lp_tautomer_probability>
1

> <r_epik_Ionization_Penalty>
0.00537262

> <r_epik_Ionization_Penalty_Charging>
0.00321624

> <r_epik_Ionization_Penalty_Neutral>
0.00215638

> <r_epik_State_Penalty>
-0

> <r_epik_Charging_Adjusted_Penalty>
0.00321624

> <i_epik_Tot_Q>
1

> <i_epik_Tot_abs_Q>
1

> <r_epik_Metal_State_Penalty>
-0

> <b_epik_Metal_Only>
0

> <s_lp_Force_Field>
OPLS_2005

> <r_lp_Energy>
17.4427

> <b_lp_Chiralities_Consistent>
1

> <s_lp_Variant>
AV-unprocessed.smi:3287-2

> <Gold.Version>
5.8.1

> <Gold.Id.Protein>
6NUR|6NUR_protein|mol2

> <Gold.PLP.Fitness>
44.5098

> <Gold.PLP.PLP>
-32.1706

> <Gold.PLP.part.hbond>
-2.0000

> <Gold.PLP.part.metal>
0.0000

> <Gold.PLP.part.buried>
-2.8175

> <Gold.PLP.part.nonpolar>
-27.8247

> <Gold.PLP.part.repulsive>
0.1998

> <Gold.PLP.ligand.clash>
0.0000

> <Gold.PLP.ligand.torsion>
0.2134

> <Gold.PLP.Chemscore.Hbond>
2.7137

> <Gold.PLP.Chemscore.CHOScore>
1.5269

> <Gold.PLP.Chemscore.Metal>
0.0000

> <Gold.Chemscore.Hbonds>
donor molecule, donor type, donor heavy atom, donor atom, acceptor molecule, acceptor atom, score
      L1  H     6    28       P1  7948  2.00
      P1  H 10785 10796       L1    13  0.82
      L1  C    14    35       P1 10186  0.54
      L1  C    14    35       P1 10952  1.00

> <Gold.PLP.Chemscore.Internal.Correction>
0.0443

> <Gold.Rescore>
     Score         DG    S(hbond)    S(metal)    S(lipo)     H(rot)  DE(clash)    DE(int)     intcor
     15.75     -16.13       1.60        0.00      86.89       1.90       0.13       0.24       ----

> <Gold.Chemscore.Fitness>
15.7492

> <Gold.Chemscore.DG>
-16.1264

> <Gold.Chemscore.ZeroCoef>
-5.4800

> <Gold.Chemscore.Hbond>
1.6029

> <Gold.Chemscore.Metal>
0.0000

> <Gold.Chemscore.Lipo>
86.8851

> <Gold.Chemscore.Internal_Hbond>
0.0000

> <Gold.Chemscore.DEClash>
0.1334

> <Gold.Chemscore.DEInternal>
0.2438

> <Gold.Chemscore.Rot>
1.9035

> <Gold.Chemscore.Internal.Correction>
   9.000000E+99

> <Gold.Chemscore.Hbonds>
donor molecule, donor type, donor heavy atom, donor atom, acceptor molecule, acceptor atom, score
      L1  H     6    28       P1  7948  0.26
      P1  H 10785 10796       L1    13  0.72

> <Gold.Chemscore.Hbond.Weighted>
-5.3537

> <Gold.Chemscore.Metal.Weighted>
-0.0000

> <Gold.Chemscore.Lipo.Weighted>
-10.1656

> <Gold.Chemscore.Internal_Hbond.Weighted>
0.0000

> <Gold.Chemscore.DEClash.Weighted>
0.1334

> <Gold.Chemscore.DEInternal.Weighted>
0.2438

> <Gold.Chemscore.Rot.Weighted>
4.8729

> <Gold.Chemscore.Internal.Correction.Weighted>
   9.000000E+99

> <Gold.Protein.RotatedTorsions>
[ 6907 6896 6895 6894 ] final   41.99 input  -60.11 | X-H torsion
[ 7974 7965 7964 7962 ] final  -18.37 input  175.53 | X-H torsion
[ 8008 7997 7996 7995 ] final   33.17 input   59.86 | X-H torsion
[ 10167 10162 10161 10158 ] final   20.29 input  -65.29 | X-H torsion
[ 10718 10713 10712 10709 ] final  164.01 input   66.30 | X-H torsion
[ 10763 10752 10751 10750 ] final  118.60 input  -60.55 | X-H torsion
[ 11005 11000 10999 10996 ] final  136.53 input  -57.11 | X-H torsion

> <Gold.Protein.ActiveResidues>
 VAL166  LYS551  ARG553  GLY616  TRP617  ASP618  TYR619  PRO620  LYS621  CYS622 
 ASP623  PHE694  ASN695  SER759  ASP760  ASP761  ALA762  ILE779  LEU786  VAL792 
 PHE793  MET794  SER795  GLU796  ALA797  LYS798  CYS799  TRP800  GLU811  SER814 

> <Gold.Protein.RotatedAtoms>
  152.2022  134.8577  160.0506 H   0  0  0  0  0  0  0  0  0  0  0  0  # atno 6907 bound_to 6896
  151.9426  133.3637  159.3979 H   0  0  0  0  0  0  0  0  0  0  0  0  # atno 6908 bound_to 6896
  150.6957  134.4347  159.5308 H   0  0  0  0  0  0  0  0  0  0  0  0  # atno 6909 bound_to 6896
  146.1895  140.3912  142.8463 H   0  0  0  0  0  0  0  0  0  0  0  0  # atno 7974 bound_to 7965
  155.1342  140.3260  155.4467 H   0  0  0  0  0  0  0  0  0  0  0  0  # atno 8008 bound_to 7997
  156.2625  140.2005  156.6409 H   0  0  0  0  0  0  0  0  0  0  0  0  # atno 8009 bound_to 7997
  154.6590  140.0549  157.0027 H   0  0  0  0  0  0  0  0  0  0  0  0  # atno 8010 bound_to 7997
  140.5515  143.9501  150.6581 H   0  0  0  0  0  0  0  0  0  0  0  0  # atno 10167 bound_to 10162
  157.1004  131.0441  151.2500 H   0  0  0  0  0  0  0  0  0  0  0  0  # atno 10718 bound_to 10713
  153.5701  135.3504  155.2834 H   0  0  0  0  0  0  0  0  0  0  0  0  # atno 10763 bound_to 10752
  154.8683  135.4157  154.2735 H   0  0  0  0  0  0  0  0  0  0  0  0  # atno 10764 bound_to 10752
  153.3499  135.7054  153.6867 H   0  0  0  0  0  0  0  0  0  0  0  0  # atno 10765 bound_to 10752
  140.0053  134.9462  157.0160 H   0  0  0  0  0  0  0  0  0  0  0  0  # atno 11005 bound_to 11000
  144.8460  140.6930  143.6199 LP  0  0  0  0  0  0  0  0  0  0  0  0  # atno 17320 bound_to 7965
  145.3836  139.1631  143.4267 LP  0  0  0  0  0  0  0  0  0  0  0  0  # atno 17321 bound_to 7965
  140.2928  143.3313  152.1046 LP  0  0  0  0  0  0  0  0  0  0  0  0  # atno 17342 bound_to 10162
  139.5029  144.6745  151.6163 LP  0  0  0  0  0  0  0  0  0  0  0  0  # atno 17343 bound_to 10162
  157.4645  130.7672  149.7266 LP  0  0  0  0  0  0  0  0  0  0  0  0  # atno 17370 bound_to 10713
  155.9875  130.3966  150.3162 LP  0  0  0  0  0  0  0  0  0  0  0  0  # atno 17371 bound_to 10713
  140.4653  134.1442  155.7196 LP  0  0  0  0  0  0  0  0  0  0  0  0  # atno 17394 bound_to 11000
  141.1672  133.8680  157.1680 LP  0  0  0  0  0  0  0  0  0  0  0  0  # atno 17395 bound_to 11000

$$$$
