AV-unprocessed.smi:753|AV-procd|sdf|3599|dock5
  -GOLD-   22720 0593D 1   1.00000     0.00000
 Structure written by MMmdl.
 43 45  0  0  0  0  0  0  0  0  1 V2000
  145.4172  136.0265  150.6735 C   0  0  0  0  0  0  0  0  0  0  0  0
  145.9564  136.9804  151.7190 C   0  0  0  0  0  0  0  0  0  0  0  0
  145.7358  136.7483  153.0932 C   0  0  0  0  0  0  0  0  0  0  0  0
  146.2554  137.6711  154.0211 C   0  0  0  0  0  0  0  0  0  0  0  0
  146.9738  138.7855  153.5419 C   0  0  0  0  0  0  0  0  0  0  0  0
  147.5452  139.8122  154.4994 C   0  0  0  0  0  0  0  0  0  0  0  0
  147.8699  141.1385  153.7940 C   0  0  0  0  0  0  0  0  0  0  0  0
  148.6237  142.0341  154.6619 N   0  0  0  0  0  0  0  0  0  0  0  0
  149.7689  141.7188  155.2899 C   0  0  0  0  0  0  0  0  0  0  0  0
  150.3085  140.6173  155.2040 O   0  0  0  0  0  0  0  0  0  0  0  0
  150.2951  142.7113  156.0289 N   0  0  0  0  0  0  0  0  0  0  0  0
  151.5235  142.6847  156.8259 C   0  0  2  0  0  0  0  0  0  0  0  0
  151.5321  141.5605  157.8888 C   0  0  0  0  0  0  0  0  0  0  0  0
  151.7291  142.3346  159.2053 C   0  0  1  0  0  0  0  0  0  0  0  0
  153.1540  142.9196  159.2510 C   0  0  0  0  0  0  0  0  0  0  0  0
  153.0884  144.0625  158.2184 C   0  0  0  0  0  0  0  0  0  0  0  0
  151.6446  143.9570  157.6930 C   0  0  2  0  0  0  0  0  0  0  0  0
  150.8858  143.5786  158.9619 C   0  0  0  0  0  0  0  0  0  0  0  0
  147.1389  138.9250  152.1476 C   0  0  0  0  0  0  0  0  0  0  0  0
  146.6433  138.0458  151.2503 N   0  0  0  0  0  0  0  0  0  0  0  0
  144.9226  135.1715  151.1352 H   0  0  0  0  0  0  0  0  0  0  0  0
  146.2268  135.6522  150.0463 H   0  0  0  0  0  0  0  0  0  0  0  0
  144.6937  136.5343  150.0351 H   0  0  0  0  0  0  0  0  0  0  0  0
  145.1802  135.8861  153.4317 H   0  0  0  0  0  0  0  0  0  0  0  0
  146.1018  137.5253  155.0803 H   0  0  0  0  0  0  0  0  0  0  0  0
  146.8319  139.9785  155.3080 H   0  0  0  0  0  0  0  0  0  0  0  0
  148.4444  139.4029  154.9620 H   0  0  0  0  0  0  0  0  0  0  0  0
  148.4695  140.9492  152.9031 H   0  0  0  0  0  0  0  0  0  0  0  0
  146.9544  141.6265  153.4547 H   0  0  0  0  0  0  0  0  0  0  0  0
  148.2536  142.9645  154.7904 H   0  0  0  0  0  0  0  0  0  0  0  0
  149.7839  143.5821  156.0417 H   0  0  0  0  0  0  0  0  0  0  0  0
  152.3827  142.6059  156.1571 H   0  0  0  0  0  0  0  0  0  0  0  0
  150.5858  141.0172  157.9077 H   0  0  0  0  0  0  0  0  0  0  0  0
  152.3257  140.8331  157.7140 H   0  0  0  0  0  0  0  0  0  0  0  0
  151.4612  141.7619  160.0936 H   0  0  0  0  0  0  0  0  0  0  0  0
  153.3824  143.3121  160.2429 H   0  0  0  0  0  0  0  0  0  0  0  0
  153.9125  142.1765  159.0022 H   0  0  0  0  0  0  0  0  0  0  0  0
  153.2546  145.0254  158.7031 H   0  0  0  0  0  0  0  0  0  0  0  0
  153.8315  143.9549  157.4274 H   0  0  0  0  0  0  0  0  0  0  0  0
  151.2987  144.8670  157.2007 H   0  0  0  0  0  0  0  0  0  0  0  0
  149.8305  143.3598  158.7895 H   0  0  0  0  0  0  0  0  0  0  0  0
  150.9716  144.3225  159.7561 H   0  0  0  0  0  0  0  0  0  0  0  0
  147.6790  139.7673  151.7405 H   0  0  0  0  0  0  0  0  0  0  0  0
  1  2  1  0  0  0  0
  1 21  1  0  0  0  0
  1 22  1  0  0  0  0
  1 23  1  0  0  0  0
  2 20  1  0  0  0  0
  2  3  2  0  0  0  0
  3  4  1  0  0  0  0
  3 24  1  0  0  0  0
  4  5  2  0  0  0  0
  4 25  1  0  0  0  0
  5  6  1  0  0  0  0
  5 19  1  0  0  0  0
  6  7  1  0  0  0  0
  6 26  1  0  0  0  0
  6 27  1  0  0  0  0
  7  8  1  0  0  0  0
  7 28  1  0  0  0  0
  7 29  1  0  0  0  0
  8  9  1  0  0  0  0
  8 30  1  0  0  0  0
  9 10  2  0  0  0  0
  9 11  1  0  0  0  0
 11 12  1  0  0  0  0
 11 31  1  0  0  0  0
 12 17  1  0  0  0  0
 12 13  1  0  0  0  0
 12 32  1  0  0  0  0
 13 14  1  0  0  0  0
 13 33  1  0  0  0  0
 13 34  1  0  0  0  0
 14 18  1  0  0  0  0
 14 15  1  0  0  0  0
 14 35  1  0  0  0  0
 15 16  1  0  0  0  0
 15 36  1  0  0  0  0
 15 37  1  0  0  0  0
 16 17  1  0  0  0  0
 16 38  1  0  0  0  0
 16 39  1  0  0  0  0
 17 18  1  0  0  0  0
 17 40  1  0  0  0  0
 18 41  1  0  0  0  0
 18 42  1  0  0  0  0
 19 20  2  0  0  0  0
 19 43  1  0  0  0  0
M  END
> <s_m_source_file>
AV-unprocessed.smi

> <i_m_source_file_index>
753

> <i_lp_mmshare_version>
43012

> <i_f3d_flags>
0

> <s_epik_input>
W0NIM11jMVtjSF1bY0hdYyhbY0hdbjEpW0NIMl1bQ0gyXVtOSF1DKD1PKVtOSF1bQ0BIXShbQ0gyXVtDQEBIXTIzKVtDQEBIXShbQ0gyXTMpW0NIMl1bQ0gyXTI=

> <s_epik_cmdline>
J2VwaWtfcHl0aG9uJywgJy1waCcsICc3LjAnLCAnLXRuJywgJzgnLCAnLW1hJywgJzIwMCcsICctbWV0YWxfYmluZGluZycsICctaW1hZScsICc8aW5maWxlLm1hZT4nLCAnLW9tYWUnLCAnPG91dGZpbGUubWFlPic=

> <r_epik_Ionization_Penalty>
0.0569047

> <r_epik_Ionization_Penalty_Charging>
0

> <r_epik_Ionization_Penalty_Neutral>
0.0569047

> <r_epik_State_Penalty>
0.0490541

> <r_epik_Charging_Adjusted_Penalty>
0.0490541

> <i_epik_Tot_Q>
0

> <i_epik_Tot_abs_Q>
0

> <r_epik_Metal_State_Penalty>
0.0447357

> <b_epik_Metal_Only>
0

> <s_lp_Force_Field>
OPLS_2005

> <r_lp_Energy>
50.812

> <b_lp_Chiralities_Consistent>
1

> <s_lp_Variant>
AV-unprocessed.smi:753-1

> <Gold.Version>
5.8.1

> <Gold.Id.Protein>
6NUR|6NUR_protein|mol2

> <Gold.PLP.Fitness>
47.4410

> <Gold.PLP.PLP>
-35.2157

> <Gold.PLP.part.hbond>
-3.7845

> <Gold.PLP.part.metal>
0.0000

> <Gold.PLP.part.buried>
0.0215

> <Gold.PLP.part.nonpolar>
-33.4318

> <Gold.PLP.part.repulsive>
1.5042

> <Gold.PLP.ligand.clash>
0.0000

> <Gold.PLP.ligand.torsion>
0.3404

> <Gold.PLP.Chemscore.Hbond>
3.3227

> <Gold.PLP.Chemscore.CHOScore>
0.9674

> <Gold.PLP.Chemscore.Metal>
0.0000

> <Gold.Chemscore.Hbonds>
donor molecule, donor type, donor heavy atom, donor atom, acceptor molecule, acceptor atom, score
      L1  H     8    30       P1  8028  0.77
      L1  H    11    31       P1  8028  0.91
      P1  H  7954  7966       L1    20  0.96
      P1  H  7989  7998       L1    10  0.59
      L1  C    19    43       P1  7957  0.92

> <Gold.PLP.Chemscore.Internal.Correction>
0.0360

> <Gold.Rescore>
     Score         DG    S(hbond)    S(metal)    S(lipo)     H(rot)  DE(clash)    DE(int)     intcor
     18.98     -23.97       2.39        0.00     121.08       1.43       3.47       1.51       ----

> <Gold.Chemscore.Fitness>
18.9844

> <Gold.Chemscore.DG>
-23.9663

> <Gold.Chemscore.ZeroCoef>
-5.4800

> <Gold.Chemscore.Hbond>
2.3889

> <Gold.Chemscore.Metal>
0.0000

> <Gold.Chemscore.Lipo>
121.0768

> <Gold.Chemscore.Internal_Hbond>
0.0000

> <Gold.Chemscore.DEClash>
3.4718

> <Gold.Chemscore.DEInternal>
1.5101

> <Gold.Chemscore.Rot>
1.4291

> <Gold.Chemscore.Internal.Correction>
   9.000000E+99

> <Gold.Chemscore.Hbonds>
donor molecule, donor type, donor heavy atom, donor atom, acceptor molecule, acceptor atom, score
      L1  H     8    30       P1  8028  0.70
      L1  H    11    31       P1  8028  0.88
      P1  H  7954  7966       L1    20  0.36
      P1  H  7989  7998       L1    10  0.20

> <Gold.Chemscore.Hbond.Weighted>
-7.9789

> <Gold.Chemscore.Metal.Weighted>
-0.0000

> <Gold.Chemscore.Lipo.Weighted>
-14.1660

> <Gold.Chemscore.Internal_Hbond.Weighted>
0.0000

> <Gold.Chemscore.DEClash.Weighted>
3.4718

> <Gold.Chemscore.DEInternal.Weighted>
1.5101

> <Gold.Chemscore.Rot.Weighted>
3.6585

> <Gold.Chemscore.Internal.Correction.Weighted>
   9.000000E+99

> <Gold.Protein.RotatedTorsions>
[ 6907 6896 6895 6894 ] final   31.71 input  -60.11 | X-H torsion
[ 7974 7965 7964 7962 ] final -145.70 input  175.53 | X-H torsion
[ 8008 7997 7996 7995 ] final   32.83 input   59.86 | X-H torsion
[ 10167 10162 10161 10158 ] final  -17.24 input  -65.29 | X-H torsion
[ 10718 10713 10712 10709 ] final  -61.82 input   66.30 | X-H torsion
[ 10763 10752 10751 10750 ] final  -75.16 input  -60.55 | X-H torsion
[ 11005 11000 10999 10996 ] final   29.90 input  -57.11 | X-H torsion

> <Gold.Protein.ActiveResidues>
 VAL166  LYS551  ARG553  GLY616  TRP617  ASP618  TYR619  PRO620  LYS621  CYS622 
 ASP623  PHE694  ASN695  SER759  ASP760  ASP761  ALA762  ILE779  LEU786  VAL792 
 PHE793  MET794  SER795  GLU796  ALA797  LYS798  CYS799  TRP800  GLU811  SER814 

> <Gold.Protein.RotatedAtoms>
  152.0642  134.9575  160.0574 H   0  0  0  0  0  0  0  0  0  0  0  0  # atno 6907 bound_to 6896
  152.0927  133.4204  159.4559 H   0  0  0  0  0  0  0  0  0  0  0  0  # atno 6908 bound_to 6896
  150.6837  134.2773  159.4656 H   0  0  0  0  0  0  0  0  0  0  0  0  # atno 6909 bound_to 6896
  144.8209  140.5550  143.5579 H   0  0  0  0  0  0  0  0  0  0  0  0  # atno 7974 bound_to 7965
  155.1287  140.3255  155.4479 H   0  0  0  0  0  0  0  0  0  0  0  0  # atno 8008 bound_to 7997
  156.2641  140.2014  156.6356 H   0  0  0  0  0  0  0  0  0  0  0  0  # atno 8009 bound_to 7997
  154.6628  140.0545  157.0068 H   0  0  0  0  0  0  0  0  0  0  0  0  # atno 8010 bound_to 7997
  140.7244  143.5035  150.9839 H   0  0  0  0  0  0  0  0  0  0  0  0  # atno 10167 bound_to 10162
  156.0896  130.4202  150.1048 H   0  0  0  0  0  0  0  0  0  0  0  0  # atno 10718 bound_to 10713
  154.4828  135.5840  153.6402 H   0  0  0  0  0  0  0  0  0  0  0  0  # atno 10763 bound_to 10752
  152.9850  135.6094  154.3224 H   0  0  0  0  0  0  0  0  0  0  0  0  # atno 10764 bound_to 10752
  154.3117  135.2845  155.2542 H   0  0  0  0  0  0  0  0  0  0  0  0  # atno 10765 bound_to 10752
  140.3001  134.2766  155.7756 H   0  0  0  0  0  0  0  0  0  0  0  0  # atno 11005 bound_to 11000
  145.5106  139.1479  143.3607 LP  0  0  0  0  0  0  0  0  0  0  0  0  # atno 17320 bound_to 7965
  146.2515  140.5247  142.8891 LP  0  0  0  0  0  0  0  0  0  0  0  0  # atno 17321 bound_to 7965
  139.8745  143.7150  152.3163 LP  0  0  0  0  0  0  0  0  0  0  0  0  # atno 17342 bound_to 10162
  139.7410  144.7559  151.0652 LP  0  0  0  0  0  0  0  0  0  0  0  0  # atno 17343 bound_to 10162
  156.9061  130.9636  151.3569 LP  0  0  0  0  0  0  0  0  0  0  0  0  # atno 17370 bound_to 10713
  157.6041  130.8534  149.8848 LP  0  0  0  0  0  0  0  0  0  0  0  0  # atno 17371 bound_to 10713
  141.2130  133.7641  156.9754 LP  0  0  0  0  0  0  0  0  0  0  0  0  # atno 17394 bound_to 11000
  140.1117  134.9473  157.2075 LP  0  0  0  0  0  0  0  0  0  0  0  0  # atno 17395 bound_to 11000

$$$$
