#       Name:                AV-unprocessed.smi:2500
#       Creating user name   scv26
#       Creation time:       Fri Mar 27 13:46:51 2020


#       File generated by GOLD software.
#

@<TRIPOS>MOLECULE
AV-unprocessed.smi:2500
    43    44     1
SMALL
NO_CHARGES


@<TRIPOS>ATOM
      1 ****        -6.0623   1.7802  -0.2057 C.3            1 S1                 0.0000
      2 ****        -4.6150   1.8650  -0.3240 N.am           1 S1                 0.0000
      3 ****        -3.9456   2.9665  -0.7017 C.2            1 S1                 0.0000
      4 ****        -4.5055   4.0258  -0.9881 O.2            1 S1                 0.0000
      5 ****        -2.4464   2.8344  -0.7814 C.ar           1 S1                 0.0000
      6 ****        -1.6713   3.8839  -1.3232 C.ar           1 S1                 0.0000
      7 ****        -0.2746   3.7314  -1.3831 C.ar           1 S1                 0.0000
      8 ****         0.3016   2.5417  -0.9013 C.ar           1 S1                 0.0000
      9 ****        -0.5335   1.5354  -0.3703 C.ar           1 S1                 0.0000
     10 ****         0.1386   0.3726   0.0889 N.am           1 S1                 0.0000
     11 ****        -0.3928  -0.7408   0.6328 C.2            1 S1                 0.0000
     12 ****        -1.5940  -0.9197   0.8285 O.2            1 S1                 0.0000
     13 ****         0.5114  -1.6847   0.9556 N.am           1 S1                 0.0000
     14 ****         0.2854  -3.0010   1.5575 C.3            1 S1                 0.0000
     15 ****         0.0889  -2.8803   3.0638 C.2            1 S1                 0.0000
     16 ****         0.6654  -3.6991   3.9602 C.2            1 S1                 0.0000
     17 ****         1.5740  -4.8527   3.5778 C.3            1 S1                 0.0000
     18 ****         1.4743  -5.1976   2.0815 C.3            1 S1                 0.0000
     19 ****         1.4643  -3.9343   1.2075 C.3            1 S1                 0.0000
     20 ****        -1.8781   1.6948  -0.3175 N.ar           1 S1                 0.0000
     21 ****        -6.3521   0.7742   0.0979 H              1 S1                 0.0000
     22 ****        -6.5431   2.0001  -1.1598 H              1 S1                 0.0000
     23 ****        -6.4328   2.4831   0.5416 H              1 S1                 0.0000
     24 ****        -4.0794   1.0359  -0.1081 H              1 S1                 0.0000
     25 ****        -2.1298   4.7913  -1.6894 H              1 S1                 0.0000
     26 ****         0.3460   4.5147  -1.7926 H              1 S1                 0.0000
     27 ****         1.3729   2.4076  -0.9408 H              1 S1                 0.0000
     28 ****         1.1426   0.3823  -0.0134 H              1 S1                 0.0000
     29 ****         1.4745  -1.4648   0.7469 H              1 S1                 0.0000
     30 ****        -0.6245  -3.4428   1.1482 H              1 S1                 0.0000
     31 ****        -0.5534  -2.0848   3.4131 H              1 S1                 0.0000
     32 ****         0.4973  -3.5411   5.0154 H              1 S1                 0.0000
     33 ****         2.5972  -4.5768   3.8346 H              1 S1                 0.0000
     34 ****         1.3198  -5.7268   4.1777 H              1 S1                 0.0000
     35 ****         2.2994  -5.8504   1.7952 H              1 S1                 0.0000
     36 ****         0.5587  -5.7620   1.9001 H              1 S1                 0.0000
     37 ****         1.4223  -4.2075   0.1524 H              1 S1                 0.0000
     38 ****         2.4094  -3.4073   1.3503 H              1 S1                 0.0000
     39 ****        -5.5024   4.0921  -0.9446 LP             1 S1                 0.0000
     40 ****        -3.9631   4.8193  -1.2640 LP             1 S1                 0.0000
     41 ****        -2.2525  -0.2099   0.5785 LP             1 S1                 0.0000
     42 ****        -1.9120  -1.7750   1.2376 LP             1 S1                 0.0000
     43 ****        -2.4520   0.9704   0.0644 LP             1 S1                 0.0000
@<TRIPOS>BOND
    1    1    2 1     
    2    1   21 1     
    3    1   22 1     
    4    1   23 1     
    5    2    3 am    
    6    2   24 1     
    7    3    4 2     
    8    3    5 1     
    9    5   20 ar    
   10    5    6 ar    
   11    6    7 ar    
   12    6   25 1     
   13    7    8 ar    
   14    7   26 1     
   15    8    9 ar    
   16    8   27 1     
   17    9   10 1     
   18    9   20 ar    
   19   10   11 am    
   20   10   28 1     
   21   11   12 2     
   22   11   13 am    
   23   13   14 1     
   24   13   29 1     
   25   14   19 1     
   26   14   15 1     
   27   14   30 1     
   28   15   16 2     
   29   15   31 1     
   30   16   17 1     
   31   16   32 1     
   32   17   18 1     
   33   17   33 1     
   34   17   34 1     
   35   18   19 1     
   36   18   35 1     
   37   18   36 1     
   38   19   37 1     
   39   19   38 1     
   40    4   39 1     
   41    4   40 1     
   42   12   41 1     
   43   12   42 1     
   44   20   43 1     
@<TRIPOS>SUBSTRUCTURE
      1 S1             1
@<TRIPOS>SET
LONE_PAIRS      STATIC     ATOMS    <user>   **** ""
5 39 40 41 42 43
DONOR_HYDROGENS      STATIC     ATOMS    <user>   **** ""
3 24 28 29
ATOM$BLUE        STATIC     ATOMS    COLORGROUP SYSTEM
5 39 40 41 42 43
ATOM$RED        STATIC     ATOMS    COLORGROUP SYSTEM
3 24 28 29
