#       Name:                AV-unprocessed.smi:2198
#       Creating user name   scv26
#       Creation time:       Fri Mar 27 12:12:54 2020


#       File generated by GOLD software.
#

@<TRIPOS>MOLECULE
AV-unprocessed.smi:2198
    48    49     1
SMALL
NO_CHARGES


@<TRIPOS>ATOM
      1 ****        -6.6937  -0.9581  -1.0448 C.3            1 S1                 0.0000
      2 ****        -5.1905  -0.7797  -1.0744 C.2            1 S1                 0.0000
      3 ****        -4.6010   0.3223  -1.4042 N.2            1 S1                 0.0000
      4 ****        -3.1999   0.3668  -1.3919 C.2            1 S1                 0.0000
      5 ****        -2.5817   1.6964  -1.7887 C.3            1 S1                 0.0000
      6 ****        -2.4522  -0.7209  -1.0426 C.2            1 S1                 0.0000
      7 ****        -0.9246  -0.7011  -1.0146 C.3            1 S1                 0.0000
      8 ****        -0.2876  -0.0723   0.2271 C.2            1 S1                 0.0000
      9 ****        -0.8752  -0.0942   1.3088 O.2            1 S1                 0.0000
     10 ****         0.9186   0.4884   0.0533 N.am           1 S1                 0.0000
     11 ****         1.7040   1.1558   1.0901 C.3            1 S1                 0.0000
     12 ****         2.6728   2.1704   0.4532 C.3            1 S1                 0.0000
     13 ****         3.8197   1.4804  -0.3053 C.3            1 S1                 0.0000
     14 ****         4.5696   0.4892   0.5981 C.3            1 S1                 0.0000
     15 ****         3.6157  -0.5568   1.2059 C.3            1 S1                 0.0000
     16 ****         4.3693  -1.5431   2.1093 C.3            1 S1                 0.0000
     17 ****         2.4667   0.1379   1.9663 C.3            1 S1                 0.0000
     18 ****        -3.1356  -1.9743  -0.6690 C.2            1 S1                 0.0000
     19 ****        -2.5618  -3.0098  -0.3352 O.2            1 S1                 0.0000
     20 ****        -4.4860  -1.9257  -0.7098 N.am           1 S1                 0.0000
     21 ****        -4.9999  -2.7583  -0.4610 H              1 S1                 0.0000
     22 ****        -7.1393  -0.2695  -0.3269 H              1 S1                 0.0000
     23 ****        -6.9734  -1.9738  -0.7619 H              1 S1                 0.0000
     24 ****        -7.1160  -0.7498  -2.0279 H              1 S1                 0.0000
     25 ****        -1.9898   1.5872  -2.6975 H              1 S1                 0.0000
     26 ****        -1.9352   2.0730  -0.9960 H              1 S1                 0.0000
     27 ****        -3.3484   2.4488  -1.9782 H              1 S1                 0.0000
     28 ****        -0.5254  -1.7098  -1.1251 H              1 S1                 0.0000
     29 ****        -0.5728  -0.1664  -1.8975 H              1 S1                 0.0000
     30 ****         1.3244   0.4556  -0.8706 H              1 S1                 0.0000
     31 ****         1.0150   1.7135   1.7270 H              1 S1                 0.0000
     32 ****         2.1321   2.8418  -0.2150 H              1 S1                 0.0000
     33 ****         3.0957   2.7996   1.2374 H              1 S1                 0.0000
     34 ****         3.4252   0.9555  -1.1762 H              1 S1                 0.0000
     35 ****         4.5133   2.2295  -0.6883 H              1 S1                 0.0000
     36 ****         5.3516  -0.0079   0.0232 H              1 S1                 0.0000
     37 ****         5.0741   1.0362   1.3959 H              1 S1                 0.0000
     38 ****         3.1823  -1.1334   0.3875 H              1 S1                 0.0000
     39 ****         4.8329  -1.0329   2.9541 H              1 S1                 0.0000
     40 ****         5.1571  -2.0573   1.5581 H              1 S1                 0.0000
     41 ****         3.6965  -2.3031   2.5075 H              1 S1                 0.0000
     42 ****         2.8759   0.6584   2.8332 H              1 S1                 0.0000
     43 ****         1.7765  -0.6070   2.3646 H              1 S1                 0.0000
     44 ****        -5.1341   1.1277  -1.6631 LP             1 S1                 0.0000
     45 ****        -1.7749  -0.5249   1.3805 LP             1 S1                 0.0000
     46 ****        -0.4528   0.3186   2.1158 LP             1 S1                 0.0000
     47 ****        -1.5627  -3.0400  -0.3037 LP             1 S1                 0.0000
     48 ****        -3.0943  -3.8215  -0.0952 LP             1 S1                 0.0000
@<TRIPOS>BOND
    1    1    2 1     
    2    1   22 1     
    3    1   23 1     
    4    1   24 1     
    5    2   20 1     
    6    2    3 2     
    7    3    4 1     
    8    4    5 1     
    9    4    6 2     
   10    5   25 1     
   11    5   26 1     
   12    5   27 1     
   13    6    7 1     
   14    6   18 1     
   15    7    8 1     
   16    7   28 1     
   17    7   29 1     
   18    8    9 2     
   19    8   10 am    
   20   10   11 1     
   21   10   30 1     
   22   11   17 1     
   23   11   12 1     
   24   11   31 1     
   25   12   13 1     
   26   12   32 1     
   27   12   33 1     
   28   13   14 1     
   29   13   34 1     
   30   13   35 1     
   31   14   15 1     
   32   14   36 1     
   33   14   37 1     
   34   15   16 1     
   35   15   17 1     
   36   15   38 1     
   37   16   39 1     
   38   16   40 1     
   39   16   41 1     
   40   17   42 1     
   41   17   43 1     
   42   18   19 2     
   43   18   20 am    
   44   20   21 1     
   45    3   44 1     
   46    9   45 1     
   47    9   46 1     
   48   19   47 1     
   49   19   48 1     
@<TRIPOS>SUBSTRUCTURE
      1 S1             1
@<TRIPOS>SET
LONE_PAIRS      STATIC     ATOMS    <user>   **** ""
5 44 45 46 47 48
DONOR_HYDROGENS      STATIC     ATOMS    <user>   **** ""
2 30 21
ATOM$BLUE        STATIC     ATOMS    COLORGROUP SYSTEM
5 44 45 46 47 48
ATOM$RED        STATIC     ATOMS    COLORGROUP SYSTEM
2 30 21
