#       Name:                AV-unprocessed.smi:1607
#       Creating user name   scv26
#       Creation time:       Fri Mar 27 07:12:04 2020


#       File generated by GOLD software.
#

@<TRIPOS>MOLECULE
AV-unprocessed.smi:1607
    44    45     1
SMALL
NO_CHARGES


@<TRIPOS>ATOM
      1 ****        -0.8329   3.8199  -1.1061 C.3            1 S1                 0.0000
      2 ****        -1.9214   3.2456  -0.1824 C.3            1 S1                 0.0000
      3 ****        -3.2323   2.9314  -0.9271 C.3            1 S1                 0.0000
      4 ****        -3.0954   1.6681  -1.7888 C.3            1 S1                 0.0000
      5 ****        -2.5785   0.4842  -0.9560 C.3            1 S1                 0.0000
      6 ****        -1.2931   0.8186  -0.2903 N.4            1 S1                 1.0000
      7 ****        -0.6893  -0.3547   0.3902 C.3            1 S1                 0.0000
      8 ****         0.8334  -0.2047   0.5768 C.3            1 S1                 0.0000
      9 ****         1.4181  -1.3865   1.2001 N.am           1 S1                 0.0000
     10 ****         1.7036  -2.5304   0.5588 C.2            1 S1                 0.0000
     11 ****         1.4821  -2.7040  -0.6396 O.2            1 S1                 0.0000
     12 ****         2.3332  -3.6474   1.3941 C.3            1 S1                 0.0000
     13 ****         3.6299  -4.0310   0.8672 N.pl3          1 S1                 0.0000
     14 ****         4.8298  -3.4590   0.9866 C.2            1 S1                 0.0000
     15 ****         5.7630  -4.1396   0.3389 N.2            1 S1                 0.0000
     16 ****         5.0576  -5.1990  -0.2070 N.2            1 S1                 0.0000
     17 ****         3.7917  -5.1402   0.1035 N.2            1 S1                 0.0000
     18 ****        -1.4307   2.0070   0.5952 C.3            1 S1                 0.0000
     19 ****        -0.5230   3.1033  -1.8667 H              1 S1                 0.0000
     20 ****         0.0546   4.0990  -0.5374 H              1 S1                 0.0000
     21 ****        -1.1864   4.7153  -1.6183 H              1 S1                 0.0000
     22 ****        -2.1435   4.0238   0.5491 H              1 S1                 0.0000
     23 ****        -4.0302   2.7795  -0.1989 H              1 S1                 0.0000
     24 ****        -3.5378   3.7790  -1.5417 H              1 S1                 0.0000
     25 ****        -4.0595   1.4163  -2.2318 H              1 S1                 0.0000
     26 ****        -2.4177   1.8564  -2.6219 H              1 S1                 0.0000
     27 ****        -3.3161   0.1995  -0.2039 H              1 S1                 0.0000
     28 ****        -2.4447  -0.3773  -1.6115 H              1 S1                 0.0000
     29 ****        -1.1844  -0.5242   1.3476 H              1 S1                 0.0000
     30 ****        -0.8740  -1.2451  -0.2124 H              1 S1                 0.0000
     31 ****         1.3188  -0.0112  -0.3815 H              1 S1                 0.0000
     32 ****         1.0658   0.6446   1.2180 H              1 S1                 0.0000
     33 ****         1.6322  -1.3269   2.1854 H              1 S1                 0.0000
     34 ****         2.4589  -3.3345   2.4319 H              1 S1                 0.0000
     35 ****         1.6719  -4.5151   1.3971 H              1 S1                 0.0000
     36 ****         5.0175  -2.5513   1.5411 H              1 S1                 0.0000
     37 ****        -0.4822   2.2406   1.0777 H              1 S1                 0.0000
     38 ****        -2.1340   1.7732   1.3963 H              1 S1                 0.0000
     39 ****        -0.6555   1.0754  -1.0305 H              1 S1                 0.0000
     40 ****         1.0702  -1.9725  -1.1831 LP             1 S1                 0.0000
     41 ****         1.7141  -3.5764  -1.0697 LP             1 S1                 0.0000
     42 ****         6.7394  -3.9377   0.2625 LP             1 S1                 0.0000
     43 ****         5.4669  -5.9183  -0.7684 LP             1 S1                 0.0000
     44 ****         3.0793  -5.7870  -0.1687 LP             1 S1                 0.0000
@<TRIPOS>BOND
    1    1    2 1     
    2    1   19 1     
    3    1   20 1     
    4    1   21 1     
    5    2   18 1     
    6    2    3 1     
    7    2   22 1     
    8    3    4 1     
    9    3   23 1     
   10    3   24 1     
   11    4    5 1     
   12    4   25 1     
   13    4   26 1     
   14    5    6 1     
   15    5   27 1     
   16    5   28 1     
   17    6    7 1     
   18    6   18 1     
   19    6   39 1     
   20    7    8 1     
   21    7   29 1     
   22    7   30 1     
   23    8    9 1     
   24    8   31 1     
   25    8   32 1     
   26    9   10 am    
   27    9   33 1     
   28   10   11 2     
   29   10   12 1     
   30   12   13 1     
   31   12   34 1     
   32   12   35 1     
   33   13   17 1     
   34   13   14 1     
   35   14   15 2     
   36   14   36 1     
   37   15   16 1     
   38   16   17 2     
   39   18   37 1     
   40   18   38 1     
   41   11   40 1     
   42   11   41 1     
   43   15   42 1     
   44   16   43 1     
   45   17   44 1     
@<TRIPOS>SUBSTRUCTURE
      1 S1             1
@<TRIPOS>SET
LONE_PAIRS      STATIC     ATOMS    <user>   **** ""
5 40 41 42 43 44
DONOR_HYDROGENS      STATIC     ATOMS    <user>   **** ""
2 39 33
ATOM$BLUE        STATIC     ATOMS    COLORGROUP SYSTEM
5 40 41 42 43 44
ATOM$RED        STATIC     ATOMS    COLORGROUP SYSTEM
2 39 33
