AV-unprocessed.smi:1005|AV-procd|sdf|4385|dock1
  -GOLD-   22720 2313D 1   1.00000     0.00000
 Structure written by MMmdl.
 58 60  0  0  0  0  0  0  0  0  4 V2000
  152.1987  143.7550  160.0346 C   0  0  0  0  0  0  0  0  0  0  0  0
  151.9041  142.7726  158.9139 C   0  0  0  0  0  0  0  0  0  0  0  0
  150.9682  143.1431  157.9216 C   0  0  0  0  0  0  0  0  0  0  0  0
  150.7178  142.2230  156.9106 C   0  0  0  0  0  0  0  0  0  0  0  0
  149.8676  142.2862  155.8044 N   0  3  0  0  0  0  0  0  0  0  0  0
  149.9619  141.1298  155.0911 C   0  0  0  0  0  0  0  0  0  0  0  0
  150.8561  140.3263  155.7300 N   0  0  0  0  0  0  0  0  0  0  0  0
  151.3263  138.9760  155.3921 C   0  0  0  0  0  0  0  0  0  0  0  0
  150.1833  138.0296  154.9740 C   0  0  1  0  0  0  0  0  0  0  0  0
  149.7123  138.4079  153.6949 O   0  0  0  0  0  0  0  0  0  0  0  0
  150.6491  136.5611  154.9164 C   0  0  0  0  0  0  0  0  0  0  0  0
  149.5917  135.6434  154.4191 N   0  3  2  0  0  0  0  0  0  0  0  0
  148.2574  135.8898  155.0192 C   0  0  0  0  0  0  0  0  0  0  0  0
  147.2176  134.9282  154.4225 C   0  0  0  0  0  0  0  0  0  0  0  0
  147.6432  133.5853  154.6204 O   0  0  0  0  0  0  0  0  0  0  0  0
  148.8744  133.3008  153.9653 C   0  0  2  0  0  0  0  0  0  0  0  0
  149.1703  131.8027  154.1796 C   0  0  0  0  0  0  0  0  0  0  0  0
  148.5037  130.9193  153.1872 N   0  3  0  0  0  0  0  0  0  0  0  0
  148.8003  129.4900  153.4312 C   0  0  0  0  0  0  0  0  0  0  0  0
  147.0457  131.1568  153.0725 C   0  0  0  0  0  0  0  0  0  0  0  0
  149.9667  134.2156  154.5600 C   0  0  0  0  0  0  0  0  0  0  0  0
  151.3599  140.9705  156.8651 C   0  0  0  0  0  0  0  0  0  0  0  0
  152.2877  140.5909  157.8319 C   0  0  0  0  0  0  0  0  0  0  0  0
  152.5575  141.5136  158.8678 C   0  0  0  0  0  0  0  0  0  0  0  0
  153.5660  141.1280  159.9368 C   0  0  0  0  0  0  0  0  0  0  0  0
  151.5960  144.6589  159.9417 H   0  0  0  0  0  0  0  0  0  0  0  0
  153.2480  144.0507  160.0179 H   0  0  0  0  0  0  0  0  0  0  0  0
  151.9792  143.3081  161.0047 H   0  0  0  0  0  0  0  0  0  0  0  0
  150.4694  144.1010  157.9491 H   0  0  0  0  0  0  0  0  0  0  0  0
  149.4219  140.8931  154.1852 H   0  0  0  0  0  0  0  0  0  0  0  0
  152.0531  139.0754  154.5844 H   0  0  0  0  0  0  0  0  0  0  0  0
  151.8700  138.5775  156.2497 H   0  0  0  0  0  0  0  0  0  0  0  0
  149.3632  138.1386  155.6825 H   0  0  0  0  0  0  0  0  0  0  0  0
  149.5364  137.6239  153.1962 H   0  0  0  0  0  0  0  0  0  0  0  0
  151.5216  136.5018  154.2633 H   0  0  0  0  0  0  0  0  0  0  0  0
  150.9835  136.2267  155.8999 H   0  0  0  0  0  0  0  0  0  0  0  0
  148.3101  135.7552  156.1008 H   0  0  0  0  0  0  0  0  0  0  0  0
  147.9387  136.9161  154.8408 H   0  0  0  0  0  0  0  0  0  0  0  0
  146.2530  135.0683  154.9110 H   0  0  0  0  0  0  0  0  0  0  0  0
  147.0674  135.1248  153.3598 H   0  0  0  0  0  0  0  0  0  0  0  0
  148.7512  133.5083  152.9020 H   0  0  0  0  0  0  0  0  0  0  0  0
  150.2506  131.6575  154.1282 H   0  0  0  0  0  0  0  0  0  0  0  0
  148.8726  131.4989  155.1845 H   0  0  0  0  0  0  0  0  0  0  0  0
  148.4094  129.1694  154.3978 H   0  0  0  0  0  0  0  0  0  0  0  0
  149.8757  129.3084  153.4188 H   0  0  0  0  0  0  0  0  0  0  0  0
  148.3542  128.8643  152.6571 H   0  0  0  0  0  0  0  0  0  0  0  0
  146.5433  130.9747  154.0238 H   0  0  0  0  0  0  0  0  0  0  0  0
  146.6072  130.4928  152.3268 H   0  0  0  0  0  0  0  0  0  0  0  0
  146.8281  132.1772  152.7598 H   0  0  0  0  0  0  0  0  0  0  0  0
  150.9141  134.0382  154.0496 H   0  0  0  0  0  0  0  0  0  0  0  0
  150.1222  133.9843  155.6152 H   0  0  0  0  0  0  0  0  0  0  0  0
  152.7852  139.6331  157.7967 H   0  0  0  0  0  0  0  0  0  0  0  0
  153.9958  140.1445  159.7443 H   0  0  0  0  0  0  0  0  0  0  0  0
  153.0911  141.0981  160.9178 H   0  0  0  0  0  0  0  0  0  0  0  0
  154.3845  141.8474  159.9697 H   0  0  0  0  0  0  0  0  0  0  0  0
  148.9078  131.1334  152.2865 H   0  0  0  0  0  0  0  0  0  0  0  0
  149.5096  135.8195  153.4275 H   0  0  0  0  0  0  0  0  0  0  0  0
  149.2685  143.0617  155.5506 H   0  0  0  0  0  0  0  0  0  0  0  0
  1  2  1  0  0  0  0
  1 26  1  0  0  0  0
  1 27  1  0  0  0  0
  1 28  1  0  0  0  0
  2 24  1  0  0  0  0
  2  3  2  0  0  0  0
  3  4  1  0  0  0  0
  3 29  1  0  0  0  0
  4 22  2  0  0  0  0
  4  5  1  0  0  0  0
  5  6  2  0  0  0  0
  5 58  1  0  0  0  0
  6  7  1  0  0  0  0
  6 30  1  0  0  0  0
  7  8  1  0  0  0  0
  7 22  1  0  0  0  0
  8  9  1  0  0  0  0
  8 31  1  0  0  0  0
  8 32  1  0  0  0  0
  9 10  1  0  0  0  0
  9 11  1  0  0  0  0
  9 33  1  0  0  0  0
 10 34  1  0  0  0  0
 11 12  1  0  0  0  0
 11 35  1  0  0  0  0
 11 36  1  0  0  0  0
 12 21  1  0  0  0  0
 12 13  1  0  0  0  0
 12 57  1  0  0  0  0
 13 14  1  0  0  0  0
 13 37  1  0  0  0  0
 13 38  1  0  0  0  0
 14 15  1  0  0  0  0
 14 39  1  0  0  0  0
 14 40  1  0  0  0  0
 15 16  1  0  0  0  0
 16 17  1  0  0  0  0
 16 21  1  0  0  0  0
 16 41  1  0  0  0  0
 17 18  1  0  0  0  0
 17 42  1  0  0  0  0
 17 43  1  0  0  0  0
 18 19  1  0  0  0  0
 18 20  1  0  0  0  0
 18 56  1  0  0  0  0
 19 44  1  0  0  0  0
 19 45  1  0  0  0  0
 19 46  1  0  0  0  0
 20 47  1  0  0  0  0
 20 48  1  0  0  0  0
 20 49  1  0  0  0  0
 21 50  1  0  0  0  0
 21 51  1  0  0  0  0
 22 23  1  0  0  0  0
 23 24  2  0  0  0  0
 23 52  1  0  0  0  0
 24 25  1  0  0  0  0
 25 53  1  0  0  0  0
 25 54  1  0  0  0  0
 25 55  1  0  0  0  0
M  CHG  1   5   1
M  CHG  1  12   1
M  CHG  1  18   1
M  END
> <s_m_source_file>
AV-unprocessed.smi

> <i_m_source_file_index>
1005

> <i_lp_mmshare_version>
43012

> <i_f3d_flags>
0

> <s_epik_input>
W0NIM11jKFtjSF0xKWMoW0NIM10pW2NIXWMoYzEyKW4oW2NIXW4yKVtDSDJdW0NASF0oW09IXSlbQ0gyXU4zW0NIMl1bQ0gyXU9bQ0BIXShbQ0gyXTMpW0NIMl1OKFtDSDNdKVtDSDNd

> <s_epik_cmdline>
J2VwaWtfcHl0aG9uJywgJy1waCcsICc3LjAnLCAnLXRuJywgJzgnLCAnLW1hJywgJzIwMCcsICctbWV0YWxfYmluZGluZycsICctaW1hZScsICc8aW5maWxlLm1hZT4nLCAnLW9tYWUnLCAnPG91dGZpbGUubWFlPic=

> <r_epik_Ionization_Penalty>
2.30802

> <r_epik_Ionization_Penalty_Charging>
2.30798

> <r_epik_Ionization_Penalty_Neutral>
3.4851e-05

> <r_epik_State_Penalty>
2.52618

> <r_epik_Charging_Adjusted_Penalty>
4.83416

> <i_epik_Tot_Q>
3

> <i_epik_Tot_abs_Q>
3

> <r_epik_Metal_State_Penalty>
6.53149

> <b_epik_Metal_Only>
0

> <s_lp_Force_Field>
OPLS_2005

> <r_lp_Energy>
43.2019

> <b_lp_Chiralities_Consistent>
1

> <s_lp_Variant>
AV-unprocessed.smi:1005-24

> <Gold.Version>
5.8.1

> <Gold.Id.Protein>
6NUR|6NUR_protein|mol2

> <Gold.PLP.Fitness>
65.0790

> <Gold.PLP.PLP>
-47.9814

> <Gold.PLP.part.hbond>
-5.0360

> <Gold.PLP.part.metal>
0.0000

> <Gold.PLP.part.buried>
-4.8276

> <Gold.PLP.part.nonpolar>
-39.3416

> <Gold.PLP.part.repulsive>
0.2504

> <Gold.PLP.ligand.clash>
0.0000

> <Gold.PLP.ligand.torsion>
0.6435

> <Gold.PLP.Chemscore.Hbond>
6.0000

> <Gold.PLP.Chemscore.CHOScore>
0.0000

> <Gold.PLP.Chemscore.Metal>
0.0000

> <Gold.Chemscore.Hbonds>
donor molecule, donor type, donor heavy atom, donor atom, acceptor molecule, acceptor atom, score
      L1  H     5    58       P1  8028  2.00
      L1  H    10    34       P1  7948  1.00
      L1  H    12    57       P1  7948  2.00
      L1  H    18    56       P1 10747  1.00

> <Gold.PLP.Chemscore.Internal.Correction>
0.3846

> <Gold.Rescore>
     Score         DG    S(hbond)    S(metal)    S(lipo)     H(rot)  DE(clash)    DE(int)     intcor
     23.48     -25.12       3.73        0.00     117.35       2.56       0.02       1.62       ----

> <Gold.Chemscore.Fitness>
23.4831

> <Gold.Chemscore.DG>
-25.1210

> <Gold.Chemscore.ZeroCoef>
-5.4800

> <Gold.Chemscore.Hbond>
3.7293

> <Gold.Chemscore.Metal>
0.0000

> <Gold.Chemscore.Lipo>
117.3500

> <Gold.Chemscore.Internal_Hbond>
0.0000

> <Gold.Chemscore.DEClash>
0.0174

> <Gold.Chemscore.DEInternal>
1.6205

> <Gold.Chemscore.Rot>
2.5566

> <Gold.Chemscore.Internal.Correction>
   9.000000E+99

> <Gold.Chemscore.Hbonds>
donor molecule, donor type, donor heavy atom, donor atom, acceptor molecule, acceptor atom, score
      L1  H     5    58       P1  8028  0.94
      L1  H    10    34       P1  7948  0.83
      L1  H    12    57       P1  7948  0.26
      L1  H    18    56       P1 10747  0.60

> <Gold.Chemscore.Hbond.Weighted>
-12.4560

> <Gold.Chemscore.Metal.Weighted>
-0.0000

> <Gold.Chemscore.Lipo.Weighted>
-13.7300

> <Gold.Chemscore.Internal_Hbond.Weighted>
0.0000

> <Gold.Chemscore.DEClash.Weighted>
0.0174

> <Gold.Chemscore.DEInternal.Weighted>
1.6205

> <Gold.Chemscore.Rot.Weighted>
6.5450

> <Gold.Chemscore.Internal.Correction.Weighted>
   9.000000E+99

> <Gold.Protein.RotatedTorsions>
[ 6907 6896 6895 6894 ] final   96.93 input  -60.11 | X-H torsion
[ 7974 7965 7964 7962 ] final -111.93 input  175.53 | X-H torsion
[ 8008 7997 7996 7995 ] final  176.17 input   59.86 | X-H torsion
[ 10167 10162 10161 10158 ] final   98.03 input  -65.29 | X-H torsion
[ 10718 10713 10712 10709 ] final -123.52 input   66.30 | X-H torsion
[ 10763 10752 10751 10750 ] final   34.99 input  -60.55 | X-H torsion
[ 11005 11000 10999 10996 ] final   24.32 input  -57.11 | X-H torsion

> <Gold.Protein.ActiveResidues>
 VAL166  LYS551  ARG553  GLY616  TRP617  ASP618  TYR619  PRO620  LYS621  CYS622 
 ASP623  PHE694  ASN695  SER759  ASP760  ASP761  ALA762  ILE779  LEU786  VAL792 
 PHE793  MET794  SER795  GLU796  ALA797  LYS798  CYS799  TRP800  GLU811  SER814 

> <Gold.Protein.RotatedAtoms>
  152.5429  134.0811  159.8235 H   0  0  0  0  0  0  0  0  0  0  0  0  # atno 6907 bound_to 6896
  151.0913  133.5306  159.2622 H   0  0  0  0  0  0  0  0  0  0  0  0  # atno 6908 bound_to 6896
  151.2096  135.0485  159.8960 H   0  0  0  0  0  0  0  0  0  0  0  0  # atno 6909 bound_to 6896
  145.1501  140.8824  143.3651 H   0  0  0  0  0  0  0  0  0  0  0  0  # atno 7974 bound_to 7965
  156.0793  140.1390  156.9733 H   0  0  0  0  0  0  0  0  0  0  0  0  # atno 8008 bound_to 7997
  154.4575  140.0955  156.6850 H   0  0  0  0  0  0  0  0  0  0  0  0  # atno 8009 bound_to 7997
  155.5102  140.3453  155.4389 H   0  0  0  0  0  0  0  0  0  0  0  0  # atno 8010 bound_to 7997
  139.7746  144.6910  151.0107 H   0  0  0  0  0  0  0  0  0  0  0  0  # atno 10167 bound_to 10162
  156.1509  130.6534  150.9912 H   0  0  0  0  0  0  0  0  0  0  0  0  # atno 10718 bound_to 10713
  153.0139  135.6345  154.1756 H   0  0  0  0  0  0  0  0  0  0  0  0  # atno 10763 bound_to 10752
  154.1496  135.2830  155.3140 H   0  0  0  0  0  0  0  0  0  0  0  0  # atno 10764 bound_to 10752
  154.6063  135.5571  153.7487 H   0  0  0  0  0  0  0  0  0  0  0  0  # atno 10765 bound_to 10752
  140.3600  134.2136  155.7673 H   0  0  0  0  0  0  0  0  0  0  0  0  # atno 11005 bound_to 11000
  145.0440  139.3236  143.5962 LP  0  0  0  0  0  0  0  0  0  0  0  0  # atno 17320 bound_to 7965
  146.3495  139.9824  142.8694 LP  0  0  0  0  0  0  0  0  0  0  0  0  # atno 17321 bound_to 7965
  140.7816  143.4550  151.0359 LP  0  0  0  0  0  0  0  0  0  0  0  0  # atno 17342 bound_to 10162
  139.8233  143.7791  152.3177 LP  0  0  0  0  0  0  0  0  0  0  0  0  # atno 17343 bound_to 10162
  157.6656  131.0872  150.7736 LP  0  0  0  0  0  0  0  0  0  0  0  0  # atno 17370 bound_to 10713
  156.7804  130.4857  149.5402 LP  0  0  0  0  0  0  0  0  0  0  0  0  # atno 17371 bound_to 10713
  141.1987  133.8030  157.0571 LP  0  0  0  0  0  0  0  0  0  0  0  0  # atno 17394 bound_to 11000
  140.0634  134.9742  157.1344 LP  0  0  0  0  0  0  0  0  0  0  0  0  # atno 17395 bound_to 11000

$$$$
