AV-unprocessed.smi:2565|AV-procd|sdf|10071|dock5
  -GOLD-   2272014103D 1   1.00000     0.00000
 Structure written by MMmdl.
 24 25  0  0  0  0  0  0  0  0  1 V2000
  153.5625  142.3047  162.1111 C   0  0  0  0  0  0  0  0  0  0  0  0
  153.5615  141.6778  160.8044 N   0  0  0  0  0  0  0  0  0  0  0  0
  154.1301  140.5220  160.4304 C   0  0  0  0  0  0  0  0  0  0  0  0
  153.9691  140.2039  159.1469 N   0  0  0  0  0  0  0  0  0  0  0  0
  153.2262  141.2431  158.6227 N   0  0  0  0  0  0  0  0  0  0  0  0
  153.0042  142.0818  159.6442 C   0  0  0  0  0  0  0  0  0  0  0  0
  152.2435  143.3699  159.5242 C   0  0  1  0  0  0  0  0  0  0  0  0
  151.5589  143.5184  158.1515 C   0  0  0  0  0  0  0  0  0  0  0  0
  150.7653  144.7456  158.1115 N   0  0  0  0  0  0  0  0  0  0  0  0
  149.8034  144.7897  159.2120 C   0  0  0  0  0  0  0  0  0  0  0  0
  150.5206  144.5965  160.5605 C   0  0  0  0  0  0  0  0  0  0  0  0
  151.2478  143.3725  160.5447 O   0  0  0  0  0  0  0  0  0  0  0  0
  154.2144  141.7547  162.7905 H   0  0  0  0  0  0  0  0  0  0  0  0
  152.5509  142.3102  162.5174 H   0  0  0  0  0  0  0  0  0  0  0  0
  153.9229  143.3303  162.0290 H   0  0  0  0  0  0  0  0  0  0  0  0
  154.6817  139.8951  161.1158 H   0  0  0  0  0  0  0  0  0  0  0  0
  152.9262  144.2032  159.6980 H   0  0  0  0  0  0  0  0  0  0  0  0
  152.3064  143.5310  157.3580 H   0  0  0  0  0  0  0  0  0  0  0  0
  150.9164  142.6570  157.9644 H   0  0  0  0  0  0  0  0  0  0  0  0
  150.2715  144.8023  157.2266 H   0  0  0  0  0  0  0  0  0  0  0  0
  149.2695  145.7402  159.2047 H   0  0  0  0  0  0  0  0  0  0  0  0
  149.0538  144.0084  159.0811 H   0  0  0  0  0  0  0  0  0  0  0  0
  151.1909  145.4318  160.7697 H   0  0  0  0  0  0  0  0  0  0  0  0
  149.7920  144.5638  161.3705 H   0  0  0  0  0  0  0  0  0  0  0  0
  1  2  1  0  0  0  0
  1 13  1  0  0  0  0
  1 14  1  0  0  0  0
  1 15  1  0  0  0  0
  2  6  1  0  0  0  0
  2  3  1  0  0  0  0
  3  4  2  0  0  0  0
  3 16  1  0  0  0  0
  4  5  1  0  0  0  0
  5  6  2  0  0  0  0
  6  7  1  0  0  0  0
  7 12  1  0  0  0  0
  7  8  1  0  0  0  0
  7 17  1  0  0  0  0
  8  9  1  0  0  0  0
  8 18  1  0  0  0  0
  8 19  1  0  0  0  0
  9 10  1  0  0  0  0
  9 20  1  0  0  0  0
 10 11  1  0  0  0  0
 10 21  1  0  0  0  0
 10 22  1  0  0  0  0
 11 12  1  0  0  0  0
 11 23  1  0  0  0  0
 11 24  1  0  0  0  0
M  END
> <s_m_source_file>
AV-unprocessed.smi

> <i_m_source_file_index>
2565

> <i_lp_mmshare_version>
43012

> <i_f3d_flags>
0

> <s_epik_input>
W0NIM11uMVtjSF1ubmMxW0NAQEhdMltDSDJdW05IXVtDSDJdW0NIMl1PMg==

> <s_epik_cmdline>
J2VwaWtfcHl0aG9uJywgJy1waCcsICc3LjAnLCAnLXRuJywgJzgnLCAnLW1hJywgJzIwMCcsICctbWV0YWxfYmluZGluZycsICctaW1hZScsICc8aW5maWxlLm1hZT4nLCAnLW9tYWUnLCAnPG91dGZpbGUubWFlPic=

> <r_lp_tautomer_probability>
1

> <r_epik_Ionization_Penalty>
0.980774

> <r_epik_Ionization_Penalty_Charging>
0

> <r_epik_Ionization_Penalty_Neutral>
0.980774

> <r_epik_State_Penalty>
1.0271

> <r_epik_Charging_Adjusted_Penalty>
1.0271

> <i_epik_Tot_Q>
0

> <i_epik_Tot_abs_Q>
0

> <r_epik_Metal_State_Penalty>
1.02688

> <b_epik_Metal_Only>
0

> <s_lp_Force_Field>
OPLS_2005

> <r_lp_Energy>
14.243

> <b_lp_Chiralities_Consistent>
1

> <s_lp_Variant>
AV-unprocessed.smi:2565-4

> <Gold.Version>
5.8.1

> <Gold.Id.Protein>
6NUR|6NUR_protein|mol2

> <Gold.PLP.Fitness>
29.8193

> <Gold.PLP.PLP>
-25.9809

> <Gold.PLP.part.hbond>
-4.3297

> <Gold.PLP.part.metal>
0.0000

> <Gold.PLP.part.buried>
0.9341

> <Gold.PLP.part.nonpolar>
-22.8321

> <Gold.PLP.part.repulsive>
0.0917

> <Gold.PLP.ligand.clash>
0.0000

> <Gold.PLP.ligand.torsion>
0.1252

> <Gold.PLP.Chemscore.Hbond>
1.3619

> <Gold.PLP.Chemscore.CHOScore>
0.0000

> <Gold.PLP.Chemscore.Metal>
0.0000

> <Gold.Chemscore.Hbonds>
donor molecule, donor type, donor heavy atom, donor atom, acceptor molecule, acceptor atom, score
      L1  H     9    20       P1  8028  0.96
      P1  H  7997  8008       L1     4  0.33

> <Gold.PLP.Chemscore.Internal.Correction>
0.0030

> <Gold.Rescore>
     Score         DG    S(hbond)    S(metal)    S(lipo)     H(rot)  DE(clash)    DE(int)     intcor
     11.48     -11.51       0.79        0.00      50.88       1.00       0.03       0.00       ----

> <Gold.Chemscore.Fitness>
11.4823

> <Gold.Chemscore.DG>
-11.5135

> <Gold.Chemscore.ZeroCoef>
-5.4800

> <Gold.Chemscore.Hbond>
0.7907

> <Gold.Chemscore.Metal>
0.0000

> <Gold.Chemscore.Lipo>
50.8779

> <Gold.Chemscore.Internal_Hbond>
0.0000

> <Gold.Chemscore.DEClash>
0.0290

> <Gold.Chemscore.DEInternal>
0.0022

> <Gold.Chemscore.Rot>
1.0000

> <Gold.Chemscore.Internal.Correction>
   9.000000E+99

> <Gold.Chemscore.Hbonds>
donor molecule, donor type, donor heavy atom, donor atom, acceptor molecule, acceptor atom, score
      L1  H     9    20       P1  8028  0.27
      P1  H  7997  8008       L1     4  0.01

> <Gold.Chemscore.Hbond.Weighted>
-2.6408

> <Gold.Chemscore.Metal.Weighted>
-0.0000

> <Gold.Chemscore.Lipo.Weighted>
-5.9527

> <Gold.Chemscore.Internal_Hbond.Weighted>
0.0000

> <Gold.Chemscore.DEClash.Weighted>
0.0290

> <Gold.Chemscore.DEInternal.Weighted>
0.0022

> <Gold.Chemscore.Rot.Weighted>
2.5600

> <Gold.Chemscore.Internal.Correction.Weighted>
   9.000000E+99

> <Gold.Protein.RotatedTorsions>
[ 6907 6896 6895 6894 ] final  -29.09 input  -60.11 | X-H torsion
[ 7974 7965 7964 7962 ] final  -94.99 input  175.53 | X-H torsion
[ 8008 7997 7996 7995 ] final -112.81 input   59.86 | X-H torsion
[ 10167 10162 10161 10158 ] final  -70.46 input  -65.29 | X-H torsion
[ 10718 10713 10712 10709 ] final  178.94 input   66.30 | X-H torsion
[ 10763 10752 10751 10750 ] final   24.40 input  -60.55 | X-H torsion
[ 11005 11000 10999 10996 ] final  -67.05 input  -57.11 | X-H torsion

> <Gold.Protein.ActiveResidues>
 VAL166  LYS551  ARG553  GLY616  TRP617  ASP618  TYR619  PRO620  LYS621  CYS622 
 ASP623  PHE694  ASN695  SER759  ASP760  ASP761  ALA762  ILE779  LEU786  VAL792 
 PHE793  MET794  SER795  GLU796  ALA797  LYS798  CYS799  TRP800  GLU811  SER814 

> <Gold.Protein.RotatedAtoms>
  151.1240  135.0094  159.8551 H   0  0  0  0  0  0  0  0  0  0  0  0  # atno 6907 bound_to 6896
  152.5449  134.1689  159.8599 H   0  0  0  0  0  0  0  0  0  0  0  0  # atno 6908 bound_to 6896
  151.1750  133.4715  159.2627 H   0  0  0  0  0  0  0  0  0  0  0  0  # atno 6909 bound_to 6896
  145.3659  140.9498  143.2474 H   0  0  0  0  0  0  0  0  0  0  0  0  # atno 7974 bound_to 7965
  155.0110  140.0393  157.2399 H   0  0  0  0  0  0  0  0  0  0  0  0  # atno 8008 bound_to 7997
  154.7460  140.2758  155.6309 H   0  0  0  0  0  0  0  0  0  0  0  0  # atno 8009 bound_to 7997
  156.2875  140.2656  156.2200 H   0  0  0  0  0  0  0  0  0  0  0  0  # atno 8010 bound_to 7997
  140.5351  143.2318  151.7192 H   0  0  0  0  0  0  0  0  0  0  0  0  # atno 10167 bound_to 10162
  156.8832  130.9822  151.3059 H   0  0  0  0  0  0  0  0  0  0  0  0  # atno 10718 bound_to 10713
  153.0767  135.6606  154.0131 H   0  0  0  0  0  0  0  0  0  0  0  0  # atno 10763 bound_to 10752
  153.9763  135.2959  155.3425 H   0  0  0  0  0  0  0  0  0  0  0  0  # atno 10764 bound_to 10752
  154.7156  135.5186  153.8804 H   0  0  0  0  0  0  0  0  0  0  0  0  # atno 10765 bound_to 10752
  141.1498  133.6711  156.6233 H   0  0  0  0  0  0  0  0  0  0  0  0  # atno 11005 bound_to 11000
  144.8612  139.5175  143.6811 LP  0  0  0  0  0  0  0  0  0  0  0  0  # atno 17320 bound_to 7965
  146.2907  139.7130  142.9163 LP  0  0  0  0  0  0  0  0  0  0  0  0  # atno 17321 bound_to 7965
  139.4968  144.4056  152.0136 LP  0  0  0  0  0  0  0  0  0  0  0  0  # atno 17342 bound_to 10162
  140.3160  144.3483  150.6021 LP  0  0  0  0  0  0  0  0  0  0  0  0  # atno 17343 bound_to 10162
  157.6128  130.8596  149.8979 LP  0  0  0  0  0  0  0  0  0  0  0  0  # atno 17370 bound_to 10713
  156.0667  130.3691  150.0864 LP  0  0  0  0  0  0  0  0  0  0  0  0  # atno 17371 bound_to 10713
  140.3523  134.7758  157.4475 LP  0  0  0  0  0  0  0  0  0  0  0  0  # atno 17394 bound_to 11000
  140.0851  134.5678  155.8501 LP  0  0  0  0  0  0  0  0  0  0  0  0  # atno 17395 bound_to 11000

$$$$
