AV-unprocessed.smi:2204|AV-procd|sdf|8940|dock4
  -GOLD-   2272012153D 1   1.00000     0.00000
 Structure written by MMmdl.
 39 40  0  0  0  0  0  0  0  0  1 V2000
  153.9850  141.3825  161.6208 C   0  0  0  0  0  0  0  0  0  0  0  0
  153.1677  142.3948  160.8742 C   0  0  0  0  0  0  0  0  0  0  0  0
  152.6742  143.6452  161.3400 C   0  0  0  0  0  0  0  0  0  0  0  0
  151.9939  144.1590  160.2721 C   0  0  0  0  0  0  0  0  0  0  0  0
  151.2421  145.4420  160.1352 C   0  0  0  0  0  0  0  0  0  0  0  0
  152.1028  143.2371  159.2460 N   0  0  0  0  0  0  0  0  0  0  0  0
  151.5348  143.2836  157.9063 C   0  0  0  0  0  0  0  0  0  0  0  0
  150.8936  141.9442  157.5388 C   0  0  0  0  0  0  0  0  0  0  0  0
  151.2233  140.9178  158.1321 O   0  0  0  0  0  0  0  0  0  0  0  0
  149.9947  141.9721  156.5430 N   0  0  0  0  0  0  0  0  0  0  0  0
  149.3696  140.8095  155.9212 C   0  0  1  0  0  0  0  0  0  0  0  0
  148.7786  141.1962  154.5566 C   0  0  0  0  0  0  0  0  0  0  0  0
  150.4082  139.6777  155.8045 C   0  0  1  0  0  0  0  0  0  0  0  0
  149.9336  138.4509  155.0188 C   0  0  0  0  0  0  0  0  0  0  0  0
  151.2162  137.8591  154.4535 C   0  0  0  0  0  0  0  0  0  0  0  0
  152.2740  138.9333  154.7178 C   0  0  0  0  0  0  0  0  0  0  0  0
  151.5355  140.0988  155.0530 O   0  0  0  0  0  0  0  0  0  0  0  0
  152.8261  142.1581  159.6185 N   0  0  0  0  0  0  0  0  0  0  0  0
  153.9719  141.5802  162.6928 H   0  0  0  0  0  0  0  0  0  0  0  0
  155.0243  141.4009  161.2922 H   0  0  0  0  0  0  0  0  0  0  0  0
  153.6027  140.3731  161.4660 H   0  0  0  0  0  0  0  0  0  0  0  0
  152.7969  144.0952  162.3139 H   0  0  0  0  0  0  0  0  0  0  0  0
  151.2921  146.0227  161.0563 H   0  0  0  0  0  0  0  0  0  0  0  0
  150.1909  145.2554  159.9143 H   0  0  0  0  0  0  0  0  0  0  0  0
  151.6559  146.0518  159.3320 H   0  0  0  0  0  0  0  0  0  0  0  0
  150.7950  144.0835  157.8598 H   0  0  0  0  0  0  0  0  0  0  0  0
  152.3164  143.5289  157.1853 H   0  0  0  0  0  0  0  0  0  0  0  0
  149.7885  142.8698  156.1280 H   0  0  0  0  0  0  0  0  0  0  0  0
  148.5595  140.4561  156.5622 H   0  0  0  0  0  0  0  0  0  0  0  0
  148.2934  140.3422  154.0835 H   0  0  0  0  0  0  0  0  0  0  0  0
  149.5508  141.5585  153.8770 H   0  0  0  0  0  0  0  0  0  0  0  0
  148.0293  141.9817  154.6600 H   0  0  0  0  0  0  0  0  0  0  0  0
  150.7436  139.3676  156.7965 H   0  0  0  0  0  0  0  0  0  0  0  0
  149.3803  137.7454  155.6400 H   0  0  0  0  0  0  0  0  0  0  0  0
  149.2813  138.7542  154.1985 H   0  0  0  0  0  0  0  0  0  0  0  0
  151.4818  136.9216  154.9432 H   0  0  0  0  0  0  0  0  0  0  0  0
  151.1074  137.6615  153.3865 H   0  0  0  0  0  0  0  0  0  0  0  0
  152.9022  138.6529  155.5646 H   0  0  0  0  0  0  0  0  0  0  0  0
  152.9206  139.1073  153.8575 H   0  0  0  0  0  0  0  0  0  0  0  0
  1  2  1  0  0  0  0
  1 19  1  0  0  0  0
  1 20  1  0  0  0  0
  1 21  1  0  0  0  0
  2 18  2  0  0  0  0
  2  3  1  0  0  0  0
  3  4  2  0  0  0  0
  3 22  1  0  0  0  0
  4  5  1  0  0  0  0
  4  6  1  0  0  0  0
  5 23  1  0  0  0  0
  5 24  1  0  0  0  0
  5 25  1  0  0  0  0
  6  7  1  0  0  0  0
  6 18  1  0  0  0  0
  7  8  1  0  0  0  0
  7 26  1  0  0  0  0
  7 27  1  0  0  0  0
  8  9  2  0  0  0  0
  8 10  1  0  0  0  0
 10 11  1  0  0  0  0
 10 28  1  0  0  0  0
 11 12  1  0  0  0  0
 11 13  1  0  0  0  0
 11 29  1  0  0  0  0
 12 30  1  0  0  0  0
 12 31  1  0  0  0  0
 12 32  1  0  0  0  0
 13 17  1  0  0  0  0
 13 14  1  0  0  0  0
 13 33  1  0  0  0  0
 14 15  1  0  0  0  0
 14 34  1  0  0  0  0
 14 35  1  0  0  0  0
 15 16  1  0  0  0  0
 15 36  1  0  0  0  0
 15 37  1  0  0  0  0
 16 17  1  0  0  0  0
 16 38  1  0  0  0  0
 16 39  1  0  0  0  0
M  END
> <s_m_source_file>
AV-unprocessed.smi

> <i_m_source_file_index>
2204

> <i_lp_mmshare_version>
43012

> <i_f3d_flags>
0

> <s_epik_input>
W0NIM11jMVtjSF1jKFtDSDNdKW4objEpW0NIMl1DKD1PKVtOSF1bQ0BIXShbQ0gzXSlbQ0BASF0yW0NIMl1bQ0gyXVtDSDJdTzI=

> <s_epik_cmdline>
J2VwaWtfcHl0aG9uJywgJy1waCcsICc3LjAnLCAnLXRuJywgJzgnLCAnLW1hJywgJzIwMCcsICctbWV0YWxfYmluZGluZycsICctaW1hZScsICc8aW5maWxlLm1hZT4nLCAnLW9tYWUnLCAnPG91dGZpbGUubWFlPic=

> <r_lp_tautomer_probability>
1

> <r_epik_Ionization_Penalty>
0.000433354

> <r_epik_Ionization_Penalty_Charging>
0

> <r_epik_Ionization_Penalty_Neutral>
0.000433354

> <r_epik_State_Penalty>
-0

> <r_epik_Charging_Adjusted_Penalty>
0

> <i_epik_Tot_Q>
0

> <i_epik_Tot_abs_Q>
0

> <r_epik_Metal_State_Penalty>
-0

> <b_epik_Metal_Only>
0

> <s_lp_Force_Field>
OPLS_2005

> <r_lp_Energy>
15.4652

> <b_lp_Chiralities_Consistent>
1

> <s_lp_Variant>
AV-unprocessed.smi:2204-4

> <Gold.Version>
5.8.1

> <Gold.Id.Protein>
6NUR|6NUR_protein|mol2

> <Gold.PLP.Fitness>
50.9467

> <Gold.PLP.PLP>
-46.6691

> <Gold.PLP.part.hbond>
-2.0000

> <Gold.PLP.part.metal>
0.0000

> <Gold.PLP.part.buried>
-5.3446

> <Gold.PLP.part.nonpolar>
-39.4059

> <Gold.PLP.part.repulsive>
0.1206

> <Gold.PLP.ligand.clash>
0.0000

> <Gold.PLP.ligand.torsion>
0.7947

> <Gold.PLP.Chemscore.Hbond>
1.9440

> <Gold.PLP.Chemscore.CHOScore>
0.0000

> <Gold.PLP.Chemscore.Metal>
0.0000

> <Gold.Chemscore.Hbonds>
donor molecule, donor type, donor heavy atom, donor atom, acceptor molecule, acceptor atom, score
      L1  H    10    28       P1  8028  0.80
      P1  H  7989  7998       L1    17  0.85

> <Gold.PLP.Chemscore.Internal.Correction>
0.0350

> <Gold.Rescore>
     Score         DG    S(hbond)    S(metal)    S(lipo)     H(rot)  DE(clash)    DE(int)     intcor
     16.16     -20.09       1.62        0.00     111.52       1.50       0.06       3.88       ----

> <Gold.Chemscore.Fitness>
16.1550

> <Gold.Chemscore.DG>
-20.0886

> <Gold.Chemscore.ZeroCoef>
-5.4800

> <Gold.Chemscore.Hbond>
1.6172

> <Gold.Chemscore.Metal>
0.0000

> <Gold.Chemscore.Lipo>
111.5234

> <Gold.Chemscore.Internal_Hbond>
0.0000

> <Gold.Chemscore.DEClash>
0.0556

> <Gold.Chemscore.DEInternal>
3.8780

> <Gold.Chemscore.Rot>
1.5005

> <Gold.Chemscore.Internal.Correction>
   9.000000E+99

> <Gold.Chemscore.Hbonds>
donor molecule, donor type, donor heavy atom, donor atom, acceptor molecule, acceptor atom, score
      L1  H    10    28       P1  8028  0.78
      P1  H  7989  7998       L1    17  0.14

> <Gold.Chemscore.Hbond.Weighted>
-5.4016

> <Gold.Chemscore.Metal.Weighted>
-0.0000

> <Gold.Chemscore.Lipo.Weighted>
-13.0482

> <Gold.Chemscore.Internal_Hbond.Weighted>
0.0000

> <Gold.Chemscore.DEClash.Weighted>
0.0556

> <Gold.Chemscore.DEInternal.Weighted>
3.8780

> <Gold.Chemscore.Rot.Weighted>
3.8412

> <Gold.Chemscore.Internal.Correction.Weighted>
   9.000000E+99

> <Gold.Protein.RotatedTorsions>
[ 6907 6896 6895 6894 ] final -167.73 input  -60.11 | X-H torsion
[ 7974 7965 7964 7962 ] final  127.74 input  175.53 | X-H torsion
[ 8008 7997 7996 7995 ] final  -19.60 input   59.86 | X-H torsion
[ 10167 10162 10161 10158 ] final -179.04 input  -65.29 | X-H torsion
[ 10718 10713 10712 10709 ] final -168.97 input   66.30 | X-H torsion
[ 10763 10752 10751 10750 ] final  139.92 input  -60.55 | X-H torsion
[ 11005 11000 10999 10996 ] final  -27.10 input  -57.11 | X-H torsion

> <Gold.Protein.ActiveResidues>
 VAL166  LYS551  ARG553  GLY616  TRP617  ASP618  TYR619  PRO620  LYS621  CYS622 
 ASP623  PHE694  ASN695  SER759  ASP760  ASP761  ALA762  ILE779  LEU786  VAL792 
 PHE793  MET794  SER795  GLU796  ALA797  LYS798  CYS799  TRP800  GLU811  SER814 

> <Gold.Protein.RotatedAtoms>
  151.4642  133.3585  159.2813 H   0  0  0  0  0  0  0  0  0  0  0  0  # atno 6907 bound_to 6896
  150.9005  134.8418  159.7367 H   0  0  0  0  0  0  0  0  0  0  0  0  # atno 6908 bound_to 6896
  152.4876  134.4562  159.9642 H   0  0  0  0  0  0  0  0  0  0  0  0  # atno 6909 bound_to 6896
  145.0472  139.3913  143.5072 H   0  0  0  0  0  0  0  0  0  0  0  0  # atno 7974 bound_to 7965
  154.4826  140.2084  155.9729 H   0  0  0  0  0  0  0  0  0  0  0  0  # atno 8008 bound_to 7997
  156.1188  140.3217  155.8147 H   0  0  0  0  0  0  0  0  0  0  0  0  # atno 8009 bound_to 7997
  155.4505  140.0516  157.2992 H   0  0  0  0  0  0  0  0  0  0  0  0  # atno 8010 bound_to 7997
  139.5404  144.2378  152.0884 H   0  0  0  0  0  0  0  0  0  0  0  0  # atno 10167 bound_to 10162
  156.7046  130.9210  151.3083 H   0  0  0  0  0  0  0  0  0  0  0  0  # atno 10718 bound_to 10713
  153.9142  135.3008  155.3448 H   0  0  0  0  0  0  0  0  0  0  0  0  # atno 10763 bound_to 10752
  154.7608  135.4935  153.9464 H   0  0  0  0  0  0  0  0  0  0  0  0  # atno 10764 bound_to 10752
  153.1176  135.6774  153.9492 H   0  0  0  0  0  0  0  0  0  0  0  0  # atno 10765 bound_to 10752
  140.9089  133.7474  156.0643 H   0  0  0  0  0  0  0  0  0  0  0  0  # atno 11005 bound_to 11000
  146.3515  140.0103  142.8667 LP  0  0  0  0  0  0  0  0  0  0  0  0  # atno 17320 bound_to 7965
  145.1573  140.9654  143.4398 LP  0  0  0  0  0  0  0  0  0  0  0  0  # atno 17321 bound_to 7965
  140.1856  144.4802  150.6505 LP  0  0  0  0  0  0  0  0  0  0  0  0  # atno 17342 bound_to 10162
  140.6632  143.2259  151.5807 LP  0  0  0  0  0  0  0  0  0  0  0  0  # atno 17343 bound_to 10162
  157.6960  130.9282  150.0645 LP  0  0  0  0  0  0  0  0  0  0  0  0  # atno 17370 bound_to 10713
  156.1704  130.3646  149.9173 LP  0  0  0  0  0  0  0  0  0  0  0  0  # atno 17371 bound_to 10713
  140.8136  134.3371  157.5404 LP  0  0  0  0  0  0  0  0  0  0  0  0  # atno 17394 bound_to 11000
  139.8754  134.9268  156.3410 LP  0  0  0  0  0  0  0  0  0  0  0  0  # atno 17395 bound_to 11000

$$$$
