AV-unprocessed.smi:1509|AV-procd|sdf|6091|dock4
  -GOLD-   22720 6213D 1   1.00000     0.00000
 Structure written by MMmdl.
 42 43  0  0  0  0  0  0  0  0  2 V2000
  146.2150  131.7965  149.5377 C   0  0  0  0  0  0  0  0  0  0  0  0
  145.5346  132.3967  150.7804 C   0  0  1  0  0  0  0  0  0  0  0  0
  144.7636  131.3483  151.6033 C   0  0  0  0  0  0  0  0  0  0  0  0
  145.7226  130.4411  152.3863 C   0  0  0  0  0  0  0  0  0  0  0  0
  146.6960  131.2717  153.2372 C   0  0  0  0  0  0  0  0  0  0  0  0
  147.4469  132.2444  152.4019 N   0  3  2  0  0  0  0  0  0  0  0  0
  148.4950  132.9553  153.1776 C   0  0  0  0  0  0  0  0  0  0  0  0
  147.9063  133.9428  154.1999 C   0  0  0  0  0  0  0  0  0  0  0  0
  148.9943  134.5838  155.0777 C   0  0  0  0  0  0  0  0  0  0  0  0
  149.4981  135.8236  154.4985 N   0  0  0  0  0  0  0  0  0  0  0  0
  150.3991  136.6327  155.0782 C   0  0  0  0  0  0  0  0  0  0  0  0
  150.8785  136.4228  156.1922 O   0  0  0  0  0  0  0  0  0  0  0  0
  150.8253  137.8674  154.2829 C   0  0  0  0  0  0  0  0  0  0  0  0
  151.0072  139.0133  155.1542 N   0  0  0  0  0  0  0  0  0  0  0  0
  151.7203  139.1608  156.2727 C   0  0  0  0  0  0  0  0  0  0  0  0
  151.6045  140.3827  156.7693 N   0  0  0  0  0  0  0  0  0  0  0  0
  150.7546  141.0075  155.8719 N   0  0  0  0  0  0  0  0  0  0  0  0
  150.3969  140.1999  154.9115 N   0  0  0  0  0  0  0  0  0  0  0  0
  146.5287  133.1648  151.6765 C   0  0  0  0  0  0  0  0  0  0  0  0
  146.9878  131.0752  149.8031 H   0  0  0  0  0  0  0  0  0  0  0  0
  146.6855  132.5748  148.9363 H   0  0  0  0  0  0  0  0  0  0  0  0
  145.4901  131.2868  148.9024 H   0  0  0  0  0  0  0  0  0  0  0  0
  144.8047  133.1178  150.4106 H   0  0  0  0  0  0  0  0  0  0  0  0
  144.1039  131.8588  152.3064 H   0  0  0  0  0  0  0  0  0  0  0  0
  144.1178  130.7519  150.9580 H   0  0  0  0  0  0  0  0  0  0  0  0
  145.1526  129.7676  153.0271 H   0  0  0  0  0  0  0  0  0  0  0  0
  146.2822  129.8061  151.6989 H   0  0  0  0  0  0  0  0  0  0  0  0
  146.1532  131.8051  154.0192 H   0  0  0  0  0  0  0  0  0  0  0  0
  147.3927  130.5979  153.7376 H   0  0  0  0  0  0  0  0  0  0  0  0
  149.1490  132.2323  153.6677 H   0  0  0  0  0  0  0  0  0  0  0  0
  149.1249  133.5232  152.4912 H   0  0  0  0  0  0  0  0  0  0  0  0
  147.3566  134.7250  153.6748 H   0  0  0  0  0  0  0  0  0  0  0  0
  147.1855  133.4356  154.8404 H   0  0  0  0  0  0  0  0  0  0  0  0
  148.6130  134.7716  156.0829 H   0  0  0  0  0  0  0  0  0  0  0  0
  149.8350  133.8985  155.1892 H   0  0  0  0  0  0  0  0  0  0  0  0
  149.1529  136.0736  153.5829 H   0  0  0  0  0  0  0  0  0  0  0  0
  151.7595  137.6709  153.7552 H   0  0  0  0  0  0  0  0  0  0  0  0
  150.0734  138.1067  153.5293 H   0  0  0  0  0  0  0  0  0  0  0  0
  152.3162  138.3794  156.7210 H   0  0  0  0  0  0  0  0  0  0  0  0
  147.0917  133.8683  151.0642 H   0  0  0  0  0  0  0  0  0  0  0  0
  145.9794  133.7635  152.4052 H   0  0  0  0  0  0  0  0  0  0  0  0
  147.9293  131.6982  151.7025 H   0  0  0  0  0  0  0  0  0  0  0  0
  1  2  1  0  0  0  0
  1 20  1  0  0  0  0
  1 21  1  0  0  0  0
  1 22  1  0  0  0  0
  2 19  1  0  0  0  0
  2  3  1  0  0  0  0
  2 23  1  0  0  0  0
  3  4  1  0  0  0  0
  3 24  1  0  0  0  0
  3 25  1  0  0  0  0
  4  5  1  0  0  0  0
  4 26  1  0  0  0  0
  4 27  1  0  0  0  0
  5  6  1  0  0  0  0
  5 28  1  0  0  0  0
  5 29  1  0  0  0  0
  6  7  1  0  0  0  0
  6 19  1  0  0  0  0
  6 42  1  0  0  0  0
  7  8  1  0  0  0  0
  7 30  1  0  0  0  0
  7 31  1  0  0  0  0
  8  9  1  0  0  0  0
  8 32  1  0  0  0  0
  8 33  1  0  0  0  0
  9 10  1  0  0  0  0
  9 34  1  0  0  0  0
  9 35  1  0  0  0  0
 10 11  1  0  0  0  0
 10 36  1  0  0  0  0
 11 12  2  0  0  0  0
 11 13  1  0  0  0  0
 13 14  1  0  0  0  0
 13 37  1  0  0  0  0
 13 38  1  0  0  0  0
 14 18  1  0  0  0  0
 14 15  1  0  0  0  0
 15 16  2  0  0  0  0
 15 39  1  0  0  0  0
 16 17  1  0  0  0  0
 17 18  2  0  0  0  0
 19 40  1  0  0  0  0
 19 41  1  0  0  0  0
M  CHG  1   6   1
M  END
> <s_m_source_file>
AV-unprocessed.smi

> <i_m_source_file_index>
1509

> <i_lp_mmshare_version>
43012

> <i_f3d_flags>
0

> <s_epik_input>
W0NIM11bQ0BASF0xW0NIMl1bQ0gyXVtDSDJdTihbQ0gyXTEpW0NIMl1bQ0gyXVtDSDJdW05IXUMoPU8pW0NIMl1uMltjSF1ubm4y

> <s_epik_cmdline>
J2VwaWtfcHl0aG9uJywgJy1waCcsICc3LjAnLCAnLXRuJywgJzgnLCAnLW1hJywgJzIwMCcsICctbWV0YWxfYmluZGluZycsICctaW1hZScsICc8aW5maWxlLm1hZT4nLCAnLW9tYWUnLCAnPG91dGZpbGUubWFlPic=

> <r_lp_tautomer_probability>
1

> <r_epik_Ionization_Penalty>
0.00044216

> <r_epik_Ionization_Penalty_Charging>
0.000440775

> <r_epik_Ionization_Penalty_Neutral>
1.38512e-06

> <r_epik_State_Penalty>
0.000271914

> <r_epik_Charging_Adjusted_Penalty>
0.000712689

> <i_epik_Tot_Q>
1

> <i_epik_Tot_abs_Q>
1

> <r_epik_Metal_State_Penalty>
-0

> <b_epik_Metal_Only>
0

> <s_lp_Force_Field>
OPLS_2005

> <r_lp_Energy>
22.736

> <b_lp_Chiralities_Consistent>
1

> <s_lp_Variant>
AV-unprocessed.smi:1509-2

> <Gold.Version>
5.8.1

> <Gold.Id.Protein>
6NUR|6NUR_protein|mol2

> <Gold.PLP.Fitness>
48.9503

> <Gold.PLP.PLP>
-37.1804

> <Gold.PLP.part.hbond>
-6.6022

> <Gold.PLP.part.metal>
0.0000

> <Gold.PLP.part.buried>
-0.3444

> <Gold.PLP.part.nonpolar>
-29.1639

> <Gold.PLP.part.repulsive>
0.1724

> <Gold.PLP.ligand.clash>
0.0000

> <Gold.PLP.ligand.torsion>
0.6082

> <Gold.PLP.Chemscore.Hbond>
4.2976

> <Gold.PLP.Chemscore.CHOScore>
0.0000

> <Gold.PLP.Chemscore.Metal>
0.0000

> <Gold.Chemscore.Hbonds>
donor molecule, donor type, donor heavy atom, donor atom, acceptor molecule, acceptor atom, score
      L1  H     6    42       P1 10747  1.00
      L1  H    10    36       P1  7948  1.00
      P1  H  7989  7998       L1    18  0.86

> <Gold.PLP.Chemscore.Internal.Correction>
0.0935

> <Gold.Rescore>
     Score         DG    S(hbond)    S(metal)    S(lipo)     H(rot)  DE(clash)    DE(int)     intcor
     13.62     -15.35       2.60        0.00      75.04       2.97       0.02       1.71       ----

> <Gold.Chemscore.Fitness>
13.6214

> <Gold.Chemscore.DG>
-15.3496

> <Gold.Chemscore.ZeroCoef>
-5.4800

> <Gold.Chemscore.Hbond>
2.6011

> <Gold.Chemscore.Metal>
0.0000

> <Gold.Chemscore.Lipo>
75.0426

> <Gold.Chemscore.Internal_Hbond>
0.0000

> <Gold.Chemscore.DEClash>
0.0183

> <Gold.Chemscore.DEInternal>
1.7099

> <Gold.Chemscore.Rot>
2.9680

> <Gold.Chemscore.Internal.Correction>
   9.000000E+99

> <Gold.Chemscore.Hbonds>
donor molecule, donor type, donor heavy atom, donor atom, acceptor molecule, acceptor atom, score
      L1  H     6    42       P1 10747  0.99
      L1  H    10    36       P1  7948  0.90
      P1  H  7989  7998       L1    18  0.04

> <Gold.Chemscore.Hbond.Weighted>
-8.6876

> <Gold.Chemscore.Metal.Weighted>
-0.0000

> <Gold.Chemscore.Lipo.Weighted>
-8.7800

> <Gold.Chemscore.Internal_Hbond.Weighted>
0.0000

> <Gold.Chemscore.DEClash.Weighted>
0.0183

> <Gold.Chemscore.DEInternal.Weighted>
1.7099

> <Gold.Chemscore.Rot.Weighted>
7.5980

> <Gold.Chemscore.Internal.Correction.Weighted>
   9.000000E+99

> <Gold.Protein.RotatedTorsions>
[ 6907 6896 6895 6894 ] final -144.75 input  -60.11 | X-H torsion
[ 7974 7965 7964 7962 ] final  -57.97 input  175.53 | X-H torsion
[ 8008 7997 7996 7995 ] final -154.16 input   59.86 | X-H torsion
[ 10167 10162 10161 10158 ] final -113.99 input  -65.29 | X-H torsion
[ 10718 10713 10712 10709 ] final  -47.14 input   66.30 | X-H torsion
[ 10763 10752 10751 10750 ] final   98.65 input  -60.55 | X-H torsion
[ 11005 11000 10999 10996 ] final  -15.94 input  -57.11 | X-H torsion

> <Gold.Protein.ActiveResidues>
 VAL166  LYS551  ARG553  GLY616  TRP617  ASP618  TYR619  PRO620  LYS621  CYS622 
 ASP623  PHE694  ASN695  SER759  ASP760  ASP761  ALA762  ILE779  LEU786  VAL792 
 PHE793  MET794  SER795  GLU796  ALA797  LYS798  CYS799  TRP800  GLU811  SER814 

> <Gold.Protein.RotatedAtoms>
  151.1183  133.5123  159.2602 H   0  0  0  0  0  0  0  0  0  0  0  0  # atno 6907 bound_to 6896
  151.1890  135.0394  159.8834 H   0  0  0  0  0  0  0  0  0  0  0  0  # atno 6908 bound_to 6896
  152.5454  134.1025  159.8377 H   0  0  0  0  0  0  0  0  0  0  0  0  # atno 6909 bound_to 6896
  145.8448  140.8392  143.0016 H   0  0  0  0  0  0  0  0  0  0  0  0  # atno 7974 bound_to 7965
  155.6821  140.0745  157.2481 H   0  0  0  0  0  0  0  0  0  0  0  0  # atno 8008 bound_to 7997
  154.4103  140.1680  156.2046 H   0  0  0  0  0  0  0  0  0  0  0  0  # atno 8009 bound_to 7997
  155.9526  140.3376  155.6424 H   0  0  0  0  0  0  0  0  0  0  0  0  # atno 8010 bound_to 7997
  140.1058  143.4572  152.1784 H   0  0  0  0  0  0  0  0  0  0  0  0  # atno 10167 bound_to 10162
  156.2114  130.4161  149.9110 H   0  0  0  0  0  0  0  0  0  0  0  0  # atno 10718 bound_to 10713
  153.2917  135.4141  155.1172 H   0  0  0  0  0  0  0  0  0  0  0  0  # atno 10763 bound_to 10752
  154.8522  135.3520  154.5973 H   0  0  0  0  0  0  0  0  0  0  0  0  # atno 10764 bound_to 10752
  153.6395  135.7057  153.5304 H   0  0  0  0  0  0  0  0  0  0  0  0  # atno 10765 bound_to 10752
  140.8017  133.8209  155.9476 H   0  0  0  0  0  0  0  0  0  0  0  0  # atno 11005 bound_to 11000
  144.6731  140.0866  143.7467 LP  0  0  0  0  0  0  0  0  0  0  0  0  # atno 17320 bound_to 7965
  145.9424  139.2678  143.1261 LP  0  0  0  0  0  0  0  0  0  0  0  0  # atno 17321 bound_to 7965
  139.5646  144.7427  151.4058 LP  0  0  0  0  0  0  0  0  0  0  0  0  # atno 17342 bound_to 10162
  140.6953  143.7764  150.7317 LP  0  0  0  0  0  0  0  0  0  0  0  0  # atno 17343 bound_to 10162
  156.6787  130.8849  151.3573 LP  0  0  0  0  0  0  0  0  0  0  0  0  # atno 17370 bound_to 10713
  157.7040  130.9364  150.0873 LP  0  0  0  0  0  0  0  0  0  0  0  0  # atno 17371 bound_to 10713
  140.9288  134.2048  157.4878 LP  0  0  0  0  0  0  0  0  0  0  0  0  # atno 17394 bound_to 11000
  139.8721  134.9824  156.5154 LP  0  0  0  0  0  0  0  0  0  0  0  0  # atno 17395 bound_to 11000

$$$$
