AV-unprocessed.smi:3339|AV-procd|sdf|12877|dock4
  -GOLD-   2272019283D 1   1.00000     0.00000
 Structure written by MMmdl.
 39 40  0  0  0  0  0  0  0  0  1 V2000
  146.8047  142.6211  154.1033 C   0  0  0  0  0  0  0  0  0  0  0  0
  147.8790  141.5576  153.8473 C   0  0  0  0  0  0  0  0  0  0  0  0
  147.2491  140.2066  153.4698 C   0  0  0  0  0  0  0  0  0  0  0  0
  148.6448  141.4442  155.0402 O   0  0  0  0  0  0  0  0  0  0  0  0
  149.5974  140.3897  155.0374 C   0  0  0  0  0  0  0  0  0  0  0  0
  150.3981  140.4404  156.3498 C   0  0  2  0  0  0  0  0  0  0  0  0
  149.4637  140.5166  157.4083 O   0  0  0  0  0  0  0  0  0  0  0  0
  151.3008  141.6889  156.4259 C   0  0  0  0  0  0  0  0  0  0  0  0
  151.8511  141.8743  157.7673 N   0  0  0  0  0  0  0  0  0  0  0  0
  152.5668  140.9711  158.4780 C   0  0  0  0  0  0  0  0  0  0  0  0
  152.8709  139.8379  158.1067 O   0  0  0  0  0  0  0  0  0  0  0  0
  152.9034  141.5393  159.6595 N   0  0  0  0  0  0  0  0  0  0  0  0
  153.6884  140.9340  160.7285 C   0  0  0  0  0  0  0  0  0  0  0  0
  152.4097  142.8498  159.6969 C   0  0  0  0  0  0  0  0  0  0  0  0
  152.5084  143.8462  160.6829 C   0  0  0  0  0  0  0  0  0  0  0  0
  151.8965  145.0915  160.4058 C   0  0  0  0  0  0  0  0  0  0  0  0
  151.2177  145.3113  159.1788 C   0  0  0  0  0  0  0  0  0  0  0  0
  151.1346  144.2901  158.2032 C   0  0  0  0  0  0  0  0  0  0  0  0
  151.7483  143.0620  158.5058 C   0  0  0  0  0  0  0  0  0  0  0  0
  146.1901  142.7818  153.2171 H   0  0  0  0  0  0  0  0  0  0  0  0
  147.2580  143.5766  154.3692 H   0  0  0  0  0  0  0  0  0  0  0  0
  146.1446  142.3276  154.9202 H   0  0  0  0  0  0  0  0  0  0  0  0
  148.5118  141.9081  153.0302 H   0  0  0  0  0  0  0  0  0  0  0  0
  146.5973  140.3108  152.6021 H   0  0  0  0  0  0  0  0  0  0  0  0
  146.6499  139.8095  154.2897 H   0  0  0  0  0  0  0  0  0  0  0  0
  148.0035  139.4624  153.2165 H   0  0  0  0  0  0  0  0  0  0  0  0
  149.0652  139.4410  154.9729 H   0  0  0  0  0  0  0  0  0  0  0  0
  150.2578  140.4471  154.1701 H   0  0  0  0  0  0  0  0  0  0  0  0
  150.9990  139.5346  156.4439 H   0  0  0  0  0  0  0  0  0  0  0  0
  149.5373  141.3668  157.8145 H   0  0  0  0  0  0  0  0  0  0  0  0
  152.1461  141.5813  155.7456 H   0  0  0  0  0  0  0  0  0  0  0  0
  150.7693  142.5814  156.0907 H   0  0  0  0  0  0  0  0  0  0  0  0
  153.2489  141.1576  161.7010 H   0  0  0  0  0  0  0  0  0  0  0  0
  154.7055  141.3257  160.7135 H   0  0  0  0  0  0  0  0  0  0  0  0
  153.7400  139.8488  160.6293 H   0  0  0  0  0  0  0  0  0  0  0  0
  153.0301  143.6728  161.6125 H   0  0  0  0  0  0  0  0  0  0  0  0
  151.9489  145.8853  161.1364 H   0  0  0  0  0  0  0  0  0  0  0  0
  150.7607  146.2709  158.9864 H   0  0  0  0  0  0  0  0  0  0  0  0
  150.6233  144.4527  157.2657 H   0  0  0  0  0  0  0  0  0  0  0  0
  1  2  1  0  0  0  0
  1 20  1  0  0  0  0
  1 21  1  0  0  0  0
  1 22  1  0  0  0  0
  2  3  1  0  0  0  0
  2  4  1  0  0  0  0
  2 23  1  0  0  0  0
  3 24  1  0  0  0  0
  3 25  1  0  0  0  0
  3 26  1  0  0  0  0
  4  5  1  0  0  0  0
  5  6  1  0  0  0  0
  5 27  1  0  0  0  0
  5 28  1  0  0  0  0
  6  7  1  0  0  0  0
  6  8  1  0  0  0  0
  6 29  1  0  0  0  0
  7 30  1  0  0  0  0
  8  9  1  0  0  0  0
  8 31  1  0  0  0  0
  8 32  1  0  0  0  0
  9 19  1  0  0  0  0
  9 10  1  0  0  0  0
 10 11  2  0  0  0  0
 10 12  1  0  0  0  0
 12 13  1  0  0  0  0
 12 14  1  0  0  0  0
 13 33  1  0  0  0  0
 13 34  1  0  0  0  0
 13 35  1  0  0  0  0
 14 19  2  0  0  0  0
 14 15  1  0  0  0  0
 15 16  2  0  0  0  0
 15 36  1  0  0  0  0
 16 17  1  0  0  0  0
 16 37  1  0  0  0  0
 17 18  2  0  0  0  0
 17 38  1  0  0  0  0
 18 19  1  0  0  0  0
 18 39  1  0  0  0  0
M  END
> <s_m_source_file>
AV-unprocessed.smi

> <i_m_source_file_index>
3339

> <i_lp_mmshare_version>
43012

> <i_f3d_flags>
0

> <s_epik_input>
W0NIM11bQ0hdKFtDSDNdKU9bQ0gyXVtDQEhdKFtPSF0pW0NIMl1uKGMoPU8pbjFbQ0gzXSljKGMxMilbY0hdW2NIXVtjSF1bY0hdMg==

> <s_epik_cmdline>
J2VwaWtfcHl0aG9uJywgJy1waCcsICc3LjAnLCAnLXRuJywgJzgnLCAnLW1hJywgJzIwMCcsICctbWV0YWxfYmluZGluZycsICctaW1hZScsICc8aW5maWxlLm1hZT4nLCAnLW9tYWUnLCAnPG91dGZpbGUubWFlPic=

> <r_lp_tautomer_probability>
1

> <r_epik_Ionization_Penalty>
3.68683e-07

> <r_epik_Ionization_Penalty_Charging>
2.29158e-09

> <r_epik_Ionization_Penalty_Neutral>
3.66391e-07

> <r_epik_State_Penalty>
-0

> <r_epik_Charging_Adjusted_Penalty>
2.29158e-09

> <i_epik_Tot_Q>
0

> <i_epik_Tot_abs_Q>
0

> <r_epik_Metal_State_Penalty>
-0

> <b_epik_Metal_Only>
0

> <s_lp_Force_Field>
OPLS_2005

> <r_lp_Energy>
41.4945

> <b_lp_Chiralities_Consistent>
1

> <s_lp_Variant>
AV-unprocessed.smi:3339-1

> <Gold.Version>
5.8.1

> <Gold.Id.Protein>
6NUR|6NUR_protein|mol2

> <Gold.PLP.Fitness>
48.7272

> <Gold.PLP.PLP>
-45.9812

> <Gold.PLP.part.hbond>
-1.0000

> <Gold.PLP.part.metal>
0.0000

> <Gold.PLP.part.buried>
-6.3984

> <Gold.PLP.part.nonpolar>
-38.1902

> <Gold.PLP.part.repulsive>
0.1278

> <Gold.PLP.ligand.clash>
0.0000

> <Gold.PLP.ligand.torsion>
0.1593

> <Gold.PLP.Chemscore.Hbond>
1.0000

> <Gold.PLP.Chemscore.CHOScore>
0.0000

> <Gold.PLP.Chemscore.Metal>
0.0000

> <Gold.Chemscore.Hbonds>
donor molecule, donor type, donor heavy atom, donor atom, acceptor molecule, acceptor atom, score
      P1  H  7997  8009       L1    11  0.96

> <Gold.PLP.Chemscore.Internal.Correction>
0.0647

> <Gold.Rescore>
     Score         DG    S(hbond)    S(metal)    S(lipo)     H(rot)  DE(clash)    DE(int)     intcor
     16.84     -17.14       0.93        0.00     119.78       2.13       0.21       0.09       ----

> <Gold.Chemscore.Fitness>
16.8418

> <Gold.Chemscore.DG>
-17.1376

> <Gold.Chemscore.ZeroCoef>
-5.4800

> <Gold.Chemscore.Hbond>
0.9282

> <Gold.Chemscore.Metal>
0.0000

> <Gold.Chemscore.Lipo>
119.7757

> <Gold.Chemscore.Internal_Hbond>
0.0000

> <Gold.Chemscore.DEClash>
0.2080

> <Gold.Chemscore.DEInternal>
0.0878

> <Gold.Chemscore.Rot>
2.1314

> <Gold.Chemscore.Internal.Correction>
   9.000000E+99

> <Gold.Chemscore.Hbonds>
donor molecule, donor type, donor heavy atom, donor atom, acceptor molecule, acceptor atom, score
      P1  H  7997  8009       L1    11  0.50

> <Gold.Chemscore.Hbond.Weighted>
-3.1002

> <Gold.Chemscore.Metal.Weighted>
-0.0000

> <Gold.Chemscore.Lipo.Weighted>
-14.0138

> <Gold.Chemscore.Internal_Hbond.Weighted>
0.0000

> <Gold.Chemscore.DEClash.Weighted>
0.2080

> <Gold.Chemscore.DEInternal.Weighted>
0.0878

> <Gold.Chemscore.Rot.Weighted>
5.4564

> <Gold.Chemscore.Internal.Correction.Weighted>
   9.000000E+99

> <Gold.Protein.RotatedTorsions>
[ 6907 6896 6895 6894 ] final   36.66 input  -60.11 | X-H torsion
[ 7974 7965 7964 7962 ] final  155.14 input  175.53 | X-H torsion
[ 8008 7997 7996 7995 ] final  169.96 input   59.86 | X-H torsion
[ 10167 10162 10161 10158 ] final   10.48 input  -65.29 | X-H torsion
[ 10718 10713 10712 10709 ] final  113.02 input   66.30 | X-H torsion
[ 10763 10752 10751 10750 ] final -161.99 input  -60.55 | X-H torsion
[ 11005 11000 10999 10996 ] final -129.45 input  -57.11 | X-H torsion

> <Gold.Protein.ActiveResidues>
 VAL166  LYS551  ARG553  GLY616  TRP617  ASP618  TYR619  PRO620  LYS621  CYS622 
 ASP623  PHE694  ASN695  SER759  ASP760  ASP761  ALA762  ILE779  LEU786  VAL792 
 PHE793  MET794  SER795  GLU796  ALA797  LYS798  CYS799  TRP800  GLU811  SER814 

> <Gold.Protein.RotatedAtoms>
  152.1327  134.9122  160.0557 H   0  0  0  0  0  0  0  0  0  0  0  0  # atno 6907 bound_to 6896
  152.0220  133.3898  159.4270 H   0  0  0  0  0  0  0  0  0  0  0  0  # atno 6908 bound_to 6896
  150.6858  134.3536  159.4963 H   0  0  0  0  0  0  0  0  0  0  0  0  # atno 6909 bound_to 6896
  144.8044  139.7028  143.6168 H   0  0  0  0  0  0  0  0  0  0  0  0  # atno 7974 bound_to 7965
  156.1410  140.1550  156.8921 H   0  0  0  0  0  0  0  0  0  0  0  0  # atno 8008 bound_to 7997
  154.4987  140.0831  156.7790 H   0  0  0  0  0  0  0  0  0  0  0  0  # atno 8009 bound_to 7997
  155.4079  140.3417  155.4264 H   0  0  0  0  0  0  0  0  0  0  0  0  # atno 8010 bound_to 7997
  140.6192  143.8242  150.7154 H   0  0  0  0  0  0  0  0  0  0  0  0  # atno 10167 bound_to 10162
  157.6361  131.0977  150.6980 H   0  0  0  0  0  0  0  0  0  0  0  0  # atno 10718 bound_to 10713
  154.7254  135.3034  154.8980 H   0  0  0  0  0  0  0  0  0  0  0  0  # atno 10763 bound_to 10752
  153.9839  135.6727  153.4755 H   0  0  0  0  0  0  0  0  0  0  0  0  # atno 10764 bound_to 10752
  153.0870  135.4979  154.8535 H   0  0  0  0  0  0  0  0  0  0  0  0  # atno 10765 bound_to 10752
  140.9430  134.1167  157.4133 H   0  0  0  0  0  0  0  0  0  0  0  0  # atno 11005 bound_to 11000
  146.2332  139.5854  142.9541 LP  0  0  0  0  0  0  0  0  0  0  0  0  # atno 17320 bound_to 7965
  145.5475  141.0416  143.2297 LP  0  0  0  0  0  0  0  0  0  0  0  0  # atno 17321 bound_to 7965
  140.1828  143.4100  152.1920 LP  0  0  0  0  0  0  0  0  0  0  0  0  # atno 17342 bound_to 10162
  139.5424  144.7268  151.4692 LP  0  0  0  0  0  0  0  0  0  0  0  0  # atno 17343 bound_to 10162
  156.7312  130.4710  149.5499 LP  0  0  0  0  0  0  0  0  0  0  0  0  # atno 17370 bound_to 10713
  156.1601  130.6368  151.0708 LP  0  0  0  0  0  0  0  0  0  0  0  0  # atno 17371 bound_to 10713
  139.8825  135.0042  156.6238 LP  0  0  0  0  0  0  0  0  0  0  0  0  # atno 17394 bound_to 11000
  140.7707  133.8740  155.8490 LP  0  0  0  0  0  0  0  0  0  0  0  0  # atno 17395 bound_to 11000

$$$$
