AV-unprocessed.smi:72|AV-procd|sdf|706|dock6
  -GOLD-   2262017 23D 1   1.00000     0.00000
 Structure written by MMmdl.
 30 31  0  0  0  0  0  0  0  0  2 V2000
  150.4860  135.3830  155.5133 N   0  0  0  0  0  0  0  0  0  0  0  0
  150.2329  136.7324  155.6439 C   0  0  0  0  0  0  0  0  0  0  0  0
  149.7708  137.4104  154.5314 N   0  3  0  0  0  0  0  0  0  0  0  0
  149.4535  138.7116  154.4992 C   0  0  0  0  0  0  0  0  0  0  0  0
  149.5378  139.4229  155.6074 N   0  0  0  0  0  0  0  0  0  0  0  0
  149.1880  140.8947  155.6275 C   0  0  1  0  0  0  0  0  0  0  0  0
  148.7983  141.2687  154.3384 O   0  0  0  0  0  0  0  0  0  0  0  0
  147.3781  141.3465  154.2235 C   0  0  1  0  0  0  0  0  0  0  0  0
  146.7690  139.9716  153.8557 C   0  0  0  0  0  0  0  0  0  0  0  0
  146.5282  139.9082  152.4667 O   0  0  0  0  0  0  0  0  0  0  0  0
  146.9957  141.8821  155.6091 C   0  0  1  0  0  0  0  0  0  0  0  0
  145.6574  141.5952  155.9650 O   0  0  0  0  0  0  0  0  0  0  0  0
  147.9861  141.2051  156.5507 C   0  0  2  0  0  0  0  0  0  0  0  0
  148.3390  142.0975  157.5887 O   0  0  0  0  0  0  0  0  0  0  0  0
  150.0990  138.8344  156.7717 C   0  0  0  0  0  0  0  0  0  0  0  0
  150.3079  139.5121  157.7763 O   0  0  0  0  0  0  0  0  0  0  0  0
  150.3948  137.4650  156.7102 N   0  0  0  0  0  0  0  0  0  0  0  0
  150.1171  141.3957  155.9044 H   0  0  0  0  0  0  0  0  0  0  0  0
  147.1070  142.0753  153.4583 H   0  0  0  0  0  0  0  0  0  0  0  0
  147.1443  142.9634  155.6169 H   0  0  0  0  0  0  0  0  0  0  0  0
  147.5687  140.2828  156.9581 H   0  0  0  0  0  0  0  0  0  0  0  0
  150.8370  134.8112  156.2687 H   0  0  0  0  0  0  0  0  0  0  0  0
  150.3430  134.8608  154.6607 H   0  0  0  0  0  0  0  0  0  0  0  0
  149.1526  139.1479  153.5563 H   0  0  0  0  0  0  0  0  0  0  0  0
  147.3868  139.1339  154.1755 H   0  0  0  0  0  0  0  0  0  0  0  0
  145.7988  139.8443  154.3356 H   0  0  0  0  0  0  0  0  0  0  0  0
  145.7155  140.3537  152.2802 H   0  0  0  0  0  0  0  0  0  0  0  0
  145.2257  141.2009  155.2219 H   0  0  0  0  0  0  0  0  0  0  0  0
  148.1232  142.9772  157.3195 H   0  0  0  0  0  0  0  0  0  0  0  0
  149.6724  136.8825  153.6759 H   0  0  0  0  0  0  0  0  0  0  0  0
  1  2  1  0  0  0  0
  1 22  1  0  0  0  0
  1 23  1  0  0  0  0
  2 17  2  0  0  0  0
  2  3  1  0  0  0  0
  3  4  2  0  0  0  0
  3 30  1  0  0  0  0
  4  5  1  0  0  0  0
  4 24  1  0  0  0  0
  5  6  1  0  0  0  0
  5 15  1  0  0  0  0
  6 18  1  0  0  0  0
  6 13  1  0  0  0  0
  6  7  1  0  0  0  0
  7  8  1  0  0  0  0
  8 19  1  0  0  0  0
  8  9  1  0  0  0  0
  8 11  1  0  0  0  0
  9 10  1  0  0  0  0
  9 25  1  0  0  0  0
  9 26  1  0  0  0  0
 10 27  1  0  0  0  0
 11 20  1  0  0  0  0
 11 12  1  0  0  0  0
 11 13  1  0  0  0  0
 12 28  1  0  0  0  0
 13 21  1  0  0  0  0
 13 14  1  0  0  0  0
 14 29  1  0  0  0  0
 15 16  2  0  0  0  0
 15 17  1  0  0  0  0
M  CHG  1   3   1
M  END
> <s_m_source_file>
AV-unprocessed.smi

> <i_m_source_file_index>
72

> <i_lp_mmshare_version>
43012

> <i_f3d_flags>
0

> <s_epik_input>
W05IMl1jMW5bY0hdbihjKD1PKW4xKVtDQEBIXTJPW0NASF0oW0NIMl1bT0hdKVtDQEBIXShbT0hdKVtDQEhdMltPSF0=

> <s_epik_cmdline>
J2VwaWtfcHl0aG9uJywgJy1waCcsICc3LjAnLCAnLXRuJywgJzgnLCAnLW1hJywgJzIwMCcsICctbWV0YWxfYmluZGluZycsICctaW1hZScsICc8aW5maWxlLm1hZT4nLCAnLW9tYWUnLCAnPG91dGZpbGUubWFlPic=

> <r_lp_tautomer_probability>
4.77166e-05

> <r_epik_Ionization_Penalty>
0.104979

> <r_epik_Ionization_Penalty_Charging>
0.0999619

> <r_epik_Ionization_Penalty_Neutral>
0.00501745

> <r_epik_State_Penalty>
2.51541

> <r_epik_Charging_Adjusted_Penalty>
2.61537

> <i_epik_Tot_Q>
1

> <i_epik_Tot_abs_Q>
1

> <r_epik_Metal_State_Penalty>
3.53763

> <b_epik_Metal_Only>
0

> <s_epik_Chemistry_Notes>
This compound contains an acetal/aminal-like group ( X-CH(R)-Y where X, Y are N, S, or O) that may be acid/base labile, releasing an aldehyde.

> <s_lp_Force_Field>
OPLS_2005

> <r_lp_Energy>
30.8227

> <b_lp_Chiralities_Consistent>
1

> <s_lp_Variant>
AV-unprocessed.smi:72-44

> <Gold.Version>
5.8.1

> <Gold.Id.Protein>
6NUR|6NUR_protein|mol2

> <Gold.PLP.Fitness>
39.1569

> <Gold.PLP.PLP>
-22.6403

> <Gold.PLP.part.hbond>
-4.9142

> <Gold.PLP.part.metal>
0.0000

> <Gold.PLP.part.buried>
-3.1497

> <Gold.PLP.part.nonpolar>
-16.8476

> <Gold.PLP.part.repulsive>
2.2485

> <Gold.PLP.ligand.clash>
0.0000

> <Gold.PLP.ligand.torsion>
0.5442

> <Gold.PLP.Chemscore.Hbond>
4.8480

> <Gold.PLP.Chemscore.CHOScore>
1.0000

> <Gold.PLP.Chemscore.Metal>
0.0000

> <Gold.Chemscore.Hbonds>
donor molecule, donor type, donor heavy atom, donor atom, acceptor molecule, acceptor atom, score
      L1  H     3    30       P1  7948  2.00
      L1  H    10    27       P1 10175  0.99
      L1  C     4    24       P1  7957  0.84

> <Gold.PLP.Chemscore.Internal.Correction>
0.0610

> <Gold.Rescore>
     Score         DG    S(hbond)    S(metal)    S(lipo)     H(rot)  DE(clash)    DE(int)     intcor
      6.71      -9.43       3.56        0.00      21.29       4.08       1.58       1.14       ----

> <Gold.Chemscore.Fitness>
6.7105

> <Gold.Chemscore.DG>
-9.4268

> <Gold.Chemscore.ZeroCoef>
-5.4800

> <Gold.Chemscore.Hbond>
3.5618

> <Gold.Chemscore.Metal>
0.0000

> <Gold.Chemscore.Lipo>
21.2902

> <Gold.Chemscore.Internal_Hbond>
0.0000

> <Gold.Chemscore.DEClash>
1.5779

> <Gold.Chemscore.DEInternal>
1.1385

> <Gold.Chemscore.Rot>
4.0783

> <Gold.Chemscore.Internal.Correction>
   9.000000E+99

> <Gold.Chemscore.Hbonds>
donor molecule, donor type, donor heavy atom, donor atom, acceptor molecule, acceptor atom, score
      L1  H     3    30       P1  7948  0.65
      L1  H    10    27       P1 10175  0.39

> <Gold.Chemscore.Hbond.Weighted>
-11.8963

> <Gold.Chemscore.Metal.Weighted>
-0.0000

> <Gold.Chemscore.Lipo.Weighted>
-2.4909

> <Gold.Chemscore.Internal_Hbond.Weighted>
0.0000

> <Gold.Chemscore.DEClash.Weighted>
1.5779

> <Gold.Chemscore.DEInternal.Weighted>
1.1385

> <Gold.Chemscore.Rot.Weighted>
10.4404

> <Gold.Chemscore.Internal.Correction.Weighted>
   9.000000E+99

> <Gold.Protein.RotatedTorsions>
[ 6907 6896 6895 6894 ] final   44.21 input  -60.11 | X-H torsion
[ 7974 7965 7964 7962 ] final  146.02 input  175.53 | X-H torsion
[ 8008 7997 7996 7995 ] final  137.96 input   59.86 | X-H torsion
[ 10167 10162 10161 10158 ] final -169.92 input  -65.29 | X-H torsion
[ 10718 10713 10712 10709 ] final  129.13 input   66.30 | X-H torsion
[ 10763 10752 10751 10750 ] final -175.10 input  -60.55 | X-H torsion
[ 11005 11000 10999 10996 ] final -169.97 input  -57.11 | X-H torsion

> <Gold.Protein.ActiveResidues>
 VAL166  LYS551  ARG553  GLY616  TRP617  ASP618  TYR619  PRO620  LYS621  CYS622 
 ASP623  PHE694  ASN695  SER759  ASP760  ASP761  ALA762  ILE779  LEU786  VAL792 
 PHE793  MET794  SER795  GLU796  ALA797  LYS798  CYS799  TRP800  GLU811  SER814 

> <Gold.Protein.RotatedAtoms>
  152.2298  134.8333  160.0474 H   0  0  0  0  0  0  0  0  0  0  0  0  # atno 6907 bound_to 6896
  151.9086  133.3550  159.3864 H   0  0  0  0  0  0  0  0  0  0  0  0  # atno 6908 bound_to 6896
  150.7022  134.4680  159.5456 H   0  0  0  0  0  0  0  0  0  0  0  0  # atno 6909 bound_to 6896
  144.8705  139.5854  143.5889 H   0  0  0  0  0  0  0  0  0  0  0  0  # atno 7974 bound_to 7965
  156.3000  140.2406  156.3995 H   0  0  0  0  0  0  0  0  0  0  0  0  # atno 8008 bound_to 7997
  154.8540  140.0423  157.1642 H   0  0  0  0  0  0  0  0  0  0  0  0  # atno 8009 bound_to 7997
  154.8968  140.2971  155.5344 H   0  0  0  0  0  0  0  0  0  0  0  0  # atno 8010 bound_to 7997
  139.5893  144.1249  152.1614 H   0  0  0  0  0  0  0  0  0  0  0  0  # atno 10167 bound_to 10162
  157.5182  131.1098  150.9192 H   0  0  0  0  0  0  0  0  0  0  0  0  # atno 10718 bound_to 10713
  154.5884  135.2842  155.0661 H   0  0  0  0  0  0  0  0  0  0  0  0  # atno 10763 bound_to 10752
  154.1971  135.6431  153.5080 H   0  0  0  0  0  0  0  0  0  0  0  0  # atno 10764 bound_to 10752
  153.0112  135.5460  154.6561 H   0  0  0  0  0  0  0  0  0  0  0  0  # atno 10765 bound_to 10752
  140.5248  134.5674  157.5058 H   0  0  0  0  0  0  0  0  0  0  0  0  # atno 11005 bound_to 11000
  146.2926  139.7185  142.9149 LP  0  0  0  0  0  0  0  0  0  0  0  0  # atno 17320 bound_to 7965
  145.4140  141.0399  143.3001 LP  0  0  0  0  0  0  0  0  0  0  0  0  # atno 17321 bound_to 7965
  140.0819  144.5693  150.7116 LP  0  0  0  0  0  0  0  0  0  0  0  0  # atno 17342 bound_to 10162
  140.7159  143.2544  151.4435 LP  0  0  0  0  0  0  0  0  0  0  0  0  # atno 17343 bound_to 10162
  156.9811  130.5527  149.5296 LP  0  0  0  0  0  0  0  0  0  0  0  0  # atno 17370 bound_to 10713
  156.0335  130.5424  150.8595 LP  0  0  0  0  0  0  0  0  0  0  0  0  # atno 17371 bound_to 10713
  139.9586  134.7492  156.0286 LP  0  0  0  0  0  0  0  0  0  0  0  0  # atno 17394 bound_to 11000
  141.1314  133.6585  156.3475 LP  0  0  0  0  0  0  0  0  0  0  0  0  # atno 17395 bound_to 11000

$$$$
