#       Name:                AV-unprocessed.smi:1088
#       Creating user name   scv26
#       Creation time:       Fri Mar 27 03:25:55 2020


#       File generated by GOLD software.
#

@<TRIPOS>MOLECULE
AV-unprocessed.smi:1088
    56    57     1
SMALL
NO_CHARGES


@<TRIPOS>ATOM
      1 ****        -0.8460   5.9165  -3.0742 C.3            1 S1                 0.0000
      2 ****        -0.5401   4.9380  -2.0962 O.3            1 S1                 0.0000
      3 ****        -1.4796   4.9171  -1.0344 C.3            1 S1                 0.0000
      4 ****        -1.0630   3.8369  -0.0260 C.3            1 S1                 0.0000
      5 ****        -1.1258   2.4740  -0.6077 N.4            1 S1                 1.0000
      6 ****        -2.4889   1.9821  -0.8985 C.3            1 S1                 0.0000
      7 ****        -2.3599   0.4655  -0.9294 C.3            1 S1                 0.0000
      8 ****        -1.3407   0.1910   0.1695 C.3            1 S1                 0.0000
      9 ****        -0.4251   1.4338   0.1878 C.3            1 S1                 0.0000
     10 ****         0.9881   1.1962  -0.3831 C.3            1 S1                 0.0000
     11 ****         1.7360   0.2236   0.4076 N.am           1 S1                 0.0000
     12 ****         2.0121  -1.0355   0.0359 C.2            1 S1                 0.0000
     13 ****         1.7057  -1.5010  -1.0623 O.2            1 S1                 0.0000
     14 ****         2.7457  -1.9011   1.0674 C.3            1 S1                 0.0000
     15 ****         2.2221  -3.2723   1.1160 N.am           1 S1                 0.0000
     16 ****         2.9354  -4.3015   0.5290 C.2            1 S1                 0.0000
     17 ****         2.5211  -5.5872   0.5256 C.2            1 S1                 0.0000
     18 ****         1.2622  -5.9695   1.1535 C.2            1 S1                 0.0000
     19 ****         0.8559  -7.1315   1.1947 O.2            1 S1                 0.0000
     20 ****         0.5430  -4.8959   1.7299 N.am           1 S1                 0.0000
     21 ****        -0.7123  -5.2003   2.3854 C.3            1 S1                 0.0000
     22 ****         0.9919  -3.5559   1.7494 C.2            1 S1                 0.0000
     23 ****         0.3490  -2.6564   2.2973 O.2            1 S1                 0.0000
     24 ****        -0.0959   5.8917  -3.8646 H              1 S1                 0.0000
     25 ****        -0.8471   6.9186  -2.6433 H              1 S1                 0.0000
     26 ****        -1.8197   5.7293  -3.5286 H              1 S1                 0.0000
     27 ****        -1.4906   5.8895  -0.5398 H              1 S1                 0.0000
     28 ****        -2.4875   4.7368  -1.4109 H              1 S1                 0.0000
     29 ****        -0.0435   4.0403   0.3045 H              1 S1                 0.0000
     30 ****        -1.6937   3.8850   0.8627 H              1 S1                 0.0000
     31 ****        -3.1701   2.2749  -0.0977 H              1 S1                 0.0000
     32 ****        -2.8744   2.3832  -1.8362 H              1 S1                 0.0000
     33 ****        -3.3090  -0.0465  -0.7677 H              1 S1                 0.0000
     34 ****        -1.9614   0.1446  -1.8930 H              1 S1                 0.0000
     35 ****        -1.8572   0.1090   1.1270 H              1 S1                 0.0000
     36 ****        -0.8177  -0.7508   0.0089 H              1 S1                 0.0000
     37 ****        -0.3333   1.7666   1.2235 H              1 S1                 0.0000
     38 ****         0.9268   0.8963  -1.4306 H              1 S1                 0.0000
     39 ****         1.5514   2.1299  -0.3693 H              1 S1                 0.0000
     40 ****         2.0370   0.5184   1.3254 H              1 S1                 0.0000
     41 ****         3.8062  -1.9092   0.8126 H              1 S1                 0.0000
     42 ****         2.6819  -1.4467   2.0581 H              1 S1                 0.0000
     43 ****         3.8741  -4.0697   0.0469 H              1 S1                 0.0000
     44 ****         3.1296  -6.3439   0.0523 H              1 S1                 0.0000
     45 ****        -1.3786  -4.3389   2.3216 H              1 S1                 0.0000
     46 ****        -0.4768  -5.4471   3.4215 H              1 S1                 0.0000
     47 ****        -1.1957  -6.0350   1.8756 H              1 S1                 0.0000
     48 ****        -0.6434   2.5068  -1.4948 H              1 S1                 0.0000
     49 ****         0.3652   5.1338  -1.7192 LP             1 S1                 0.0000
     50 ****        -0.5314   4.0390  -2.5342 LP             1 S1                 0.0000
     51 ****         1.2257  -0.9322  -1.7302 LP             1 S1                 0.0000
     52 ****         1.9370  -2.4478  -1.2862 LP             1 S1                 0.0000
     53 ****         1.3976  -7.8654   0.7848 LP             1 S1                 0.0000
     54 ****        -0.0156  -7.3410   1.6380 LP             1 S1                 0.0000
     55 ****         0.6983  -1.7194   2.2948 LP             1 S1                 0.0000
     56 ****        -0.5212  -2.8645   2.7438 LP             1 S1                 0.0000
@<TRIPOS>BOND
    1    1    2 1     
    2    1   24 1     
    3    1   25 1     
    4    1   26 1     
    5    2    3 1     
    6    3    4 1     
    7    3   27 1     
    8    3   28 1     
    9    4    5 1     
   10    4   29 1     
   11    4   30 1     
   12    5    9 1     
   13    5    6 1     
   14    5   48 1     
   15    6    7 1     
   16    6   31 1     
   17    6   32 1     
   18    7    8 1     
   19    7   33 1     
   20    7   34 1     
   21    8    9 1     
   22    8   35 1     
   23    8   36 1     
   24    9   10 1     
   25    9   37 1     
   26   10   11 1     
   27   10   38 1     
   28   10   39 1     
   29   11   12 am    
   30   11   40 1     
   31   12   13 2     
   32   12   14 1     
   33   14   15 1     
   34   14   41 1     
   35   14   42 1     
   36   15   22 am    
   37   15   16 1     
   38   16   17 2     
   39   16   43 1     
   40   17   18 1     
   41   17   44 1     
   42   18   19 2     
   43   18   20 am    
   44   20   21 1     
   45   20   22 am    
   46   21   45 1     
   47   21   46 1     
   48   21   47 1     
   49   22   23 2     
   50    2   49 1     
   51    2   50 1     
   52   13   51 1     
   53   13   52 1     
   54   19   53 1     
   55   19   54 1     
   56   23   55 1     
   57   23   56 1     
@<TRIPOS>SUBSTRUCTURE
      1 S1             1
@<TRIPOS>SET
LONE_PAIRS      STATIC     ATOMS    <user>   **** ""
8 49 50 51 52 53 54 55 56
DONOR_HYDROGENS      STATIC     ATOMS    <user>   **** ""
2 48 40
ATOM$BLUE        STATIC     ATOMS    COLORGROUP SYSTEM
8 49 50 51 52 53 54 55 56
ATOM$RED        STATIC     ATOMS    COLORGROUP SYSTEM
2 48 40
