AV-unprocessed.smi:72|AV-procd|sdf|732|dock6
  -GOLD-   2262017 63D 1   1.00000     0.00000
 Structure written by MMmdl.
 28 29  0  0  0  0  0  0  0  0  2 V2000
  148.3847  136.4242  161.3071 N   0  0  0  0  0  0  0  0  0  0  0  0
  148.4684  136.6242  160.0648 C   0  0  0  0  0  0  0  0  0  0  0  0
  147.8807  137.8108  159.4827 N   0  0  0  0  0  0  0  0  0  0  0  0
  147.9999  137.9792  158.2016 C   0  0  0  0  0  0  0  0  0  0  0  0
  148.7029  137.0182  157.3606 N   0  0  0  0  0  0  0  0  0  0  0  0
  148.8514  137.2100  155.8594 C   0  0  1  0  0  0  0  0  0  0  0  0
  148.1750  138.3671  155.4547 O   0  0  0  0  0  0  0  0  0  0  0  0
  149.1083  139.3755  155.0845 C   0  0  2  0  0  0  0  0  0  0  0  0
  148.4527  140.4220  154.1664 C   0  0  0  0  0  0  0  0  0  0  0  0
  149.4392  141.1425  153.4585 O   0  0  0  0  0  0  0  0  0  0  0  0
  150.2874  138.5815  154.5089 C   0  0  2  0  0  0  0  0  0  0  0  0
  150.0512  138.2143  153.1622 O   0  0  0  0  0  0  0  0  0  0  0  0
  150.3257  137.3458  155.3993 C   0  0  1  0  0  0  0  0  0  0  0  0
  151.2439  137.5507  156.4597 O   0  0  0  0  0  0  0  0  0  0  0  0
  149.2657  135.8598  157.9602 C   0  0  0  0  0  0  0  0  0  0  0  0
  149.8593  135.0621  157.2338 O   0  0  0  0  0  0  0  0  0  0  0  0
  149.1292  135.6851  159.3045 N   0  5  0  0  0  0  0  0  0  0  0  0
  148.3371  136.3623  155.4039 H   0  0  0  0  0  0  0  0  0  0  0  0
  149.4398  139.8682  156.0000 H   0  0  0  0  0  0  0  0  0  0  0  0
  151.2164  139.1524  154.5416 H   0  0  0  0  0  0  0  0  0  0  0  0
  150.6273  136.4496  154.8552 H   0  0  0  0  0  0  0  0  0  0  0  0
  148.8314  135.5660  161.5950 H   0  0  0  0  0  0  0  0  0  0  0  0
  147.5835  138.8438  157.6857 H   0  0  0  0  0  0  0  0  0  0  0  0
  147.7567  139.9622  153.4646 H   0  0  0  0  0  0  0  0  0  0  0  0
  147.8762  141.1279  154.7648 H   0  0  0  0  0  0  0  0  0  0  0  0
  149.3518  140.9456  152.5381 H   0  0  0  0  0  0  0  0  0  0  0  0
  149.8152  138.9911  152.6788 H   0  0  0  0  0  0  0  0  0  0  0  0
  151.4619  138.4694  156.4947 H   0  0  0  0  0  0  0  0  0  0  0  0
  1  2  2  0  0  0  0
  1 22  1  0  0  0  0
  2 17  1  0  0  0  0
  2  3  1  0  0  0  0
  3  4  2  0  0  0  0
  4  5  1  0  0  0  0
  4 23  1  0  0  0  0
  5  6  1  0  0  0  0
  5 15  1  0  0  0  0
  6 18  1  0  0  0  0
  6 13  1  0  0  0  0
  6  7  1  0  0  0  0
  7  8  1  0  0  0  0
  8 19  1  0  0  0  0
  8  9  1  0  0  0  0
  8 11  1  0  0  0  0
  9 10  1  0  0  0  0
  9 24  1  0  0  0  0
  9 25  1  0  0  0  0
 10 26  1  0  0  0  0
 11 20  1  0  0  0  0
 11 12  1  0  0  0  0
 11 13  1  0  0  0  0
 12 27  1  0  0  0  0
 13 21  1  0  0  0  0
 13 14  1  0  0  0  0
 14 28  1  0  0  0  0
 15 16  2  0  0  0  0
 15 17  1  0  0  0  0
M  CHG  1  17  -1
M  END
> <s_m_source_file>
AV-unprocessed.smi

> <i_m_source_file_index>
72

> <i_lp_mmshare_version>
43012

> <i_f3d_flags>
0

> <s_epik_input>
W05IMl1jMW5bY0hdbihjKD1PKW4xKVtDQEBIXTJPW0NASF0oW0NIMl1bT0hdKVtDQEBIXShbT0hdKVtDQEhdMltPSF0=

> <s_epik_cmdline>
J2VwaWtfcHl0aG9uJywgJy1waCcsICc3LjAnLCAnLXRuJywgJzgnLCAnLW1hJywgJzIwMCcsICctbWV0YWxfYmluZGluZycsICctaW1hZScsICc8aW5maWxlLm1hZT4nLCAnLW9tYWUnLCAnPG91dGZpbGUubWFlPic=

> <r_lp_tautomer_probability>
7.17554e-07

> <r_epik_Ionization_Penalty>
12.8705

> <r_epik_Ionization_Penalty_Charging>
5.64144

> <r_epik_Ionization_Penalty_Neutral>
7.22905

> <r_epik_State_Penalty>
3.30104

> <r_epik_Charging_Adjusted_Penalty>
8.94249

> <i_epik_Tot_Q>
-1

> <i_epik_Tot_abs_Q>
1

> <r_epik_Metal_State_Penalty>
0.529074

> <b_epik_Metal_Only>
1

> <s_epik_Chemistry_Notes>
This compound contains an acetal/aminal-like group ( X-CH(R)-Y where X, Y are N, S, or O) that may be acid/base labile, releasing an aldehyde.

> <s_lp_Force_Field>
OPLS_2005

> <r_lp_Energy>
37.8021

> <b_lp_Chiralities_Consistent>
1

> <s_lp_Variant>
AV-unprocessed.smi:72-70

> <Gold.Version>
5.8.1

> <Gold.Id.Protein>
6NUR|6NUR_protein|mol2

> <Gold.PLP.Fitness>
34.9675

> <Gold.PLP.PLP>
-19.1028

> <Gold.PLP.part.hbond>
-9.2880

> <Gold.PLP.part.metal>
0.0000

> <Gold.PLP.part.buried>
-0.2244

> <Gold.PLP.part.nonpolar>
-9.7997

> <Gold.PLP.part.repulsive>
0.0435

> <Gold.PLP.ligand.clash>
0.0000

> <Gold.PLP.ligand.torsion>
0.1797

> <Gold.PLP.Chemscore.Hbond>
5.3946

> <Gold.PLP.Chemscore.CHOScore>
0.0000

> <Gold.PLP.Chemscore.Metal>
0.0000

> <Gold.Chemscore.Hbonds>
donor molecule, donor type, donor heavy atom, donor atom, acceptor molecule, acceptor atom, score
      L1  H    10    26       P1  7957  1.00
      L1  H    12    27       P1  7957  1.00
      P1  H  6896  6909       L1    17  1.80
      P1  H  6931  6943       L1     1  0.85
      P1  H  6934  6947       L1     3  0.50
      P1  H  7989  7998       L1    10  0.09

> <Gold.PLP.Chemscore.Internal.Correction>
0.0404

> <Gold.Rescore>
     Score         DG    S(hbond)    S(metal)    S(lipo)     H(rot)  DE(clash)    DE(int)     intcor
      6.15      -6.55       2.65        0.00      21.91       4.04       0.05       0.35       ----

> <Gold.Chemscore.Fitness>
6.1535

> <Gold.Chemscore.DG>
-6.5474

> <Gold.Chemscore.ZeroCoef>
-5.4800

> <Gold.Chemscore.Hbond>
2.6488

> <Gold.Chemscore.Metal>
0.0000

> <Gold.Chemscore.Lipo>
21.9089

> <Gold.Chemscore.Internal_Hbond>
0.0000

> <Gold.Chemscore.DEClash>
0.0475

> <Gold.Chemscore.DEInternal>
0.3464

> <Gold.Chemscore.Rot>
4.0403

> <Gold.Chemscore.Internal.Correction>
   9.000000E+99

> <Gold.Chemscore.Hbonds>
donor molecule, donor type, donor heavy atom, donor atom, acceptor molecule, acceptor atom, score
      L1  H    10    26       P1  7957  0.98
      L1  H    12    27       P1  7957  0.80
      P1  H  6896  6909       L1    17  0.18
      P1  H  6931  6943       L1     1  0.14
      P1  H  6934  6947       L1     3  0.38
      P1  H  7989  7998       L1    10  0.01

> <Gold.Chemscore.Hbond.Weighted>
-8.8471

> <Gold.Chemscore.Metal.Weighted>
-0.0000

> <Gold.Chemscore.Lipo.Weighted>
-2.5633

> <Gold.Chemscore.Internal_Hbond.Weighted>
0.0000

> <Gold.Chemscore.DEClash.Weighted>
0.0475

> <Gold.Chemscore.DEInternal.Weighted>
0.3464

> <Gold.Chemscore.Rot.Weighted>
10.3431

> <Gold.Chemscore.Internal.Correction.Weighted>
   9.000000E+99

> <Gold.Protein.RotatedTorsions>
[ 6907 6896 6895 6894 ] final   53.12 input  -60.11 | X-H torsion
[ 7974 7965 7964 7962 ] final -175.11 input  175.53 | X-H torsion
[ 8008 7997 7996 7995 ] final  -29.75 input   59.86 | X-H torsion
[ 10167 10162 10161 10158 ] final  -34.25 input  -65.29 | X-H torsion
[ 10718 10713 10712 10709 ] final -123.43 input   66.30 | X-H torsion
[ 10763 10752 10751 10750 ] final  121.84 input  -60.55 | X-H torsion
[ 11005 11000 10999 10996 ] final   79.18 input  -57.11 | X-H torsion

> <Gold.Protein.ActiveResidues>
 VAL166  LYS551  ARG553  GLY616  TRP617  ASP618  TYR619  PRO620  LYS621  CYS622 
 ASP623  PHE694  ASN695  SER759  ASP760  ASP761  ALA762  ILE779  LEU786  VAL792 
 PHE793  MET794  SER795  GLU796  ALA797  LYS798  CYS799  TRP800  GLU811  SER814 

> <Gold.Protein.RotatedAtoms>
  152.3304  134.7267  160.0290 H   0  0  0  0  0  0  0  0  0  0  0  0  # atno 6907 bound_to 6896
  151.7686  133.3334  159.3446 H   0  0  0  0  0  0  0  0  0  0  0  0  # atno 6908 bound_to 6896
  150.7419  134.5971  159.6062 H   0  0  0  0  0  0  0  0  0  0  0  0  # atno 6909 bound_to 6896
  144.7129  140.1370  143.6394 H   0  0  0  0  0  0  0  0  0  0  0  0  # atno 7974 bound_to 7965
  154.4277  140.1809  156.1298 H   0  0  0  0  0  0  0  0  0  0  0  0  # atno 8008 bound_to 7997
  156.0076  140.3354  155.6883 H   0  0  0  0  0  0  0  0  0  0  0  0  # atno 8009 bound_to 7997
  155.6155  140.0654  157.2684 H   0  0  0  0  0  0  0  0  0  0  0  0  # atno 8010 bound_to 7997
  140.7189  143.3561  151.2056 H   0  0  0  0  0  0  0  0  0  0  0  0  # atno 10167 bound_to 10162
  156.1502  130.6529  150.9902 H   0  0  0  0  0  0  0  0  0  0  0  0  # atno 10718 bound_to 10713
  153.6204  135.3414  155.3009 H   0  0  0  0  0  0  0  0  0  0  0  0  # atno 10763 bound_to 10752
  154.8601  135.4271  154.2214 H   0  0  0  0  0  0  0  0  0  0  0  0  # atno 10764 bound_to 10752
  153.3085  135.7030  153.7210 H   0  0  0  0  0  0  0  0  0  0  0  0  # atno 10765 bound_to 10752
  139.9183  134.7822  156.1745 H   0  0  0  0  0  0  0  0  0  0  0  0  # atno 11005 bound_to 11000
  145.9235  139.2561  143.1367 LP  0  0  0  0  0  0  0  0  0  0  0  0  # atno 17320 bound_to 7965
  145.9596  140.8846  143.0218 LP  0  0  0  0  0  0  0  0  0  0  0  0  # atno 17321 bound_to 7965
  139.7103  143.9387  152.2944 LP  0  0  0  0  0  0  0  0  0  0  0  0  # atno 17342 bound_to 10162
  139.9110  144.6856  150.8562 LP  0  0  0  0  0  0  0  0  0  0  0  0  # atno 17343 bound_to 10162
  157.6650  131.0873  150.7749 LP  0  0  0  0  0  0  0  0  0  0  0  0  # atno 17370 bound_to 10713
  156.7818  130.4861  149.5400 LP  0  0  0  0  0  0  0  0  0  0  0  0  # atno 17371 bound_to 10713
  141.0680  133.6810  156.2083 LP  0  0  0  0  0  0  0  0  0  0  0  0  # atno 17394 bound_to 11000
  140.6553  134.5024  157.5580 LP  0  0  0  0  0  0  0  0  0  0  0  0  # atno 17395 bound_to 11000

$$$$
