#       Name:                AV-unprocessed.smi:2472
#       Creating user name   scv26
#       Creation time:       Fri Mar 27 13:38:14 2020


#       File generated by GOLD software.
#

@<TRIPOS>MOLECULE
AV-unprocessed.smi:2472
    52    54     1
SMALL
NO_CHARGES


@<TRIPOS>ATOM
      1 ****        -4.1804  -0.7395  -0.2631 C.3            1 S1                 0.0000
      2 ****        -4.0030   0.6873  -0.7518 C.ar           1 S1                 0.0000
      3 ****        -5.0960   1.5806  -0.7318 C.ar           1 S1                 0.0000
      4 ****        -5.0209   2.8612  -1.1493 N.ar           1 S1                 0.0000
      5 ****        -3.8346   3.3025  -1.6152 C.ar           1 S1                 0.0000
      6 ****        -2.6799   2.4989  -1.6799 C.ar           1 S1                 0.0000
      7 ****        -2.7554   1.1605  -1.2254 C.ar           1 S1                 0.0000
      8 ****        -1.6495   0.2667  -1.2698 N.am           1 S1                 0.0000
      9 ****        -0.3421   0.5605  -1.1713 C.2            1 S1                 0.0000
     10 ****         0.1224   1.6918  -1.0311 O.2            1 S1                 0.0000
     11 ****         0.4091  -0.5548  -1.2057 N.am           1 S1                 0.0000
     12 ****         1.8752  -0.6627  -1.0838 C.3            1 S1                 0.0000
     13 ****         2.3931  -0.3254   0.3444 C.2            1 S1                 0.0000
     14 ****         3.6005  -0.1842   0.5434 O.2            1 S1                 0.0000
     15 ****         1.4935  -0.2153   1.3357 N.am           1 S1                 0.0000
     16 ****         1.8070   0.1026   2.7198 C.3            1 S1                 0.0000
     17 ****         0.5839   0.3401   3.5803 C.3            1 S1                 0.0000
     18 ****         0.6867   0.3131   5.0869 C.3            1 S1                 0.0000
     19 ****        -0.0491  -0.7877   4.3609 C.3            1 S1                 0.0000
     20 ****         2.2822  -2.1162  -1.4267 C.3            1 S1                 0.0000
     21 ****         3.6095  -2.0274  -2.1767 C.3            1 S1                 0.0000
     22 ****         3.4747  -0.7582  -3.0074 C.3            1 S1                 0.0000
     23 ****         2.5974   0.1871  -2.1767 C.3            1 S1                 0.0000
     24 ****        -5.1929  -0.9088   0.1051 H              1 S1                 0.0000
     25 ****        -3.4864  -0.9531   0.5501 H              1 S1                 0.0000
     26 ****        -3.9932  -1.4448  -1.0732 H              1 S1                 0.0000
     27 ****        -6.0623   1.2600  -0.3711 H              1 S1                 0.0000
     28 ****        -3.8053   4.3277  -1.9539 H              1 S1                 0.0000
     29 ****        -1.7698   2.9154  -2.0839 H              1 S1                 0.0000
     30 ****        -1.8857  -0.7145  -1.2830 H              1 S1                 0.0000
     31 ****        -0.0808  -1.4302  -1.3180 H              1 S1                 0.0000
     32 ****         0.5189  -0.3439   1.1059 H              1 S1                 0.0000
     33 ****         2.4030  -0.7049   3.1480 H              1 S1                 0.0000
     34 ****         2.4230   1.0026   2.7496 H              1 S1                 0.0000
     35 ****        -0.0980   1.0847   3.1731 H              1 S1                 0.0000
     36 ****         1.6518   0.0673   5.5259 H              1 S1                 0.0000
     37 ****         0.0907   1.0331   5.6443 H              1 S1                 0.0000
     38 ****        -1.1349  -0.8003   4.4308 H              1 S1                 0.0000
     39 ****         0.4266  -1.7654   4.3177 H              1 S1                 0.0000
     40 ****         2.3589  -2.7636  -0.5514 H              1 S1                 0.0000
     41 ****         1.5420  -2.5736  -2.0857 H              1 S1                 0.0000
     42 ****         4.4324  -1.9224  -1.4686 H              1 S1                 0.0000
     43 ****         3.8067  -2.9089  -2.7874 H              1 S1                 0.0000
     44 ****         4.4418  -0.3198  -3.2553 H              1 S1                 0.0000
     45 ****         2.9697  -0.9916  -3.9456 H              1 S1                 0.0000
     46 ****         1.9026   0.7007  -2.8418 H              1 S1                 0.0000
     47 ****         3.2152   0.9720  -1.7380 H              1 S1                 0.0000
     48 ****        -5.8184   3.4634  -1.1145 LP             1 S1                 0.0000
     49 ****        -0.4896   2.4811  -0.9822 LP             1 S1                 0.0000
     50 ****         1.1118   1.8216  -0.9660 LP             1 S1                 0.0000
     51 ****         4.2472  -0.2863  -0.2125 LP             1 S1                 0.0000
     52 ****         3.9341   0.0326   1.4609 LP             1 S1                 0.0000
@<TRIPOS>BOND
    1    1    2 1     
    2    1   24 1     
    3    1   25 1     
    4    1   26 1     
    5    2    7 ar    
    6    2    3 ar    
    7    3    4 ar    
    8    3   27 1     
    9    4    5 ar    
   10    5    6 ar    
   11    5   28 1     
   12    6    7 ar    
   13    6   29 1     
   14    7    8 1     
   15    8    9 am    
   16    8   30 1     
   17    9   10 2     
   18    9   11 am    
   19   11   12 1     
   20   11   31 1     
   21   12   23 1     
   22   12   13 1     
   23   12   20 1     
   24   13   14 2     
   25   13   15 am    
   26   15   16 1     
   27   15   32 1     
   28   16   17 1     
   29   16   33 1     
   30   16   34 1     
   31   17   19 1     
   32   17   18 1     
   33   17   35 1     
   34   18   19 1     
   35   18   36 1     
   36   18   37 1     
   37   19   38 1     
   38   19   39 1     
   39   20   21 1     
   40   20   40 1     
   41   20   41 1     
   42   21   22 1     
   43   21   42 1     
   44   21   43 1     
   45   22   23 1     
   46   22   44 1     
   47   22   45 1     
   48   23   46 1     
   49   23   47 1     
   50    4   48 1     
   51   10   49 1     
   52   10   50 1     
   53   14   51 1     
   54   14   52 1     
@<TRIPOS>SUBSTRUCTURE
      1 S1             1
@<TRIPOS>SET
LONE_PAIRS      STATIC     ATOMS    <user>   **** ""
5 48 49 50 51 52
DONOR_HYDROGENS      STATIC     ATOMS    <user>   **** ""
3 30 31 32
ATOM$BLUE        STATIC     ATOMS    COLORGROUP SYSTEM
5 48 49 50 51 52
ATOM$RED        STATIC     ATOMS    COLORGROUP SYSTEM
3 30 31 32
