AV-unprocessed.smi:2248|AV-procd|sdf|9096|dock3
  -GOLD-   2272012293D 1   1.00000     0.00000
 Structure written by MMmdl.
 35 36  0  0  0  0  0  0  0  0  1 V2000
  153.4170  140.8849  160.2313 C   0  0  0  0  0  0  0  0  0  0  0  0
  152.7905  142.1166  159.6120 C   0  0  0  0  0  0  0  0  0  0  0  0
  153.0764  143.4023  160.1112 C   0  0  0  0  0  0  0  0  0  0  0  0
  152.4591  144.5051  159.4941 C   0  0  0  0  0  0  0  0  0  0  0  0
  151.5863  144.2782  158.4123 C   0  0  0  0  0  0  0  0  0  0  0  0
  151.3508  142.9553  157.9745 C   0  0  0  0  0  0  0  0  0  0  0  0
  150.4529  142.8330  156.8807 N   0  0  0  0  0  0  0  0  0  0  0  0
  150.3038  141.7936  156.0405 C   0  0  0  0  0  0  0  0  0  0  0  0
  150.9525  140.7474  156.0775 O   0  0  0  0  0  0  0  0  0  0  0  0
  149.3428  142.0333  155.1366 N   0  0  0  0  0  0  0  0  0  0  0  0
  148.9336  141.1027  154.0903 C   0  0  2  0  0  0  0  0  0  0  0  0
  147.7264  141.6243  153.3609 C   0  0  0  0  0  0  0  0  0  0  0  0
  146.6897  140.7918  153.4206 C   0  0  0  0  0  0  0  0  0  0  0  0
  146.9785  139.5506  154.2237 C   0  0  1  0  0  0  0  0  0  0  0  0
  146.7168  138.2687  153.4156 C   0  0  0  0  0  0  0  0  0  0  0  0
  145.3799  138.2410  152.9623 O   0  0  0  0  0  0  0  0  0  0  0  0
  148.4591  139.7358  154.6499 C   0  0  0  0  0  0  0  0  0  0  0  0
  151.9525  141.8987  158.5758 N   0  0  0  0  0  0  0  0  0  0  0  0
  149.7414  140.9676  153.3690 H   0  0  0  0  0  0  0  0  0  0  0  0
  146.3319  139.5712  155.1020 H   0  0  0  0  0  0  0  0  0  0  0  0
  154.3080  141.1444  160.8037 H   0  0  0  0  0  0  0  0  0  0  0  0
  153.7070  140.1697  159.4606 H   0  0  0  0  0  0  0  0  0  0  0  0
  152.7081  140.3989  160.9018 H   0  0  0  0  0  0  0  0  0  0  0  0
  153.7490  143.5422  160.9448 H   0  0  0  0  0  0  0  0  0  0  0  0
  152.6500  145.5085  159.8448 H   0  0  0  0  0  0  0  0  0  0  0  0
  151.1032  145.1144  157.9282 H   0  0  0  0  0  0  0  0  0  0  0  0
  149.8480  143.6258  156.7254 H   0  0  0  0  0  0  0  0  0  0  0  0
  148.8569  142.9172  155.1764 H   0  0  0  0  0  0  0  0  0  0  0  0
  147.7330  142.5713  152.8415 H   0  0  0  0  0  0  0  0  0  0  0  0
  145.7267  140.9687  152.9645 H   0  0  0  0  0  0  0  0  0  0  0  0
  147.3748  138.2250  152.5472 H   0  0  0  0  0  0  0  0  0  0  0  0
  146.9143  137.3798  154.0163 H   0  0  0  0  0  0  0  0  0  0  0  0
  145.0290  139.1174  153.0064 H   0  0  0  0  0  0  0  0  0  0  0  0
  149.0885  138.9381  154.2533 H   0  0  0  0  0  0  0  0  0  0  0  0
  148.5469  139.6862  155.7363 H   0  0  0  0  0  0  0  0  0  0  0  0
  1  2  1  0  0  0  0
  1 21  1  0  0  0  0
  1 22  1  0  0  0  0
  1 23  1  0  0  0  0
  2 18  1  0  0  0  0
  2  3  2  0  0  0  0
  3  4  1  0  0  0  0
  3 24  1  0  0  0  0
  4  5  2  0  0  0  0
  4 25  1  0  0  0  0
  5  6  1  0  0  0  0
  5 26  1  0  0  0  0
  6  7  1  0  0  0  0
  6 18  2  0  0  0  0
  7  8  1  0  0  0  0
  7 27  1  0  0  0  0
  8  9  2  0  0  0  0
  8 10  1  0  0  0  0
 10 11  1  0  0  0  0
 10 28  1  0  0  0  0
 11 19  1  0  0  0  0
 11 17  1  0  0  0  0
 11 12  1  0  0  0  0
 12 13  2  0  0  0  0
 12 29  1  0  0  0  0
 13 14  1  0  0  0  0
 13 30  1  0  0  0  0
 14 20  1  0  0  0  0
 14 15  1  0  0  0  0
 14 17  1  0  0  0  0
 15 16  1  0  0  0  0
 15 31  1  0  0  0  0
 15 32  1  0  0  0  0
 16 33  1  0  0  0  0
 17 34  1  0  0  0  0
 17 35  1  0  0  0  0
M  END
> <s_m_source_file>
AV-unprocessed.smi

> <i_m_source_file_index>
2248

> <i_lp_mmshare_version>
43012

> <i_f3d_flags>
0

> <s_epik_input>
W0NIM11jMVtjSF1bY0hdW2NIXWMobjEpW05IXUMoPU8pW05IXVtDQEBIXTJbQ0hdPVtDSF1bQ0BASF0oW0NIMl0yKVtDSDJdW09IXQ==

> <s_epik_cmdline>
J2VwaWtfcHl0aG9uJywgJy1waCcsICc3LjAnLCAnLXRuJywgJzgnLCAnLW1hJywgJzIwMCcsICctbWV0YWxfYmluZGluZycsICctaW1hZScsICc8aW5maWxlLm1hZT4nLCAnLW9tYWUnLCAnPG91dGZpbGUubWFlPic=

> <r_lp_tautomer_probability>
1

> <r_epik_Ionization_Penalty>
8.36606e-05

> <r_epik_Ionization_Penalty_Charging>
0

> <r_epik_Ionization_Penalty_Neutral>
8.36606e-05

> <r_epik_State_Penalty>
-0

> <r_epik_Charging_Adjusted_Penalty>
0

> <i_epik_Tot_Q>
0

> <i_epik_Tot_abs_Q>
0

> <r_epik_Metal_State_Penalty>
-0

> <b_epik_Metal_Only>
0

> <s_lp_Force_Field>
OPLS_2005

> <r_lp_Energy>
17.6119

> <b_lp_Chiralities_Consistent>
1

> <s_lp_Variant>
AV-unprocessed.smi:2248-3

> <Gold.Version>
5.8.1

> <Gold.Id.Protein>
6NUR|6NUR_protein|mol2

> <Gold.PLP.Fitness>
45.4790

> <Gold.PLP.PLP>
-36.7631

> <Gold.PLP.part.hbond>
-3.0000

> <Gold.PLP.part.metal>
0.0000

> <Gold.PLP.part.buried>
-3.7260

> <Gold.PLP.part.nonpolar>
-30.1729

> <Gold.PLP.part.repulsive>
0.2539

> <Gold.PLP.ligand.clash>
0.0000

> <Gold.PLP.ligand.torsion>
0.1134

> <Gold.PLP.Chemscore.Hbond>
2.9760

> <Gold.PLP.Chemscore.CHOScore>
0.0000

> <Gold.PLP.Chemscore.Metal>
0.0000

> <Gold.Chemscore.Hbonds>
donor molecule, donor type, donor heavy atom, donor atom, acceptor molecule, acceptor atom, score
      L1  H     7    27       P1  8028  1.00
      L1  H    10    28       P1  8028  0.98
      L1  H    16    33       P1 10175  1.00

> <Gold.PLP.Chemscore.Internal.Correction>
0.0147

> <Gold.Rescore>
     Score         DG    S(hbond)    S(metal)    S(lipo)     H(rot)  DE(clash)    DE(int)     intcor
     18.77     -21.10       2.81        0.00      92.99       1.82       0.45       1.88       ----

> <Gold.Chemscore.Fitness>
18.7662

> <Gold.Chemscore.DG>
-21.1024

> <Gold.Chemscore.ZeroCoef>
-5.4800

> <Gold.Chemscore.Hbond>
2.8137

> <Gold.Chemscore.Metal>
0.0000

> <Gold.Chemscore.Lipo>
92.9891

> <Gold.Chemscore.Internal_Hbond>
0.0000

> <Gold.Chemscore.DEClash>
0.4527

> <Gold.Chemscore.DEInternal>
1.8836

> <Gold.Chemscore.Rot>
1.8184

> <Gold.Chemscore.Internal.Correction>
   9.000000E+99

> <Gold.Chemscore.Hbonds>
donor molecule, donor type, donor heavy atom, donor atom, acceptor molecule, acceptor atom, score
      L1  H     7    27       P1  8028  0.97
      L1  H    10    28       P1  8028  0.93
      L1  H    16    33       P1 10175  0.92

> <Gold.Chemscore.Hbond.Weighted>
-9.3977

> <Gold.Chemscore.Metal.Weighted>
-0.0000

> <Gold.Chemscore.Lipo.Weighted>
-10.8797

> <Gold.Chemscore.Internal_Hbond.Weighted>
0.0000

> <Gold.Chemscore.DEClash.Weighted>
0.4527

> <Gold.Chemscore.DEInternal.Weighted>
1.8836

> <Gold.Chemscore.Rot.Weighted>
4.6551

> <Gold.Chemscore.Internal.Correction.Weighted>
   9.000000E+99

> <Gold.Protein.RotatedTorsions>
[ 6907 6896 6895 6894 ] final   97.88 input  -60.11 | X-H torsion
[ 7974 7965 7964 7962 ] final  -50.28 input  175.53 | X-H torsion
[ 8008 7997 7996 7995 ] final -113.26 input   59.86 | X-H torsion
[ 10167 10162 10161 10158 ] final   24.06 input  -65.29 | X-H torsion
[ 10718 10713 10712 10709 ] final  -37.11 input   66.30 | X-H torsion
[ 10763 10752 10751 10750 ] final  176.24 input  -60.55 | X-H torsion
[ 11005 11000 10999 10996 ] final -124.16 input  -57.11 | X-H torsion

> <Gold.Protein.ActiveResidues>
 VAL166  LYS551  ARG553  GLY616  TRP617  ASP618  TYR619  PRO620  LYS621  CYS622 
 ASP623  PHE694  ASN695  SER759  ASP760  ASP761  ALA762  ILE779  LEU786  VAL792 
 PHE793  MET794  SER795  GLU796  ALA797  LYS798  CYS799  TRP800  GLU811  SER814 

> <Gold.Protein.RotatedAtoms>
  152.5417  134.0666  159.8175 H   0  0  0  0  0  0  0  0  0  0  0  0  # atno 6907 bound_to 6896
  151.0786  133.5400  159.2629 H   0  0  0  0  0  0  0  0  0  0  0  0  # atno 6908 bound_to 6896
  151.2236  135.0536  159.9013 H   0  0  0  0  0  0  0  0  0  0  0  0  # atno 6909 bound_to 6896
  145.9315  140.7745  142.9597 H   0  0  0  0  0  0  0  0  0  0  0  0  # atno 7974 bound_to 7965
  155.0180  140.0393  157.2426 H   0  0  0  0  0  0  0  0  0  0  0  0  # atno 8008 bound_to 7997
  154.7403  140.2747  155.6356 H   0  0  0  0  0  0  0  0  0  0  0  0  # atno 8009 bound_to 7997
  156.2862  140.2667  156.2128 H   0  0  0  0  0  0  0  0  0  0  0  0  # atno 8010 bound_to 7997
  140.5219  143.9988  150.6421 H   0  0  0  0  0  0  0  0  0  0  0  0  # atno 10167 bound_to 10162
  156.3190  130.4263  149.7978 H   0  0  0  0  0  0  0  0  0  0  0  0  # atno 10718 bound_to 10713
  154.4784  135.2774  155.1589 H   0  0  0  0  0  0  0  0  0  0  0  0  # atno 10763 bound_to 10752
  154.3310  135.6190  153.5555 H   0  0  0  0  0  0  0  0  0  0  0  0  # atno 10764 bound_to 10752
  152.9872  135.5765  154.5180 H   0  0  0  0  0  0  0  0  0  0  0  0  # atno 10765 bound_to 10752
  140.9862  134.0603  157.3708 H   0  0  0  0  0  0  0  0  0  0  0  0  # atno 11005 bound_to 11000
  144.6765  140.2135  143.7374 LP  0  0  0  0  0  0  0  0  0  0  0  0  # atno 17320 bound_to 7965
  145.8420  139.2134  143.1822 LP  0  0  0  0  0  0  0  0  0  0  0  0  # atno 17321 bound_to 7965
  140.3340  143.3060  152.0658 LP  0  0  0  0  0  0  0  0  0  0  0  0  # atno 17342 bound_to 10162
  139.4926  144.6489  151.6718 LP  0  0  0  0  0  0  0  0  0  0  0  0  # atno 17343 bound_to 10162
  156.5293  130.8250  151.3231 LP  0  0  0  0  0  0  0  0  0  0  0  0  # atno 17370 bound_to 10713
  157.7408  130.9857  150.2399 LP  0  0  0  0  0  0  0  0  0  0  0  0  # atno 17371 bound_to 10713
  139.8972  135.0149  156.7087 LP  0  0  0  0  0  0  0  0  0  0  0  0  # atno 17394 bound_to 11000
  140.7110  133.9223  155.8084 LP  0  0  0  0  0  0  0  0  0  0  0  0  # atno 17395 bound_to 11000

$$$$
