AV-unprocessed.smi:1695|AV-procd|sdf|6797|dock1
  -GOLD-   22720 7563D 1   1.00000     0.00000
 Structure written by MMmdl.
 50 52  0  0  0  0  0  0  0  0  1 V2000
  153.1703  142.7188  161.5808 C   0  0  0  0  0  0  0  0  0  0  0  0
  152.6152  142.3760  160.2096 C   0  0  0  0  0  0  0  0  0  0  0  0
  152.9808  141.1512  159.6071 C   0  0  0  0  0  0  0  0  0  0  0  0
  152.4893  140.7960  158.3318 C   0  0  0  0  0  0  0  0  0  0  0  0
  152.7137  139.6657  157.5648 N   0  0  0  0  0  0  0  0  0  0  0  0
  151.9815  139.9253  156.4852 C   0  0  0  0  0  0  0  0  0  0  0  0
  151.3082  141.0916  156.4627 N   0  0  0  0  0  0  0  0  0  0  0  0
  150.4518  141.5906  155.4016 C   0  0  0  0  0  0  0  0  0  0  0  0
  149.4623  140.5256  154.8886 C   0  0  2  0  0  0  0  0  0  0  0  0
  150.1253  139.7191  153.9332 O   0  0  0  0  0  0  0  0  0  0  0  0
  148.2211  141.1668  154.2321 C   0  0  0  0  0  0  0  0  0  0  0  0
  147.4762  142.1033  155.0753 N   0  0  0  0  0  0  0  0  0  0  0  0
  147.1011  141.5192  156.3658 C   0  0  0  0  0  0  0  0  0  0  0  0
  146.3566  142.5140  157.2729 C   0  0  0  0  0  0  0  0  0  0  0  0
  145.0982  143.0598  156.5684 C   0  0  0  0  0  0  0  0  0  0  0  0
  144.3937  144.1219  157.4231 C   0  0  0  0  0  0  0  0  0  0  0  0
  145.1049  145.2007  157.7606 N   0  0  0  0  0  0  0  0  0  0  0  0
  143.2251  143.9739  157.7758 O   0  0  0  0  0  0  0  0  0  0  0  0
  145.5004  143.6277  155.1932 C   0  0  0  0  0  0  0  0  0  0  0  0
  146.2776  142.5775  154.3825 C   0  0  0  0  0  0  0  0  0  0  0  0
  151.6144  141.7071  157.6709 C   0  0  0  0  0  0  0  0  0  0  0  0
  151.2413  142.9275  158.2607 C   0  0  0  0  0  0  0  0  0  0  0  0
  151.7413  143.2666  159.5354 C   0  0  0  0  0  0  0  0  0  0  0  0
  151.3332  144.5876  160.1631 C   0  0  0  0  0  0  0  0  0  0  0  0
  153.8707  141.9590  161.9283 H   0  0  0  0  0  0  0  0  0  0  0  0
  152.3641  142.7905  162.3109 H   0  0  0  0  0  0  0  0  0  0  0  0
  153.6993  143.6715  161.5533 H   0  0  0  0  0  0  0  0  0  0  0  0
  153.6447  140.4717  160.1208 H   0  0  0  0  0  0  0  0  0  0  0  0
  151.9285  139.2263  155.6632 H   0  0  0  0  0  0  0  0  0  0  0  0
  149.9091  142.4551  155.7861 H   0  0  0  0  0  0  0  0  0  0  0  0
  151.0798  141.9536  154.5863 H   0  0  0  0  0  0  0  0  0  0  0  0
  149.1561  139.8989  155.7278 H   0  0  0  0  0  0  0  0  0  0  0  0
  149.6326  139.7461  153.1272 H   0  0  0  0  0  0  0  0  0  0  0  0
  148.5692  141.7211  153.3595 H   0  0  0  0  0  0  0  0  0  0  0  0
  147.5572  140.3969  153.8352 H   0  0  0  0  0  0  0  0  0  0  0  0
  146.4814  140.6352  156.2068 H   0  0  0  0  0  0  0  0  0  0  0  0
  147.9912  141.1829  156.8963 H   0  0  0  0  0  0  0  0  0  0  0  0
  146.0828  142.0237  158.2077 H   0  0  0  0  0  0  0  0  0  0  0  0
  147.0310  143.3306  157.5368 H   0  0  0  0  0  0  0  0  0  0  0  0
  144.4098  142.2281  156.4071 H   0  0  0  0  0  0  0  0  0  0  0  0
  144.6845  145.9285  158.3201 H   0  0  0  0  0  0  0  0  0  0  0  0
  146.0625  145.2849  157.4516 H   0  0  0  0  0  0  0  0  0  0  0  0
  144.6140  143.9372  154.6383 H   0  0  0  0  0  0  0  0  0  0  0  0
  146.1191  144.5186  155.3139 H   0  0  0  0  0  0  0  0  0  0  0  0
  146.5569  143.0155  153.4234 H   0  0  0  0  0  0  0  0  0  0  0  0
  145.6225  141.7344  154.1564 H   0  0  0  0  0  0  0  0  0  0  0  0
  150.5754  143.5959  157.7351 H   0  0  0  0  0  0  0  0  0  0  0  0
  150.6039  145.1126  159.5456 H   0  0  0  0  0  0  0  0  0  0  0  0
  152.2016  145.2358  160.2821 H   0  0  0  0  0  0  0  0  0  0  0  0
  150.8840  144.4252  161.1431 H   0  0  0  0  0  0  0  0  0  0  0  0
  1  2  1  0  0  0  0
  1 25  1  0  0  0  0
  1 26  1  0  0  0  0
  1 27  1  0  0  0  0
  2 23  1  0  0  0  0
  2  3  2  0  0  0  0
  3  4  1  0  0  0  0
  3 28  1  0  0  0  0
  4 21  2  0  0  0  0
  4  5  1  0  0  0  0
  5  6  2  0  0  0  0
  6  7  1  0  0  0  0
  6 29  1  0  0  0  0
  7  8  1  0  0  0  0
  7 21  1  0  0  0  0
  8  9  1  0  0  0  0
  8 30  1  0  0  0  0
  8 31  1  0  0  0  0
  9 10  1  0  0  0  0
  9 11  1  0  0  0  0
  9 32  1  0  0  0  0
 10 33  1  0  0  0  0
 11 12  1  0  0  0  0
 11 34  1  0  0  0  0
 11 35  1  0  0  0  0
 12 20  1  0  0  0  0
 12 13  1  0  0  0  0
 13 14  1  0  0  0  0
 13 36  1  0  0  0  0
 13 37  1  0  0  0  0
 14 15  1  0  0  0  0
 14 38  1  0  0  0  0
 14 39  1  0  0  0  0
 15 16  1  0  0  0  0
 15 19  1  0  0  0  0
 15 40  1  0  0  0  0
 16 17  1  0  0  0  0
 16 18  2  0  0  0  0
 17 41  1  0  0  0  0
 17 42  1  0  0  0  0
 19 20  1  0  0  0  0
 19 43  1  0  0  0  0
 19 44  1  0  0  0  0
 20 45  1  0  0  0  0
 20 46  1  0  0  0  0
 21 22  1  0  0  0  0
 22 23  2  0  0  0  0
 22 47  1  0  0  0  0
 23 24  1  0  0  0  0
 24 48  1  0  0  0  0
 24 49  1  0  0  0  0
 24 50  1  0  0  0  0
M  END
> <s_m_source_file>
AV-unprocessed.smi

> <i_m_source_file_index>
1695

> <i_lp_mmshare_version>
43012

> <i_f3d_flags>
0

> <s_epik_input>
W0NIM11jKFtjSF0xKWMoW0NIM10pW2NIXWMoYzEyKW4oW2NIXW4yKVtDSDJdW0NASF0oW09IXSlbQ0gyXU4zW0NIMl1bQ0gyXVtDSF0oQyg9TylbTkgyXSlbQ0gyXVtDSDJdMw==

> <s_epik_cmdline>
J2VwaWtfcHl0aG9uJywgJy1waCcsICc3LjAnLCAnLXRuJywgJzgnLCAnLW1hJywgJzIwMCcsICctbWV0YWxfYmluZGluZycsICctaW1hZScsICc8aW5maWxlLm1hZT4nLCAnLW9tYWUnLCAnPG91dGZpbGUubWFlPic=

> <r_epik_Ionization_Penalty>
1.9508

> <r_epik_Ionization_Penalty_Charging>
0

> <r_epik_Ionization_Penalty_Neutral>
1.9508

> <r_epik_State_Penalty>
2.03746

> <r_epik_Charging_Adjusted_Penalty>
2.03746

> <i_epik_Tot_Q>
0

> <i_epik_Tot_abs_Q>
0

> <r_epik_Metal_State_Penalty>
2.03012

> <b_epik_Metal_Only>
0

> <s_lp_Force_Field>
OPLS_2005

> <r_lp_Energy>
30.2081

> <b_lp_Chiralities_Consistent>
1

> <s_lp_Variant>
AV-unprocessed.smi:1695-9

> <Gold.Version>
5.8.1

> <Gold.Id.Protein>
6NUR|6NUR_protein|mol2

> <Gold.PLP.Fitness>
57.3762

> <Gold.PLP.PLP>
-46.2624

> <Gold.PLP.part.hbond>
-4.0000

> <Gold.PLP.part.metal>
0.0000

> <Gold.PLP.part.buried>
-6.6324

> <Gold.PLP.part.nonpolar>
-36.2456

> <Gold.PLP.part.repulsive>
0.6656

> <Gold.PLP.ligand.clash>
0.0000

> <Gold.PLP.ligand.torsion>
0.4359

> <Gold.PLP.Chemscore.Hbond>
3.9520

> <Gold.PLP.Chemscore.CHOScore>
0.0000

> <Gold.PLP.Chemscore.Metal>
0.0000

> <Gold.Chemscore.Hbonds>
donor molecule, donor type, donor heavy atom, donor atom, acceptor molecule, acceptor atom, score
      L1  H    10    33       P1  7957  0.96
      L1  H    17    42       P1  8029  0.95
      P1  H  7989  7998       L1    10  0.98
      P1  H  7997  8009       L1     5  1.00

> <Gold.PLP.Chemscore.Internal.Correction>
0.1296

> <Gold.Rescore>
     Score         DG    S(hbond)    S(metal)    S(lipo)     H(rot)  DE(clash)    DE(int)     intcor
     16.34     -17.55       1.73        0.00     114.69       2.78       0.76       0.45       ----

> <Gold.Chemscore.Fitness>
16.3381

> <Gold.Chemscore.DG>
-17.5489

> <Gold.Chemscore.ZeroCoef>
-5.4800

> <Gold.Chemscore.Hbond>
1.7303

> <Gold.Chemscore.Metal>
0.0000

> <Gold.Chemscore.Lipo>
114.6934

> <Gold.Chemscore.Internal_Hbond>
0.0000

> <Gold.Chemscore.DEClash>
0.7619

> <Gold.Chemscore.DEInternal>
0.4490

> <Gold.Chemscore.Rot>
2.7849

> <Gold.Chemscore.Internal.Correction>
   9.000000E+99

> <Gold.Chemscore.Hbonds>
donor molecule, donor type, donor heavy atom, donor atom, acceptor molecule, acceptor atom, score
      L1  H    10    33       P1  7957  0.90
      L1  H    17    42       P1  8029  0.21
      P1  H  7989  7998       L1    10  0.07
      P1  H  7997  8009       L1     5  0.08

> <Gold.Chemscore.Hbond.Weighted>
-5.7793

> <Gold.Chemscore.Metal.Weighted>
-0.0000

> <Gold.Chemscore.Lipo.Weighted>
-13.4191

> <Gold.Chemscore.Internal_Hbond.Weighted>
0.0000

> <Gold.Chemscore.DEClash.Weighted>
0.7619

> <Gold.Chemscore.DEInternal.Weighted>
0.4490

> <Gold.Chemscore.Rot.Weighted>
7.1294

> <Gold.Chemscore.Internal.Correction.Weighted>
   9.000000E+99

> <Gold.Protein.RotatedTorsions>
[ 6907 6896 6895 6894 ] final  -52.51 input  -60.11 | X-H torsion
[ 7974 7965 7964 7962 ] final -139.44 input  175.53 | X-H torsion
[ 8008 7997 7996 7995 ] final  163.60 input   59.86 | X-H torsion
[ 10167 10162 10161 10158 ] final -104.34 input  -65.29 | X-H torsion
[ 10718 10713 10712 10709 ] final    5.97 input   66.30 | X-H torsion
[ 10763 10752 10751 10750 ] final -128.25 input  -60.55 | X-H torsion
[ 11005 11000 10999 10996 ] final -114.44 input  -57.11 | X-H torsion

> <Gold.Protein.ActiveResidues>
 VAL166  LYS551  ARG553  GLY616  TRP617  ASP618  TYR619  PRO620  LYS621  CYS622 
 ASP623  PHE694  ASN695  SER759  ASP760  ASP761  ALA762  ILE779  LEU786  VAL792 
 PHE793  MET794  SER795  GLU796  ALA797  LYS798  CYS799  TRP800  GLU811  SER814 

> <Gold.Protein.RotatedAtoms>
  150.8512  134.7837  159.7009 H   0  0  0  0  0  0  0  0  0  0  0  0  # atno 6907 bound_to 6896
  152.4576  134.5254  159.9805 H   0  0  0  0  0  0  0  0  0  0  0  0  # atno 6908 bound_to 6896
  151.5375  133.3400  159.2965 H   0  0  0  0  0  0  0  0  0  0  0  0  # atno 6909 bound_to 6896
  144.8677  140.6319  143.5287 H   0  0  0  0  0  0  0  0  0  0  0  0  # atno 7974 bound_to 7965
  156.1944  140.1719  156.8027 H   0  0  0  0  0  0  0  0  0  0  0  0  # atno 8008 bound_to 7997
  154.5511  140.0717  156.8701 H   0  0  0  0  0  0  0  0  0  0  0  0  # atno 8009 bound_to 7997
  155.3026  140.3362  155.4249 H   0  0  0  0  0  0  0  0  0  0  0  0  # atno 8010 bound_to 7997
  140.2104  143.3751  152.1055 H   0  0  0  0  0  0  0  0  0  0  0  0  # atno 10167 bound_to 10162
  156.9153  130.5771  149.5647 H   0  0  0  0  0  0  0  0  0  0  0  0  # atno 10718 bound_to 10713
  154.8755  135.3935  154.3725 H   0  0  0  0  0  0  0  0  0  0  0  0  # atno 10763 bound_to 10752
  153.4483  135.7028  153.6130 H   0  0  0  0  0  0  0  0  0  0  0  0  # atno 10764 bound_to 10752
  153.4681  135.3796  155.2344 H   0  0  0  0  0  0  0  0  0  0  0  0  # atno 10765 bound_to 10752
  141.0551  133.9625  157.2768 H   0  0  0  0  0  0  0  0  0  0  0  0  # atno 11005 bound_to 11000
  145.4190  139.1567  143.4084 LP  0  0  0  0  0  0  0  0  0  0  0  0  # atno 17320 bound_to 7965
  146.2908  140.4299  142.8740 LP  0  0  0  0  0  0  0  0  0  0  0  0  # atno 17321 bound_to 7965
  139.5182  144.7003  151.5513 LP  0  0  0  0  0  0  0  0  0  0  0  0  # atno 17342 bound_to 10162
  140.6328  143.9043  150.6620 LP  0  0  0  0  0  0  0  0  0  0  0  0  # atno 17343 bound_to 10162
  156.0516  130.5585  150.9002 LP  0  0  0  0  0  0  0  0  0  0  0  0  # atno 17370 bound_to 10713
  157.5942  131.0943  150.9069 LP  0  0  0  0  0  0  0  0  0  0  0  0  # atno 17371 bound_to 10713
  139.9383  135.0194  156.8628 LP  0  0  0  0  0  0  0  0  0  0  0  0  # atno 17394 bound_to 11000
  140.5979  134.0199  155.7525 LP  0  0  0  0  0  0  0  0  0  0  0  0  # atno 17395 bound_to 11000

$$$$
