#       Name:                AV-unprocessed.smi:2844
#       Creating user name   scv26
#       Creation time:       Fri Mar 27 15:38:50 2020


#       File generated by GOLD software.
#

@<TRIPOS>MOLECULE
AV-unprocessed.smi:2844
    42    44     1
SMALL
NO_CHARGES


@<TRIPOS>ATOM
      1 ****        -2.6072   4.0441  -2.5682 C.3            1 S1                 0.0000
      2 ****        -2.2365   2.9097  -1.6293 C.ar           1 S1                 0.0000
      3 ****        -2.4507   3.0690  -0.2417 C.ar           1 S1                 0.0000
      4 ****        -2.1215   2.0378   0.6650 C.ar           1 S1                 0.0000
      5 ****        -2.2471   1.9778   2.0424 N.2            1 S1                 0.0000
      6 ****        -1.7726   0.7629   2.3018 C.2            1 S1                 0.0000
      7 ****        -1.3528   0.0280   1.2539 N.pl3          1 S1                 0.0000
      8 ****        -0.8005  -1.3143   1.2872 C.3            1 S1                 0.0000
      9 ****         0.7382  -1.3199   1.2129 C.3            1 S1                 0.0000
     10 ****         1.2722  -0.6172   2.3205 O.3            1 S1                 0.0000
     11 ****         1.3066  -2.7518   1.1790 C.3            1 S1                 0.0000
     12 ****         2.7546  -2.7794   1.0703 N.pl3          1 S1                 0.0000
     13 ****         3.6789  -3.0867   2.0502 C.2            1 S1                 0.0000
     14 ****         4.8952  -2.9712   1.4498 C.2            1 S1                 0.0000
     15 ****         6.4357  -3.2326   2.1802 Cl             1 S1                 0.0000
     16 ****         4.6448  -2.5947   0.1058 C.2            1 S1                 0.0000
     17 ****         3.3431  -2.4842  -0.1172 N.2            1 S1                 0.0000
     18 ****        -1.5659   0.8339   0.1413 C.ar           1 S1                 0.0000
     19 ****        -1.3461   0.6640  -1.2371 C.ar           1 S1                 0.0000
     20 ****        -1.6827   1.7036  -2.1293 C.ar           1 S1                 0.0000
     21 ****        -1.4450   1.5102  -3.6165 C.3            1 S1                 0.0000
     22 ****        -3.0477   4.8816  -2.0264 H              1 S1                 0.0000
     23 ****        -3.3331   3.7069  -3.3083 H              1 S1                 0.0000
     24 ****        -1.7235   4.4111  -3.0905 H              1 S1                 0.0000
     25 ****        -2.8718   3.9877   0.1396 H              1 S1                 0.0000
     26 ****        -1.7249   0.3852   3.3128 H              1 S1                 0.0000
     27 ****        -1.1432  -1.8116   2.1958 H              1 S1                 0.0000
     28 ****        -1.2194  -1.8733   0.4497 H              1 S1                 0.0000
     29 ****         1.0490  -0.7950   0.3085 H              1 S1                 0.0000
     30 ****         1.0025  -1.0538   3.1137 H              1 S1                 0.0000
     31 ****         1.0163  -3.2971   2.0782 H              1 S1                 0.0000
     32 ****         0.8907  -3.3020   0.3337 H              1 S1                 0.0000
     33 ****         3.3976  -3.3506   3.0588 H              1 S1                 0.0000
     34 ****         5.3441  -2.4044  -0.6950 H              1 S1                 0.0000
     35 ****        -0.9223  -0.2595  -1.6034 H              1 S1                 0.0000
     36 ****        -1.0038   0.5353  -3.8257 H              1 S1                 0.0000
     37 ****        -0.7663   2.2732  -3.9982 H              1 S1                 0.0000
     38 ****        -2.3851   1.5764  -4.1646 H              1 S1                 0.0000
     39 ****        -2.6012   2.6664   2.6753 LP             1 S1                 0.0000
     40 ****         0.9297   0.3223   2.3201 LP             1 S1                 0.0000
     41 ****         2.2706  -0.6080   2.2639 LP             1 S1                 0.0000
     42 ****         2.8919  -2.2369  -0.9746 LP             1 S1                 0.0000
@<TRIPOS>BOND
    1    1    2 1     
    2    1   22 1     
    3    1   23 1     
    4    1   24 1     
    5    2   20 ar    
    6    2    3 ar    
    7    3    4 ar    
    8    3   25 1     
    9    4   18 ar    
   10    4    5 1     
   11    5    6 2     
   12    6    7 1     
   13    6   26 1     
   14    7    8 1     
   15    7   18 1     
   16    8    9 1     
   17    8   27 1     
   18    8   28 1     
   19    9   10 1     
   20    9   11 1     
   21    9   29 1     
   22   10   30 1     
   23   11   12 1     
   24   11   31 1     
   25   11   32 1     
   26   12   17 1     
   27   12   13 1     
   28   13   14 2     
   29   13   33 1     
   30   14   15 1     
   31   14   16 1     
   32   16   17 2     
   33   16   34 1     
   34   18   19 ar    
   35   19   20 ar    
   36   19   35 1     
   37   20   21 1     
   38   21   36 1     
   39   21   37 1     
   40   21   38 1     
   41    5   39 1     
   42   10   40 1     
   43   10   41 1     
   44   17   42 1     
@<TRIPOS>SUBSTRUCTURE
      1 S1             1
@<TRIPOS>SET
LONE_PAIRS      STATIC     ATOMS    <user>   **** ""
4 39 40 41 42
DONOR_HYDROGENS      STATIC     ATOMS    <user>   **** ""
1 30
ATOM$BLUE        STATIC     ATOMS    COLORGROUP SYSTEM
4 39 40 41 42
ATOM$RED        STATIC     ATOMS    COLORGROUP SYSTEM
1 30
