AV-unprocessed.smi:3255|AV-procd|sdf|12460|dock8
  -GOLD-   2272018353D 1   1.00000     0.00000
 Structure written by MMmdl.
 39 40  0  0  0  0  0  0  0  0  2 V2000
  147.7060  144.4770  160.3672 C   0  0  0  0  0  0  0  0  0  0  0  0
  148.8108  143.7638  159.5680 C   0  0  1  0  0  0  0  0  0  0  0  0
  148.3453  143.5031  158.2085 N   0  0  0  0  0  0  0  0  0  0  0  0
  147.3487  142.6710  157.8776 C   0  0  0  0  0  0  0  0  0  0  0  0
  146.6774  142.0360  158.6915 O   0  0  0  0  0  0  0  0  0  0  0  0
  147.1712  142.6092  156.5506 N   0  0  0  0  0  0  0  0  0  0  0  0
  146.1645  141.7913  155.8855 C   0  0  0  0  0  0  0  0  0  0  0  0
  146.3728  141.7668  154.3619 C   0  0  0  0  0  0  0  0  0  0  0  0
  147.2824  140.6946  153.9577 N   0  0  0  0  0  0  0  0  0  0  0  0
  148.5800  140.5126  154.3610 C   0  0  0  0  0  0  0  0  0  0  0  0
  149.0291  139.3807  153.7308 C   0  0  0  0  0  0  0  0  0  0  0  0
  147.9866  138.9199  152.9715 N   0  3  0  0  0  0  0  0  0  0  0  0
  146.9251  139.7210  153.1108 C   0  0  0  0  0  0  0  0  0  0  0  0
  150.1095  144.5896  159.5043 C   0  0  1  0  0  0  0  0  0  0  0  0
  151.0510  144.3989  160.6953 C   0  0  0  0  0  0  0  0  0  0  0  0
  152.4274  144.7081  160.1251 C   0  0  0  0  0  0  0  0  0  0  0  0
  152.2104  144.7252  158.6101 C   0  0  0  0  0  0  0  0  0  0  0  0
  150.9201  144.1643  158.4191 O   0  0  0  0  0  0  0  0  0  0  0  0
  148.0137  144.6563  161.3974 H   0  0  0  0  0  0  0  0  0  0  0  0
  146.7953  143.8784  160.4033 H   0  0  0  0  0  0  0  0  0  0  0  0
  147.4536  145.4402  159.9226 H   0  0  0  0  0  0  0  0  0  0  0  0
  149.0352  142.8127  160.0549 H   0  0  0  0  0  0  0  0  0  0  0  0
  148.8379  143.9755  157.4647 H   0  0  0  0  0  0  0  0  0  0  0  0
  147.7728  143.1669  155.9618 H   0  0  0  0  0  0  0  0  0  0  0  0
  146.1838  140.7782  156.2914 H   0  0  0  0  0  0  0  0  0  0  0  0
  145.1824  142.2020  156.1217 H   0  0  0  0  0  0  0  0  0  0  0  0
  145.4245  141.6286  153.8404 H   0  0  0  0  0  0  0  0  0  0  0  0
  146.7979  142.7079  154.0103 H   0  0  0  0  0  0  0  0  0  0  0  0
  149.0734  141.1846  155.0487 H   0  0  0  0  0  0  0  0  0  0  0  0
  149.9866  138.8817  153.7659 H   0  0  0  0  0  0  0  0  0  0  0  0
  145.9680  139.6030  152.6343 H   0  0  0  0  0  0  0  0  0  0  0  0
  149.8820  145.6503  159.3776 H   0  0  0  0  0  0  0  0  0  0  0  0
  150.7919  145.0363  161.5412 H   0  0  0  0  0  0  0  0  0  0  0  0
  151.0246  143.3628  161.0358 H   0  0  0  0  0  0  0  0  0  0  0  0
  152.8012  145.6717  160.4729 H   0  0  0  0  0  0  0  0  0  0  0  0
  153.1467  143.9427  160.4184 H   0  0  0  0  0  0  0  0  0  0  0  0
  152.2147  145.7491  158.2336 H   0  0  0  0  0  0  0  0  0  0  0  0
  152.9707  144.1607  158.0698 H   0  0  0  0  0  0  0  0  0  0  0  0
  148.0123  138.0925  152.3889 H   0  0  0  0  0  0  0  0  0  0  0  0
  1  2  1  0  0  0  0
  1 19  1  0  0  0  0
  1 20  1  0  0  0  0
  1 21  1  0  0  0  0
  2  3  1  0  0  0  0
  2 14  1  0  0  0  0
  2 22  1  0  0  0  0
  3  4  1  0  0  0  0
  3 23  1  0  0  0  0
  4  5  2  0  0  0  0
  4  6  1  0  0  0  0
  6  7  1  0  0  0  0
  6 24  1  0  0  0  0
  7  8  1  0  0  0  0
  7 25  1  0  0  0  0
  7 26  1  0  0  0  0
  8  9  1  0  0  0  0
  8 27  1  0  0  0  0
  8 28  1  0  0  0  0
  9 13  1  0  0  0  0
  9 10  1  0  0  0  0
 10 11  2  0  0  0  0
 10 29  1  0  0  0  0
 11 12  1  0  0  0  0
 11 30  1  0  0  0  0
 12 13  2  0  0  0  0
 12 39  1  0  0  0  0
 13 31  1  0  0  0  0
 14 18  1  0  0  0  0
 14 15  1  0  0  0  0
 14 32  1  0  0  0  0
 15 16  1  0  0  0  0
 15 33  1  0  0  0  0
 15 34  1  0  0  0  0
 16 17  1  0  0  0  0
 16 35  1  0  0  0  0
 16 36  1  0  0  0  0
 17 18  1  0  0  0  0
 17 37  1  0  0  0  0
 17 38  1  0  0  0  0
M  CHG  1  12   1
M  END
> <s_m_source_file>
AV-unprocessed.smi

> <i_m_source_file_index>
3255

> <i_lp_mmshare_version>
43012

> <i_f3d_flags>
0

> <s_epik_input>
TzFbQ0gyXVtDSDJdW0NIMl1bQ0BIXTFbQ0BIXShbQ0gzXSlbTkhdQyg9TylbTkhdW0NIMl1bQ0gyXW4yW2NIXVtjSF1uW2NIXTI=

> <s_epik_cmdline>
J2VwaWtfcHl0aG9uJywgJy1waCcsICc3LjAnLCAnLXRuJywgJzgnLCAnLW1hJywgJzIwMCcsICctbWV0YWxfYmluZGluZycsICctaW1hZScsICc8aW5maWxlLm1hZT4nLCAnLW9tYWUnLCAnPG91dGZpbGUubWFlPic=

> <r_lp_tautomer_probability>
1

> <r_epik_Ionization_Penalty>
0.256241

> <r_epik_Ionization_Penalty_Charging>
0

> <r_epik_Ionization_Penalty_Neutral>
0.256241

> <r_epik_State_Penalty>
0.247735

> <r_epik_Charging_Adjusted_Penalty>
0.247735

> <i_epik_Tot_Q>
1

> <i_epik_Tot_abs_Q>
1

> <r_epik_Metal_State_Penalty>
0.537184

> <b_epik_Metal_Only>
0

> <s_lp_Force_Field>
OPLS_2005

> <r_lp_Energy>
17.8763

> <b_lp_Chiralities_Consistent>
1

> <s_lp_Variant>
AV-unprocessed.smi:3255-4

> <Gold.Version>
5.8.1

> <Gold.Id.Protein>
6NUR|6NUR_protein|mol2

> <Gold.PLP.Fitness>
43.7770

> <Gold.PLP.PLP>
-30.8659

> <Gold.PLP.part.hbond>
-5.7940

> <Gold.PLP.part.metal>
0.0000

> <Gold.PLP.part.buried>
-1.0675

> <Gold.PLP.part.nonpolar>
-25.3375

> <Gold.PLP.part.repulsive>
0.3298

> <Gold.PLP.ligand.clash>
0.0000

> <Gold.PLP.ligand.torsion>
0.7816

> <Gold.PLP.Chemscore.Hbond>
3.8074

> <Gold.PLP.Chemscore.CHOScore>
0.9939

> <Gold.PLP.Chemscore.Metal>
0.0000

> <Gold.Chemscore.Hbonds>
donor molecule, donor type, donor heavy atom, donor atom, acceptor molecule, acceptor atom, score
      L1  H     3    23       P1  8028  0.50
      L1  H     6    24       P1  8028  1.00
      L1  H    12    39       P1  7948  1.52
      P1  H  6934  6946       L1     5  0.17
      L1  C    13    31       P1 10175  1.00

> <Gold.PLP.Chemscore.Internal.Correction>
0.0704

> <Gold.Rescore>
     Score         DG    S(hbond)    S(metal)    S(lipo)     H(rot)  DE(clash)    DE(int)     intcor
     12.62     -14.40       1.93        0.00      70.73       2.26       0.92       0.86       ----

> <Gold.Chemscore.Fitness>
12.6177

> <Gold.Chemscore.DG>
-14.4008

> <Gold.Chemscore.ZeroCoef>
-5.4800

> <Gold.Chemscore.Hbond>
1.9286

> <Gold.Chemscore.Metal>
0.0000

> <Gold.Chemscore.Lipo>
70.7264

> <Gold.Chemscore.Internal_Hbond>
0.0000

> <Gold.Chemscore.DEClash>
0.9187

> <Gold.Chemscore.DEInternal>
0.8644

> <Gold.Chemscore.Rot>
2.2640

> <Gold.Chemscore.Internal.Correction>
   9.000000E+99

> <Gold.Chemscore.Hbonds>
donor molecule, donor type, donor heavy atom, donor atom, acceptor molecule, acceptor atom, score
      L1  H     3    23       P1  8028  0.02
      L1  H     6    24       P1  8028  0.24
      L1  H    12    39       P1  7948  0.70
      P1  H  6934  6946       L1     5  0.17

> <Gold.Chemscore.Hbond.Weighted>
-6.4416

> <Gold.Chemscore.Metal.Weighted>
-0.0000

> <Gold.Chemscore.Lipo.Weighted>
-8.2750

> <Gold.Chemscore.Internal_Hbond.Weighted>
0.0000

> <Gold.Chemscore.DEClash.Weighted>
0.9187

> <Gold.Chemscore.DEInternal.Weighted>
0.8644

> <Gold.Chemscore.Rot.Weighted>
5.7958

> <Gold.Chemscore.Internal.Correction.Weighted>
   9.000000E+99

> <Gold.Protein.RotatedTorsions>
[ 6907 6896 6895 6894 ] final -116.84 input  -60.11 | X-H torsion
[ 7974 7965 7964 7962 ] final   14.51 input  175.53 | X-H torsion
[ 8008 7997 7996 7995 ] final -109.14 input   59.86 | X-H torsion
[ 10167 10162 10161 10158 ] final  120.97 input  -65.29 | X-H torsion
[ 10718 10713 10712 10709 ] final  168.11 input   66.30 | X-H torsion
[ 10763 10752 10751 10750 ] final -124.72 input  -60.55 | X-H torsion
[ 11005 11000 10999 10996 ] final   32.71 input  -57.11 | X-H torsion

> <Gold.Protein.ActiveResidues>
 VAL166  LYS551  ARG553  GLY616  TRP617  ASP618  TYR619  PRO620  LYS621  CYS622 
 ASP623  PHE694  ASN695  SER759  ASP760  ASP761  ALA762  ILE779  LEU786  VAL792 
 PHE793  MET794  SER795  GLU796  ALA797  LYS798  CYS799  TRP800  GLU811  SER814 

> <Gold.Protein.RotatedAtoms>
  150.8088  133.8460  159.3192 H   0  0  0  0  0  0  0  0  0  0  0  0  # atno 6907 bound_to 6896
  151.6251  135.1026  160.0119 H   0  0  0  0  0  0  0  0  0  0  0  0  # atno 6908 bound_to 6896
  152.4180  133.7029  159.6491 H   0  0  0  0  0  0  0  0  0  0  0  0  # atno 6909 bound_to 6896
  146.2303  139.9030  142.8536 H   0  0  0  0  0  0  0  0  0  0  0  0  # atno 7974 bound_to 7965
  154.9549  140.0400  157.2162 H   0  0  0  0  0  0  0  0  0  0  0  0  # atno 8008 bound_to 7997
  154.7944  140.2841  155.5946 H   0  0  0  0  0  0  0  0  0  0  0  0  # atno 8009 bound_to 7997
  156.2954  140.2567  156.2798 H   0  0  0  0  0  0  0  0  0  0  0  0  # atno 8010 bound_to 7997
  139.5949  144.7038  151.3201 H   0  0  0  0  0  0  0  0  0  0  0  0  # atno 10167 bound_to 10162
  157.0419  131.0289  151.2710 H   0  0  0  0  0  0  0  0  0  0  0  0  # atno 10718 bound_to 10713
  154.8727  135.4054  154.3152 H   0  0  0  0  0  0  0  0  0  0  0  0  # atno 10763 bound_to 10752
  153.3989  135.7017  153.6446 H   0  0  0  0  0  0  0  0  0  0  0  0  # atno 10764 bound_to 10752
  153.5197  135.3690  155.2597 H   0  0  0  0  0  0  0  0  0  0  0  0  # atno 10765 bound_to 10752
  140.2707  134.3086  155.7829 H   0  0  0  0  0  0  0  0  0  0  0  0  # atno 11005 bound_to 11000
  145.2305  140.9971  143.3993 LP  0  0  0  0  0  0  0  0  0  0  0  0  # atno 17320 bound_to 7965
  144.9535  139.4057  143.6391 LP  0  0  0  0  0  0  0  0  0  0  0  0  # atno 17321 bound_to 7965
  140.7203  143.7153  150.7737 LP  0  0  0  0  0  0  0  0  0  0  0  0  # atno 17342 bound_to 10162
  140.0717  143.5054  152.2576 LP  0  0  0  0  0  0  0  0  0  0  0  0  # atno 17343 bound_to 10162
  157.5098  130.7931  149.7693 LP  0  0  0  0  0  0  0  0  0  0  0  0  # atno 17370 bound_to 10713
  156.0035  130.3867  150.2516 LP  0  0  0  0  0  0  0  0  0  0  0  0  # atno 17371 bound_to 10713
  141.2178  133.7465  156.9329 LP  0  0  0  0  0  0  0  0  0  0  0  0  # atno 17394 bound_to 11000
  140.1376  134.9315  157.2423 LP  0  0  0  0  0  0  0  0  0  0  0  0  # atno 17395 bound_to 11000

$$$$
