#       Name:                AV-unprocessed.smi:3194
#       Creating user name   scv26
#       Creation time:       Fri Mar 27 18:04:39 2020


#       File generated by GOLD software.
#

@<TRIPOS>MOLECULE
AV-unprocessed.smi:3194
    33    33     1
SMALL
NO_CHARGES


@<TRIPOS>ATOM
      1 ****        -2.5268  -0.6596  -1.5656 C.3            1 S1                 0.0000
      2 ****        -2.1702  -0.8008  -0.0780 C.3            1 S1                 0.0000
      3 ****        -2.8229  -2.0398   0.5660 C.3            1 S1                 0.0000
      4 ****        -4.2186  -1.8594   0.6819 O.3            1 S1                 0.0000
      5 ****        -0.7178  -0.8632   0.0581 N.am           1 S1                 0.0000
      6 ****        -0.0149  -0.4935   1.1421 C.2            1 S1                 0.0000
      7 ****        -0.5414  -0.0650   2.1697 O.2            1 S1                 0.0000
      8 ****         1.5136  -0.6177   1.0514 C.3            1 S1                 0.0000
      9 ****         2.0102  -0.7234   2.2861 F              1 S1                 0.0000
     10 ****         1.8268  -1.7351   0.3899 F              1 S1                 0.0000
     11 ****         2.1030   0.5992   0.3433 C.ar           1 S1                 0.0000
     12 ****         2.6155   1.6921   1.0789 C.ar           1 S1                 0.0000
     13 ****         3.1357   2.7955   0.3755 C.ar           1 S1                 0.0000
     14 ****         3.1244   2.7704  -1.0319 C.ar           1 S1                 0.0000
     15 ****         2.5892   1.6380  -1.6762 C.ar           1 S1                 0.0000
     16 ****         2.0877   0.5753  -1.0114 N.ar           1 S1                 0.0000
     17 ****        -2.5238   0.0939   0.4384 H              1 S1                 0.0000
     18 ****        -3.6036  -0.5638  -1.7068 H              1 S1                 0.0000
     19 ****        -2.1918  -1.5246  -2.1389 H              1 S1                 0.0000
     20 ****        -2.0610   0.2268  -1.9974 H              1 S1                 0.0000
     21 ****        -2.6158  -2.9395  -0.0145 H              1 S1                 0.0000
     22 ****        -2.4286  -2.2066   1.5690 H              1 S1                 0.0000
     23 ****        -4.5855  -2.6202   1.1059 H              1 S1                 0.0000
     24 ****        -0.2016  -1.1997  -0.7422 H              1 S1                 0.0000
     25 ****         2.6073   1.6916   2.1589 H              1 S1                 0.0000
     26 ****         3.5347   3.6469   0.9069 H              1 S1                 0.0000
     27 ****         3.5151   3.5990  -1.6040 H              1 S1                 0.0000
     28 ****         2.5624   1.5843  -2.7545 H              1 S1                 0.0000
     29 ****        -4.6215  -1.7528  -0.2271 LP             1 S1                 0.0000
     30 ****        -4.4090  -1.0440   1.2286 LP             1 S1                 0.0000
     31 ****        -1.5363   0.0207   2.2235 LP             1 S1                 0.0000
     32 ****         0.0259   0.1972   2.9503 LP             1 S1                 0.0000
     33 ****         1.7144  -0.2095  -1.5062 LP             1 S1                 0.0000
@<TRIPOS>BOND
    1    1    2 1     
    2    1   18 1     
    3    1   19 1     
    4    1   20 1     
    5    2   17 1     
    6    2    3 1     
    7    2    5 1     
    8    3    4 1     
    9    3   21 1     
   10    3   22 1     
   11    4   23 1     
   12    5    6 am    
   13    5   24 1     
   14    6    7 2     
   15    6    8 1     
   16    8    9 1     
   17    8   10 1     
   18    8   11 1     
   19   11   16 ar    
   20   11   12 ar    
   21   12   13 ar    
   22   12   25 1     
   23   13   14 ar    
   24   13   26 1     
   25   14   15 ar    
   26   14   27 1     
   27   15   16 ar    
   28   15   28 1     
   29    4   29 1     
   30    4   30 1     
   31    7   31 1     
   32    7   32 1     
   33   16   33 1     
@<TRIPOS>SUBSTRUCTURE
      1 S1             1
@<TRIPOS>SET
LONE_PAIRS      STATIC     ATOMS    <user>   **** ""
5 29 30 31 32 33
DONOR_HYDROGENS      STATIC     ATOMS    <user>   **** ""
2 23 24
ATOM$BLUE        STATIC     ATOMS    COLORGROUP SYSTEM
5 29 30 31 32 33
ATOM$RED        STATIC     ATOMS    COLORGROUP SYSTEM
2 23 24
