AV-unprocessed.smi:3303|AV-procd|sdf|12681|dock1
  -GOLD-   2272019 13D 1   1.00000     0.00000
 Structure written by MMmdl.
 44 45  0  0  0  0  0  0  0  0  2 V2000
  152.3342  138.4626  154.6011 C   0  0  0  0  0  0  0  0  0  0  0  0
  151.0077  139.1739  154.9236 C   0  0  2  0  0  0  0  0  0  0  0  0
  150.0115  138.9855  153.7627 C   0  0  0  0  0  0  0  0  0  0  0  0
  148.7014  139.6322  154.0337 N   0  3  2  0  0  0  0  0  0  0  0  0
  147.7168  139.2987  152.9758 C   0  0  0  0  0  0  0  0  0  0  0  0
  148.8477  141.0957  154.2909 C   0  0  1  0  0  0  0  0  0  0  0  0
  147.5026  141.7867  154.5891 C   0  0  0  0  0  0  0  0  0  0  0  0
  149.8205  141.3302  155.4631 C   0  0  0  0  0  0  0  0  0  0  0  0
  151.1911  140.6798  155.2174 C   0  0  1  0  0  0  0  0  0  0  0  0
  151.9854  140.8633  156.4253 N   0  0  0  0  0  0  0  0  0  0  0  0
  151.3015  140.3469  157.6028 C   0  0  0  0  0  0  0  0  0  0  0  0
  151.9774  140.8401  158.8936 C   0  0  0  0  0  0  0  0  0  0  0  0
  151.7856  142.3278  159.1388 C   0  0  0  0  0  0  0  0  0  0  0  0
  152.1882  142.9089  160.3602 C   0  0  0  0  0  0  0  0  0  0  0  0
  151.9720  144.2872  160.5519 C   0  0  0  0  0  0  0  0  0  0  0  0
  151.3622  145.0279  159.5212 C   0  0  0  0  0  0  0  0  0  0  0  0
  150.9958  144.3545  158.3391 C   0  0  0  0  0  0  0  0  0  0  0  0
  151.1997  143.0339  158.1447 N   0  0  0  0  0  0  0  0  0  0  0  0
  152.8359  138.9245  153.7503 H   0  0  0  0  0  0  0  0  0  0  0  0
  152.1673  137.4126  154.3591 H   0  0  0  0  0  0  0  0  0  0  0  0
  153.0195  138.4885  155.4486 H   0  0  0  0  0  0  0  0  0  0  0  0
  150.5829  138.6956  155.8082 H   0  0  0  0  0  0  0  0  0  0  0  0
  150.4291  139.3900  152.8390 H   0  0  0  0  0  0  0  0  0  0  0  0
  149.8561  137.9187  153.5953 H   0  0  0  0  0  0  0  0  0  0  0  0
  147.9647  139.7989  152.0387 H   0  0  0  0  0  0  0  0  0  0  0  0
  146.7055  139.5831  153.2650 H   0  0  0  0  0  0  0  0  0  0  0  0
  147.6958  138.2242  152.7903 H   0  0  0  0  0  0  0  0  0  0  0  0
  149.2707  141.5555  153.3958 H   0  0  0  0  0  0  0  0  0  0  0  0
  147.6558  142.8296  154.8678 H   0  0  0  0  0  0  0  0  0  0  0  0
  146.9774  141.3006  155.4118 H   0  0  0  0  0  0  0  0  0  0  0  0
  146.8435  141.7931  153.7213 H   0  0  0  0  0  0  0  0  0  0  0  0
  149.9512  142.4015  155.6234 H   0  0  0  0  0  0  0  0  0  0  0  0
  149.3807  140.9341  156.3807 H   0  0  0  0  0  0  0  0  0  0  0  0
  151.6615  141.1709  154.3635 H   0  0  0  0  0  0  0  0  0  0  0  0
  152.8808  140.4051  156.3312 H   0  0  0  0  0  0  0  0  0  0  0  0
  150.2538  140.6493  157.5994 H   0  0  0  0  0  0  0  0  0  0  0  0
  151.3218  139.2571  157.5679 H   0  0  0  0  0  0  0  0  0  0  0  0
  151.5685  140.2941  159.7446 H   0  0  0  0  0  0  0  0  0  0  0  0
  153.0436  140.6090  158.8736 H   0  0  0  0  0  0  0  0  0  0  0  0
  152.6483  142.3132  161.1349 H   0  0  0  0  0  0  0  0  0  0  0  0
  152.2663  144.7670  161.4735 H   0  0  0  0  0  0  0  0  0  0  0  0
  151.1788  146.0862  159.6337 H   0  0  0  0  0  0  0  0  0  0  0  0
  150.5240  144.8904  157.5289 H   0  0  0  0  0  0  0  0  0  0  0  0
  148.3522  139.2209  154.8877 H   0  0  0  0  0  0  0  0  0  0  0  0
  1  2  1  0  0  0  0
  1 19  1  0  0  0  0
  1 20  1  0  0  0  0
  1 21  1  0  0  0  0
  2  9  1  0  0  0  0
  2  3  1  0  0  0  0
  2 22  1  0  0  0  0
  3  4  1  0  0  0  0
  3 23  1  0  0  0  0
  3 24  1  0  0  0  0
  4  5  1  0  0  0  0
  4  6  1  0  0  0  0
  4 44  1  0  0  0  0
  5 25  1  0  0  0  0
  5 26  1  0  0  0  0
  5 27  1  0  0  0  0
  6  7  1  0  0  0  0
  6  8  1  0  0  0  0
  6 28  1  0  0  0  0
  7 29  1  0  0  0  0
  7 30  1  0  0  0  0
  7 31  1  0  0  0  0
  8  9  1  0  0  0  0
  8 32  1  0  0  0  0
  8 33  1  0  0  0  0
  9 10  1  0  0  0  0
  9 34  1  0  0  0  0
 10 11  1  0  0  0  0
 10 35  1  0  0  0  0
 11 12  1  0  0  0  0
 11 36  1  0  0  0  0
 11 37  1  0  0  0  0
 12 13  1  0  0  0  0
 12 38  1  0  0  0  0
 12 39  1  0  0  0  0
 13 18  1  0  0  0  0
 13 14  2  0  0  0  0
 14 15  1  0  0  0  0
 14 40  1  0  0  0  0
 15 16  2  0  0  0  0
 15 41  1  0  0  0  0
 16 17  1  0  0  0  0
 16 42  1  0  0  0  0
 17 18  2  0  0  0  0
 17 43  1  0  0  0  0
M  CHG  1   4   1
M  END
> <s_m_source_file>
AV-unprocessed.smi

> <i_m_source_file_index>
3303

> <i_lp_mmshare_version>
43012

> <i_f3d_flags>
0

> <s_epik_input>
W0NIM11bQ0BASF0xW0NIMl1OKFtDSDNdKVtDQEBIXShbQ0gzXSlbQ0gyXVtDQEhdMVtOSF1bQ0gyXVtDSDJdYzJbY0hdW2NIXVtjSF1bY0hdbjI=

> <s_epik_cmdline>
J2VwaWtfcHl0aG9uJywgJy1waCcsICc3LjAnLCAnLXRuJywgJzgnLCAnLW1hJywgJzIwMCcsICctbWV0YWxfYmluZGluZycsICctaW1hZScsICc8aW5maWxlLm1hZT4nLCAnLW9tYWUnLCAnPG91dGZpbGUubWFlPic=

> <r_epik_Ionization_Penalty>
2.31085

> <r_epik_Ionization_Penalty_Charging>
0.000313057

> <r_epik_Ionization_Penalty_Neutral>
2.31054

> <r_epik_State_Penalty>
2.4087

> <r_epik_Charging_Adjusted_Penalty>
2.40902

> <i_epik_Tot_Q>
1

> <i_epik_Tot_abs_Q>
1

> <r_epik_Metal_State_Penalty>
2.30979

> <b_epik_Metal_Only>
0

> <s_lp_Force_Field>
OPLS_2005

> <r_lp_Energy>
25.5146

> <b_lp_Chiralities_Consistent>
1

> <s_lp_Variant>
AV-unprocessed.smi:3303-25

> <Gold.Version>
5.8.1

> <Gold.Id.Protein>
6NUR|6NUR_protein|mol2

> <Gold.PLP.Fitness>
44.4193

> <Gold.PLP.PLP>
-41.6620

> <Gold.PLP.part.hbond>
0.0000

> <Gold.PLP.part.metal>
0.0000

> <Gold.PLP.part.buried>
-1.9910

> <Gold.PLP.part.nonpolar>
-39.7657

> <Gold.PLP.part.repulsive>
0.1257

> <Gold.PLP.ligand.clash>
0.0000

> <Gold.PLP.ligand.torsion>
0.1410

> <Gold.PLP.Chemscore.Hbond>
0.0000

> <Gold.PLP.Chemscore.CHOScore>
1.0000

> <Gold.PLP.Chemscore.Metal>
0.0000

> <Gold.Chemscore.Hbonds>
donor molecule, donor type, donor heavy atom, donor atom, acceptor molecule, acceptor atom, score
      L1  C    17    43       P1  8028  0.97
      L1  C    17    43       P1  8029  0.03

> <Gold.PLP.Chemscore.Internal.Correction>
0.0394

> <Gold.Rescore>
     Score         DG    S(hbond)    S(metal)    S(lipo)     H(rot)  DE(clash)    DE(int)     intcor
     15.59     -16.31       0.00        0.00     121.64       1.33       0.56       0.17       ----

> <Gold.Chemscore.Fitness>
15.5862

> <Gold.Chemscore.DG>
-16.3147

> <Gold.Chemscore.ZeroCoef>
-5.4800

> <Gold.Chemscore.Hbond>
0.0000

> <Gold.Chemscore.Metal>
0.0000

> <Gold.Chemscore.Lipo>
121.6442

> <Gold.Chemscore.Internal_Hbond>
0.0000

> <Gold.Chemscore.DEClash>
0.5594

> <Gold.Chemscore.DEInternal>
0.1690

> <Gold.Chemscore.Rot>
1.3272

> <Gold.Chemscore.Internal.Correction>
   9.000000E+99

> <Gold.Chemscore.Hbond.Weighted>
-0.0000

> <Gold.Chemscore.Metal.Weighted>
-0.0000

> <Gold.Chemscore.Lipo.Weighted>
-14.2324

> <Gold.Chemscore.Internal_Hbond.Weighted>
0.0000

> <Gold.Chemscore.DEClash.Weighted>
0.5594

> <Gold.Chemscore.DEInternal.Weighted>
0.1690

> <Gold.Chemscore.Rot.Weighted>
3.3976

> <Gold.Chemscore.Internal.Correction.Weighted>
   9.000000E+99

> <Gold.Protein.RotatedTorsions>
[ 6907 6896 6895 6894 ] final -168.40 input  -60.11 | X-H torsion
[ 7974 7965 7964 7962 ] final   96.29 input  175.53 | X-H torsion
[ 8008 7997 7996 7995 ] final  -90.80 input   59.86 | X-H torsion
[ 10167 10162 10161 10158 ] final  171.26 input  -65.29 | X-H torsion
[ 10718 10713 10712 10709 ] final   41.15 input   66.30 | X-H torsion
[ 10763 10752 10751 10750 ] final  135.69 input  -60.55 | X-H torsion
[ 11005 11000 10999 10996 ] final -165.84 input  -57.11 | X-H torsion

> <Gold.Protein.ActiveResidues>
 VAL166  LYS551  ARG553  GLY616  TRP617  ASP618  TYR619  PRO620  LYS621  CYS622 
 ASP623  PHE694  ASN695  SER759  ASP760  ASP761  ALA762  ILE779  LEU786  VAL792 
 PHE793  MET794  SER795  GLU796  ALA797  LYS798  CYS799  TRP800  GLU811  SER814 

> <Gold.Protein.RotatedAtoms>
  151.4750  133.3560  159.2829 H   0  0  0  0  0  0  0  0  0  0  0  0  # atno 6907 bound_to 6896
  150.8935  134.8343  159.7321 H   0  0  0  0  0  0  0  0  0  0  0  0  # atno 6908 bound_to 6896
  152.4837  134.4662  159.9673 H   0  0  0  0  0  0  0  0  0  0  0  0  # atno 6909 bound_to 6896
  145.4408  139.2301  143.3093 H   0  0  0  0  0  0  0  0  0  0  0  0  # atno 7974 bound_to 7965
  154.7029  140.0526  157.0476 H   0  0  0  0  0  0  0  0  0  0  0  0  # atno 8008 bound_to 7997
  155.0660  140.3194  155.4626 H   0  0  0  0  0  0  0  0  0  0  0  0  # atno 8009 bound_to 7997
  156.2765  140.2090  156.5787 H   0  0  0  0  0  0  0  0  0  0  0  0  # atno 8010 bound_to 7997
  139.5042  144.3505  151.9927 H   0  0  0  0  0  0  0  0  0  0  0  0  # atno 10167 bound_to 10162
  157.3903  130.7803  149.7264 H   0  0  0  0  0  0  0  0  0  0  0  0  # atno 10718 bound_to 10713
  153.8442  135.3087  155.3428 H   0  0  0  0  0  0  0  0  0  0  0  0  # atno 10763 bound_to 10752
  154.7919  135.4777  154.0076 H   0  0  0  0  0  0  0  0  0  0  0  0  # atno 10764 bound_to 10752
  153.1557  135.6851  153.8908 H   0  0  0  0  0  0  0  0  0  0  0  0  # atno 10765 bound_to 10752
  140.5711  134.5236  157.5162 H   0  0  0  0  0  0  0  0  0  0  0  0  # atno 11005 bound_to 11000
  146.2557  140.5156  142.8874 LP  0  0  0  0  0  0  0  0  0  0  0  0  # atno 17320 bound_to 7965
  144.8122  140.6406  143.6407 LP  0  0  0  0  0  0  0  0  0  0  0  0  # atno 17321 bound_to 7965
  140.2942  144.3720  150.6079 LP  0  0  0  0  0  0  0  0  0  0  0  0  # atno 17342 bound_to 10162
  140.5923  143.2167  151.7229 LP  0  0  0  0  0  0  0  0  0  0  0  0  # atno 17343 bound_to 10162
  155.9797  130.4038  150.3574 LP  0  0  0  0  0  0  0  0  0  0  0  0  # atno 17370 bound_to 10713
  157.1689  131.0364  151.2805 LP  0  0  0  0  0  0  0  0  0  0  0  0  # atno 17371 bound_to 10713
  139.9361  134.7872  156.0799 LP  0  0  0  0  0  0  0  0  0  0  0  0  # atno 17394 bound_to 11000
  141.1055  133.6661  156.2854 LP  0  0  0  0  0  0  0  0  0  0  0  0  # atno 17395 bound_to 11000

$$$$
