#       Name:                AV-unprocessed.smi:2783
#       Creating user name   scv26
#       Creation time:       Fri Mar 27 15:16:28 2020


#       File generated by GOLD software.
#

@<TRIPOS>MOLECULE
AV-unprocessed.smi:2783
    33    33     1
SMALL
NO_CHARGES


@<TRIPOS>ATOM
      1 ****        -2.1405   0.8837  -1.5748 C.3            1 S1                 0.0000
      2 ****        -1.4165  -0.3206  -1.8205 O.3            1 S1                 0.0000
      3 ****         0.0110  -0.2406  -1.9493 C.3            1 S1                 0.0000
      4 ****         0.4630  -1.6431  -2.3931 C.3            1 S1                 0.0000
      5 ****         0.4009   0.7902  -3.0347 C.3            1 S1                 0.0000
      6 ****         0.6728   0.0870  -0.5898 C.2            1 S1                 0.0000
      7 ****         1.7796   0.6260  -0.5718 O.2            1 S1                 0.0000
      8 ****        -0.0181  -0.2752   0.5087 N.am           1 S1                 0.0000
      9 ****         0.2851  -0.1118   1.8911 C.ar           1 S1                 0.0000
     10 ****         1.3927   0.6202   2.3857 C.ar           1 S1                 0.0000
     11 ****         1.5759   0.7121   3.7795 C.ar           1 S1                 0.0000
     12 ****         0.7492   0.1432   4.6805 N.ar           1 S1                 0.0000
     13 ****        -0.3093  -0.5480   4.2097 C.ar           1 S1                 0.0000
     14 ****        -0.5873  -0.7043   2.8358 C.ar           1 S1                 0.0000
     15 ****        -1.6869  -1.4193   2.4461 O.co2          1 S1                -1.0000
     16 ****        -3.1840   0.6367  -1.3813 H              1 S1                 0.0000
     17 ****        -2.1218   1.5449  -2.4409 H              1 S1                 0.0000
     18 ****        -1.7692   1.4332  -0.7101 H              1 S1                 0.0000
     19 ****         1.5441  -1.6930  -2.5297 H              1 S1                 0.0000
     20 ****        -0.0010  -1.9233  -3.3393 H              1 S1                 0.0000
     21 ****         0.1869  -2.4017  -1.6591 H              1 S1                 0.0000
     22 ****         1.4621   0.7298  -3.2793 H              1 S1                 0.0000
     23 ****         0.2031   1.8146  -2.7175 H              1 S1                 0.0000
     24 ****        -0.1539   0.6155  -3.9569 H              1 S1                 0.0000
     25 ****        -0.8938  -0.7470   0.3319 H              1 S1                 0.0000
     26 ****         2.0995   1.1167   1.7415 H              1 S1                 0.0000
     27 ****         2.4124   1.2636   4.1824 H              1 S1                 0.0000
     28 ****        -0.9561  -0.9884   4.9546 H              1 S1                 0.0000
     29 ****        -1.7694  -0.7103  -2.6711 LP             1 S1                 0.0000
     30 ****        -1.6112  -0.9433  -1.0626 LP             1 S1                 0.0000
     31 ****         2.2418   0.8476  -1.4304 LP             1 S1                 0.0000
     32 ****         2.2164   0.8421   0.3015 LP             1 S1                 0.0000
     33 ****         0.9150   0.2306   5.6628 LP             1 S1                 0.0000
@<TRIPOS>BOND
    1    1    2 1     
    2    1   16 1     
    3    1   17 1     
    4    1   18 1     
    5    2    3 1     
    6    3    4 1     
    7    3    5 1     
    8    3    6 1     
    9    4   19 1     
   10    4   20 1     
   11    4   21 1     
   12    5   22 1     
   13    5   23 1     
   14    5   24 1     
   15    6    7 2     
   16    6    8 am    
   17    8   25 1     
   18    8    9 1     
   19    9   10 ar    
   20    9   14 ar    
   21   10   11 ar    
   22   10   26 1     
   23   11   12 ar    
   24   11   27 1     
   25   12   13 ar    
   26   13   14 ar    
   27   13   28 1     
   28   14   15 ar    
   29    2   29 1     
   30    2   30 1     
   31    7   31 1     
   32    7   32 1     
   33   12   33 1     
@<TRIPOS>SUBSTRUCTURE
      1 S1             1
@<TRIPOS>SET
LONE_PAIRS      STATIC     ATOMS    <user>   **** ""
6 29 30 31 32 33 15
DONOR_HYDROGENS      STATIC     ATOMS    <user>   **** ""
1 25
ATOM$BLUE        STATIC     ATOMS    COLORGROUP SYSTEM
6 29 30 31 32 33 15
ATOM$RED        STATIC     ATOMS    COLORGROUP SYSTEM
1 25
