AV-unprocessed.smi:3202|AV-procd|sdf|12247|dock4
  -GOLD-   2272018 83D 1   1.00000     0.00000
 Structure written by MMmdl.
 43 44  0  0  0  0  0  0  0  0  2 V2000
  146.1243  142.4010  154.6657 C   0  0  0  0  0  0  0  0  0  0  0  0
  147.4630  141.7243  154.6328 C   0  0  0  0  0  0  0  0  0  0  0  0
  148.4690  141.7112  155.6431 C   0  0  0  0  0  0  0  0  0  0  0  0
  149.4767  140.9598  155.1070 C   0  0  0  0  0  0  0  0  0  0  0  0
  150.8129  140.5722  155.6534 C   0  0  0  0  0  0  0  0  0  0  0  0
  150.9541  140.7772  157.1745 C   0  0  2  0  0  0  0  0  0  0  0  0
  149.7293  140.2815  157.9599 C   0  0  0  0  0  0  0  0  0  0  0  0
  151.1792  142.2104  157.4684 N   0  3  0  0  0  0  0  0  0  0  0  0
  151.4310  142.5392  158.8905 C   0  0  1  0  0  0  0  0  0  0  0  0
  152.6296  141.7906  159.4901 C   0  0  0  0  0  0  0  0  0  0  0  0
  153.1263  142.6733  160.6427 C   0  0  0  0  0  0  0  0  0  0  0  0
  152.3428  143.9914  160.5468 C   0  0  0  0  0  0  0  0  0  0  0  0
  151.7317  144.0335  159.1343 C   0  0  0  0  0  0  0  0  0  0  0  0
  152.7612  144.6108  158.1351 C   0  0  0  0  0  0  0  0  0  0  0  0
  150.4508  144.8881  159.1047 C   0  0  0  0  0  0  0  0  0  0  0  0
  149.0448  140.5744  153.8579 N   0  0  0  0  0  0  0  0  0  0  0  0
  147.8179  141.0377  153.5572 N   0  0  0  0  0  0  0  0  0  0  0  0
  149.5682  140.0051  153.2077 H   0  0  0  0  0  0  0  0  0  0  0  0
  145.9085  142.7992  155.6573 H   0  0  0  0  0  0  0  0  0  0  0  0
  145.3247  141.7063  154.4069 H   0  0  0  0  0  0  0  0  0  0  0  0
  146.0878  143.2309  153.9596 H   0  0  0  0  0  0  0  0  0  0  0  0
  148.4515  142.1842  156.6139 H   0  0  0  0  0  0  0  0  0  0  0  0
  151.5920  141.1337  155.1356 H   0  0  0  0  0  0  0  0  0  0  0  0
  150.9948  139.5245  155.4115 H   0  0  0  0  0  0  0  0  0  0  0  0
  151.8152  140.2000  157.5149 H   0  0  0  0  0  0  0  0  0  0  0  0
  149.5767  139.2099  157.8293 H   0  0  0  0  0  0  0  0  0  0  0  0
  148.8187  140.7892  157.6401 H   0  0  0  0  0  0  0  0  0  0  0  0
  149.8522  140.4604  159.0285 H   0  0  0  0  0  0  0  0  0  0  0  0
  151.9593  142.5390  156.9175 H   0  0  0  0  0  0  0  0  0  0  0  0
  150.5407  142.2728  159.4641 H   0  0  0  0  0  0  0  0  0  0  0  0
  152.3594  140.7898  159.8285 H   0  0  0  0  0  0  0  0  0  0  0  0
  153.4231  141.6803  158.7496 H   0  0  0  0  0  0  0  0  0  0  0  0
  152.9652  142.1966  161.6103 H   0  0  0  0  0  0  0  0  0  0  0  0
  154.1973  142.8528  160.5424 H   0  0  0  0  0  0  0  0  0  0  0  0
  151.5480  143.9764  161.2944 H   0  0  0  0  0  0  0  0  0  0  0  0
  152.9648  144.8600  160.7667 H   0  0  0  0  0  0  0  0  0  0  0  0
  153.0308  145.6338  158.3997 H   0  0  0  0  0  0  0  0  0  0  0  0
  152.3656  144.6384  157.1195 H   0  0  0  0  0  0  0  0  0  0  0  0
  153.6838  144.0308  158.1135 H   0  0  0  0  0  0  0  0  0  0  0  0
  150.6640  145.9258  159.3636 H   0  0  0  0  0  0  0  0  0  0  0  0
  149.7051  144.5216  159.8110 H   0  0  0  0  0  0  0  0  0  0  0  0
  149.9950  144.8828  158.1140 H   0  0  0  0  0  0  0  0  0  0  0  0
  150.3533  142.7152  157.1800 H   0  0  0  0  0  0  0  0  0  0  0  0
  1 19  1  0  0  0  0
  1 20  1  0  0  0  0
  1 21  1  0  0  0  0
  1  2  1  0  0  0  0
  2 17  2  0  0  0  0
  2  3  1  0  0  0  0
  3  4  2  0  0  0  0
  3 22  1  0  0  0  0
  4 16  1  0  0  0  0
  4  5  1  0  0  0  0
  5  6  1  0  0  0  0
  5 23  1  0  0  0  0
  5 24  1  0  0  0  0
  6  7  1  0  0  0  0
  6  8  1  0  0  0  0
  6 25  1  0  0  0  0
  7 26  1  0  0  0  0
  7 27  1  0  0  0  0
  7 28  1  0  0  0  0
  8  9  1  0  0  0  0
  8 29  1  0  0  0  0
  8 43  1  0  0  0  0
  9 13  1  0  0  0  0
  9 10  1  0  0  0  0
  9 30  1  0  0  0  0
 10 11  1  0  0  0  0
 10 31  1  0  0  0  0
 10 32  1  0  0  0  0
 11 12  1  0  0  0  0
 11 33  1  0  0  0  0
 11 34  1  0  0  0  0
 12 13  1  0  0  0  0
 12 35  1  0  0  0  0
 12 36  1  0  0  0  0
 13 14  1  0  0  0  0
 13 15  1  0  0  0  0
 14 37  1  0  0  0  0
 14 38  1  0  0  0  0
 14 39  1  0  0  0  0
 15 40  1  0  0  0  0
 15 41  1  0  0  0  0
 15 42  1  0  0  0  0
 16 17  1  0  0  0  0
 16 18  1  0  0  0  0
M  CHG  1   8   1
M  END
> <s_m_source_file>
AV-unprocessed.smi

> <i_m_source_file_index>
3202

> <i_lp_mmshare_version>
43012

> <i_f3d_flags>
0

> <s_epik_input>
W0NIM11jMVtjSF1jKG5bbkhdMSlbQ0gyXVtDQEhdKFtDSDNdKVtOSF1bQ0BASF0oQzIoW0NIM10pW0NIM10pW0NIMl1bQ0gyXVtDSDJdMg==

> <s_epik_cmdline>
J2VwaWtfcHl0aG9uJywgJy1waCcsICc3LjAnLCAnLXRuJywgJzgnLCAnLW1hJywgJzIwMCcsICctbWV0YWxfYmluZGluZycsICctaW1hZScsICc8aW5maWxlLm1hZT4nLCAnLW9tYWUnLCAnPG91dGZpbGUubWFlPic=

> <r_lp_tautomer_probability>
0.5

> <r_epik_Ionization_Penalty>
0.000449684

> <r_epik_Ionization_Penalty_Charging>
0.000404963

> <r_epik_Ionization_Penalty_Neutral>
4.47208e-05

> <r_epik_State_Penalty>
0.41068

> <r_epik_Charging_Adjusted_Penalty>
0.411085

> <i_epik_Tot_Q>
1

> <i_epik_Tot_abs_Q>
1

> <r_epik_Metal_State_Penalty>
0.410687

> <b_epik_Metal_Only>
0

> <s_lp_Force_Field>
OPLS_2005

> <r_lp_Energy>
32.0397

> <b_lp_Chiralities_Consistent>
1

> <s_lp_Variant>
AV-unprocessed.smi:3202-7

> <Gold.Version>
5.8.1

> <Gold.Id.Protein>
6NUR|6NUR_protein|mol2

> <Gold.PLP.Fitness>
42.0429

> <Gold.PLP.PLP>
-40.7904

> <Gold.PLP.part.hbond>
-1.0000

> <Gold.PLP.part.metal>
0.0000

> <Gold.PLP.part.buried>
-3.9690

> <Gold.PLP.part.nonpolar>
-36.4783

> <Gold.PLP.part.repulsive>
0.5803

> <Gold.PLP.ligand.clash>
0.0000

> <Gold.PLP.ligand.torsion>
0.3432

> <Gold.PLP.Chemscore.Hbond>
0.6400

> <Gold.PLP.Chemscore.CHOScore>
0.0000

> <Gold.PLP.Chemscore.Metal>
0.0000

> <Gold.Chemscore.Hbonds>
donor molecule, donor type, donor heavy atom, donor atom, acceptor molecule, acceptor atom, score
      L1  H    16    18       P1  7957  0.58

> <Gold.PLP.Chemscore.Internal.Correction>
0.0190

> <Gold.Rescore>
     Score         DG    S(hbond)    S(metal)    S(lipo)     H(rot)  DE(clash)    DE(int)     intcor
     16.87     -18.38       0.94        0.00     115.28       1.46       0.01       1.50       ----

> <Gold.Chemscore.Fitness>
16.8686

> <Gold.Chemscore.DG>
-18.3831

> <Gold.Chemscore.ZeroCoef>
-5.4800

> <Gold.Chemscore.Hbond>
0.9435

> <Gold.Chemscore.Metal>
0.0000

> <Gold.Chemscore.Lipo>
115.2831

> <Gold.Chemscore.Internal_Hbond>
0.0000

> <Gold.Chemscore.DEClash>
0.0115

> <Gold.Chemscore.DEInternal>
1.5030

> <Gold.Chemscore.Rot>
1.4596

> <Gold.Chemscore.Internal.Correction>
   9.000000E+99

> <Gold.Chemscore.Hbonds>
donor molecule, donor type, donor heavy atom, donor atom, acceptor molecule, acceptor atom, score
      L1  H    16    18       P1  7957  0.55

> <Gold.Chemscore.Hbond.Weighted>
-3.1514

> <Gold.Chemscore.Metal.Weighted>
-0.0000

> <Gold.Chemscore.Lipo.Weighted>
-13.4881

> <Gold.Chemscore.Internal_Hbond.Weighted>
0.0000

> <Gold.Chemscore.DEClash.Weighted>
0.0115

> <Gold.Chemscore.DEInternal.Weighted>
1.5030

> <Gold.Chemscore.Rot.Weighted>
3.7365

> <Gold.Chemscore.Internal.Correction.Weighted>
   9.000000E+99

> <Gold.Protein.RotatedTorsions>
[ 6907 6896 6895 6894 ] final   16.20 input  -60.11 | X-H torsion
[ 7974 7965 7964 7962 ] final  -58.04 input  175.53 | X-H torsion
[ 8008 7997 7996 7995 ] final -178.11 input   59.86 | X-H torsion
[ 10167 10162 10161 10158 ] final  -22.33 input  -65.29 | X-H torsion
[ 10718 10713 10712 10709 ] final  -78.73 input   66.30 | X-H torsion
[ 10763 10752 10751 10750 ] final  -50.88 input  -60.55 | X-H torsion
[ 11005 11000 10999 10996 ] final  -61.18 input  -57.11 | X-H torsion

> <Gold.Protein.ActiveResidues>
 VAL166  LYS551  ARG553  GLY616  TRP617  ASP618  TYR619  PRO620  LYS621  CYS622 
 ASP623  PHE694  ASN695  SER759  ASP760  ASP761  ALA762  ILE779  LEU786  VAL792 
 PHE793  MET794  SER795  GLU796  ALA797  LYS798  CYS799  TRP800  GLU811  SER814 

> <Gold.Protein.RotatedAtoms>
  151.8301  135.0624  160.0435 H   0  0  0  0  0  0  0  0  0  0  0  0  # atno 6907 bound_to 6896
  152.2887  133.5535  159.5552 H   0  0  0  0  0  0  0  0  0  0  0  0  # atno 6908 bound_to 6896
  150.7220  134.0376  159.3797 H   0  0  0  0  0  0  0  0  0  0  0  0  # atno 6909 bound_to 6896
  145.8440  140.8398  143.0020 H   0  0  0  0  0  0  0  0  0  0  0  0  # atno 7974 bound_to 7965
  156.0149  140.1248  157.0416 H   0  0  0  0  0  0  0  0  0  0  0  0  # atno 8008 bound_to 7997
  154.4289  140.1080  156.5951 H   0  0  0  0  0  0  0  0  0  0  0  0  # atno 8009 bound_to 7997
  155.6027  140.3470  155.4601 H   0  0  0  0  0  0  0  0  0  0  0  0  # atno 8010 bound_to 7997
  140.7285  143.4544  151.0469 H   0  0  0  0  0  0  0  0  0  0  0  0  # atno 10167 bound_to 10162
  156.0110  130.4526  150.3541 H   0  0  0  0  0  0  0  0  0  0  0  0  # atno 10718 bound_to 10713
  154.1175  135.6540  153.4896 H   0  0  0  0  0  0  0  0  0  0  0  0  # atno 10763 bound_to 10752
  153.0236  135.5262  154.7130 H   0  0  0  0  0  0  0  0  0  0  0  0  # atno 10764 bound_to 10752
  154.6328  135.2978  155.0166 H   0  0  0  0  0  0  0  0  0  0  0  0  # atno 10765 bound_to 10752
  141.1315  133.6628  156.5336 H   0  0  0  0  0  0  0  0  0  0  0  0  # atno 11005 bound_to 11000
  144.6732  140.0854  143.7467 LP  0  0  0  0  0  0  0  0  0  0  0  0  # atno 17320 bound_to 7965
  145.9433  139.2684  143.1255 LP  0  0  0  0  0  0  0  0  0  0  0  0  # atno 17321 bound_to 7965
  139.8223  143.7803  152.3177 LP  0  0  0  0  0  0  0  0  0  0  0  0  # atno 17342 bound_to 10162
  139.7890  144.7417  150.9982 LP  0  0  0  0  0  0  0  0  0  0  0  0  # atno 17343 bound_to 10162
  157.1632  131.0350  151.2831 LP  0  0  0  0  0  0  0  0  0  0  0  0  # atno 17370 bound_to 10713
  157.4293  130.7481  149.6977 LP  0  0  0  0  0  0  0  0  0  0  0  0  # atno 17371 bound_to 10713
  140.4196  134.7199  157.4882 LP  0  0  0  0  0  0  0  0  0  0  0  0  # atno 17394 bound_to 11000
  140.0369  134.6324  155.9031 LP  0  0  0  0  0  0  0  0  0  0  0  0  # atno 17395 bound_to 11000

$$$$
