#       Name:                AV-unprocessed.smi:609
#       Creating user name   scv26
#       Creation time:       Thu Mar 26 23:56:32 2020


#       File generated by GOLD software.
#

@<TRIPOS>MOLECULE
AV-unprocessed.smi:609
    46    48     1
SMALL
NO_CHARGES


@<TRIPOS>ATOM
      1 ****        -1.1564   4.5257  -2.5818 C.3            1 S1                 0.0000
      2 ****        -1.3321   3.0871  -2.1280 C.ar           1 S1                 0.0000
      3 ****        -2.0537   2.8240  -0.9419 C.ar           1 S1                 0.0000
      4 ****        -2.2417   1.5006  -0.4869 C.ar           1 S1                 0.0000
      5 ****        -2.9036   1.0191   0.6297 N.2            1 S1                 0.0000
      6 ****        -2.7308  -0.2928   0.4988 C.2            1 S1                 0.0000
      7 ****        -2.0227  -0.7184  -0.5653 N.pl3          1 S1                 0.0000
      8 ****        -1.6939  -2.0904  -0.9084 C.3            1 S1                 0.0000
      9 ****        -0.2025  -2.4149  -0.6899 C.3            1 S1                 0.0000
     10 ****         0.0007  -3.7764  -1.0080 O.3            1 S1                 0.0000
     11 ****         0.2842  -2.1489   0.7471 C.3            1 S1                 0.0000
     12 ****         2.0729  -2.3986   0.9245 S.3            1 S1                 0.0000
     13 ****         2.4265  -2.0557   2.6204 C.2            1 S1                 0.0000
     14 ****         2.9039  -2.9500   3.4900 N.pl3          1 S1                 1.0000
     15 ****         3.0663  -2.3653   4.7169 C.2            1 S1                 0.0000
     16 ****         2.6769  -1.0566   4.5803 C.2            1 S1                 0.0000
     17 ****         2.2920  -0.8904   3.2738 N.pl3          1 S1                 0.0000
     18 ****         1.8129   0.3522   2.6630 C.3            1 S1                 0.0000
     19 ****        -1.6822   0.4391  -1.2566 C.ar           1 S1                 0.0000
     20 ****        -0.9623   0.6879  -2.4381 C.ar           1 S1                 0.0000
     21 ****        -0.7834   2.0161  -2.8782 C.ar           1 S1                 0.0000
     22 ****        -0.0043   2.2741  -4.1557 C.3            1 S1                 0.0000
     23 ****        -1.6862   5.2175  -1.9265 H              1 S1                 0.0000
     24 ****        -1.5447   4.6598  -3.5916 H              1 S1                 0.0000
     25 ****        -0.1015   4.8006  -2.5766 H              1 S1                 0.0000
     26 ****        -2.4716   3.6397  -0.3703 H              1 S1                 0.0000
     27 ****        -3.1336  -0.9846   1.2244 H              1 S1                 0.0000
     28 ****        -2.3177  -2.7558  -0.3093 H              1 S1                 0.0000
     29 ****        -1.9702  -2.2565  -1.9504 H              1 S1                 0.0000
     30 ****         0.3937  -1.8194  -1.3822 H              1 S1                 0.0000
     31 ****         0.9258  -3.9624  -0.9541 H              1 S1                 0.0000
     32 ****         0.0655  -1.1215   1.0311 H              1 S1                 0.0000
     33 ****        -0.2395  -2.7914   1.4558 H              1 S1                 0.0000
     34 ****         3.4389  -2.9088   5.5729 H              1 S1                 0.0000
     35 ****         2.6499  -0.2501   5.2989 H              1 S1                 0.0000
     36 ****         2.2095   1.2023   3.2188 H              1 S1                 0.0000
     37 ****         0.7238   0.3747   2.7028 H              1 S1                 0.0000
     38 ****         2.1505   0.4182   1.6284 H              1 S1                 0.0000
     39 ****        -0.5521  -0.1373  -3.0014 H              1 S1                 0.0000
     40 ****         0.4012   1.3496  -4.5674 H              1 S1                 0.0000
     41 ****         0.8307   2.9490  -3.9670 H              1 S1                 0.0000
     42 ****        -0.6497   2.7233  -4.9108 H              1 S1                 0.0000
     43 ****         3.1102  -3.9164   3.2704 H              1 S1                 0.0000
     44 ****        -3.3848   1.5247   1.3458 LP             1 S1                 0.0000
     45 ****        -0.3265  -3.9585  -1.9353 LP             1 S1                 0.0000
     46 ****        -0.4974  -4.3521  -0.3597 LP             1 S1                 0.0000
@<TRIPOS>BOND
    1    1    2 1     
    2    1   23 1     
    3    1   24 1     
    4    1   25 1     
    5    2   21 ar    
    6    2    3 ar    
    7    3    4 ar    
    8    3   26 1     
    9    4   19 ar    
   10    4    5 1     
   11    5    6 2     
   12    6    7 1     
   13    6   27 1     
   14    7    8 1     
   15    7   19 1     
   16    8    9 1     
   17    8   28 1     
   18    8   29 1     
   19    9   10 1     
   20    9   11 1     
   21    9   30 1     
   22   10   31 1     
   23   11   12 1     
   24   11   32 1     
   25   11   33 1     
   26   12   13 1     
   27   13   17 1     
   28   13   14 2     
   29   14   15 1     
   30   14   43 1     
   31   15   16 2     
   32   15   34 1     
   33   16   17 1     
   34   16   35 1     
   35   17   18 1     
   36   18   36 1     
   37   18   37 1     
   38   18   38 1     
   39   19   20 ar    
   40   20   21 ar    
   41   20   39 1     
   42   21   22 1     
   43   22   40 1     
   44   22   41 1     
   45   22   42 1     
   46    5   44 1     
   47   10   45 1     
   48   10   46 1     
@<TRIPOS>SUBSTRUCTURE
      1 S1             1
@<TRIPOS>SET
LONE_PAIRS      STATIC     ATOMS    <user>   **** ""
3 44 45 46
DONOR_HYDROGENS      STATIC     ATOMS    <user>   **** ""
2 31 43
ATOM$BLUE        STATIC     ATOMS    COLORGROUP SYSTEM
3 44 45 46
ATOM$RED        STATIC     ATOMS    COLORGROUP SYSTEM
2 31 43
