AV-unprocessed.smi:3013|AV-procd|sdf|11464|dock6
  -GOLD-   2272016403D 1   1.00000     0.00000
 Structure written by MMmdl.
 45 46  0  0  0  0  0  0  0  0  2 V2000
  146.3348  142.2318  154.0771 C   0  0  0  0  0  0  0  0  0  0  0  0
  147.6829  141.4797  154.0738 C   0  0  2  0  0  0  0  0  0  0  0  0
  147.5167  139.9589  153.8620 C   0  0  0  0  0  0  0  0  0  0  0  0
  146.6793  139.5912  152.6218 C   0  0  0  0  0  0  0  0  0  0  0  0
  146.8490  138.1907  152.2504 N   0  0  0  0  0  0  0  0  0  0  0  0
  145.8878  137.2579  152.3190 C   0  0  0  0  0  0  0  0  0  0  0  0
  144.7381  137.4971  152.6896 O   0  0  0  0  0  0  0  0  0  0  0  0
  146.3444  136.0529  151.9369 N   0  0  0  0  0  0  0  0  0  0  0  0
  145.6216  134.8312  151.8695 C   0  0  0  0  0  0  0  0  0  0  0  0
  144.2990  134.7061  151.8195 N   0  0  0  0  0  0  0  0  0  0  0  0
  144.2006  133.3448  151.7640 C   0  0  0  0  0  0  0  0  0  0  0  0
  145.3529  132.6745  151.7765 N   0  0  0  0  0  0  0  0  0  0  0  0
  146.2733  133.6648  151.8461 N   0  0  0  0  0  0  0  0  0  0  0  0
  147.6914  133.3637  151.8811 C   0  0  0  0  0  0  0  0  0  0  0  0
  148.5058  141.7553  155.2885 N   0  3  0  0  0  0  0  0  0  0  0  0
  149.9069  141.2533  155.2352 C   0  0  0  0  0  0  0  0  0  0  0  0
  150.7263  141.7918  156.4197 C   0  0  0  0  0  0  0  0  0  0  0  0
  150.0657  141.4243  157.7553 C   0  0  0  0  0  0  0  0  0  0  0  0
  148.6120  141.9154  157.7747 C   0  0  0  0  0  0  0  0  0  0  0  0
  147.8320  141.3810  156.5612 C   0  0  0  0  0  0  0  0  0  0  0  0
  145.8292  142.1374  153.1164 H   0  0  0  0  0  0  0  0  0  0  0  0
  146.4676  143.2984  154.2566 H   0  0  0  0  0  0  0  0  0  0  0  0
  145.6562  141.8460  154.8381 H   0  0  0  0  0  0  0  0  0  0  0  0
  148.2585  141.8444  153.2217 H   0  0  0  0  0  0  0  0  0  0  0  0
  148.5072  139.5137  153.7584 H   0  0  0  0  0  0  0  0  0  0  0  0
  147.0697  139.4996  154.7441 H   0  0  0  0  0  0  0  0  0  0  0  0
  145.6196  139.7537  152.8162 H   0  0  0  0  0  0  0  0  0  0  0  0
  146.9421  140.2308  151.7774 H   0  0  0  0  0  0  0  0  0  0  0  0
  147.7662  137.9101  151.9352 H   0  0  0  0  0  0  0  0  0  0  0  0
  147.3160  135.9994  151.6689 H   0  0  0  0  0  0  0  0  0  0  0  0
  143.2513  132.8326  151.7113 H   0  0  0  0  0  0  0  0  0  0  0  0
  148.1511  133.8573  152.7376 H   0  0  0  0  0  0  0  0  0  0  0  0
  148.1639  133.7218  150.9663 H   0  0  0  0  0  0  0  0  0  0  0  0
  147.8530  132.2883  151.9660 H   0  0  0  0  0  0  0  0  0  0  0  0
  149.9145  140.1627  155.2542 H   0  0  0  0  0  0  0  0  0  0  0  0
  150.3861  141.5587  154.3056 H   0  0  0  0  0  0  0  0  0  0  0  0
  151.7402  141.3924  156.3839 H   0  0  0  0  0  0  0  0  0  0  0  0
  150.8174  142.8759  156.3403 H   0  0  0  0  0  0  0  0  0  0  0  0
  150.0916  140.3427  157.8946 H   0  0  0  0  0  0  0  0  0  0  0  0
  150.6229  141.8601  158.5850 H   0  0  0  0  0  0  0  0  0  0  0  0
  148.1255  141.6022  158.6989 H   0  0  0  0  0  0  0  0  0  0  0  0
  148.5940  143.0062  157.7702 H   0  0  0  0  0  0  0  0  0  0  0  0
  146.8210  141.7894  156.5824 H   0  0  0  0  0  0  0  0  0  0  0  0
  147.7382  140.2967  156.6287 H   0  0  0  0  0  0  0  0  0  0  0  0
  148.5797  142.7621  155.3241 H   0  0  0  0  0  0  0  0  0  0  0  0
  1  2  1  0  0  0  0
  1 21  1  0  0  0  0
  1 22  1  0  0  0  0
  1 23  1  0  0  0  0
  2  3  1  0  0  0  0
  2 15  1  0  0  0  0
  2 24  1  0  0  0  0
  3  4  1  0  0  0  0
  3 25  1  0  0  0  0
  3 26  1  0  0  0  0
  4  5  1  0  0  0  0
  4 27  1  0  0  0  0
  4 28  1  0  0  0  0
  5  6  1  0  0  0  0
  5 29  1  0  0  0  0
  6  7  2  0  0  0  0
  6  8  1  0  0  0  0
  8  9  1  0  0  0  0
  8 30  1  0  0  0  0
  9 13  1  0  0  0  0
  9 10  2  0  0  0  0
 10 11  1  0  0  0  0
 11 12  2  0  0  0  0
 11 31  1  0  0  0  0
 12 13  1  0  0  0  0
 13 14  1  0  0  0  0
 14 32  1  0  0  0  0
 14 33  1  0  0  0  0
 14 34  1  0  0  0  0
 15 20  1  0  0  0  0
 15 16  1  0  0  0  0
 15 45  1  0  0  0  0
 16 17  1  0  0  0  0
 16 35  1  0  0  0  0
 16 36  1  0  0  0  0
 17 18  1  0  0  0  0
 17 37  1  0  0  0  0
 17 38  1  0  0  0  0
 18 19  1  0  0  0  0
 18 39  1  0  0  0  0
 18 40  1  0  0  0  0
 19 20  1  0  0  0  0
 19 41  1  0  0  0  0
 19 42  1  0  0  0  0
 20 43  1  0  0  0  0
 20 44  1  0  0  0  0
M  CHG  1  15   1
M  END
> <s_m_source_file>
AV-unprocessed.smi

> <i_m_source_file_index>
3013

> <i_lp_mmshare_version>
43012

> <i_f3d_flags>
0

> <s_epik_input>
W0NIMl0xW0NIMl1bQ0gyXVtDSDJdW0NIMl1OMVtDQEhdKFtDSDNdKVtDSDJdW0NIMl1bTkhdQyg9TylbTkhdYzJuW2NIXW5uMltDSDNd

> <s_epik_cmdline>
J2VwaWtfcHl0aG9uJywgJy1waCcsICc3LjAnLCAnLXRuJywgJzgnLCAnLW1hJywgJzIwMCcsICctbWV0YWxfYmluZGluZycsICctaW1hZScsICc8aW5maWxlLm1hZT4nLCAnLW9tYWUnLCAnPG91dGZpbGUubWFlPic=

> <r_lp_tautomer_probability>
1

> <r_epik_Ionization_Penalty>
0.000375855

> <r_epik_Ionization_Penalty_Charging>
0.000355659

> <r_epik_Ionization_Penalty_Neutral>
2.01955e-05

> <r_epik_State_Penalty>
0.000216264

> <r_epik_Charging_Adjusted_Penalty>
0.000571923

> <i_epik_Tot_Q>
1

> <i_epik_Tot_abs_Q>
1

> <r_epik_Metal_State_Penalty>
-0

> <b_epik_Metal_Only>
0

> <s_lp_Force_Field>
OPLS_2005

> <r_lp_Energy>
21.7492

> <b_lp_Chiralities_Consistent>
1

> <s_lp_Variant>
AV-unprocessed.smi:3013-1

> <Gold.Version>
5.8.1

> <Gold.Id.Protein>
6NUR|6NUR_protein|mol2

> <Gold.PLP.Fitness>
45.0734

> <Gold.PLP.PLP>
-33.5707

> <Gold.PLP.part.hbond>
-3.0000

> <Gold.PLP.part.metal>
0.0000

> <Gold.PLP.part.buried>
-5.0787

> <Gold.PLP.part.nonpolar>
-27.4664

> <Gold.PLP.part.repulsive>
1.8646

> <Gold.PLP.ligand.clash>
0.0000

> <Gold.PLP.ligand.torsion>
0.2225

> <Gold.PLP.Chemscore.Hbond>
3.9280

> <Gold.PLP.Chemscore.CHOScore>
0.0000

> <Gold.PLP.Chemscore.Metal>
0.0000

> <Gold.Chemscore.Hbonds>
donor molecule, donor type, donor heavy atom, donor atom, acceptor molecule, acceptor atom, score
      L1  H     5    29       P1  7948  0.82
      L1  H     8    30       P1  7948  1.00
      L1  H    15    45       P1  8028  2.00

> <Gold.PLP.Chemscore.Internal.Correction>
0.1637

> <Gold.Rescore>
     Score         DG    S(hbond)    S(metal)    S(lipo)     H(rot)  DE(clash)    DE(int)     intcor
     16.59     -17.30       2.92        0.00      61.70       2.01       0.19       0.52       ----

> <Gold.Chemscore.Fitness>
16.5893

> <Gold.Chemscore.DG>
-17.2964

> <Gold.Chemscore.ZeroCoef>
-5.4800

> <Gold.Chemscore.Hbond>
2.9207

> <Gold.Chemscore.Metal>
0.0000

> <Gold.Chemscore.Lipo>
61.7029

> <Gold.Chemscore.Internal_Hbond>
0.0000

> <Gold.Chemscore.DEClash>
0.1867

> <Gold.Chemscore.DEInternal>
0.5204

> <Gold.Chemscore.Rot>
2.0148

> <Gold.Chemscore.Internal.Correction>
   9.000000E+99

> <Gold.Chemscore.Hbonds>
donor molecule, donor type, donor heavy atom, donor atom, acceptor molecule, acceptor atom, score
      L1  H     5    29       P1  7948  0.76
      L1  H     8    30       P1  7948  0.98
      L1  H    15    45       P1  8028  0.97

> <Gold.Chemscore.Hbond.Weighted>
-9.7550

> <Gold.Chemscore.Metal.Weighted>
-0.0000

> <Gold.Chemscore.Lipo.Weighted>
-7.2192

> <Gold.Chemscore.Internal_Hbond.Weighted>
0.0000

> <Gold.Chemscore.DEClash.Weighted>
0.1867

> <Gold.Chemscore.DEInternal.Weighted>
0.5204

> <Gold.Chemscore.Rot.Weighted>
5.1579

> <Gold.Chemscore.Internal.Correction.Weighted>
   9.000000E+99

> <Gold.Protein.RotatedTorsions>
[ 6907 6896 6895 6894 ] final -134.93 input  -60.11 | X-H torsion
[ 7974 7965 7964 7962 ] final  -32.72 input  175.53 | X-H torsion
[ 8008 7997 7996 7995 ] final  -69.84 input   59.86 | X-H torsion
[ 10167 10162 10161 10158 ] final   22.59 input  -65.29 | X-H torsion
[ 10718 10713 10712 10709 ] final  151.68 input   66.30 | X-H torsion
[ 10763 10752 10751 10750 ] final  -22.86 input  -60.55 | X-H torsion
[ 11005 11000 10999 10996 ] final   83.25 input  -57.11 | X-H torsion

> <Gold.Protein.ActiveResidues>
 VAL166  LYS551  ARG553  GLY616  TRP617  ASP618  TYR619  PRO620  LYS621  CYS622 
 ASP623  PHE694  ASN695  SER759  ASP760  ASP761  ALA762  ILE779  LEU786  VAL792 
 PHE793  MET794  SER795  GLU796  ALA797  LYS798  CYS799  TRP800  GLU811  SER814 

> <Gold.Protein.RotatedAtoms>
  150.9917  133.6143  159.2707 H   0  0  0  0  0  0  0  0  0  0  0  0  # atno 6907 bound_to 6896
  151.3361  135.0852  159.9365 H   0  0  0  0  0  0  0  0  0  0  0  0  # atno 6908 bound_to 6896
  152.5248  133.9537  159.7738 H   0  0  0  0  0  0  0  0  0  0  0  0  # atno 6909 bound_to 6896
  146.0968  140.5827  142.8839 H   0  0  0  0  0  0  0  0  0  0  0  0  # atno 7974 bound_to 7965
  154.4968  140.0846  156.7713 H   0  0  0  0  0  0  0  0  0  0  0  0  # atno 8008 bound_to 7997
  155.4098  140.3441  155.4244 H   0  0  0  0  0  0  0  0  0  0  0  0  # atno 8009 bound_to 7997
  156.1404  140.1527  156.8917 H   0  0  0  0  0  0  0  0  0  0  0  0  # atno 8010 bound_to 7997
  140.5337  143.9798  150.6479 H   0  0  0  0  0  0  0  0  0  0  0  0  # atno 10167 bound_to 10162
  157.2676  131.0810  151.1622 H   0  0  0  0  0  0  0  0  0  0  0  0  # atno 10718 bound_to 10713
  153.6586  135.6977  153.5185 H   0  0  0  0  0  0  0  0  0  0  0  0  # atno 10763 bound_to 10752
  153.2650  135.4233  155.0931 H   0  0  0  0  0  0  0  0  0  0  0  0  # atno 10764 bound_to 10752
  154.8458  135.3564  154.6130 H   0  0  0  0  0  0  0  0  0  0  0  0  # atno 10765 bound_to 10752
  139.9037  134.8131  156.2284 H   0  0  0  0  0  0  0  0  0  0  0  0  # atno 11005 bound_to 11000
  144.7401  140.4919  143.6875 LP  0  0  0  0  0  0  0  0  0  0  0  0  # atno 17320 bound_to 7965
  145.5933  139.1497  143.3170 LP  0  0  0  0  0  0  0  0  0  0  0  0  # atno 17321 bound_to 7965
  140.3180  143.3155  152.0813 LP  0  0  0  0  0  0  0  0  0  0  0  0  # atno 17342 bound_to 10162
  139.4963  144.6593  151.6502 LP  0  0  0  0  0  0  0  0  0  0  0  0  # atno 17343 bound_to 10162
  157.3107  130.6888  149.6214 LP  0  0  0  0  0  0  0  0  0  0  0  0  # atno 17370 bound_to 10713
  155.9663  130.4364  150.5133 LP  0  0  0  0  0  0  0  0  0  0  0  0  # atno 17371 bound_to 10713
  141.0361  133.6962  156.1515 LP  0  0  0  0  0  0  0  0  0  0  0  0  # atno 17394 bound_to 11000
  140.7025  134.4549  157.5585 LP  0  0  0  0  0  0  0  0  0  0  0  0  # atno 17395 bound_to 11000

$$$$
