AV-unprocessed.smi:514|AV-procd|sdf|2777|dock2
  -GOLD-   2262023243D 1   1.00000     0.00000
 Structure written by MMmdl.
 45 47  0  0  0  0  0  0  0  0  1 V2000
  151.2248  136.2006  159.9694 C   0  0  0  0  0  0  0  0  0  0  0  0
  151.4066  136.4935  158.4785 C   0  0  0  0  0  0  0  0  0  0  0  0
  152.3065  137.5782  158.3301 O   0  0  0  0  0  0  0  0  0  0  0  0
  152.7715  137.7242  156.9995 C   0  0  0  0  0  0  0  0  0  0  0  0
  153.6509  138.9768  156.9177 C   0  0  0  0  0  0  0  0  0  0  0  0
  152.8871  140.1829  157.2248 N   0  0  0  0  0  0  0  0  0  0  0  0
  151.8304  140.7153  156.5509 C   0  0  0  0  0  0  0  0  0  0  0  0
  151.2888  140.1113  155.4160 N   0  0  0  0  0  0  0  0  0  0  0  0
  152.0681  139.4040  154.4046 C   0  0  0  0  0  0  0  0  0  0  0  0
  151.4441  138.0275  154.0980 C   0  0  0  0  0  0  0  0  0  0  0  0
  150.0872  138.2000  153.5892 N   0  0  0  0  0  0  0  0  0  0  0  0
  149.2953  138.9001  154.5951 C   0  0  0  0  0  0  0  0  0  0  0  0
  149.9361  140.2712  154.8869 C   0  0  0  0  0  0  0  0  0  0  0  0
  151.3954  141.8830  157.0320 N   0  0  0  0  0  0  0  0  0  0  0  0
  152.2266  142.1051  158.1187 C   0  0  0  0  0  0  0  0  0  0  0  0
  153.1346  141.1039  158.2451 C   0  0  0  0  0  0  0  0  0  0  0  0
  154.1696  141.1089  159.2887 C   0  0  0  0  0  0  0  0  0  0  0  0
  155.0232  140.2325  159.4041 O   0  0  0  0  0  0  0  0  0  0  0  0
  154.0920  142.1843  160.1098 N   0  0  0  0  0  0  0  0  0  0  0  0
  153.1969  143.2166  160.0458 C   0  0  0  0  0  0  0  0  0  0  0  0
  153.2476  144.1269  160.8728 O   0  0  0  0  0  0  0  0  0  0  0  0
  152.2646  143.1899  159.0406 N   0  0  0  0  0  0  0  0  0  0  0  0
  151.2879  144.2739  158.9183 C   0  0  0  0  0  0  0  0  0  0  0  0
  154.7753  142.2313  160.8515 H   0  0  0  0  0  0  0  0  0  0  0  0
  150.5369  135.3687  160.1221 H   0  0  0  0  0  0  0  0  0  0  0  0
  150.8216  137.0683  160.4918 H   0  0  0  0  0  0  0  0  0  0  0  0
  152.1751  135.9394  160.4355 H   0  0  0  0  0  0  0  0  0  0  0  0
  151.7954  135.6097  157.9708 H   0  0  0  0  0  0  0  0  0  0  0  0
  150.4437  136.7381  158.0278 H   0  0  0  0  0  0  0  0  0  0  0  0
  153.3420  136.8433  156.7007 H   0  0  0  0  0  0  0  0  0  0  0  0
  151.9239  137.8168  156.3182 H   0  0  0  0  0  0  0  0  0  0  0  0
  154.4924  138.8817  157.5964 H   0  0  0  0  0  0  0  0  0  0  0  0
  154.0995  139.0668  155.9303 H   0  0  0  0  0  0  0  0  0  0  0  0
  152.1339  140.0087  153.4989 H   0  0  0  0  0  0  0  0  0  0  0  0
  153.0889  139.2682  154.7637 H   0  0  0  0  0  0  0  0  0  0  0  0
  152.0383  137.5038  153.3491 H   0  0  0  0  0  0  0  0  0  0  0  0
  151.4293  137.4022  154.9920 H   0  0  0  0  0  0  0  0  0  0  0  0
  149.6765  137.2965  153.4014 H   0  0  0  0  0  0  0  0  0  0  0  0
  148.2815  139.0315  154.2172 H   0  0  0  0  0  0  0  0  0  0  0  0
  149.2261  138.2978  155.5019 H   0  0  0  0  0  0  0  0  0  0  0  0
  149.3221  140.8484  155.5768 H   0  0  0  0  0  0  0  0  0  0  0  0
  149.9801  140.8636  153.9716 H   0  0  0  0  0  0  0  0  0  0  0  0
  150.6086  144.2689  159.7714 H   0  0  0  0  0  0  0  0  0  0  0  0
  150.6831  144.1930  158.0152 H   0  0  0  0  0  0  0  0  0  0  0  0
  151.7864  145.2437  158.8845 H   0  0  0  0  0  0  0  0  0  0  0  0
  1  2  1  0  0  0  0
  1 25  1  0  0  0  0
  1 26  1  0  0  0  0
  1 27  1  0  0  0  0
  2  3  1  0  0  0  0
  2 28  1  0  0  0  0
  2 29  1  0  0  0  0
  3  4  1  0  0  0  0
  4  5  1  0  0  0  0
  4 30  1  0  0  0  0
  4 31  1  0  0  0  0
  5  6  1  0  0  0  0
  5 32  1  0  0  0  0
  5 33  1  0  0  0  0
  6 16  1  0  0  0  0
  6  7  1  0  0  0  0
  7  8  1  0  0  0  0
  7 14  2  0  0  0  0
  8 13  1  0  0  0  0
  8  9  1  0  0  0  0
  9 10  1  0  0  0  0
  9 34  1  0  0  0  0
  9 35  1  0  0  0  0
 10 11  1  0  0  0  0
 10 36  1  0  0  0  0
 10 37  1  0  0  0  0
 11 12  1  0  0  0  0
 11 38  1  0  0  0  0
 12 13  1  0  0  0  0
 12 39  1  0  0  0  0
 12 40  1  0  0  0  0
 13 41  1  0  0  0  0
 13 42  1  0  0  0  0
 14 15  1  0  0  0  0
 15 22  1  0  0  0  0
 15 16  2  0  0  0  0
 16 17  1  0  0  0  0
 17 18  2  0  0  0  0
 17 19  1  0  0  0  0
 19 24  1  0  0  0  0
 19 20  1  0  0  0  0
 20 21  2  0  0  0  0
 20 22  1  0  0  0  0
 22 23  1  0  0  0  0
 23 43  1  0  0  0  0
 23 44  1  0  0  0  0
 23 45  1  0  0  0  0
M  END
> <s_m_source_file>
AV-unprocessed.smi

> <i_m_source_file_index>
514

> <i_lp_mmshare_version>
43012

> <i_f3d_flags>
0

> <s_epik_input>
W0NIM11uMWMoPU8pW25IXWMoPU8pYyhjMTIpbihbQ0gyXVtDSDJdT1tDSDJdW0NIM10pYyhuMilOM1tDSDJdW0NIMl1bTkhdW0NIMl1bQ0gyXTM=

> <s_epik_cmdline>
J2VwaWtfcHl0aG9uJywgJy1waCcsICc3LjAnLCAnLXRuJywgJzgnLCAnLW1hJywgJzIwMCcsICctbWV0YWxfYmluZGluZycsICctaW1hZScsICc8aW5maWxlLm1hZT4nLCAnLW9tYWUnLCAnPG91dGZpbGUubWFlPic=

> <r_epik_Ionization_Penalty>
2.51413

> <r_epik_Ionization_Penalty_Charging>
1.58739e-05

> <r_epik_Ionization_Penalty_Neutral>
2.51411

> <r_epik_State_Penalty>
2.67993

> <r_epik_Charging_Adjusted_Penalty>
2.67995

> <i_epik_Tot_Q>
0

> <i_epik_Tot_abs_Q>
0

> <r_epik_Metal_State_Penalty>
2.70758

> <b_epik_Metal_Only>
0

> <s_lp_Force_Field>
OPLS_2005

> <r_lp_Energy>
49.2261

> <b_lp_Chiralities_Consistent>
1

> <s_lp_Variant>
AV-unprocessed.smi:514-2

> <Gold.Version>
5.8.1

> <Gold.Id.Protein>
6NUR|6NUR_protein|mol2

> <Gold.PLP.Fitness>
44.2544

> <Gold.PLP.PLP>
-41.9110

> <Gold.PLP.part.hbond>
-2.0000

> <Gold.PLP.part.metal>
0.0000

> <Gold.PLP.part.buried>
-1.9603

> <Gold.PLP.part.nonpolar>
-37.2561

> <Gold.PLP.part.repulsive>
0.2402

> <Gold.PLP.ligand.clash>
0.0000

> <Gold.PLP.ligand.torsion>
0.4697

> <Gold.PLP.Chemscore.Hbond>
0.9600

> <Gold.PLP.Chemscore.CHOScore>
0.0000

> <Gold.PLP.Chemscore.Metal>
0.0000

> <Gold.Chemscore.Hbonds>
donor molecule, donor type, donor heavy atom, donor atom, acceptor molecule, acceptor atom, score
      L1  H    11    38       P1  7948  0.78
      P1  H  7997  8009       L1    18  0.50

> <Gold.PLP.Chemscore.Internal.Correction>
0.4029

> <Gold.Rescore>
     Score         DG    S(hbond)    S(metal)    S(lipo)     H(rot)  DE(clash)    DE(int)     intcor
     10.75     -11.62       0.87        0.00      65.23       1.72       0.16       0.71       ----

> <Gold.Chemscore.Fitness>
10.7457

> <Gold.Chemscore.DG>
-11.6210

> <Gold.Chemscore.ZeroCoef>
-5.4800

> <Gold.Chemscore.Hbond>
0.8731

> <Gold.Chemscore.Metal>
0.0000

> <Gold.Chemscore.Lipo>
65.2284

> <Gold.Chemscore.Internal_Hbond>
0.0000

> <Gold.Chemscore.DEClash>
0.1611

> <Gold.Chemscore.DEInternal>
0.7142

> <Gold.Chemscore.Rot>
1.7214

> <Gold.Chemscore.Internal.Correction>
   9.000000E+99

> <Gold.Chemscore.Hbonds>
donor molecule, donor type, donor heavy atom, donor atom, acceptor molecule, acceptor atom, score
      L1  H    11    38       P1  7948  0.57
      P1  H  7997  8009       L1    18  0.10

> <Gold.Chemscore.Hbond.Weighted>
-2.9162

> <Gold.Chemscore.Metal.Weighted>
-0.0000

> <Gold.Chemscore.Lipo.Weighted>
-7.6317

> <Gold.Chemscore.Internal_Hbond.Weighted>
0.0000

> <Gold.Chemscore.DEClash.Weighted>
0.1611

> <Gold.Chemscore.DEInternal.Weighted>
0.7142

> <Gold.Chemscore.Rot.Weighted>
4.4069

> <Gold.Chemscore.Internal.Correction.Weighted>
   9.000000E+99

> <Gold.Protein.RotatedTorsions>
[ 6907 6896 6895 6894 ] final -149.43 input  -60.11 | X-H torsion
[ 7974 7965 7964 7962 ] final   11.19 input  175.53 | X-H torsion
[ 8008 7997 7996 7995 ] final   92.40 input   59.86 | X-H torsion
[ 10167 10162 10161 10158 ] final  123.31 input  -65.29 | X-H torsion
[ 10718 10713 10712 10709 ] final -111.38 input   66.30 | X-H torsion
[ 10763 10752 10751 10750 ] final  170.67 input  -60.55 | X-H torsion
[ 11005 11000 10999 10996 ] final   36.09 input  -57.11 | X-H torsion

> <Gold.Protein.ActiveResidues>
 VAL166  LYS551  ARG553  GLY616  TRP617  ASP618  TYR619  PRO620  LYS621  CYS622 
 ASP623  PHE694  ASN695  SER759  ASP760  ASP761  ALA762  ILE779  LEU786  VAL792 
 PHE793  MET794  SER795  GLU796  ALA797  LYS798  CYS799  TRP800  GLU811  SER814 

> <Gold.Protein.RotatedAtoms>
  151.1841  133.4707  159.2594 H   0  0  0  0  0  0  0  0  0  0  0  0  # atno 6907 bound_to 6896
  151.1229  135.0089  159.8557 H   0  0  0  0  0  0  0  0  0  0  0  0  # atno 6908 bound_to 6896
  152.5457  134.1750  159.8665 H   0  0  0  0  0  0  0  0  0  0  0  0  # atno 6909 bound_to 6896
  146.2375  139.9522  142.8469 H   0  0  0  0  0  0  0  0  0  0  0  0  # atno 7974 bound_to 7965
  156.0349  140.3326  155.7180 H   0  0  0  0  0  0  0  0  0  0  0  0  # atno 8008 bound_to 7997
  155.5830  140.0639  157.2796 H   0  0  0  0  0  0  0  0  0  0  0  0  # atno 8009 bound_to 7997
  154.4368  140.1840  156.0984 H   0  0  0  0  0  0  0  0  0  0  0  0  # atno 8010 bound_to 7997
  139.5807  144.6985  151.3536 H   0  0  0  0  0  0  0  0  0  0  0  0  # atno 10167 bound_to 10162
  156.0644  130.5865  150.8366 H   0  0  0  0  0  0  0  0  0  0  0  0  # atno 10718 bound_to 10713
  154.4010  135.2755  155.2097 H   0  0  0  0  0  0  0  0  0  0  0  0  # atno 10763 bound_to 10752
  154.4123  135.6019  153.5963 H   0  0  0  0  0  0  0  0  0  0  0  0  # atno 10764 bound_to 10752
  152.9831  135.5952  154.4278 H   0  0  0  0  0  0  0  0  0  0  0  0  # atno 10765 bound_to 10752
  140.2361  134.3470  155.7944 H   0  0  0  0  0  0  0  0  0  0  0  0  # atno 11005 bound_to 11000
  145.1850  140.9785  143.4244 LP  0  0  0  0  0  0  0  0  0  0  0  0  # atno 17320 bound_to 7965
  144.9908  139.3692  143.6216 LP  0  0  0  0  0  0  0  0  0  0  0  0  # atno 17321 bound_to 7965
  140.7085  143.7451  150.7525 LP  0  0  0  0  0  0  0  0  0  0  0  0  # atno 17342 bound_to 10162
  140.0982  143.4813  152.2440 LP  0  0  0  0  0  0  0  0  0  0  0  0  # atno 17343 bound_to 10162
  157.5676  131.0946  150.9467 LP  0  0  0  0  0  0  0  0  0  0  0  0  # atno 17370 bound_to 10713
  156.9690  130.5484  149.5289 LP  0  0  0  0  0  0  0  0  0  0  0  0  # atno 17371 bound_to 10713
  141.2214  133.7272  156.8810 LP  0  0  0  0  0  0  0  0  0  0  0  0  # atno 17394 bound_to 11000
  140.1701  134.9106  157.2822 LP  0  0  0  0  0  0  0  0  0  0  0  0  # atno 17395 bound_to 11000

$$$$
