AV-unprocessed.smi:281|AV-procd|sdf|2107|dock9
  -GOLD-   2262021403D 1   1.00000     0.00000
 Structure written by MMmdl.
 55 59  0  0  0  0  0  0  0  0  1 V2000
  144.5192  141.7528  157.2887 C   0  0  0  0  0  0  0  0  0  0  0  0
  145.3363  140.9243  156.2925 C   0  0  2  0  0  0  0  0  0  0  0  0
  145.0607  139.4177  156.4332 C   0  0  0  0  0  0  0  0  0  0  0  0
  145.9352  138.6705  155.5395 N   0  0  0  0  0  0  0  0  0  0  0  0
  145.5731  137.3871  155.2917 C   0  0  0  0  0  0  0  0  0  0  0  0
  145.7463  136.4370  156.2492 N   0  0  0  0  0  0  0  0  0  0  0  0
  145.3978  135.1691  156.0123 C   0  0  0  0  0  0  0  0  0  0  0  0
  144.8723  134.6410  154.9055 N   0  0  0  0  0  0  0  0  0  0  0  0
  144.7000  135.5875  153.9389 C   0  0  0  0  0  0  0  0  0  0  0  0
  145.0216  136.9702  154.0474 C   0  0  0  0  0  0  0  0  0  0  0  0
  144.7280  137.6179  152.8530 N   0  0  0  0  0  0  0  0  0  0  0  0
  144.2544  136.6745  152.0860 C   0  0  0  0  0  0  0  0  0  0  0  0
  144.1947  135.4245  152.6603 N   0  0  0  0  0  0  0  0  0  0  0  0
  143.7232  134.1972  152.0363 C   0  0  0  0  0  0  0  0  0  0  0  0
  144.5132  133.7982  150.7674 C   0  0  2  0  0  0  0  0  0  0  0  0
  144.0693  134.5845  149.6752 O   0  0  0  0  0  0  0  0  0  0  0  0
  144.3348  132.3293  150.4032 C   0  0  0  0  0  0  0  0  0  0  0  0
  145.6470  131.9904  149.7099 C   0  0  0  0  0  0  0  0  0  0  0  0
  146.6027  132.6929  150.4853 O   0  0  0  0  0  0  0  0  0  0  0  0
  146.0454  133.9420  150.8838 C   0  0  0  0  0  0  0  0  0  0  0  0
  147.3519  138.9714  155.7239 C   0  0  0  0  0  0  0  0  0  0  0  0
  147.6123  140.4983  155.6470 C   0  0  1  0  0  0  0  0  0  0  0  0
  149.0243  140.8193  156.1199 C   0  0  0  0  0  0  0  0  0  0  0  0
  149.8367  140.7452  154.8378 C   0  0  0  0  0  0  0  0  0  0  0  0
  148.9922  141.3613  153.8815 O   0  0  0  0  0  0  0  0  0  0  0  0
  147.6268  141.1297  154.2235 C   0  0  1  0  0  0  0  0  0  0  0  0
  146.9534  140.3462  153.0833 C   0  0  0  0  0  0  0  0  0  0  0  0
  146.7193  141.1751  156.5367 O   0  0  0  0  0  0  0  0  0  0  0  0
  143.4498  141.6050  157.1370 H   0  0  0  0  0  0  0  0  0  0  0  0
  144.7275  142.8167  157.1726 H   0  0  0  0  0  0  0  0  0  0  0  0
  144.7536  141.4773  158.3173 H   0  0  0  0  0  0  0  0  0  0  0  0
  145.0781  141.2509  155.2846 H   0  0  0  0  0  0  0  0  0  0  0  0
  145.2481  139.0945  157.4580 H   0  0  0  0  0  0  0  0  0  0  0  0
  144.0100  139.2173  156.2263 H   0  0  0  0  0  0  0  0  0  0  0  0
  145.5660  134.4787  156.8257 H   0  0  0  0  0  0  0  0  0  0  0  0
  143.9382  136.8673  151.0714 H   0  0  0  0  0  0  0  0  0  0  0  0
  143.7756  133.3991  152.7779 H   0  0  0  0  0  0  0  0  0  0  0  0
  142.6661  134.3201  151.7964 H   0  0  0  0  0  0  0  0  0  0  0  0
  143.1299  134.5052  149.6106 H   0  0  0  0  0  0  0  0  0  0  0  0
  144.2452  131.7237  151.3059 H   0  0  0  0  0  0  0  0  0  0  0  0
  143.4583  132.1328  149.7844 H   0  0  0  0  0  0  0  0  0  0  0  0
  145.8518  130.9198  149.6911 H   0  0  0  0  0  0  0  0  0  0  0  0
  145.6579  132.3639  148.6847 H   0  0  0  0  0  0  0  0  0  0  0  0
  146.4348  134.7437  150.2543 H   0  0  0  0  0  0  0  0  0  0  0  0
  146.3676  134.1426  151.9051 H   0  0  0  0  0  0  0  0  0  0  0  0
  147.6493  138.5967  156.7047 H   0  0  0  0  0  0  0  0  0  0  0  0
  147.9581  138.4427  154.9873 H   0  0  0  0  0  0  0  0  0  0  0  0
  149.0697  141.8372  156.5107 H   0  0  0  0  0  0  0  0  0  0  0  0
  149.3922  140.1499  156.8983 H   0  0  0  0  0  0  0  0  0  0  0  0
  150.7967  141.2560  154.9137 H   0  0  0  0  0  0  0  0  0  0  0  0
  150.0192  139.7092  154.5491 H   0  0  0  0  0  0  0  0  0  0  0  0
  147.1665  142.1172  154.2743 H   0  0  0  0  0  0  0  0  0  0  0  0
  145.8918  140.1905  153.2730 H   0  0  0  0  0  0  0  0  0  0  0  0
  147.4188  139.3725  152.9316 H   0  0  0  0  0  0  0  0  0  0  0  0
  147.0356  140.8937  152.1442 H   0  0  0  0  0  0  0  0  0  0  0  0
  1  2  1  0  0  0  0
  1 29  1  0  0  0  0
  1 30  1  0  0  0  0
  1 31  1  0  0  0  0
  2 28  1  0  0  0  0
  2  3  1  0  0  0  0
  2 32  1  0  0  0  0
  3  4  1  0  0  0  0
  3 33  1  0  0  0  0
  3 34  1  0  0  0  0
  4  5  1  0  0  0  0
  4 21  1  0  0  0  0
  5 10  1  0  0  0  0
  5  6  2  0  0  0  0
  6  7  1  0  0  0  0
  7  8  2  0  0  0  0
  7 35  1  0  0  0  0
  8  9  1  0  0  0  0
  9 13  1  0  0  0  0
  9 10  2  0  0  0  0
 10 11  1  0  0  0  0
 11 12  2  0  0  0  0
 12 13  1  0  0  0  0
 12 36  1  0  0  0  0
 13 14  1  0  0  0  0
 14 15  1  0  0  0  0
 14 37  1  0  0  0  0
 14 38  1  0  0  0  0
 15 20  1  0  0  0  0
 15 16  1  0  0  0  0
 15 17  1  0  0  0  0
 16 39  1  0  0  0  0
 17 18  1  0  0  0  0
 17 40  1  0  0  0  0
 17 41  1  0  0  0  0
 18 19  1  0  0  0  0
 18 42  1  0  0  0  0
 18 43  1  0  0  0  0
 19 20  1  0  0  0  0
 20 44  1  0  0  0  0
 20 45  1  0  0  0  0
 21 22  1  0  0  0  0
 21 46  1  0  0  0  0
 21 47  1  0  0  0  0
 22 26  1  0  0  0  0
 22 23  1  0  0  0  0
 22 28  1  0  0  0  0
 23 24  1  0  0  0  0
 23 48  1  0  0  0  0
 23 49  1  0  0  0  0
 24 25  1  0  0  0  0
 24 50  1  0  0  0  0
 24 51  1  0  0  0  0
 25 26  1  0  0  0  0
 26 27  1  0  0  0  0
 26 52  1  0  0  0  0
 27 53  1  0  0  0  0
 27 54  1  0  0  0  0
 27 55  1  0  0  0  0
M  END
> <s_m_source_file>
AV-unprocessed.smi

> <i_m_source_file_index>
281

> <i_lp_mmshare_version>
43012

> <i_f3d_flags>
0

> <s_epik_input>
W0NIM11bQ0BASF0xT1tDSDJdW0NIMl1bQ0BAXTEyW0NIMl1OKFtDSDJdW0NASF0oTzIpW0NIM10pYyhuW2NIXW4zKWMoYzM0KW5bY0hdbjRbQ0gyXVtDQEBdNShbT0hdKVtDSDJdW0NIMl1PW0NIMl01

> <s_epik_cmdline>
J2VwaWtfcHl0aG9uJywgJy1waCcsICc3LjAnLCAnLXRuJywgJzgnLCAnLW1hJywgJzIwMCcsICctbWV0YWxfYmluZGluZycsICctaW1hZScsICc8aW5maWxlLm1hZT4nLCAnLW9tYWUnLCAnPG91dGZpbGUubWFlPic=

> <r_lp_tautomer_probability>
1

> <r_epik_Ionization_Penalty>
0.00571331

> <r_epik_Ionization_Penalty_Charging>
0

> <r_epik_Ionization_Penalty_Neutral>
0.00571331

> <r_epik_State_Penalty>
0.00399586

> <r_epik_Charging_Adjusted_Penalty>
0.00399586

> <i_epik_Tot_Q>
0

> <i_epik_Tot_abs_Q>
0

> <r_epik_Metal_State_Penalty>
-0

> <b_epik_Metal_Only>
0

> <s_lp_Force_Field>
OPLS_2005

> <r_lp_Energy>
55.2886

> <b_lp_Chiralities_Consistent>
1

> <s_lp_Variant>
AV-unprocessed.smi:281-7

> <Gold.Version>
5.8.1

> <Gold.Id.Protein>
6NUR|6NUR_protein|mol2

> <Gold.PLP.Fitness>
37.3175

> <Gold.PLP.PLP>
-29.3175

> <Gold.PLP.part.hbond>
-3.9847

> <Gold.PLP.part.metal>
0.0000

> <Gold.PLP.part.buried>
-3.6632

> <Gold.PLP.part.nonpolar>
-23.4292

> <Gold.PLP.part.repulsive>
2.0294

> <Gold.PLP.ligand.clash>
0.0000

> <Gold.PLP.ligand.torsion>
0.4423

> <Gold.PLP.Chemscore.Hbond>
1.8320

> <Gold.PLP.Chemscore.CHOScore>
1.0000

> <Gold.PLP.Chemscore.Metal>
0.0000

> <Gold.Chemscore.Hbonds>
donor molecule, donor type, donor heavy atom, donor atom, acceptor molecule, acceptor atom, score
      L1  H    16    39       P1 10186  0.78
      P1  H  8011  8017       L1    25  0.78
      L1  C    12    36       P1 10171  1.00

> <Gold.PLP.Chemscore.Internal.Correction>
0.3886

> <Gold.Rescore>
     Score         DG    S(hbond)    S(metal)    S(lipo)     H(rot)  DE(clash)    DE(int)     intcor
     12.14     -14.65       1.79        0.00      72.89       2.09       2.02       0.49       ----

> <Gold.Chemscore.Fitness>
12.1390

> <Gold.Chemscore.DG>
-14.6454

> <Gold.Chemscore.ZeroCoef>
-5.4800

> <Gold.Chemscore.Hbond>
1.7947

> <Gold.Chemscore.Metal>
0.0000

> <Gold.Chemscore.Lipo>
72.8935

> <Gold.Chemscore.Internal_Hbond>
0.0000

> <Gold.Chemscore.DEClash>
2.0176

> <Gold.Chemscore.DEInternal>
0.4887

> <Gold.Chemscore.Rot>
2.0927

> <Gold.Chemscore.Internal.Correction>
   9.000000E+99

> <Gold.Chemscore.Hbonds>
donor molecule, donor type, donor heavy atom, donor atom, acceptor molecule, acceptor atom, score
      L1  H    16    39       P1 10186  0.75
      P1  H  8011  8017       L1    25  0.70

> <Gold.Chemscore.Hbond.Weighted>
-5.9942

> <Gold.Chemscore.Metal.Weighted>
-0.0000

> <Gold.Chemscore.Lipo.Weighted>
-8.5285

> <Gold.Chemscore.Internal_Hbond.Weighted>
0.0000

> <Gold.Chemscore.DEClash.Weighted>
2.0176

> <Gold.Chemscore.DEInternal.Weighted>
0.4887

> <Gold.Chemscore.Rot.Weighted>
5.3573

> <Gold.Chemscore.Internal.Correction.Weighted>
   9.000000E+99

> <Gold.Protein.RotatedTorsions>
[ 6907 6896 6895 6894 ] final   -4.93 input  -60.11 | X-H torsion
[ 7974 7965 7964 7962 ] final   66.98 input  175.53 | X-H torsion
[ 8008 7997 7996 7995 ] final -135.42 input   59.86 | X-H torsion
[ 10167 10162 10161 10158 ] final    0.08 input  -65.29 | X-H torsion
[ 10718 10713 10712 10709 ] final  174.98 input   66.30 | X-H torsion
[ 10763 10752 10751 10750 ] final -164.87 input  -60.55 | X-H torsion
[ 11005 11000 10999 10996 ] final  -69.55 input  -57.11 | X-H torsion

> <Gold.Protein.ActiveResidues>
 VAL166  LYS551  ARG553  GLY616  TRP617  ASP618  TYR619  PRO620  LYS621  CYS622 
 ASP623  PHE694  ASN695  SER759  ASP760  ASP761  ALA762  ILE779  LEU786  VAL792 
 PHE793  MET794  SER795  GLU796  ALA797  LYS798  CYS799  TRP800  GLU811  SER814 

> <Gold.Protein.RotatedAtoms>
  151.4897  135.1057  159.9799 H   0  0  0  0  0  0  0  0  0  0  0  0  # atno 6907 bound_to 6896
  152.4746  133.8104  159.7011 H   0  0  0  0  0  0  0  0  0  0  0  0  # atno 6908 bound_to 6896
  150.8776  133.7355  159.2968 H   0  0  0  0  0  0  0  0  0  0  0  0  # atno 6909 bound_to 6896
  145.8201  139.3080  143.1048 H   0  0  0  0  0  0  0  0  0  0  0  0  # atno 7974 bound_to 7965
  155.3784  140.0492  157.3044 H   0  0  0  0  0  0  0  0  0  0  0  0  # atno 8008 bound_to 7997
  154.5095  140.2186  155.9147 H   0  0  0  0  0  0  0  0  0  0  0  0  # atno 8009 bound_to 7997
  156.1565  140.3125  155.8741 H   0  0  0  0  0  0  0  0  0  0  0  0  # atno 8010 bound_to 7997
  140.6745  143.6956  150.7992 H   0  0  0  0  0  0  0  0  0  0  0  0  # atno 10167 bound_to 10162
  156.9416  131.0003  151.2967 H   0  0  0  0  0  0  0  0  0  0  0  0  # atno 10718 bound_to 10713
  154.6986  135.2984  154.9374 H   0  0  0  0  0  0  0  0  0  0  0  0  # atno 10763 bound_to 10752
  154.0313  135.6669  153.4785 H   0  0  0  0  0  0  0  0  0  0  0  0  # atno 10764 bound_to 10752
  153.0664  135.5085  154.8118 H   0  0  0  0  0  0  0  0  0  0  0  0  # atno 10765 bound_to 10752
  141.1556  133.6767  156.6617 H   0  0  0  0  0  0  0  0  0  0  0  0  # atno 11005 bound_to 11000
  145.9684  140.8780  143.0175 LP  0  0  0  0  0  0  0  0  0  0  0  0  # atno 17320 bound_to 7965
  144.6748  140.1911  143.7396 LP  0  0  0  0  0  0  0  0  0  0  0  0  # atno 17321 bound_to 7965
  140.0647  143.5120  152.2610 LP  0  0  0  0  0  0  0  0  0  0  0  0  # atno 17342 bound_to 10162
  139.6029  144.7588  151.3128 LP  0  0  0  0  0  0  0  0  0  0  0  0  # atno 17343 bound_to 10162
  157.5781  130.8357  149.8484 LP  0  0  0  0  0  0  0  0  0  0  0  0  # atno 17370 bound_to 10713
  156.0402  130.3741  150.1456 LP  0  0  0  0  0  0  0  0  0  0  0  0  # atno 17371 bound_to 10713
  140.3243  134.7982  157.4276 LP  0  0  0  0  0  0  0  0  0  0  0  0  # atno 17394 bound_to 11000
  140.1071  134.5395  155.8300 LP  0  0  0  0  0  0  0  0  0  0  0  0  # atno 17395 bound_to 11000

$$$$
