AV-unprocessed.smi:711|AV-procd|sdf|3464|dock1
  -GOLD-   22720 0453D 1   1.00000     0.00000
 Structure written by MMmdl.
 29 30  0  0  0  0  0  0  0  0  1 V2000
  147.2784  141.2777  152.8572 O   0  0  0  0  0  0  0  0  0  0  0  0
  147.9846  141.3258  153.8623 C   0  0  0  0  0  0  0  0  0  0  0  0
  149.2474  140.7262  153.8547 N   0  0  0  0  0  0  0  0  0  0  0  0
  150.1449  140.7066  154.9226 C   0  0  0  0  0  0  0  0  0  0  0  0
  151.2252  140.1296  154.7989 O   0  0  0  0  0  0  0  0  0  0  0  0
  149.7353  141.3580  156.1111 N   0  0  0  0  0  0  0  0  0  0  0  0
  150.6138  141.3405  157.2588 C   0  0  0  0  0  0  0  0  0  0  0  0
  150.8999  142.7436  157.8394 C   0  0  2  0  0  0  0  0  0  0  0  0
  151.5495  143.5101  156.8452 O   0  0  0  0  0  0  0  0  0  0  0  0
  151.6802  142.7054  159.1491 C   0  0  0  0  0  0  0  0  0  0  0  0
  152.3041  141.5098  159.5706 C   0  0  0  0  0  0  0  0  0  0  0  0
  153.0061  141.4642  160.7904 C   0  0  0  0  0  0  0  0  0  0  0  0
  153.0887  142.6137  161.5985 C   0  0  0  0  0  0  0  0  0  0  0  0
  153.7626  142.5701  162.7721 F   0  0  0  0  0  0  0  0  0  0  0  0
  152.4676  143.8079  161.1867 C   0  0  0  0  0  0  0  0  0  0  0  0
  151.7638  143.8556  159.9677 C   0  0  0  0  0  0  0  0  0  0  0  0
  151.1590  145.0095  159.5951 F   0  0  0  0  0  0  0  0  0  0  0  0
  148.4886  141.9614  156.1636 C   0  0  0  0  0  0  0  0  0  0  0  0
  147.6220  141.9730  155.1223 C   0  0  0  0  0  0  0  0  0  0  0  0
  146.0834  142.7437  155.2701 Cl  0  0  0  0  0  0  0  0  0  0  0  0
  149.5328  140.2635  153.0039 H   0  0  0  0  0  0  0  0  0  0  0  0
  150.2129  140.6531  158.0063 H   0  0  0  0  0  0  0  0  0  0  0  0
  151.5360  140.8788  156.9008 H   0  0  0  0  0  0  0  0  0  0  0  0
  149.9474  143.2428  158.0195 H   0  0  0  0  0  0  0  0  0  0  0  0
  150.8915  143.9436  156.3235 H   0  0  0  0  0  0  0  0  0  0  0  0
  152.2388  140.6190  158.9631 H   0  0  0  0  0  0  0  0  0  0  0  0
  153.4783  140.5458  161.1071 H   0  0  0  0  0  0  0  0  0  0  0  0
  152.5274  144.6886  161.8089 H   0  0  0  0  0  0  0  0  0  0  0  0
  148.1898  142.4436  157.0838 H   0  0  0  0  0  0  0  0  0  0  0  0
  1  2  2  0  0  0  0
  2 19  1  0  0  0  0
  2  3  1  0  0  0  0
  3 21  1  0  0  0  0
  3  4  1  0  0  0  0
  4  5  2  0  0  0  0
  4  6  1  0  0  0  0
  6  7  1  0  0  0  0
  6 18  1  0  0  0  0
  7  8  1  0  0  0  0
  7 22  1  0  0  0  0
  7 23  1  0  0  0  0
  8  9  1  0  0  0  0
  8 10  1  0  0  0  0
  8 24  1  0  0  0  0
  9 25  1  0  0  0  0
 10 16  1  0  0  0  0
 10 11  2  0  0  0  0
 11 12  1  0  0  0  0
 11 26  1  0  0  0  0
 12 13  2  0  0  0  0
 12 27  1  0  0  0  0
 13 14  1  0  0  0  0
 13 15  1  0  0  0  0
 15 16  2  0  0  0  0
 15 28  1  0  0  0  0
 16 17  1  0  0  0  0
 18 19  2  0  0  0  0
 18 29  1  0  0  0  0
 19 20  1  0  0  0  0
M  END
> <s_m_source_file>
AV-unprocessed.smi

> <i_m_source_file_index>
711

> <i_lp_mmshare_version>
43012

> <i_f3d_flags>
0

> <s_epik_input>
Tz1jMVtuSF1jKD1PKW4oW2NIXWMxQ2wpW0NIMl1bQ0BIXShbT0hdKWMyW2NIXVtjSF1jKEYpW2NIXWMyRg==

> <s_epik_cmdline>
J2VwaWtfcHl0aG9uJywgJy1waCcsICc3LjAnLCAnLXRuJywgJzgnLCAnLW1hJywgJzIwMCcsICctbWV0YWxfYmluZGluZycsICctaW1hZScsICc8aW5maWxlLm1hZT4nLCAnLW9tYWUnLCAnPG91dGZpbGUubWFlPic=

> <r_lp_tautomer_probability>
0.999537

> <r_epik_Ionization_Penalty>
0.0292058

> <r_epik_Ionization_Penalty_Charging>
0.0292057

> <r_epik_Ionization_Penalty_Neutral>
9.07348e-08

> <r_epik_State_Penalty>
0.0240115

> <r_epik_Charging_Adjusted_Penalty>
0.0532172

> <i_epik_Tot_Q>
0

> <i_epik_Tot_abs_Q>
0

> <r_epik_Metal_State_Penalty>
2.21956

> <b_epik_Metal_Only>
0

> <s_lp_Force_Field>
OPLS_2005

> <r_lp_Energy>
11.2971

> <b_lp_Chiralities_Consistent>
1

> <s_lp_Variant>
AV-unprocessed.smi:711-1

> <Gold.Version>
5.8.1

> <Gold.Id.Protein>
6NUR|6NUR_protein|mol2

> <Gold.PLP.Fitness>
51.9167

> <Gold.PLP.PLP>
-43.5419

> <Gold.PLP.part.hbond>
-3.0000

> <Gold.PLP.part.metal>
0.0000

> <Gold.PLP.part.buried>
-3.2783

> <Gold.PLP.part.nonpolar>
-35.8774

> <Gold.PLP.part.repulsive>
0.4329

> <Gold.PLP.ligand.clash>
0.0000

> <Gold.PLP.ligand.torsion>
0.3248

> <Gold.PLP.Chemscore.Hbond>
3.0000

> <Gold.PLP.Chemscore.CHOScore>
0.0000

> <Gold.PLP.Chemscore.Metal>
0.0000

> <Gold.Chemscore.Hbonds>
donor molecule, donor type, donor heavy atom, donor atom, acceptor molecule, acceptor atom, score
      L1  H     3    21       P1  7957  1.00
      L1  H     9    25       P1  8028  0.50
      P1  H  7989  7998       L1     5  0.80
      L1  C    18    29       P1  8028  0.02

> <Gold.PLP.Chemscore.Internal.Correction>
0.0244

> <Gold.Rescore>
     Score         DG    S(hbond)    S(metal)    S(lipo)     H(rot)  DE(clash)    DE(int)     intcor
     18.36     -18.65       2.87        0.00      82.44       2.37       0.08       0.21       ----

> <Gold.Chemscore.Fitness>
18.3561

> <Gold.Chemscore.DG>
-18.6491

> <Gold.Chemscore.ZeroCoef>
-5.4800

> <Gold.Chemscore.Hbond>
2.8679

> <Gold.Chemscore.Metal>
0.0000

> <Gold.Chemscore.Lipo>
82.4369

> <Gold.Chemscore.Internal_Hbond>
0.0000

> <Gold.Chemscore.DEClash>
0.0848

> <Gold.Chemscore.DEInternal>
0.2082

> <Gold.Chemscore.Rot>
2.3652

> <Gold.Chemscore.Internal.Correction>
   9.000000E+99

> <Gold.Chemscore.Hbonds>
donor molecule, donor type, donor heavy atom, donor atom, acceptor molecule, acceptor atom, score
      L1  H     3    21       P1  7957  0.98
      L1  H     9    25       P1  8028  0.50
      P1  H  7989  7998       L1     5  0.11

> <Gold.Chemscore.Hbond.Weighted>
-9.5787

> <Gold.Chemscore.Metal.Weighted>
-0.0000

> <Gold.Chemscore.Lipo.Weighted>
-9.6451

> <Gold.Chemscore.Internal_Hbond.Weighted>
0.0000

> <Gold.Chemscore.DEClash.Weighted>
0.0848

> <Gold.Chemscore.DEInternal.Weighted>
0.2082

> <Gold.Chemscore.Rot.Weighted>
6.0548

> <Gold.Chemscore.Internal.Correction.Weighted>
   9.000000E+99

> <Gold.Protein.RotatedTorsions>
[ 6907 6896 6895 6894 ] final   99.81 input  -60.11 | X-H torsion
[ 7974 7965 7964 7962 ] final   22.86 input  175.53 | X-H torsion
[ 8008 7997 7996 7995 ] final  -78.03 input   59.86 | X-H torsion
[ 10167 10162 10161 10158 ] final  -21.93 input  -65.29 | X-H torsion
[ 10718 10713 10712 10709 ] final  -78.76 input   66.30 | X-H torsion
[ 10763 10752 10751 10750 ] final   50.02 input  -60.55 | X-H torsion
[ 11005 11000 10999 10996 ] final -176.60 input  -57.11 | X-H torsion

> <Gold.Protein.ActiveResidues>
 VAL166  LYS551  ARG553  GLY616  TRP617  ASP618  TYR619  PRO620  LYS621  CYS622 
 ASP623  PHE694  ASN695  SER759  ASP760  ASP761  ALA762  ILE779  LEU786  VAL792 
 PHE793  MET794  SER795  GLU796  ALA797  LYS798  CYS799  TRP800  GLU811  SER814 

> <Gold.Protein.RotatedAtoms>
  152.5385  134.0371  159.8050 H   0  0  0  0  0  0  0  0  0  0  0  0  # atno 6907 bound_to 6896
  151.0533  133.5598  159.2647 H   0  0  0  0  0  0  0  0  0  0  0  0  # atno 6908 bound_to 6896
  151.2524  135.0634  159.9121 H   0  0  0  0  0  0  0  0  0  0  0  0  # atno 6909 bound_to 6896
  146.2010  139.7825  142.8761 H   0  0  0  0  0  0  0  0  0  0  0  0  # atno 7974 bound_to 7965
  154.5651  140.0701  156.8879 H   0  0  0  0  0  0  0  0  0  0  0  0  # atno 8008 bound_to 7997
  155.2738  140.3367  155.4245 H   0  0  0  0  0  0  0  0  0  0  0  0  # atno 8009 bound_to 7997
  156.2074  140.1745  156.7756 H   0  0  0  0  0  0  0  0  0  0  0  0  # atno 8010 bound_to 7997
  140.7284  143.4582  151.0418 H   0  0  0  0  0  0  0  0  0  0  0  0  # atno 10167 bound_to 10162
  156.0109  130.4527  150.3545 H   0  0  0  0  0  0  0  0  0  0  0  0  # atno 10718 bound_to 10713
  152.9785  135.5892  154.4185 H   0  0  0  0  0  0  0  0  0  0  0  0  # atno 10763 bound_to 10752
  154.3812  135.2767  155.2212 H   0  0  0  0  0  0  0  0  0  0  0  0  # atno 10764 bound_to 10752
  154.4125  135.6078  153.6016 H   0  0  0  0  0  0  0  0  0  0  0  0  # atno 10765 bound_to 10752
  140.4502  134.6350  157.4798 H   0  0  0  0  0  0  0  0  0  0  0  0  # atno 11005 bound_to 11000
  145.3483  141.0302  143.3353 LP  0  0  0  0  0  0  0  0  0  0  0  0  # atno 17320 bound_to 7965
  144.8684  139.5074  143.6779 LP  0  0  0  0  0  0  0  0  0  0  0  0  # atno 17321 bound_to 7965
  139.8264  143.7750  152.3179 LP  0  0  0  0  0  0  0  0  0  0  0  0  # atno 17342 bound_to 10162
  139.7850  144.7431  151.0034 LP  0  0  0  0  0  0  0  0  0  0  0  0  # atno 17343 bound_to 10162
  157.1636  131.0351  151.2829 LP  0  0  0  0  0  0  0  0  0  0  0  0  # atno 17370 bound_to 10713
  157.4290  130.7480  149.6974 LP  0  0  0  0  0  0  0  0  0  0  0  0  # atno 17371 bound_to 10713
  140.0011  134.6834  155.9528 LP  0  0  0  0  0  0  0  0  0  0  0  0  # atno 17394 bound_to 11000
  141.1667  133.6537  156.4505 LP  0  0  0  0  0  0  0  0  0  0  0  0  # atno 17395 bound_to 11000

$$$$
