AV-unprocessed.smi:2144|AV-procd|sdf|8732|dock5
  -GOLD-   2272011503D 1   1.00000     0.00000
 Structure written by MMmdl.
 41 43  0  0  0  0  0  0  0  0  2 V2000
  149.7896  140.8127  153.5912 O   0  0  0  0  0  0  0  0  0  0  0  0
  149.3377  140.4909  154.8874 C   0  0  0  0  0  0  0  0  0  0  0  0
  150.1518  141.1517  155.9501 C   0  0  0  0  0  0  0  0  0  0  0  0
  150.3265  142.4945  156.1030 N   0  3  0  0  0  0  0  0  0  0  0  0
  151.1587  142.7412  157.1955 C   0  0  0  0  0  0  0  0  0  0  0  0
  151.6190  143.9374  157.7373 C   0  0  0  0  0  0  0  0  0  0  0  0
  152.4597  143.8393  158.8655 C   0  0  0  0  0  0  0  0  0  0  0  0
  152.8120  142.5879  159.4113 C   0  0  0  0  0  0  0  0  0  0  0  0
  152.3406  141.3818  158.8523 C   0  0  0  0  0  0  0  0  0  0  0  0
  151.5103  141.4871  157.7363 C   0  0  0  0  0  0  0  0  0  0  0  0
  150.8669  140.5358  156.9349 N   0  0  0  0  0  0  0  0  0  0  0  0
  151.0335  139.1021  157.2222 C   0  0  0  0  0  0  0  0  0  0  0  0
  149.7461  138.4480  157.7626 C   0  0  2  0  0  0  0  0  0  0  0  0
  148.9803  139.4010  158.4718 O   0  0  0  0  0  0  0  0  0  0  0  0
  150.0365  137.2613  158.6926 C   0  0  0  0  0  0  0  0  0  0  0  0
  148.9491  136.3490  158.6191 O   0  0  0  0  0  0  0  0  0  0  0  0
  148.3443  135.9537  159.7932 C   0  0  0  0  0  0  0  0  0  0  0  0
  148.2639  136.7600  160.9572 C   0  0  0  0  0  0  0  0  0  0  0  0
  147.6266  136.2775  162.1170 C   0  0  0  0  0  0  0  0  0  0  0  0
  147.0627  134.9885  162.1292 C   0  0  0  0  0  0  0  0  0  0  0  0
  147.1370  134.1814  160.9791 C   0  0  0  0  0  0  0  0  0  0  0  0
  147.7744  134.6626  159.8191 C   0  0  0  0  0  0  0  0  0  0  0  0
  147.8401  133.8753  158.7188 F   0  0  0  0  0  0  0  0  0  0  0  0
  149.4987  140.1392  152.9951 H   0  0  0  0  0  0  0  0  0  0  0  0
  148.2954  140.7945  154.9874 H   0  0  0  0  0  0  0  0  0  0  0  0
  149.3705  139.4092  155.0185 H   0  0  0  0  0  0  0  0  0  0  0  0
  151.3504  144.8973  157.3210 H   0  0  0  0  0  0  0  0  0  0  0  0
  152.8412  144.7415  159.3214 H   0  0  0  0  0  0  0  0  0  0  0  0
  153.4569  142.5513  160.2773 H   0  0  0  0  0  0  0  0  0  0  0  0
  152.6150  140.4299  159.2824 H   0  0  0  0  0  0  0  0  0  0  0  0
  151.3322  138.6230  156.2892 H   0  0  0  0  0  0  0  0  0  0  0  0
  151.8680  138.9633  157.9098 H   0  0  0  0  0  0  0  0  0  0  0  0
  149.1353  138.0988  156.9292 H   0  0  0  0  0  0  0  0  0  0  0  0
  148.7250  140.0846  157.8717 H   0  0  0  0  0  0  0  0  0  0  0  0
  150.9712  136.7768  158.4045 H   0  0  0  0  0  0  0  0  0  0  0  0
  150.1407  137.6175  159.7191 H   0  0  0  0  0  0  0  0  0  0  0  0
  148.6828  137.7543  160.9866 H   0  0  0  0  0  0  0  0  0  0  0  0
  147.5705  136.8991  162.9984 H   0  0  0  0  0  0  0  0  0  0  0  0
  146.5741  134.6197  163.0190 H   0  0  0  0  0  0  0  0  0  0  0  0
  146.7049  133.1916  160.9858 H   0  0  0  0  0  0  0  0  0  0  0  0
  149.9087  143.1893  155.4975 H   0  0  0  0  0  0  0  0  0  0  0  0
  1  2  1  0  0  0  0
  1 24  1  0  0  0  0
  2  3  1  0  0  0  0
  2 25  1  0  0  0  0
  2 26  1  0  0  0  0
  3 11  1  0  0  0  0
  3  4  2  0  0  0  0
  4  5  1  0  0  0  0
  4 41  1  0  0  0  0
  5 10  2  0  0  0  0
  5  6  1  0  0  0  0
  6  7  2  0  0  0  0
  6 27  1  0  0  0  0
  7  8  1  0  0  0  0
  7 28  1  0  0  0  0
  8  9  2  0  0  0  0
  8 29  1  0  0  0  0
  9 10  1  0  0  0  0
  9 30  1  0  0  0  0
 10 11  1  0  0  0  0
 11 12  1  0  0  0  0
 12 13  1  0  0  0  0
 12 31  1  0  0  0  0
 12 32  1  0  0  0  0
 13 14  1  0  0  0  0
 13 15  1  0  0  0  0
 13 33  1  0  0  0  0
 14 34  1  0  0  0  0
 15 16  1  0  0  0  0
 15 35  1  0  0  0  0
 15 36  1  0  0  0  0
 16 17  1  0  0  0  0
 17 22  1  0  0  0  0
 17 18  2  0  0  0  0
 18 19  1  0  0  0  0
 18 37  1  0  0  0  0
 19 20  2  0  0  0  0
 19 38  1  0  0  0  0
 20 21  1  0  0  0  0
 20 39  1  0  0  0  0
 21 22  2  0  0  0  0
 21 40  1  0  0  0  0
 22 23  1  0  0  0  0
M  CHG  1   4   1
M  END
> <s_m_source_file>
AV-unprocessed.smi

> <i_m_source_file_index>
2144

> <i_lp_mmshare_version>
43012

> <i_f3d_flags>
0

> <s_epik_input>
W2NIXTFbY0hdW2NIXVtjSF1jKGMxMiluKGMobjIpW0NIMl1bT0hdKVtDSDJdW0NASF0oW09IXSlbQ0gyXU9jM1tjSF1bY0hdW2NIXVtjSF1jM0Y=

> <s_epik_cmdline>
J2VwaWtfcHl0aG9uJywgJy1waCcsICc3LjAnLCAnLXRuJywgJzgnLCAnLW1hJywgJzIwMCcsICctbWV0YWxfYmluZGluZycsICctaW1hZScsICc8aW5maWxlLm1hZT4nLCAnLW9tYWUnLCAnPG91dGZpbGUubWFlPic=

> <r_lp_tautomer_probability>
1

> <r_epik_Ionization_Penalty>
1.44003

> <r_epik_Ionization_Penalty_Charging>
1.43917

> <r_epik_Ionization_Penalty_Neutral>
0.000858184

> <r_epik_State_Penalty>
1.52442

> <r_epik_Charging_Adjusted_Penalty>
2.96359

> <i_epik_Tot_Q>
1

> <i_epik_Tot_abs_Q>
1

> <r_epik_Metal_State_Penalty>
5.57019

> <b_epik_Metal_Only>
0

> <s_lp_Force_Field>
OPLS_2005

> <r_lp_Energy>
18.2987

> <b_lp_Chiralities_Consistent>
1

> <s_lp_Variant>
AV-unprocessed.smi:2144-3

> <Gold.Version>
5.8.1

> <Gold.Id.Protein>
6NUR|6NUR_protein|mol2

> <Gold.PLP.Fitness>
55.1052

> <Gold.PLP.PLP>
-47.1473

> <Gold.PLP.part.hbond>
-4.7730

> <Gold.PLP.part.metal>
0.0000

> <Gold.PLP.part.buried>
-3.6064

> <Gold.PLP.part.nonpolar>
-39.4603

> <Gold.PLP.part.repulsive>
0.1179

> <Gold.PLP.ligand.clash>
0.0000

> <Gold.PLP.ligand.torsion>
1.5161

> <Gold.PLP.Chemscore.Hbond>
3.6400

> <Gold.PLP.Chemscore.CHOScore>
0.0000

> <Gold.PLP.Chemscore.Metal>
0.0000

> <Gold.Chemscore.Hbonds>
donor molecule, donor type, donor heavy atom, donor atom, acceptor molecule, acceptor atom, score
      L1  H     1    24       P1  7957  0.61
      L1  H     4    41       P1  8028  1.57
      P1  H  7989  7998       L1     1  0.38
      P1  H  8011  8017       L1     1  0.99

> <Gold.PLP.Chemscore.Internal.Correction>
0.0701

> <Gold.Rescore>
     Score         DG    S(hbond)    S(metal)    S(lipo)     H(rot)  DE(clash)    DE(int)     intcor
     15.54     -16.89       1.89        0.00     116.01       3.31       0.09       1.26       ----

> <Gold.Chemscore.Fitness>
15.5411

> <Gold.Chemscore.DG>
-16.8931

> <Gold.Chemscore.ZeroCoef>
-5.4800

> <Gold.Chemscore.Hbond>
1.8930

> <Gold.Chemscore.Metal>
0.0000

> <Gold.Chemscore.Lipo>
116.0072

> <Gold.Chemscore.Internal_Hbond>
0.0000

> <Gold.Chemscore.DEClash>
0.0894

> <Gold.Chemscore.DEInternal>
1.2626

> <Gold.Chemscore.Rot>
3.3134

> <Gold.Chemscore.Internal.Correction>
   9.000000E+99

> <Gold.Chemscore.Hbonds>
donor molecule, donor type, donor heavy atom, donor atom, acceptor molecule, acceptor atom, score
      L1  H     1    24       P1  7957  0.60
      L1  H     4    41       P1  8028  0.78
      P1  H  7989  7998       L1     1  0.20
      P1  H  8011  8017       L1     1  0.23

> <Gold.Chemscore.Hbond.Weighted>
-6.3226

> <Gold.Chemscore.Metal.Weighted>
-0.0000

> <Gold.Chemscore.Lipo.Weighted>
-13.5728

> <Gold.Chemscore.Internal_Hbond.Weighted>
0.0000

> <Gold.Chemscore.DEClash.Weighted>
0.0894

> <Gold.Chemscore.DEInternal.Weighted>
1.2626

> <Gold.Chemscore.Rot.Weighted>
8.4823

> <Gold.Chemscore.Internal.Correction.Weighted>
   9.000000E+99

> <Gold.Protein.RotatedTorsions>
[ 6907 6896 6895 6894 ] final   11.00 input  -60.11 | X-H torsion
[ 7974 7965 7964 7962 ] final -136.02 input  175.53 | X-H torsion
[ 8008 7997 7996 7995 ] final  -14.41 input   59.86 | X-H torsion
[ 10167 10162 10161 10158 ] final   77.27 input  -65.29 | X-H torsion
[ 10718 10713 10712 10709 ] final -100.97 input   66.30 | X-H torsion
[ 10763 10752 10751 10750 ] final  -65.17 input  -60.55 | X-H torsion
[ 11005 11000 10999 10996 ] final  146.16 input  -57.11 | X-H torsion

> <Gold.Protein.ActiveResidues>
 VAL166  LYS551  ARG553  GLY616  TRP617  ASP618  TYR619  PRO620  LYS621  CYS622 
 ASP623  PHE694  ASN695  SER759  ASP760  ASP761  ALA762  ILE779  LEU786  VAL792 
 PHE793  MET794  SER795  GLU796  ALA797  LYS798  CYS799  TRP800  GLU811  SER814 

> <Gold.Protein.RotatedAtoms>
  151.7473  135.0840  160.0325 H   0  0  0  0  0  0  0  0  0  0  0  0  # atno 6907 bound_to 6896
  152.3440  133.6096  159.5905 H   0  0  0  0  0  0  0  0  0  0  0  0  # atno 6908 bound_to 6896
  150.7497  133.9594  159.3552 H   0  0  0  0  0  0  0  0  0  0  0  0  # atno 6909 bound_to 6896
  144.8964  140.6712  143.5113 H   0  0  0  0  0  0  0  0  0  0  0  0  # atno 7974 bound_to 7965
  154.5212  140.2223  155.8972 H   0  0  0  0  0  0  0  0  0  0  0  0  # atno 8008 bound_to 7997
  156.1664  140.3131  155.8861 H   0  0  0  0  0  0  0  0  0  0  0  0  # atno 8009 bound_to 7997
  155.3648  140.0463  157.3037 H   0  0  0  0  0  0  0  0  0  0  0  0  # atno 8010 bound_to 7997
  139.9834  144.5810  150.7881 H   0  0  0  0  0  0  0  0  0  0  0  0  # atno 10167 bound_to 10162
  156.0180  130.5352  150.6895 H   0  0  0  0  0  0  0  0  0  0  0  0  # atno 10718 bound_to 10713
  154.3410  135.6156  153.5596 H   0  0  0  0  0  0  0  0  0  0  0  0  # atno 10763 bound_to 10752
  152.9804  135.5769  154.4852 H   0  0  0  0  0  0  0  0  0  0  0  0  # atno 10764 bound_to 10752
  154.4556  135.2854  155.1726 H   0  0  0  0  0  0  0  0  0  0  0  0  # atno 10765 bound_to 10752
  140.0770  134.9119  157.1440 H   0  0  0  0  0  0  0  0  0  0  0  0  # atno 11005 bound_to 11000
  145.3693  139.1662  143.4340 LP  0  0  0  0  0  0  0  0  0  0  0  0  # atno 17320 bound_to 7965
  146.3083  140.3764  142.8679 LP  0  0  0  0  0  0  0  0  0  0  0  0  # atno 17321 bound_to 7965
  140.7481  143.2917  151.3313 LP  0  0  0  0  0  0  0  0  0  0  0  0  # atno 17342 bound_to 10162
  139.6393  144.0570  152.2541 LP  0  0  0  0  0  0  0  0  0  0  0  0  # atno 17343 bound_to 10162
  157.4580  131.0880  151.0776 LP  0  0  0  0  0  0  0  0  0  0  0  0  # atno 17370 bound_to 10713
  157.1272  130.6087  149.5520 LP  0  0  0  0  0  0  0  0  0  0  0  0  # atno 17371 bound_to 10713
  140.3542  134.2565  155.7194 LP  0  0  0  0  0  0  0  0  0  0  0  0  # atno 17394 bound_to 11000
  141.2033  133.7915  157.0346 LP  0  0  0  0  0  0  0  0  0  0  0  0  # atno 17395 bound_to 11000

$$$$
