#       Name:                AV-unprocessed.smi:3029
#       Creating user name   scv26
#       Creation time:       Fri Mar 27 16:47:05 2020


#       File generated by GOLD software.
#

@<TRIPOS>MOLECULE
AV-unprocessed.smi:3029
    46    47     1
SMALL
NO_CHARGES


@<TRIPOS>ATOM
      1 ****        -2.7026  -0.4402   2.8559 O.2            1 S1                 0.0000
      2 ****        -2.9661   0.6512   2.3513 C.2            1 S1                 0.0000
      3 ****        -3.7208   1.6820   3.0711 C.2            1 S1                 0.0000
      4 ****        -3.9889   2.8805   2.5163 C.2            1 S1                 0.0000
      5 ****        -3.5304   3.1895   1.1757 C.2            1 S1                 0.0000
      6 ****        -3.7992   4.4778   0.5756 N.pl3          1 S1                 1.0000
      7 ****        -3.3967   4.6993  -0.5626 O.2            1 S1                 0.0000
      8 ****        -4.4227   5.3109   1.2251 O.2            1 S1                -1.0000
      9 ****        -2.8431   2.2377   0.5139 C.2            1 S1                 0.0000
     10 ****        -2.5694   0.9798   1.0848 N.am           1 S1                 0.0000
     11 ****        -1.8117   0.0244   0.2652 C.3            1 S1                 0.0000
     12 ****        -0.3089   0.0780   0.5836 C.3            1 S1                 0.0000
     13 ****         0.4375  -0.8888  -0.2476 N.4            1 S1                 1.0000
     14 ****         1.8932  -0.9747   0.0223 C.3            1 S1                 0.0000
     15 ****         2.6502   0.2342  -0.5724 C.3            1 S1                 0.0000
     16 ****         2.6548   0.2133  -2.1107 C.3            1 S1                 0.0000
     17 ****         3.2299  -1.1057  -2.6472 C.3            1 S1                 0.0000
     18 ****         2.4925  -2.3218  -2.0635 C.3            1 S1                 0.0000
     19 ****         2.4941  -2.2999  -0.5186 C.3            1 S1                 0.0000
     20 ****         1.8624  -3.5704   0.0955 C.3            1 S1                 0.0000
     21 ****         0.5904  -3.7142  -0.2774 F              1 S1                 0.0000
     22 ****         2.5435  -4.6461  -0.2981 F              1 S1                 0.0000
     23 ****         1.9169  -3.5083   1.4256 F              1 S1                 0.0000
     24 ****        -4.0709   1.4732   4.0714 H              1 S1                 0.0000
     25 ****        -4.5497   3.6075   3.0852 H              1 S1                 0.0000
     26 ****        -2.4543   2.3712  -0.4855 H              1 S1                 0.0000
     27 ****        -2.1917  -0.9884   0.4137 H              1 S1                 0.0000
     28 ****        -1.9696   0.2315  -0.7946 H              1 S1                 0.0000
     29 ****         0.0662   1.0862   0.4094 H              1 S1                 0.0000
     30 ****        -0.1392  -0.1524   1.6361 H              1 S1                 0.0000
     31 ****         0.0416  -1.8011  -0.0688 H              1 S1                 0.0000
     32 ****         2.0285  -0.9639   1.1047 H              1 S1                 0.0000
     33 ****         2.2364   1.1758  -0.2127 H              1 S1                 0.0000
     34 ****         3.6819   0.2148  -0.2185 H              1 S1                 0.0000
     35 ****         1.6406   0.3520  -2.4867 H              1 S1                 0.0000
     36 ****         3.2390   1.0519  -2.4907 H              1 S1                 0.0000
     37 ****         3.1703  -1.1220  -3.7359 H              1 S1                 0.0000
     38 ****         4.2896  -1.1685  -2.3966 H              1 S1                 0.0000
     39 ****         1.4684  -2.3435  -2.4374 H              1 S1                 0.0000
     40 ****         2.9675  -3.2342  -2.4252 H              1 S1                 0.0000
     41 ****         3.5407  -2.3097  -0.2090 H              1 S1                 0.0000
     42 ****         0.3001  -0.6683  -1.2238 H              1 S1                 0.0000
     43 ****        -2.1830  -1.1188   2.3367 LP             1 S1                 0.0000
     44 ****        -3.0081  -0.6483   3.7851 LP             1 S1                 0.0000
     45 ****        -2.8915   3.9943  -1.0603 LP             1 S1                 0.0000
     46 ****        -3.5740   5.5847  -0.9922 LP             1 S1                 0.0000
@<TRIPOS>BOND
    1    1    2 2     
    2    2   10 am    
    3    2    3 1     
    4    3    4 2     
    5    3   24 1     
    6    4    5 1     
    7    4   25 1     
    8    5    6 1     
    9    5    9 2     
   10    6    7 2     
   11    6    8 1     
   12    9   10 1     
   13    9   26 1     
   14   10   11 1     
   15   11   12 1     
   16   11   27 1     
   17   11   28 1     
   18   12   13 1     
   19   12   29 1     
   20   12   30 1     
   21   13   14 1     
   22   13   31 1     
   23   13   42 1     
   24   14   19 1     
   25   14   15 1     
   26   14   32 1     
   27   15   16 1     
   28   15   33 1     
   29   15   34 1     
   30   16   17 1     
   31   16   35 1     
   32   16   36 1     
   33   17   18 1     
   34   17   37 1     
   35   17   38 1     
   36   18   19 1     
   37   18   39 1     
   38   18   40 1     
   39   19   20 1     
   40   19   41 1     
   41   20   21 1     
   42   20   22 1     
   43   20   23 1     
   44    1   43 1     
   45    1   44 1     
   46    7   45 1     
   47    7   46 1     
@<TRIPOS>SUBSTRUCTURE
      1 S1             1
@<TRIPOS>SET
LONE_PAIRS      STATIC     ATOMS    <user>   **** ""
5 43 44 45 46 8
DONOR_HYDROGENS      STATIC     ATOMS    <user>   **** ""
2 31 42
ATOM$BLUE        STATIC     ATOMS    COLORGROUP SYSTEM
5 43 44 45 46 8
ATOM$RED        STATIC     ATOMS    COLORGROUP SYSTEM
2 31 42
