AV-unprocessed.smi:69|AV-procd|sdf|656|dock4
  -GOLD-   2262016553D 1   1.00000     0.00000
 Structure written by MMmdl.
 32 34  0  0  0  0  0  0  0  0  1 V2000
  152.0985  143.8289  160.2787 N   0  0  0  0  0  0  0  0  0  0  0  0
  152.5107  142.6167  159.8828 C   0  0  0  0  0  0  0  0  0  0  0  0
  153.4812  142.0011  160.5986 N   0  0  0  0  0  0  0  0  0  0  0  0
  153.9058  140.7884  160.2270 C   0  0  0  0  0  0  0  0  0  0  0  0
  153.5014  140.0398  159.1965 N   0  0  0  0  0  0  0  0  0  0  0  0
  152.5251  140.6663  158.4762 C   0  0  0  0  0  0  0  0  0  0  0  0
  151.9765  141.9482  158.7524 C   0  0  0  0  0  0  0  0  0  0  0  0
  151.0028  142.2567  157.8122 N   0  0  0  0  0  0  0  0  0  0  0  0
  150.9778  141.2106  157.0295 C   0  0  0  0  0  0  0  0  0  0  0  0
  151.8720  140.2098  157.3520 N   0  0  0  0  0  0  0  0  0  0  0  0
  152.0989  138.8838  156.6926 C   0  0  1  0  0  0  0  0  0  0  0  0
  150.8887  138.1874  156.6861 O   0  0  0  0  0  0  0  0  0  0  0  0
  150.2347  138.3862  155.4374 C   0  0  2  0  0  0  0  0  0  0  0  0
  149.1268  137.3429  155.2113 C   0  0  0  0  0  0  0  0  0  0  0  0
  148.4629  137.6005  153.9921 O   0  0  0  0  0  0  0  0  0  0  0  0
  151.4130  138.3303  154.4584 C   0  0  2  0  0  0  0  0  0  0  0  0
  151.7714  136.9843  154.1887 O   0  0  0  0  0  0  0  0  0  0  0  0
  152.5008  139.0892  155.2184 C   0  0  2  0  0  0  0  0  0  0  0  0
  153.8044  138.6257  154.9191 O   0  0  0  0  0  0  0  0  0  0  0  0
  152.8436  138.3840  157.3136 H   0  0  0  0  0  0  0  0  0  0  0  0
  149.8118  139.3924  155.4063 H   0  0  0  0  0  0  0  0  0  0  0  0
  151.1750  138.8139  153.5105 H   0  0  0  0  0  0  0  0  0  0  0  0
  152.4389  140.1498  154.9685 H   0  0  0  0  0  0  0  0  0  0  0  0
  151.3742  144.3062  159.7614 H   0  0  0  0  0  0  0  0  0  0  0  0
  152.5062  144.2590  161.0962 H   0  0  0  0  0  0  0  0  0  0  0  0
  154.6801  140.3562  160.8435 H   0  0  0  0  0  0  0  0  0  0  0  0
  150.2986  141.1464  156.1915 H   0  0  0  0  0  0  0  0  0  0  0  0
  149.5601  136.3447  155.1422 H   0  0  0  0  0  0  0  0  0  0  0  0
  148.4129  137.3332  156.0354 H   0  0  0  0  0  0  0  0  0  0  0  0
  148.7944  137.0045  153.3380 H   0  0  0  0  0  0  0  0  0  0  0  0
  151.6547  136.8265  153.2638 H   0  0  0  0  0  0  0  0  0  0  0  0
  153.8104  137.6838  154.9998 H   0  0  0  0  0  0  0  0  0  0  0  0
  1  2  1  0  0  0  0
  1 24  1  0  0  0  0
  1 25  1  0  0  0  0
  2  7  1  0  0  0  0
  2  3  2  0  0  0  0
  3  4  1  0  0  0  0
  4  5  2  0  0  0  0
  4 26  1  0  0  0  0
  5  6  1  0  0  0  0
  6 10  1  0  0  0  0
  6  7  2  0  0  0  0
  7  8  1  0  0  0  0
  8  9  2  0  0  0  0
  9 10  1  0  0  0  0
  9 27  1  0  0  0  0
 10 11  1  0  0  0  0
 11 20  1  0  0  0  0
 11 18  1  0  0  0  0
 11 12  1  0  0  0  0
 12 13  1  0  0  0  0
 13 21  1  0  0  0  0
 13 14  1  0  0  0  0
 13 16  1  0  0  0  0
 14 15  1  0  0  0  0
 14 28  1  0  0  0  0
 14 29  1  0  0  0  0
 15 30  1  0  0  0  0
 16 22  1  0  0  0  0
 16 17  1  0  0  0  0
 16 18  1  0  0  0  0
 17 31  1  0  0  0  0
 18 23  1  0  0  0  0
 18 19  1  0  0  0  0
 19 32  1  0  0  0  0
M  END
> <s_m_source_file>
AV-unprocessed.smi

> <i_m_source_file_index>
69

> <i_lp_mmshare_version>
43012

> <i_f3d_flags>
0

> <s_epik_input>
bjFbY0hdbmMoW05IMl0pYyhjMTIpbltjSF1uMltDQEBIXTNPW0NASF0oW0NIMl1bT0hdKVtDQEBIXShbT0hdKVtDQEhdM1tPSF0=

> <s_epik_cmdline>
J2VwaWtfcHl0aG9uJywgJy1waCcsICc3LjAnLCAnLXRuJywgJzgnLCAnLW1hJywgJzIwMCcsICctbWV0YWxfYmluZGluZycsICctaW1hZScsICc8aW5maWxlLm1hZT4nLCAnLW9tYWUnLCAnPG91dGZpbGUubWFlPic=

> <r_lp_tautomer_probability>
1

> <r_epik_Ionization_Penalty>
0.000428445

> <r_epik_Ionization_Penalty_Charging>
0

> <r_epik_Ionization_Penalty_Neutral>
0.000428445

> <r_epik_State_Penalty>
-0

> <r_epik_Charging_Adjusted_Penalty>
0

> <i_epik_Tot_Q>
0

> <i_epik_Tot_abs_Q>
0

> <r_epik_Metal_State_Penalty>
-0

> <b_epik_Metal_Only>
0

> <s_epik_Chemistry_Notes>
This compound contains an acetal/aminal-like group ( X-CH(R)-Y where X, Y are N, S, or O) that may be acid/base labile, releasing an aldehyde.

> <s_lp_Force_Field>
OPLS_2005

> <r_lp_Energy>
39.6726

> <b_lp_Chiralities_Consistent>
1

> <s_lp_Variant>
AV-unprocessed.smi:69-14

> <Gold.Version>
5.8.1

> <Gold.Id.Protein>
6NUR|6NUR_protein|mol2

> <Gold.PLP.Fitness>
45.9803

> <Gold.PLP.PLP>
-31.2667

> <Gold.PLP.part.hbond>
-5.0000

> <Gold.PLP.part.metal>
0.0000

> <Gold.PLP.part.buried>
-4.9112

> <Gold.PLP.part.nonpolar>
-20.4103

> <Gold.PLP.part.repulsive>
0.1175

> <Gold.PLP.ligand.clash>
0.0000

> <Gold.PLP.ligand.torsion>
0.0232

> <Gold.PLP.Chemscore.Hbond>
4.9120

> <Gold.PLP.Chemscore.CHOScore>
0.0000

> <Gold.PLP.Chemscore.Metal>
0.0000

> <Gold.Chemscore.Hbonds>
donor molecule, donor type, donor heavy atom, donor atom, acceptor molecule, acceptor atom, score
      L1  H    15    30       P1  7948  1.00
      L1  H    17    31       P1  7949  1.00
      P1  H  7997  8008       L1    19  0.58
      P1  H  7997  8010       L1     5  0.05
      P1  H 10752 10763       L1    17  0.50

> <Gold.PLP.Chemscore.Internal.Correction>
0.0240

> <Gold.Rescore>
     Score         DG    S(hbond)    S(metal)    S(lipo)     H(rot)  DE(clash)    DE(int)     intcor
      8.49      -9.01       2.93        0.00      34.67       4.03       0.45       0.07       ----

> <Gold.Chemscore.Fitness>
8.4907

> <Gold.Chemscore.DG>
-9.0118

> <Gold.Chemscore.ZeroCoef>
-5.4800

> <Gold.Chemscore.Hbond>
2.9302

> <Gold.Chemscore.Metal>
0.0000

> <Gold.Chemscore.Lipo>
34.6657

> <Gold.Chemscore.Internal_Hbond>
0.0000

> <Gold.Chemscore.DEClash>
0.4470

> <Gold.Chemscore.DEInternal>
0.0741

> <Gold.Chemscore.Rot>
4.0277

> <Gold.Chemscore.Internal.Correction>
   9.000000E+99

> <Gold.Chemscore.Hbonds>
donor molecule, donor type, donor heavy atom, donor atom, acceptor molecule, acceptor atom, score
      L1  H    15    30       P1  7948  0.99
      L1  H    17    31       P1  7949  0.91
      P1  H  7997  8008       L1    19  0.08
      P1  H 10752 10763       L1    17  0.02

> <Gold.Chemscore.Hbond.Weighted>
-9.7869

> <Gold.Chemscore.Metal.Weighted>
-0.0000

> <Gold.Chemscore.Lipo.Weighted>
-4.0559

> <Gold.Chemscore.Internal_Hbond.Weighted>
0.0000

> <Gold.Chemscore.DEClash.Weighted>
0.4470

> <Gold.Chemscore.DEInternal.Weighted>
0.0741

> <Gold.Chemscore.Rot.Weighted>
10.3110

> <Gold.Chemscore.Internal.Correction.Weighted>
   9.000000E+99

> <Gold.Protein.RotatedTorsions>
[ 6907 6896 6895 6894 ] final -177.76 input  -60.11 | X-H torsion
[ 7974 7965 7964 7962 ] final  -52.18 input  175.53 | X-H torsion
[ 8008 7997 7996 7995 ] final    9.99 input   59.86 | X-H torsion
[ 10167 10162 10161 10158 ] final -103.41 input  -65.29 | X-H torsion
[ 10718 10713 10712 10709 ] final  -19.92 input   66.30 | X-H torsion
[ 10763 10752 10751 10750 ] final   40.54 input  -60.55 | X-H torsion
[ 11005 11000 10999 10996 ] final  -29.84 input  -57.11 | X-H torsion

> <Gold.Protein.ActiveResidues>
 VAL166  LYS551  ARG553  GLY616  TRP617  ASP618  TYR619  PRO620  LYS621  CYS622 
 ASP623  PHE694  ASN695  SER759  ASP760  ASP761  ALA762  ILE779  LEU786  VAL792 
 PHE793  MET794  SER795  GLU796  ALA797  LYS798  CYS799  TRP800  GLU811  SER814 

> <Gold.Protein.RotatedAtoms>
  151.6262  133.3335  159.3098 H   0  0  0  0  0  0  0  0  0  0  0  0  # atno 6907 bound_to 6896
  150.8080  134.7221  159.6673 H   0  0  0  0  0  0  0  0  0  0  0  0  # atno 6908 bound_to 6896
  152.4176  134.6018  160.0053 H   0  0  0  0  0  0  0  0  0  0  0  0  # atno 6909 bound_to 6896
  145.9108  140.7916  142.9696 H   0  0  0  0  0  0  0  0  0  0  0  0  # atno 7974 bound_to 7965
  154.7873  140.2829  155.6018 H   0  0  0  0  0  0  0  0  0  0  0  0  # atno 8008 bound_to 7997
  156.2959  140.2611  156.2641 H   0  0  0  0  0  0  0  0  0  0  0  0  # atno 8009 bound_to 7997
  154.9712  140.0376  157.2225 H   0  0  0  0  0  0  0  0  0  0  0  0  # atno 8010 bound_to 7997
  140.2203  143.3681  152.0975 H   0  0  0  0  0  0  0  0  0  0  0  0  # atno 10167 bound_to 10162
  156.5390  130.4673  149.6508 H   0  0  0  0  0  0  0  0  0  0  0  0  # atno 10718 bound_to 10713
  152.9933  135.6188  154.2643 H   0  0  0  0  0  0  0  0  0  0  0  0  # atno 10763 bound_to 10752
  154.2378  135.2789  155.2867 H   0  0  0  0  0  0  0  0  0  0  0  0  # atno 10764 bound_to 10752
  154.5395  135.5765  153.6885 H   0  0  0  0  0  0  0  0  0  0  0  0  # atno 10765 bound_to 10752
  140.9331  133.7325  156.0965 H   0  0  0  0  0  0  0  0  0  0  0  0  # atno 11005 bound_to 11000
  144.6743  140.1823  143.7404 LP  0  0  0  0  0  0  0  0  0  0  0  0  # atno 17320 bound_to 7965
  145.8673  139.2254  143.1681 LP  0  0  0  0  0  0  0  0  0  0  0  0  # atno 17321 bound_to 7965
  139.5147  144.6951  151.5652 LP  0  0  0  0  0  0  0  0  0  0  0  0  # atno 17342 bound_to 10162
  140.6260  143.9168  150.6565 LP  0  0  0  0  0  0  0  0  0  0  0  0  # atno 17343 bound_to 10162
  156.2989  130.7165  151.2032 LP  0  0  0  0  0  0  0  0  0  0  0  0  # atno 17370 bound_to 10713
  157.7408  131.0511  150.5137 LP  0  0  0  0  0  0  0  0  0  0  0  0  # atno 17371 bound_to 10713
  140.7836  134.3698  157.5481 LP  0  0  0  0  0  0  0  0  0  0  0  0  # atno 17394 bound_to 11000
  139.8801  134.9097  156.2996 LP  0  0  0  0  0  0  0  0  0  0  0  0  # atno 17395 bound_to 11000

$$$$
