AV-unprocessed.smi:2845|AV-procd|sdf|10948|dock3
  -GOLD-   2272015403D 1   1.00000     0.00000
 Structure written by MMmdl.
 43 45  0  0  0  0  0  0  0  0  2 V2000
  152.3331  143.2182  160.5646 C   0  0  0  0  0  0  0  0  0  0  0  0
  151.9963  142.4177  159.3181 C   0  0  0  0  0  0  0  0  0  0  0  0
  151.0687  142.9586  158.3985 C   0  0  0  0  0  0  0  0  0  0  0  0
  150.7828  142.2033  157.2672 C   0  0  0  0  0  0  0  0  0  0  0  0
  149.9287  142.4520  156.1899 N   0  3  0  0  0  0  0  0  0  0  0  0
  149.9859  141.4104  155.3137 C   0  0  0  0  0  0  0  0  0  0  0  0
  150.8616  140.4996  155.8186 N   0  0  0  0  0  0  0  0  0  0  0  0
  151.2997  139.2047  155.2843 C   0  0  0  0  0  0  0  0  0  0  0  0
  150.1149  138.2913  154.9022 C   0  0  1  0  0  0  0  0  0  0  0  0
  149.7329  138.5526  153.5671 O   0  0  0  0  0  0  0  0  0  0  0  0
  150.4233  136.7866  155.0473 C   0  0  0  0  0  0  0  0  0  0  0  0
  149.8761  136.2082  156.2633 N   0  0  0  0  0  0  0  0  0  0  0  0
  150.1434  135.0475  156.8698 C   0  0  0  0  0  0  0  0  0  0  0  0
  149.4389  134.8410  157.9756 N   0  0  0  0  0  0  0  0  0  0  0  0
  148.7010  135.9887  157.9748 C   0  0  0  0  0  0  0  0  0  0  0  0
  147.5199  136.3682  159.3061 S   0  0  1  0  0  0  0  0  0  0  0  0
  147.6148  134.6952  160.1001 C   0  0  0  0  0  0  0  0  0  0  0  0
  148.2387  137.3423  160.2423 O   0  0  0  0  0  0  0  0  0  0  0  0
  148.9021  136.8338  156.9669 N   0  0  0  0  0  0  0  0  0  0  0  0
  151.3843  140.9518  157.0346 C   0  0  0  0  0  0  0  0  0  0  0  0
  152.2991  140.4036  157.9304 C   0  0  0  0  0  0  0  0  0  0  0  0
  152.6028  141.1557  159.0871 C   0  0  0  0  0  0  0  0  0  0  0  0
  153.5963  140.5820  160.0829 C   0  0  0  0  0  0  0  0  0  0  0  0
  151.7776  144.1560  160.5996 H   0  0  0  0  0  0  0  0  0  0  0  0
  153.3961  143.4597  160.5881 H   0  0  0  0  0  0  0  0  0  0  0  0
  152.0863  142.6515  161.4628 H   0  0  0  0  0  0  0  0  0  0  0  0
  150.6029  143.9184  158.5685 H   0  0  0  0  0  0  0  0  0  0  0  0
  149.4362  141.3226  154.3874 H   0  0  0  0  0  0  0  0  0  0  0  0
  151.9288  139.3974  154.4141 H   0  0  0  0  0  0  0  0  0  0  0  0
  151.9447  138.7393  156.0303 H   0  0  0  0  0  0  0  0  0  0  0  0
  149.2560  138.5314  155.5301 H   0  0  0  0  0  0  0  0  0  0  0  0
  149.5002  137.7339  153.1568 H   0  0  0  0  0  0  0  0  0  0  0  0
  150.0198  136.2329  154.1986 H   0  0  0  0  0  0  0  0  0  0  0  0
  151.5021  136.6232  155.0466 H   0  0  0  0  0  0  0  0  0  0  0  0
  150.8751  134.3437  156.5009 H   0  0  0  0  0  0  0  0  0  0  0  0
  147.4875  133.9087  159.3560 H   0  0  0  0  0  0  0  0  0  0  0  0
  146.8309  134.5912  160.8498 H   0  0  0  0  0  0  0  0  0  0  0  0
  148.5804  134.5596  160.5869 H   0  0  0  0  0  0  0  0  0  0  0  0
  152.7593  139.4426  157.7561 H   0  0  0  0  0  0  0  0  0  0  0  0
  153.9679  139.6098  159.7598 H   0  0  0  0  0  0  0  0  0  0  0  0
  153.1285  140.4501  161.0587 H   0  0  0  0  0  0  0  0  0  0  0  0
  154.4540  141.2454  160.1949 H   0  0  0  0  0  0  0  0  0  0  0  0
  149.3501  143.2720  156.0589 H   0  0  0  0  0  0  0  0  0  0  0  0
  1  2  1  0  0  0  0
  1 24  1  0  0  0  0
  1 25  1  0  0  0  0
  1 26  1  0  0  0  0
  2 22  1  0  0  0  0
  2  3  2  0  0  0  0
  3  4  1  0  0  0  0
  3 27  1  0  0  0  0
  4 20  2  0  0  0  0
  4  5  1  0  0  0  0
  5  6  2  0  0  0  0
  5 43  1  0  0  0  0
  6  7  1  0  0  0  0
  6 28  1  0  0  0  0
  7  8  1  0  0  0  0
  7 20  1  0  0  0  0
  8  9  1  0  0  0  0
  8 29  1  0  0  0  0
  8 30  1  0  0  0  0
  9 10  1  0  0  0  0
  9 11  1  0  0  0  0
  9 31  1  0  0  0  0
 10 32  1  0  0  0  0
 11 12  1  0  0  0  0
 11 33  1  0  0  0  0
 11 34  1  0  0  0  0
 12 19  1  0  0  0  0
 12 13  1  0  0  0  0
 13 14  2  0  0  0  0
 13 35  1  0  0  0  0
 14 15  1  0  0  0  0
 15 16  1  0  0  0  0
 15 19  2  0  0  0  0
 16 17  1  0  0  0  0
 16 18  2  0  0  0  0
 17 36  1  0  0  0  0
 17 37  1  0  0  0  0
 17 38  1  0  0  0  0
 20 21  1  0  0  0  0
 21 22  2  0  0  0  0
 21 39  1  0  0  0  0
 22 23  1  0  0  0  0
 23 40  1  0  0  0  0
 23 41  1  0  0  0  0
 23 42  1  0  0  0  0
M  CHG  1   5   1
M  END
> <s_m_source_file>
AV-unprocessed.smi

> <i_m_source_file_index>
2845

> <i_lp_mmshare_version>
43012

> <i_f3d_flags>
0

> <s_epik_input>
W0NIM11jKFtjSF0xKWMoW0NIM10pW2NIXWMoYzEyKW4oW2NIXW4yKVtDSDJdW0NASF0oW09IXSlbQ0gyXW4zW2NIXW5jKG4zKVtTQF0oPU8pW0NIM10=

> <s_epik_cmdline>
J2VwaWtfcHl0aG9uJywgJy1waCcsICc3LjAnLCAnLXRuJywgJzgnLCAnLW1hJywgJzIwMCcsICctbWV0YWxfYmluZGluZycsICctaW1hZScsICc8aW5maWxlLm1hZT4nLCAnLW9tYWUnLCAnPG91dGZpbGUubWFlPic=

> <r_lp_tautomer_probability>
1

> <r_epik_Ionization_Penalty>
1.12076

> <r_epik_Ionization_Penalty_Charging>
1.12075

> <r_epik_Ionization_Penalty_Neutral>
1.54566e-06

> <r_epik_State_Penalty>
1.17957

> <r_epik_Charging_Adjusted_Penalty>
2.30033

> <i_epik_Tot_Q>
1

> <i_epik_Tot_abs_Q>
1

> <r_epik_Metal_State_Penalty>
1.26402

> <b_epik_Metal_Only>
0

> <s_lp_Force_Field>
OPLS_2005

> <r_lp_Energy>
13.65

> <b_lp_Chiralities_Consistent>
1

> <s_lp_Variant>
AV-unprocessed.smi:2845-6

> <Gold.Version>
5.8.1

> <Gold.Id.Protein>
6NUR|6NUR_protein|mol2

> <Gold.PLP.Fitness>
54.3988

> <Gold.PLP.PLP>
-42.9350

> <Gold.PLP.part.hbond>
-6.0000

> <Gold.PLP.part.metal>
0.0000

> <Gold.PLP.part.buried>
-4.6612

> <Gold.PLP.part.nonpolar>
-32.5756

> <Gold.PLP.part.repulsive>
0.1072

> <Gold.PLP.ligand.clash>
0.0000

> <Gold.PLP.ligand.torsion>
1.9786

> <Gold.PLP.Chemscore.Hbond>
4.7968

> <Gold.PLP.Chemscore.CHOScore>
0.0000

> <Gold.PLP.Chemscore.Metal>
0.0000

> <Gold.Chemscore.Hbonds>
donor molecule, donor type, donor heavy atom, donor atom, acceptor molecule, acceptor atom, score
      L1  H     5    43       P1  8028  2.00
      L1  H    10    32       P1  7948  1.00
      P1  H  6896  6907       L1    14  1.00
      P1  H  6931  6943       L1    18  0.59
      P1  H  6934  6947       L1    18  0.52

> <Gold.PLP.Chemscore.Internal.Correction>
1.0306

> <Gold.Rescore>
     Score         DG    S(hbond)    S(metal)    S(lipo)     H(rot)  DE(clash)    DE(int)     intcor
     19.99     -22.08       3.83        0.00      92.96       2.77       0.03       2.06       ----

> <Gold.Chemscore.Fitness>
19.9887

> <Gold.Chemscore.DG>
-22.0782

> <Gold.Chemscore.ZeroCoef>
-5.4800

> <Gold.Chemscore.Hbond>
3.8347

> <Gold.Chemscore.Metal>
0.0000

> <Gold.Chemscore.Lipo>
92.9624

> <Gold.Chemscore.Internal_Hbond>
0.0000

> <Gold.Chemscore.DEClash>
0.0323

> <Gold.Chemscore.DEInternal>
2.0573

> <Gold.Chemscore.Rot>
2.7681

> <Gold.Chemscore.Internal.Correction>
   9.000000E+99

> <Gold.Chemscore.Hbonds>
donor molecule, donor type, donor heavy atom, donor atom, acceptor molecule, acceptor atom, score
      L1  H     5    43       P1  8028  0.97
      L1  H    10    32       P1  7948  0.83
      P1  H  6896  6907       L1    14  0.69
      P1  H  6931  6943       L1    18  0.55
      P1  H  6934  6947       L1    18  0.49

> <Gold.Chemscore.Hbond.Weighted>
-12.8079

> <Gold.Chemscore.Metal.Weighted>
-0.0000

> <Gold.Chemscore.Lipo.Weighted>
-10.8766

> <Gold.Chemscore.Internal_Hbond.Weighted>
0.0000

> <Gold.Chemscore.DEClash.Weighted>
0.0323

> <Gold.Chemscore.DEInternal.Weighted>
2.0573

> <Gold.Chemscore.Rot.Weighted>
7.0863

> <Gold.Chemscore.Internal.Correction.Weighted>
   9.000000E+99

> <Gold.Protein.RotatedTorsions>
[ 6907 6896 6895 6894 ] final  -93.34 input  -60.11 | X-H torsion
[ 7974 7965 7964 7962 ] final    7.57 input  175.53 | X-H torsion
[ 8008 7997 7996 7995 ] final  103.63 input   59.86 | X-H torsion
[ 10167 10162 10161 10158 ] final   80.63 input  -65.29 | X-H torsion
[ 10718 10713 10712 10709 ] final  140.93 input   66.30 | X-H torsion
[ 10763 10752 10751 10750 ] final   38.28 input  -60.55 | X-H torsion
[ 11005 11000 10999 10996 ] final  -66.35 input  -57.11 | X-H torsion

> <Gold.Protein.ActiveResidues>
 VAL166  LYS551  ARG553  GLY616  TRP617  ASP618  TYR619  PRO620  LYS621  CYS622 
 ASP623  PHE694  ASN695  SER759  ASP760  ASP761  ALA762  ILE779  LEU786  VAL792 
 PHE793  MET794  SER795  GLU796  ALA797  LYS798  CYS799  TRP800  GLU811  SER814 

> <Gold.Protein.RotatedAtoms>
  150.6921  134.1982  159.4311 H   0  0  0  0  0  0  0  0  0  0  0  0  # atno 6907 bound_to 6896
  151.9949  134.9957  160.0572 H   0  0  0  0  0  0  0  0  0  0  0  0  # atno 6908 bound_to 6896
  152.1633  133.4561  159.4908 H   0  0  0  0  0  0  0  0  0  0  0  0  # atno 6909 bound_to 6896
  146.2425  140.0064  142.8411 H   0  0  0  0  0  0  0  0  0  0  0  0  # atno 7974 bound_to 7965
  156.1501  140.3161  155.8634 H   0  0  0  0  0  0  0  0  0  0  0  0  # atno 8008 bound_to 7997
  155.3987  140.0498  157.3055 H   0  0  0  0  0  0  0  0  0  0  0  0  # atno 8009 bound_to 7997
  154.5051  140.2144  155.9279 H   0  0  0  0  0  0  0  0  0  0  0  0  # atno 8010 bound_to 7997
  139.9477  144.6047  150.8190 H   0  0  0  0  0  0  0  0  0  0  0  0  # atno 10167 bound_to 10162
  157.3977  131.1013  151.0583 H   0  0  0  0  0  0  0  0  0  0  0  0  # atno 10718 bound_to 10713
  153.0006  135.6254  154.2280 H   0  0  0  0  0  0  0  0  0  0  0  0  # atno 10763 bound_to 10752
  154.2022  135.2803  155.2988 H   0  0  0  0  0  0  0  0  0  0  0  0  # atno 10764 bound_to 10752
  154.5674  135.5687  153.7122 H   0  0  0  0  0  0  0  0  0  0  0  0  # atno 10765 bound_to 10752
  141.1480  133.6698  156.6126 H   0  0  0  0  0  0  0  0  0  0  0  0  # atno 11005 bound_to 11000
  145.1368  140.9549  143.4512 LP  0  0  0  0  0  0  0  0  0  0  0  0  # atno 17320 bound_to 7965
  145.0334  139.3321  143.6013 LP  0  0  0  0  0  0  0  0  0  0  0  0  # atno 17321 bound_to 7965
  140.7592  143.3124  151.2814 LP  0  0  0  0  0  0  0  0  0  0  0  0  # atno 17342 bound_to 10162
  139.6653  144.0116  152.2719 LP  0  0  0  0  0  0  0  0  0  0  0  0  # atno 17343 bound_to 10162
  157.1593  130.6218  149.5606 LP  0  0  0  0  0  0  0  0  0  0  0  0  # atno 17370 bound_to 10713
  155.9815  130.4822  150.6830 LP  0  0  0  0  0  0  0  0  0  0  0  0  # atno 17371 bound_to 10713
  140.3603  134.7693  157.4529 LP  0  0  0  0  0  0  0  0  0  0  0  0  # atno 17394 bound_to 11000
  140.0790  134.5757  155.8560 LP  0  0  0  0  0  0  0  0  0  0  0  0  # atno 17395 bound_to 11000

$$$$
