AV-unprocessed.smi:910|AV-procd|sdf|4127|dock10
  -GOLD-   22720 2 33D 1   1.00000     0.00000
 Structure written by MMmdl.
 46 47  0  0  0  0  0  0  0  0  1 V2000
  150.0624  131.7595  154.3442 C   0  0  0  0  0  0  0  0  0  0  0  0
  150.1684  132.7740  155.4613 C   0  0  0  0  0  0  0  0  0  0  0  0
  150.5440  134.0688  155.2329 N   0  0  0  0  0  0  0  0  0  0  0  0
  150.5441  134.7448  156.4509 C   0  0  0  0  0  0  0  0  0  0  0  0
  150.8193  135.9690  156.7827 N   0  0  0  0  0  0  0  0  0  0  0  0
  151.1842  136.8858  155.8071 C   0  0  0  0  0  0  0  0  0  0  0  0
  151.3268  136.7001  154.5944 O   0  0  0  0  0  0  0  0  0  0  0  0
  151.4023  138.0864  156.3635 N   0  0  0  0  0  0  0  0  0  0  0  0
  151.8332  139.2869  155.6544 C   0  0  0  0  0  0  0  0  0  0  0  0
  150.9556  140.4979  156.0023 C   0  0  0  0  0  0  0  0  0  0  0  0
  150.9558  140.6734  157.4112 O   0  0  0  0  0  0  0  0  0  0  0  0
  151.7387  141.7680  157.8697 C   0  0  1  0  0  0  0  0  0  0  0  0
  150.9708  143.0849  157.6306 C   0  0  0  0  0  0  0  0  0  0  0  0
  151.7110  144.2867  158.2355 C   0  0  0  0  0  0  0  0  0  0  0  0
  151.9761  144.0724  159.7322 C   0  0  0  0  0  0  0  0  0  0  0  0
  152.7492  142.7670  159.9745 C   0  0  0  0  0  0  0  0  0  0  0  0
  152.0194  141.5486  159.3734 C   0  0  2  0  0  0  0  0  0  0  0  0
  152.8215  140.2592  159.6184 C   0  0  0  0  0  0  0  0  0  0  0  0
  150.1668  133.8258  157.3976 O   0  0  0  0  0  0  0  0  0  0  0  0
  149.9437  132.6397  156.7658 C   0  0  0  0  0  0  0  0  0  0  0  0
  149.5104  131.4472  157.5881 C   0  0  0  0  0  0  0  0  0  0  0  0
  150.7312  130.9195  154.5331 H   0  0  0  0  0  0  0  0  0  0  0  0
  150.3305  132.2041  153.3853 H   0  0  0  0  0  0  0  0  0  0  0  0
  149.0426  131.3802  154.2746 H   0  0  0  0  0  0  0  0  0  0  0  0
  150.7714  134.4315  154.3183 H   0  0  0  0  0  0  0  0  0  0  0  0
  151.2772  138.1709  157.3621 H   0  0  0  0  0  0  0  0  0  0  0  0
  152.8786  139.4991  155.8833 H   0  0  0  0  0  0  0  0  0  0  0  0
  151.7844  139.0898  154.5832 H   0  0  0  0  0  0  0  0  0  0  0  0
  151.3329  141.3931  155.5056 H   0  0  0  0  0  0  0  0  0  0  0  0
  149.9407  140.3302  155.6415 H   0  0  0  0  0  0  0  0  0  0  0  0
  152.6949  141.8004  157.3434 H   0  0  0  0  0  0  0  0  0  0  0  0
  150.8227  143.2536  156.5642 H   0  0  0  0  0  0  0  0  0  0  0  0
  149.9758  143.0121  158.0721 H   0  0  0  0  0  0  0  0  0  0  0  0
  152.6567  144.4358  157.7128 H   0  0  0  0  0  0  0  0  0  0  0  0
  151.1277  145.1958  158.0873 H   0  0  0  0  0  0  0  0  0  0  0  0
  152.5365  144.9164  160.1352 H   0  0  0  0  0  0  0  0  0  0  0  0
  151.0286  144.0433  160.2720 H   0  0  0  0  0  0  0  0  0  0  0  0
  153.7459  142.8512  159.5390 H   0  0  0  0  0  0  0  0  0  0  0  0
  152.8931  142.6239  161.0461 H   0  0  0  0  0  0  0  0  0  0  0  0
  151.0619  141.4460  159.8864 H   0  0  0  0  0  0  0  0  0  0  0  0
  153.7872  140.2907  159.1126 H   0  0  0  0  0  0  0  0  0  0  0  0
  152.2859  139.3818  159.2545 H   0  0  0  0  0  0  0  0  0  0  0  0
  153.0079  140.1093  160.6821 H   0  0  0  0  0  0  0  0  0  0  0  0
  148.7638  130.8631  157.0494 H   0  0  0  0  0  0  0  0  0  0  0  0
  149.0767  131.7732  158.5335 H   0  0  0  0  0  0  0  0  0  0  0  0
  150.3656  130.8060  157.8012 H   0  0  0  0  0  0  0  0  0  0  0  0
  1 22  1  0  0  0  0
  1 23  1  0  0  0  0
  1 24  1  0  0  0  0
  1  2  1  0  0  0  0
  2  3  1  0  0  0  0
  2 20  2  0  0  0  0
  3 25  1  0  0  0  0
  3  4  1  0  0  0  0
  4 19  1  0  0  0  0
  4  5  2  0  0  0  0
  5  6  1  0  0  0  0
  6  8  1  0  0  0  0
  6  7  2  0  0  0  0
  8  9  1  0  0  0  0
  8 26  1  0  0  0  0
  9 10  1  0  0  0  0
  9 27  1  0  0  0  0
  9 28  1  0  0  0  0
 10 11  1  0  0  0  0
 10 29  1  0  0  0  0
 10 30  1  0  0  0  0
 11 12  1  0  0  0  0
 12 17  1  0  0  0  0
 12 13  1  0  0  0  0
 12 31  1  0  0  0  0
 13 14  1  0  0  0  0
 13 32  1  0  0  0  0
 13 33  1  0  0  0  0
 14 15  1  0  0  0  0
 14 34  1  0  0  0  0
 14 35  1  0  0  0  0
 15 16  1  0  0  0  0
 15 36  1  0  0  0  0
 15 37  1  0  0  0  0
 16 17  1  0  0  0  0
 16 38  1  0  0  0  0
 16 39  1  0  0  0  0
 17 18  1  0  0  0  0
 17 40  1  0  0  0  0
 18 41  1  0  0  0  0
 18 42  1  0  0  0  0
 18 43  1  0  0  0  0
 19 20  1  0  0  0  0
 20 21  1  0  0  0  0
 21 44  1  0  0  0  0
 21 45  1  0  0  0  0
 21 46  1  0  0  0  0
M  END
> <s_m_source_file>
AV-unprocessed.smi

> <i_m_source_file_index>
910

> <i_lp_mmshare_version>
43012

> <i_f3d_flags>
0

> <s_epik_input>
W0NIM11jMW5jKG9jMVtDSDNdKVtOSF1DKD1PKVtOSF1bQ0gyXVtDSDJdT1tDQEBIXTJbQ0gyXVtDSDJdW0NIMl1bQ0gyXVtDQEhdMltDSDNd

> <s_epik_cmdline>
J2VwaWtfcHl0aG9uJywgJy1waCcsICc3LjAnLCAnLXRuJywgJzgnLCAnLW1hJywgJzIwMCcsICctbWV0YWxfYmluZGluZycsICctaW1hZScsICc8aW5maWxlLm1hZT4nLCAnLW9tYWUnLCAnPG91dGZpbGUubWFlPic=

> <r_lp_tautomer_probability>
0.107061

> <r_epik_Ionization_Penalty>
0.727192

> <r_epik_Ionization_Penalty_Charging>
0.726719

> <r_epik_Ionization_Penalty_Neutral>
0.000473387

> <r_epik_State_Penalty>
2.53712

> <r_epik_Charging_Adjusted_Penalty>
3.26383

> <i_epik_Tot_Q>
0

> <i_epik_Tot_abs_Q>
0

> <r_epik_Metal_State_Penalty>
3.71015

> <b_epik_Metal_Only>
0

> <s_lp_Force_Field>
OPLS_2005

> <r_lp_Energy>
31.2477

> <b_lp_Chiralities_Consistent>
1

> <s_lp_Variant>
AV-unprocessed.smi:910-12

> <Gold.Version>
5.8.1

> <Gold.Id.Protein>
6NUR|6NUR_protein|mol2

> <Gold.PLP.Fitness>
42.7912

> <Gold.PLP.PLP>
-37.9266

> <Gold.PLP.part.hbond>
-2.0000

> <Gold.PLP.part.metal>
0.0000

> <Gold.PLP.part.buried>
-5.7440

> <Gold.PLP.part.nonpolar>
-31.3064

> <Gold.PLP.part.repulsive>
0.3155

> <Gold.PLP.ligand.clash>
0.0000

> <Gold.PLP.ligand.torsion>
0.5366

> <Gold.PLP.Chemscore.Hbond>
1.9760

> <Gold.PLP.Chemscore.CHOScore>
0.0000

> <Gold.PLP.Chemscore.Metal>
0.0000

> <Gold.Chemscore.Hbonds>
donor molecule, donor type, donor heavy atom, donor atom, acceptor molecule, acceptor atom, score
      P1  H  6896  6907       L1    19  0.94
      P1  H 10752 10763       L1     7  1.00

> <Gold.PLP.Chemscore.Internal.Correction>
0.0098

> <Gold.Rescore>
     Score         DG    S(hbond)    S(metal)    S(lipo)     H(rot)  DE(clash)    DE(int)     intcor
     17.45     -19.40       1.86        0.00     102.27       1.66       0.08       1.87       ----

> <Gold.Chemscore.Fitness>
17.4480

> <Gold.Chemscore.DG>
-19.4030

> <Gold.Chemscore.ZeroCoef>
-5.4800

> <Gold.Chemscore.Hbond>
1.8566

> <Gold.Chemscore.Metal>
0.0000

> <Gold.Chemscore.Lipo>
102.2711

> <Gold.Chemscore.Internal_Hbond>
0.0000

> <Gold.Chemscore.DEClash>
0.0801

> <Gold.Chemscore.DEInternal>
1.8750

> <Gold.Chemscore.Rot>
1.6576

> <Gold.Chemscore.Internal.Correction>
   9.000000E+99

> <Gold.Chemscore.Hbonds>
donor molecule, donor type, donor heavy atom, donor atom, acceptor molecule, acceptor atom, score
      P1  H  6896  6907       L1    19  0.84
      P1  H 10752 10763       L1     7  0.80

> <Gold.Chemscore.Hbond.Weighted>
-6.2009

> <Gold.Chemscore.Metal.Weighted>
-0.0000

> <Gold.Chemscore.Lipo.Weighted>
-11.9657

> <Gold.Chemscore.Internal_Hbond.Weighted>
0.0000

> <Gold.Chemscore.DEClash.Weighted>
0.0801

> <Gold.Chemscore.DEInternal.Weighted>
1.8750

> <Gold.Chemscore.Rot.Weighted>
4.2436

> <Gold.Chemscore.Internal.Correction.Weighted>
   9.000000E+99

> <Gold.Protein.RotatedTorsions>
[ 6907 6896 6895 6894 ] final -123.43 input  -60.11 | X-H torsion
[ 7974 7965 7964 7962 ] final -179.61 input  175.53 | X-H torsion
[ 8008 7997 7996 7995 ] final  170.62 input   59.86 | X-H torsion
[ 10167 10162 10161 10158 ] final  122.22 input  -65.29 | X-H torsion
[ 10718 10713 10712 10709 ] final   68.98 input   66.30 | X-H torsion
[ 10763 10752 10751 10750 ] final   35.72 input  -60.55 | X-H torsion
[ 11005 11000 10999 10996 ] final  123.51 input  -57.11 | X-H torsion

> <Gold.Protein.ActiveResidues>
 VAL166  LYS551  ARG553  GLY616  TRP617  ASP618  TYR619  PRO620  LYS621  CYS622 
 ASP623  PHE694  ASN695  SER759  ASP760  ASP761  ALA762  ILE779  LEU786  VAL792 
 PHE793  MET794  SER795  GLU796  ALA797  LYS798  CYS799  TRP800  GLU811  SER814 

> <Gold.Protein.RotatedAtoms>
  150.8670  133.7560  159.2973 H   0  0  0  0  0  0  0  0  0  0  0  0  # atno 6907 bound_to 6896
  151.5184  135.1065  159.9881 H   0  0  0  0  0  0  0  0  0  0  0  0  # atno 6908 bound_to 6896
  152.4668  133.7896  159.6950 H   0  0  0  0  0  0  0  0  0  0  0  0  # atno 6909 bound_to 6896
  144.7138  140.0691  143.6430 H   0  0  0  0  0  0  0  0  0  0  0  0  # atno 7974 bound_to 7965
  156.1348  140.1533  156.9011 H   0  0  0  0  0  0  0  0  0  0  0  0  # atno 8008 bound_to 7997
  154.4938  140.0844  156.7692 H   0  0  0  0  0  0  0  0  0  0  0  0  # atno 8009 bound_to 7997
  155.4189  140.3422  155.4272 H   0  0  0  0  0  0  0  0  0  0  0  0  # atno 8010 bound_to 7997
  139.5872  144.7011  151.3380 H   0  0  0  0  0  0  0  0  0  0  0  0  # atno 10167 bound_to 10162
  157.6320  130.9402  150.0451 H   0  0  0  0  0  0  0  0  0  0  0  0  # atno 10718 bound_to 10713
  153.0107  135.6325  154.1872 H   0  0  0  0  0  0  0  0  0  0  0  0  # atno 10763 bound_to 10752
  154.1614  135.2823  155.3109 H   0  0  0  0  0  0  0  0  0  0  0  0  # atno 10764 bound_to 10752
  154.5978  135.5597  153.7404 H   0  0  0  0  0  0  0  0  0  0  0  0  # atno 10765 bound_to 10752
  139.9316  134.9641  156.8270 H   0  0  0  0  0  0  0  0  0  0  0  0  # atno 11005 bound_to 11000
  145.9798  139.2933  143.1048 LP  0  0  0  0  0  0  0  0  0  0  0  0  # atno 17320 bound_to 7965
  145.9023  140.9235  143.0497 LP  0  0  0  0  0  0  0  0  0  0  0  0  # atno 17321 bound_to 7965
  140.7142  143.7311  150.7623 LP  0  0  0  0  0  0  0  0  0  0  0  0  # atno 17342 bound_to 10162
  140.0858  143.4924  152.2505 LP  0  0  0  0  0  0  0  0  0  0  0  0  # atno 17343 bound_to 10162
  156.1531  130.3642  149.9409 LP  0  0  0  0  0  0  0  0  0  0  0  0  # atno 17370 bound_to 10713
  156.7424  130.9084  151.3633 LP  0  0  0  0  0  0  0  0  0  0  0  0  # atno 17371 bound_to 10713
  140.6187  134.0014  155.7608 LP  0  0  0  0  0  0  0  0  0  0  0  0  # atno 17394 bound_to 11000
  141.0907  133.9920  157.3241 LP  0  0  0  0  0  0  0  0  0  0  0  0  # atno 17395 bound_to 11000

$$$$
