AV-unprocessed.smi:1700|AV-procd|sdf|6819|dock3
  -GOLD-   22720 7593D 1   1.00000     0.00000
 Structure written by MMmdl.
 34 35  0  0  0  0  0  0  0  0  1 V2000
  145.6648  135.5111  151.1047 C   0  0  0  0  0  0  0  0  0  0  0  0
  145.6123  133.9920  151.0825 C   0  0  0  0  0  0  0  0  0  0  0  0
  144.5973  133.3472  150.3440 C   0  0  0  0  0  0  0  0  0  0  0  0
  144.5496  131.9428  150.3249 C   0  0  0  0  0  0  0  0  0  0  0  0
  145.5254  131.2380  151.0498 C   0  0  0  0  0  0  0  0  0  0  0  0
  146.4987  131.8459  151.7583 N   0  0  0  0  0  0  0  0  0  0  0  0
  146.5592  133.2012  151.7876 C   0  0  0  0  0  0  0  0  0  0  0  0
  147.5552  133.9099  152.5176 N   0  0  0  0  0  0  0  0  0  0  0  0
  148.1470  133.5670  153.6757 C   0  0  0  0  0  0  0  0  0  0  0  0
  147.9383  132.5291  154.3046 O   0  0  0  0  0  0  0  0  0  0  0  0
  149.0139  134.5089  154.0744 N   0  0  0  0  0  0  0  0  0  0  0  0
  149.8201  134.4417  155.2880 C   0  0  0  0  0  0  0  0  0  0  0  0
  150.4307  135.8085  155.6380 C   0  0  2  0  0  0  0  0  0  0  0  0
  149.4102  136.9439  155.6781 C   0  0  0  0  0  0  0  0  0  0  0  0
  150.2886  138.1486  155.4299 C   0  0  0  0  0  0  0  0  0  0  0  0
  151.2772  137.6070  154.4011 C   0  0  0  0  0  0  0  0  0  0  0  0
  151.3761  136.2059  154.6471 O   0  0  0  0  0  0  0  0  0  0  0  0
  144.8565  135.9450  150.5153 H   0  0  0  0  0  0  0  0  0  0  0  0
  146.6091  135.8665  150.6913 H   0  0  0  0  0  0  0  0  0  0  0  0
  145.5709  135.8819  152.1258 H   0  0  0  0  0  0  0  0  0  0  0  0
  143.8620  133.9194  149.7974 H   0  0  0  0  0  0  0  0  0  0  0  0
  143.7850  131.4196  149.7696 H   0  0  0  0  0  0  0  0  0  0  0  0
  145.5250  130.1581  151.0625 H   0  0  0  0  0  0  0  0  0  0  0  0
  147.8406  134.7896  152.1145 H   0  0  0  0  0  0  0  0  0  0  0  0
  149.1317  135.3275  153.4956 H   0  0  0  0  0  0  0  0  0  0  0  0
  149.1870  134.0933  156.1043 H   0  0  0  0  0  0  0  0  0  0  0  0
  150.6077  133.6957  155.1683 H   0  0  0  0  0  0  0  0  0  0  0  0
  150.9465  135.7653  156.5988 H   0  0  0  0  0  0  0  0  0  0  0  0
  148.6829  136.8396  154.8716 H   0  0  0  0  0  0  0  0  0  0  0  0
  148.8691  136.9955  156.6235 H   0  0  0  0  0  0  0  0  0  0  0  0
  149.7361  139.0192  155.0754 H   0  0  0  0  0  0  0  0  0  0  0  0
  150.8120  138.4243  156.3464 H   0  0  0  0  0  0  0  0  0  0  0  0
  150.8942  137.7536  153.3906 H   0  0  0  0  0  0  0  0  0  0  0  0
  152.2512  138.0926  154.4674 H   0  0  0  0  0  0  0  0  0  0  0  0
  1  2  1  0  0  0  0
  1 18  1  0  0  0  0
  1 19  1  0  0  0  0
  1 20  1  0  0  0  0
  2  7  1  0  0  0  0
  2  3  2  0  0  0  0
  3  4  1  0  0  0  0
  3 21  1  0  0  0  0
  4  5  2  0  0  0  0
  4 22  1  0  0  0  0
  5  6  1  0  0  0  0
  5 23  1  0  0  0  0
  6  7  2  0  0  0  0
  7  8  1  0  0  0  0
  8  9  1  0  0  0  0
  8 24  1  0  0  0  0
  9 10  2  0  0  0  0
  9 11  1  0  0  0  0
 11 12  1  0  0  0  0
 11 25  1  0  0  0  0
 12 13  1  0  0  0  0
 12 26  1  0  0  0  0
 12 27  1  0  0  0  0
 13 17  1  0  0  0  0
 13 14  1  0  0  0  0
 13 28  1  0  0  0  0
 14 15  1  0  0  0  0
 14 29  1  0  0  0  0
 14 30  1  0  0  0  0
 15 16  1  0  0  0  0
 15 31  1  0  0  0  0
 15 32  1  0  0  0  0
 16 17  1  0  0  0  0
 16 33  1  0  0  0  0
 16 34  1  0  0  0  0
M  END
> <s_m_source_file>
AV-unprocessed.smi

> <i_m_source_file_index>
1700

> <i_lp_mmshare_version>
43012

> <i_f3d_flags>
0

> <s_epik_input>
W0NIM11jMVtjSF1bY0hdW2NIXW5jMVtOSF1DKD1PKVtOSF1bQ0gyXVtDQEBIXTJbQ0gyXVtDSDJdW0NIMl1PMg==

> <s_epik_cmdline>
J2VwaWtfcHl0aG9uJywgJy1waCcsICc3LjAnLCAnLXRuJywgJzgnLCAnLW1hJywgJzIwMCcsICctbWV0YWxfYmluZGluZycsICctaW1hZScsICc8aW5maWxlLm1hZT4nLCAnLW9tYWUnLCAnPG91dGZpbGUubWFlPic=

> <r_lp_tautomer_probability>
1

> <r_epik_Ionization_Penalty>
5.57253e-05

> <r_epik_Ionization_Penalty_Charging>
0

> <r_epik_Ionization_Penalty_Neutral>
5.57253e-05

> <r_epik_State_Penalty>
-0

> <r_epik_Charging_Adjusted_Penalty>
0

> <i_epik_Tot_Q>
0

> <i_epik_Tot_abs_Q>
0

> <r_epik_Metal_State_Penalty>
-0

> <b_epik_Metal_Only>
0

> <s_lp_Force_Field>
OPLS_2005

> <r_lp_Energy>
19.3296

> <b_lp_Chiralities_Consistent>
1

> <s_lp_Variant>
AV-unprocessed.smi:1700-1

> <Gold.Version>
5.8.1

> <Gold.Id.Protein>
6NUR|6NUR_protein|mol2

> <Gold.PLP.Fitness>
38.5646

> <Gold.PLP.PLP>
-30.2411

> <Gold.PLP.part.hbond>
-3.0000

> <Gold.PLP.part.metal>
0.0000

> <Gold.PLP.part.buried>
-6.0165

> <Gold.PLP.part.nonpolar>
-22.2159

> <Gold.PLP.part.repulsive>
0.6638

> <Gold.PLP.ligand.clash>
0.0000

> <Gold.PLP.ligand.torsion>
0.3390

> <Gold.PLP.Chemscore.Hbond>
3.0000

> <Gold.PLP.Chemscore.CHOScore>
0.0000

> <Gold.PLP.Chemscore.Metal>
0.0000

> <Gold.Chemscore.Hbonds>
donor molecule, donor type, donor heavy atom, donor atom, acceptor molecule, acceptor atom, score
      L1  H     8    24       P1  7948  1.00
      L1  H    11    25       P1  7948  1.00
      P1  H 10752 10765       L1    17  1.00

> <Gold.PLP.Chemscore.Internal.Correction>
0.0016

> <Gold.Rescore>
     Score         DG    S(hbond)    S(metal)    S(lipo)     H(rot)  DE(clash)    DE(int)     intcor
     16.36     -17.80       2.45        0.00      62.25       1.23       0.07       1.38       ----

> <Gold.Chemscore.Fitness>
16.3586

> <Gold.Chemscore.DG>
-17.8020

> <Gold.Chemscore.ZeroCoef>
-5.4800

> <Gold.Chemscore.Hbond>
2.4543

> <Gold.Chemscore.Metal>
0.0000

> <Gold.Chemscore.Lipo>
62.2459

> <Gold.Chemscore.Internal_Hbond>
0.0000

> <Gold.Chemscore.DEClash>
0.0679

> <Gold.Chemscore.DEInternal>
1.3754

> <Gold.Chemscore.Rot>
1.2337

> <Gold.Chemscore.Internal.Correction>
   9.000000E+99

> <Gold.Chemscore.Hbonds>
donor molecule, donor type, donor heavy atom, donor atom, acceptor molecule, acceptor atom, score
      L1  H     8    24       P1  7948  0.59
      L1  H    11    25       P1  7948  0.38
      P1  H 10752 10765       L1    17  0.82

> <Gold.Chemscore.Hbond.Weighted>
-8.1974

> <Gold.Chemscore.Metal.Weighted>
-0.0000

> <Gold.Chemscore.Lipo.Weighted>
-7.2828

> <Gold.Chemscore.Internal_Hbond.Weighted>
0.0000

> <Gold.Chemscore.DEClash.Weighted>
0.0679

> <Gold.Chemscore.DEInternal.Weighted>
1.3754

> <Gold.Chemscore.Rot.Weighted>
3.1582

> <Gold.Chemscore.Internal.Correction.Weighted>
   9.000000E+99

> <Gold.Protein.RotatedTorsions>
[ 6907 6896 6895 6894 ] final   23.25 input  -60.11 | X-H torsion
[ 7974 7965 7964 7962 ] final -141.50 input  175.53 | X-H torsion
[ 8008 7997 7996 7995 ] final  101.41 input   59.86 | X-H torsion
[ 10167 10162 10161 10158 ] final  -26.32 input  -65.29 | X-H torsion
[ 10718 10713 10712 10709 ] final   37.93 input   66.30 | X-H torsion
[ 10763 10752 10751 10750 ] final  165.54 input  -60.55 | X-H torsion
[ 11005 11000 10999 10996 ] final  136.79 input  -57.11 | X-H torsion

> <Gold.Protein.ActiveResidues>
 VAL166  LYS551  ARG553  GLY616  TRP617  ASP618  TYR619  PRO620  LYS621  CYS622 
 ASP623  PHE694  ASN695  SER759  ASP760  ASP761  ALA762  ILE779  LEU786  VAL792 
 PHE793  MET794  SER795  GLU796  ALA797  LYS798  CYS799  TRP800  GLU811  SER814 

> <Gold.Protein.RotatedAtoms>
  151.9396  135.0219  160.0534 H   0  0  0  0  0  0  0  0  0  0  0  0  # atno 6907 bound_to 6896
  152.2048  133.4863  159.5086 H   0  0  0  0  0  0  0  0  0  0  0  0  # atno 6908 bound_to 6896
  150.6962  134.1460  159.4165 H   0  0  0  0  0  0  0  0  0  0  0  0  # atno 6909 bound_to 6896
  144.8514  140.6072  143.5387 H   0  0  0  0  0  0  0  0  0  0  0  0  # atno 7974 bound_to 7965
  156.1296  140.3198  155.8329 H   0  0  0  0  0  0  0  0  0  0  0  0  # atno 8008 bound_to 7997
  155.4356  140.0522  157.3032 H   0  0  0  0  0  0  0  0  0  0  0  0  # atno 8009 bound_to 7997
  154.4889  140.2084  155.9605 H   0  0  0  0  0  0  0  0  0  0  0  0  # atno 8010 bound_to 7997
  140.7283  143.4188  151.0985 H   0  0  0  0  0  0  0  0  0  0  0  0  # atno 10167 bound_to 10162
  157.3528  130.7608  149.6991 H   0  0  0  0  0  0  0  0  0  0  0  0  # atno 10718 bound_to 10713
  154.3255  135.2755  155.2498 H   0  0  0  0  0  0  0  0  0  0  0  0  # atno 10763 bound_to 10752
  154.4833  135.5853  153.6408 H   0  0  0  0  0  0  0  0  0  0  0  0  # atno 10764 bound_to 10752
  152.9872  135.6116  154.3443 H   0  0  0  0  0  0  0  0  0  0  0  0  # atno 10765 bound_to 10752
  140.0070  134.9455  157.0196 H   0  0  0  0  0  0  0  0  0  0  0  0  # atno 11005 bound_to 11000
  145.4492  139.1526  143.3928 LP  0  0  0  0  0  0  0  0  0  0  0  0  # atno 17320 bound_to 7965
  146.2788  140.4617  142.8784 LP  0  0  0  0  0  0  0  0  0  0  0  0  # atno 17321 bound_to 7965
  139.7831  143.8327  152.3141 LP  0  0  0  0  0  0  0  0  0  0  0  0  # atno 17342 bound_to 10162
  139.8284  144.7264  150.9481 LP  0  0  0  0  0  0  0  0  0  0  0  0  # atno 17343 bound_to 10162
  155.9724  130.4135  150.4088 LP  0  0  0  0  0  0  0  0  0  0  0  0  # atno 17370 bound_to 10713
  157.2154  131.0470  151.2576 LP  0  0  0  0  0  0  0  0  0  0  0  0  # atno 17371 bound_to 10713
  140.4624  134.1471  155.7193 LP  0  0  0  0  0  0  0  0  0  0  0  0  # atno 17394 bound_to 11000
  141.1684  133.8658  157.1646 LP  0  0  0  0  0  0  0  0  0  0  0  0  # atno 17395 bound_to 11000

$$$$
