#       Name:                AV-unprocessed.smi:1931
#       Creating user name   scv26
#       Creation time:       Fri Mar 27 09:55:40 2020


#       File generated by GOLD software.
#

@<TRIPOS>MOLECULE
AV-unprocessed.smi:1931
    58    59     1
SMALL
NO_CHARGES


@<TRIPOS>ATOM
      1 ****        -6.0900   3.9973   2.3221 C.3            1 S1                 0.0000
      2 ****        -4.7519   4.4603   2.3714 O.3            1 S1                 0.0000
      3 ****        -4.3386   5.0569   1.1535 C.3            1 S1                 0.0000
      4 ****        -2.8833   5.5154   1.2877 C.3            1 S1                 0.0000
      5 ****        -2.0354   4.3798   1.2508 O.3            1 S1                 0.0000
      6 ****        -0.6611   4.7189   1.3624 C.3            1 S1                 0.0000
      7 ****         0.1839   3.4455   1.3087 C.2            1 S1                 0.0000
      8 ****         1.1637   3.3435   2.0457 O.2            1 S1                 0.0000
      9 ****        -0.2181   2.5044   0.4340 N.am           1 S1                 0.0000
     10 ****         0.3621   1.2354   0.1659 C.ar           1 S1                 0.0000
     11 ****         1.7149   0.9079   0.4127 C.ar           1 S1                 0.0000
     12 ****         2.1767  -0.3819   0.0867 C.ar           1 S1                 0.0000
     13 ****         1.2778  -1.3180  -0.4847 C.ar           1 S1                 0.0000
     14 ****         1.6757  -2.6274  -0.8375 N.3            1 S1                 0.0000
     15 ****         3.0907  -2.9757  -0.7623 C.3            1 S1                 0.0000
     16 ****         3.3696  -4.2812  -1.5287 C.3            1 S1                 0.0000
     17 ****         4.8158  -4.7536  -1.3449 C.3            1 S1                 0.0000
     18 ****         2.5062  -5.3125  -1.0540 O.3            1 S1                 0.0000
     19 ****         1.1119  -5.0201  -1.1644 C.3            1 S1                 0.0000
     20 ****         0.6240  -5.0400  -2.6243 C.3            1 S1                 0.0000
     21 ****         0.7814  -3.7084  -0.4259 C.3            1 S1                 0.0000
     22 ****        -0.0132  -0.9908  -0.7327 N.ar           1 S1                 0.0000
     23 ****        -0.4510   0.2464  -0.4204 C.ar           1 S1                 0.0000
     24 ****        -6.3583   3.5498   3.2791 H              1 S1                 0.0000
     25 ****        -6.2162   3.2383   1.5488 H              1 S1                 0.0000
     26 ****        -6.7844   4.8155   2.1268 H              1 S1                 0.0000
     27 ****        -4.4439   4.3606   0.3199 H              1 S1                 0.0000
     28 ****        -4.9738   5.9187   0.9433 H              1 S1                 0.0000
     29 ****        -2.6327   6.1759   0.4562 H              1 S1                 0.0000
     30 ****        -2.7429   6.0806   2.2103 H              1 S1                 0.0000
     31 ****        -0.3618   5.3779   0.5463 H              1 S1                 0.0000
     32 ****        -0.4762   5.2426   2.3019 H              1 S1                 0.0000
     33 ****        -1.0864   2.6953  -0.0454 H              1 S1                 0.0000
     34 ****         2.4095   1.6188   0.8320 H              1 S1                 0.0000
     35 ****         3.2087  -0.6248   0.2889 H              1 S1                 0.0000
     36 ****         3.6991  -2.1806  -1.1946 H              1 S1                 0.0000
     37 ****         3.3782  -3.0803   0.2848 H              1 S1                 0.0000
     38 ****         3.2013  -4.1224  -2.5940 H              1 S1                 0.0000
     39 ****         5.5223  -4.0045  -1.7034 H              1 S1                 0.0000
     40 ****         4.9978  -5.6744  -1.8996 H              1 S1                 0.0000
     41 ****         5.0374  -4.9480  -0.2952 H              1 S1                 0.0000
     42 ****         0.5920  -5.8285  -0.6495 H              1 S1                 0.0000
     43 ****        -0.4618  -4.9530  -2.6685 H              1 S1                 0.0000
     44 ****         0.8996  -5.9741  -3.1141 H              1 S1                 0.0000
     45 ****         1.0361  -4.2189  -3.2104 H              1 S1                 0.0000
     46 ****         0.8999  -3.8536   0.6485 H              1 S1                 0.0000
     47 ****        -0.2666  -3.4603  -0.5941 H              1 S1                 0.0000
     48 ****        -1.4888   0.4491  -0.6409 H              1 S1                 0.0000
     49 ****        -4.1515   3.6853   2.5689 LP             1 S1                 0.0000
     50 ****        -4.6736   5.1375   3.1030 LP             1 S1                 0.0000
     51 ****        -2.1778   3.9021   0.3839 LP             1 S1                 0.0000
     52 ****        -2.2782   3.7743   2.0088 LP             1 S1                 0.0000
     53 ****         1.3993   4.0881   2.6702 LP             1 S1                 0.0000
     54 ****         1.7245   2.5159   2.0203 LP             1 S1                 0.0000
     55 ****         1.5460  -2.5401  -1.8252 LP             1 S1                 0.0000
     56 ****         2.7153  -5.4748  -0.0896 LP             1 S1                 0.0000
     57 ****         2.6933  -6.1423  -1.5798 LP             1 S1                 0.0000
     58 ****        -0.6345  -1.6587  -1.1425 LP             1 S1                 0.0000
@<TRIPOS>BOND
    1    1    2 1     
    2    1   24 1     
    3    1   25 1     
    4    1   26 1     
    5    2    3 1     
    6    3    4 1     
    7    3   27 1     
    8    3   28 1     
    9    4    5 1     
   10    4   29 1     
   11    4   30 1     
   12    5    6 1     
   13    6    7 1     
   14    6   31 1     
   15    6   32 1     
   16    7    8 2     
   17    7    9 am    
   18    9   10 1     
   19    9   33 1     
   20   10   23 ar    
   21   10   11 ar    
   22   11   12 ar    
   23   11   34 1     
   24   12   13 ar    
   25   12   35 1     
   26   13   14 1     
   27   13   22 ar    
   28   14   21 1     
   29   14   15 1     
   30   15   16 1     
   31   15   36 1     
   32   15   37 1     
   33   16   17 1     
   34   16   18 1     
   35   16   38 1     
   36   17   39 1     
   37   17   40 1     
   38   17   41 1     
   39   18   19 1     
   40   19   20 1     
   41   19   21 1     
   42   19   42 1     
   43   20   43 1     
   44   20   44 1     
   45   20   45 1     
   46   21   46 1     
   47   21   47 1     
   48   22   23 ar    
   49   23   48 1     
   50    2   49 1     
   51    2   50 1     
   52    5   51 1     
   53    5   52 1     
   54    8   53 1     
   55    8   54 1     
   56   14   55 1     
   57   18   56 1     
   58   18   57 1     
   59   22   58 1     
@<TRIPOS>SUBSTRUCTURE
      1 S1             1
@<TRIPOS>SET
LONE_PAIRS      STATIC     ATOMS    <user>   **** ""
10 49 50 51 52 53 54 55 56 57 58
DONOR_HYDROGENS      STATIC     ATOMS    <user>   **** ""
1 33
ATOM$BLUE        STATIC     ATOMS    COLORGROUP SYSTEM
10 49 50 51 52 53 54 55 56 57 58
ATOM$RED        STATIC     ATOMS    COLORGROUP SYSTEM
1 33
