AV-unprocessed.smi:2629|AV-procd|sdf|10245|dock4
  -GOLD-   2272014253D 1   1.00000     0.00000
 Structure written by MMmdl.
 23 24  0  0  0  0  0  0  0  0  2 V2000
  150.5514  139.5734  154.1714 O   0  0  0  0  0  0  0  0  0  0  0  0
  150.7578  140.1439  155.2401 C   0  0  0  0  0  0  0  0  0  0  0  0
  149.9124  141.3355  155.6345 N   0  0  0  0  0  0  0  0  0  0  0  0
  150.1241  141.9200  156.7288 N   0  0  0  0  0  0  0  0  0  0  0  0
  151.1269  141.5228  157.6405 C   0  0  0  0  0  0  0  0  0  0  0  0
  151.2078  142.3028  158.7954 N   0  0  0  0  0  0  0  0  0  0  0  0
  150.5480  143.5918  158.9727 C   0  0  0  0  0  0  0  0  0  0  0  0
  151.5958  144.7161  159.0258 C   0  0  0  0  0  0  0  0  0  0  0  0
  152.5031  144.4603  160.0944 O   0  0  0  0  0  0  0  0  0  0  0  0
  153.1806  143.2162  159.9379 C   0  0  0  0  0  0  0  0  0  0  0  0
  152.1569  142.0675  159.8810 C   0  0  0  0  0  0  0  0  0  0  0  0
  151.9256  140.4331  157.3110 C   0  0  0  0  0  0  0  0  0  0  0  0
  152.8670  139.8118  157.8525 O   0  5  0  0  0  0  0  0  0  0  0  0
  151.7106  139.7719  156.1087 N   0  0  0  0  0  0  0  0  0  0  0  0
  149.9846  143.5694  159.9063 H   0  0  0  0  0  0  0  0  0  0  0  0
  149.8172  143.7809  158.1883 H   0  0  0  0  0  0  0  0  0  0  0  0
  152.1359  144.7907  158.0806 H   0  0  0  0  0  0  0  0  0  0  0  0
  151.1102  145.6769  159.1951 H   0  0  0  0  0  0  0  0  0  0  0  0
  153.7903  143.2349  159.0330 H   0  0  0  0  0  0  0  0  0  0  0  0
  153.8602  143.0745  160.7782 H   0  0  0  0  0  0  0  0  0  0  0  0
  152.6834  141.1212  159.7619 H   0  0  0  0  0  0  0  0  0  0  0  0
  151.6106  142.0030  160.8225 H   0  0  0  0  0  0  0  0  0  0  0  0
  152.3045  138.9835  155.8979 H   0  0  0  0  0  0  0  0  0  0  0  0
  1  2  2  0  0  0  0
  2 14  1  0  0  0  0
  2  3  1  0  0  0  0
  3  4  2  0  0  0  0
  4  5  1  0  0  0  0
  5 12  2  0  0  0  0
  5  6  1  0  0  0  0
  6 11  1  0  0  0  0
  6  7  1  0  0  0  0
  7  8  1  0  0  0  0
  7 15  1  0  0  0  0
  7 16  1  0  0  0  0
  8  9  1  0  0  0  0
  8 17  1  0  0  0  0
  8 18  1  0  0  0  0
  9 10  1  0  0  0  0
 10 11  1  0  0  0  0
 10 19  1  0  0  0  0
 10 20  1  0  0  0  0
 11 21  1  0  0  0  0
 11 22  1  0  0  0  0
 12 13  1  0  0  0  0
 12 14  1  0  0  0  0
 14 23  1  0  0  0  0
M  CHG  1  13  -1
M  END
> <s_m_source_file>
AV-unprocessed.smi

> <i_m_source_file_index>
2629

> <i_lp_mmshare_version>
43012

> <i_f3d_flags>
0

> <s_epik_input>
Tz1jMVtuSF1uYyhjKD1PKVtuSF0xKU4yW0NIMl1bQ0gyXU9bQ0gyXVtDSDJdMg==

> <s_epik_cmdline>
J2VwaWtfcHl0aG9uJywgJy1waCcsICc3LjAnLCAnLXRuJywgJzgnLCAnLW1hJywgJzIwMCcsICctbWV0YWxfYmluZGluZycsICctaW1hZScsICc8aW5maWxlLm1hZT4nLCAnLW9tYWUnLCAnPG91dGZpbGUubWFlPic=

> <r_lp_tautomer_probability>
1

> <r_epik_Ionization_Penalty>
0.519034

> <r_epik_Ionization_Penalty_Charging>
1.15035e-06

> <r_epik_Ionization_Penalty_Neutral>
0.519033

> <r_epik_State_Penalty>
0

> <r_epik_Charging_Adjusted_Penalty>
1.15035e-06

> <i_epik_Tot_Q>
-1

> <i_epik_Tot_abs_Q>
1

> <r_epik_Metal_State_Penalty>
8.21436e-06

> <b_epik_Metal_Only>
1

> <s_epik_pKa_notes>
Reset negative state penalty to 0 from Metal Processing

> <s_lp_Force_Field>
OPLS_2005

> <r_lp_Energy>
19.1466

> <b_lp_Chiralities_Consistent>
1

> <s_lp_Variant>
AV-unprocessed.smi:2629-2

> <Gold.Version>
5.8.1

> <Gold.Id.Protein>
6NUR|6NUR_protein|mol2

> <Gold.PLP.Fitness>
30.5914

> <Gold.PLP.PLP>
-23.8863

> <Gold.PLP.part.hbond>
-2.0000

> <Gold.PLP.part.metal>
0.0000

> <Gold.PLP.part.buried>
-2.6183

> <Gold.PLP.part.nonpolar>
-19.4898

> <Gold.PLP.part.repulsive>
0.5581

> <Gold.PLP.ligand.clash>
0.0000

> <Gold.PLP.ligand.torsion>
0.0394

> <Gold.PLP.Chemscore.Hbond>
2.2500

> <Gold.PLP.Chemscore.CHOScore>
0.0000

> <Gold.PLP.Chemscore.Metal>
0.0000

> <Gold.Chemscore.Hbonds>
donor molecule, donor type, donor heavy atom, donor atom, acceptor molecule, acceptor atom, score
      P1  H  7989  7998       L1     1  0.25
      P1  H  7997  8010       L1    13  2.00

> <Gold.PLP.Chemscore.Internal.Correction>
0.0339

> <Gold.Rescore>
     Score         DG    S(hbond)    S(metal)    S(lipo)     H(rot)  DE(clash)    DE(int)     intcor
     14.10     -14.21       0.99        0.00      46.24       0.00       0.06       0.05       ----

> <Gold.Chemscore.Fitness>
14.0997

> <Gold.Chemscore.DG>
-14.2089

> <Gold.Chemscore.ZeroCoef>
-5.4800

> <Gold.Chemscore.Hbond>
0.9936

> <Gold.Chemscore.Metal>
0.0000

> <Gold.Chemscore.Lipo>
46.2426

> <Gold.Chemscore.Internal_Hbond>
0.0000

> <Gold.Chemscore.DEClash>
0.0609

> <Gold.Chemscore.DEInternal>
0.0483

> <Gold.Chemscore.Rot>
0.0000

> <Gold.Chemscore.Internal.Correction>
   9.000000E+99

> <Gold.Chemscore.Hbonds>
donor molecule, donor type, donor heavy atom, donor atom, acceptor molecule, acceptor atom, score
      P1  H  7997  8010       L1    13  0.42

> <Gold.Chemscore.Hbond.Weighted>
-3.3185

> <Gold.Chemscore.Metal.Weighted>
-0.0000

> <Gold.Chemscore.Lipo.Weighted>
-5.4104

> <Gold.Chemscore.Internal_Hbond.Weighted>
0.0000

> <Gold.Chemscore.DEClash.Weighted>
0.0609

> <Gold.Chemscore.DEInternal.Weighted>
0.0483

> <Gold.Chemscore.Rot.Weighted>
0.0000

> <Gold.Chemscore.Internal.Correction.Weighted>
   9.000000E+99

> <Gold.Protein.RotatedTorsions>
[ 6907 6896 6895 6894 ] final  -22.78 input  -60.11 | X-H torsion
[ 7974 7965 7964 7962 ] final  121.15 input  175.53 | X-H torsion
[ 8008 7997 7996 7995 ] final   60.77 input   59.86 | X-H torsion
[ 10167 10162 10161 10158 ] final -113.53 input  -65.29 | X-H torsion
[ 10718 10713 10712 10709 ] final  -33.80 input   66.30 | X-H torsion
[ 10763 10752 10751 10750 ] final   40.21 input  -60.55 | X-H torsion
[ 11005 11000 10999 10996 ] final -145.56 input  -57.11 | X-H torsion

> <Gold.Protein.ActiveResidues>
 VAL166  LYS551  ARG553  GLY616  TRP617  ASP618  TYR619  PRO620  LYS621  CYS622 
 ASP623  PHE694  ASN695  SER759  ASP760  ASP761  ALA762  ILE779  LEU786  VAL792 
 PHE793  MET794  SER795  GLU796  ALA797  LYS798  CYS799  TRP800  GLU811  SER814 

> <Gold.Protein.RotatedAtoms>
  151.2135  135.0491  159.8920 H   0  0  0  0  0  0  0  0  0  0  0  0  # atno 6907 bound_to 6896
  152.5422  134.0718  159.8207 H   0  0  0  0  0  0  0  0  0  0  0  0  # atno 6908 bound_to 6896
  151.0875  133.5294  159.2648 H   0  0  0  0  0  0  0  0  0  0  0  0  # atno 6909 bound_to 6896
  145.1227  139.3378  143.4706 H   0  0  0  0  0  0  0  0  0  0  0  0  # atno 7974 bound_to 7965
  155.5876  140.3492  155.4557 H   0  0  0  0  0  0  0  0  0  0  0  0  # atno 8008 bound_to 7997
  156.0326  140.1278  157.0267 H   0  0  0  0  0  0  0  0  0  0  0  0  # atno 8009 bound_to 7997
  154.4358  140.1040  156.6107 H   0  0  0  0  0  0  0  0  0  0  0  0  # atno 8010 bound_to 7997
  140.1108  143.4529  152.1753 H   0  0  0  0  0  0  0  0  0  0  0  0  # atno 10167 bound_to 10162
  156.3583  130.4319  149.7645 H   0  0  0  0  0  0  0  0  0  0  0  0  # atno 10718 bound_to 10713
  152.9943  135.6198  154.2589 H   0  0  0  0  0  0  0  0  0  0  0  0  # atno 10763 bound_to 10752
  154.2326  135.2791  155.2886 H   0  0  0  0  0  0  0  0  0  0  0  0  # atno 10764 bound_to 10752
  154.5437  135.5753  153.6919 H   0  0  0  0  0  0  0  0  0  0  0  0  # atno 10765 bound_to 10752
  140.7910  134.2968  157.5013 H   0  0  0  0  0  0  0  0  0  0  0  0  # atno 11005 bound_to 11000
  146.3520  140.1193  142.8601 LP  0  0  0  0  0  0  0  0  0  0  0  0  # atno 17320 bound_to 7965
  145.0722  140.9163  143.4875 LP  0  0  0  0  0  0  0  0  0  0  0  0  # atno 17321 bound_to 7965
  139.5620  144.7411  151.4128 LP  0  0  0  0  0  0  0  0  0  0  0  0  # atno 17342 bound_to 10162
  140.6926  143.7825  150.7278 LP  0  0  0  0  0  0  0  0  0  0  0  0  # atno 17343 bound_to 10162
  156.4819  130.8045  151.3059 LP  0  0  0  0  0  0  0  0  0  0  0  0  # atno 17370 bound_to 10713
  157.7470  131.0003  150.2921 LP  0  0  0  0  0  0  0  0  0  0  0  0  # atno 17371 bound_to 10713
  139.8731  134.9374  156.3688 LP  0  0  0  0  0  0  0  0  0  0  0  0  # atno 17394 bound_to 11000
  140.9389  133.7528  156.0121 LP  0  0  0  0  0  0  0  0  0  0  0  0  # atno 17395 bound_to 11000

$$$$
