AV-unprocessed.smi:2463|AV-procd|sdf|9720|dock3
  -GOLD-   2272013363D 1   1.00000     0.00000
 Structure written by MMmdl.
 47 48  0  0  0  0  0  0  0  0  1 V2000
  144.6813  144.1182  154.5642 C   0  0  0  0  0  0  0  0  0  0  0  0
  145.7482  143.1959  153.9646 C   0  0  0  0  0  0  0  0  0  0  0  0
  146.2820  142.1774  154.9828 C   0  0  0  0  0  0  0  0  0  0  0  0
  146.8557  141.0160  154.3311 N   0  0  0  0  0  0  0  0  0  0  0  0
  146.1968  139.9316  153.7867 C   0  0  0  0  0  0  0  0  0  0  0  0
  147.1752  139.1121  153.2992 C   0  0  0  0  0  0  0  0  0  0  0  0
  147.0558  137.8648  152.6359 N   0  0  0  0  0  0  0  0  0  0  0  0
  145.9260  137.1940  152.3590 C   0  0  0  0  0  0  0  0  0  0  0  0
  144.7913  137.5636  152.6614 O   0  0  0  0  0  0  0  0  0  0  0  0
  146.1861  136.0522  151.7080 N   0  0  0  0  0  0  0  0  0  0  0  0
  145.1820  135.0797  151.2813 C   0  0  1  0  0  0  0  0  0  0  0  0
  145.8220  133.8151  150.7436 C   0  0  0  0  0  0  0  0  0  0  0  0
  144.7196  132.7643  150.9243 C   0  0  0  0  0  0  0  0  0  0  0  0
  143.8048  132.6726  149.6907 C   0  0  0  0  0  0  0  0  0  0  0  0
  145.2845  131.3842  151.2937 C   0  0  0  0  0  0  0  0  0  0  0  0
  143.9217  133.2334  152.0104 O   0  0  0  0  0  0  0  0  0  0  0  0
  144.3019  134.5431  152.4309 C   0  0  0  0  0  0  0  0  0  0  0  0
  145.0431  134.3739  153.7738 C   0  0  0  0  0  0  0  0  0  0  0  0
  143.0200  135.3693  152.6190 C   0  0  0  0  0  0  0  0  0  0  0  0
  148.4033  139.7633  153.5835 C   0  0  0  0  0  0  0  0  0  0  0  0
  148.2023  140.9131  154.2091 N   0  0  0  0  0  0  0  0  0  0  0  0
  144.3218  144.8308  153.8213 H   0  0  0  0  0  0  0  0  0  0  0  0
  145.0793  144.6866  155.4057 H   0  0  0  0  0  0  0  0  0  0  0  0
  143.8231  143.5473  154.9200 H   0  0  0  0  0  0  0  0  0  0  0  0
  145.3271  142.6719  153.1055 H   0  0  0  0  0  0  0  0  0  0  0  0
  146.5729  143.7999  153.5839 H   0  0  0  0  0  0  0  0  0  0  0  0
  147.0481  142.6348  155.6104 H   0  0  0  0  0  0  0  0  0  0  0  0
  145.4830  141.8471  155.6484 H   0  0  0  0  0  0  0  0  0  0  0  0
  145.1201  139.8502  153.7980 H   0  0  0  0  0  0  0  0  0  0  0  0
  147.9222  137.4398  152.3396 H   0  0  0  0  0  0  0  0  0  0  0  0
  147.1491  135.8298  151.5025 H   0  0  0  0  0  0  0  0  0  0  0  0
  144.5549  135.5012  150.4933 H   0  0  0  0  0  0  0  0  0  0  0  0
  146.1547  133.9152  149.7097 H   0  0  0  0  0  0  0  0  0  0  0  0
  146.6954  133.5552  151.3437 H   0  0  0  0  0  0  0  0  0  0  0  0
  144.3574  132.3343  148.8139 H   0  0  0  0  0  0  0  0  0  0  0  0
  143.3596  133.6382  149.4490 H   0  0  0  0  0  0  0  0  0  0  0  0
  142.9883  131.9698  149.8585 H   0  0  0  0  0  0  0  0  0  0  0  0
  145.9216  130.9934  150.4997 H   0  0  0  0  0  0  0  0  0  0  0  0
  144.4838  130.6637  151.4630 H   0  0  0  0  0  0  0  0  0  0  0  0
  145.8803  131.4313  152.2057 H   0  0  0  0  0  0  0  0  0  0  0  0
  145.3355  135.3358  154.1957 H   0  0  0  0  0  0  0  0  0  0  0  0
  145.9441  133.7701  153.6637 H   0  0  0  0  0  0  0  0  0  0  0  0
  144.4080  133.8780  154.5084 H   0  0  0  0  0  0  0  0  0  0  0  0
  143.2472  136.3844  152.9448 H   0  0  0  0  0  0  0  0  0  0  0  0
  142.3686  134.9192  153.3687 H   0  0  0  0  0  0  0  0  0  0  0  0
  142.4527  135.4367  151.6903 H   0  0  0  0  0  0  0  0  0  0  0  0
  149.4122  139.4476  153.3624 H   0  0  0  0  0  0  0  0  0  0  0  0
  1  2  1  0  0  0  0
  1 22  1  0  0  0  0
  1 23  1  0  0  0  0
  1 24  1  0  0  0  0
  2  3  1  0  0  0  0
  2 25  1  0  0  0  0
  2 26  1  0  0  0  0
  3  4  1  0  0  0  0
  3 27  1  0  0  0  0
  3 28  1  0  0  0  0
  4 21  1  0  0  0  0
  4  5  1  0  0  0  0
  5  6  2  0  0  0  0
  5 29  1  0  0  0  0
  6  7  1  0  0  0  0
  6 20  1  0  0  0  0
  7  8  1  0  0  0  0
  7 30  1  0  0  0  0
  8  9  2  0  0  0  0
  8 10  1  0  0  0  0
 10 11  1  0  0  0  0
 10 31  1  0  0  0  0
 11 17  1  0  0  0  0
 11 12  1  0  0  0  0
 11 32  1  0  0  0  0
 12 13  1  0  0  0  0
 12 33  1  0  0  0  0
 12 34  1  0  0  0  0
 13 14  1  0  0  0  0
 13 15  1  0  0  0  0
 13 16  1  0  0  0  0
 14 35  1  0  0  0  0
 14 36  1  0  0  0  0
 14 37  1  0  0  0  0
 15 38  1  0  0  0  0
 15 39  1  0  0  0  0
 15 40  1  0  0  0  0
 16 17  1  0  0  0  0
 17 18  1  0  0  0  0
 17 19  1  0  0  0  0
 18 41  1  0  0  0  0
 18 42  1  0  0  0  0
 18 43  1  0  0  0  0
 19 44  1  0  0  0  0
 19 45  1  0  0  0  0
 19 46  1  0  0  0  0
 20 21  2  0  0  0  0
 20 47  1  0  0  0  0
M  END
> <s_m_source_file>
AV-unprocessed.smi

> <i_m_source_file_index>
2463

> <i_lp_mmshare_version>
43012

> <i_f3d_flags>
0

> <s_epik_input>
W0NIM11bQ0gyXVtDSDJdbjFbY0hdYyhbY0hdbjEpW05IXUMoPU8pW05IXVtDQEBIXShDKE8yKShbQ0gzXSlbQ0gzXSlbQ0gyXUMyKFtDSDNdKVtDSDNd

> <s_epik_cmdline>
J2VwaWtfcHl0aG9uJywgJy1waCcsICc3LjAnLCAnLXRuJywgJzgnLCAnLW1hJywgJzIwMCcsICctbWV0YWxfYmluZGluZycsICctaW1hZScsICc8aW5maWxlLm1hZT4nLCAnLW9tYWUnLCAnPG91dGZpbGUubWFlPic=

> <r_lp_tautomer_probability>
1

> <r_epik_Ionization_Penalty>
3.69628e-05

> <r_epik_Ionization_Penalty_Charging>
0

> <r_epik_Ionization_Penalty_Neutral>
3.69628e-05

> <r_epik_State_Penalty>
-0

> <r_epik_Charging_Adjusted_Penalty>
0

> <i_epik_Tot_Q>
0

> <i_epik_Tot_abs_Q>
0

> <r_epik_Metal_State_Penalty>
-0

> <b_epik_Metal_Only>
0

> <s_lp_Force_Field>
OPLS_2005

> <r_lp_Energy>
21.7925

> <b_lp_Chiralities_Consistent>
1

> <s_lp_Variant>
AV-unprocessed.smi:2463-2

> <Gold.Version>
5.8.1

> <Gold.Id.Protein>
6NUR|6NUR_protein|mol2

> <Gold.PLP.Fitness>
43.2485

> <Gold.PLP.PLP>
-33.8772

> <Gold.PLP.part.hbond>
-2.0000

> <Gold.PLP.part.metal>
0.0000

> <Gold.PLP.part.buried>
-2.4063

> <Gold.PLP.part.nonpolar>
-31.3551

> <Gold.PLP.part.repulsive>
0.8831

> <Gold.PLP.ligand.clash>
0.0000

> <Gold.PLP.ligand.torsion>
0.4186

> <Gold.PLP.Chemscore.Hbond>
1.9600

> <Gold.PLP.Chemscore.CHOScore>
1.4353

> <Gold.PLP.Chemscore.Metal>
0.0000

> <Gold.Chemscore.Hbonds>
donor molecule, donor type, donor heavy atom, donor atom, acceptor molecule, acceptor atom, score
      L1  H     7    30       P1  7948  1.00
      L1  H    10    31       P1  7948  0.96
      L1  C     5    29       P1 10175  1.00
      L1  C    20    47       P1  7957  0.44

> <Gold.PLP.Chemscore.Internal.Correction>
0.0226

> <Gold.Rescore>
     Score         DG    S(hbond)    S(metal)    S(lipo)     H(rot)  DE(clash)    DE(int)     intcor
     14.58     -17.82       1.95        0.00      77.92       1.29       0.31       2.93       ----

> <Gold.Chemscore.Fitness>
14.5800

> <Gold.Chemscore.DG>
-17.8211

> <Gold.Chemscore.ZeroCoef>
-5.4800

> <Gold.Chemscore.Hbond>
1.9510

> <Gold.Chemscore.Metal>
0.0000

> <Gold.Chemscore.Lipo>
77.9216

> <Gold.Chemscore.Internal_Hbond>
0.0000

> <Gold.Chemscore.DEClash>
0.3150

> <Gold.Chemscore.DEInternal>
2.9261

> <Gold.Chemscore.Rot>
1.2859

> <Gold.Chemscore.Internal.Correction>
   9.000000E+99

> <Gold.Chemscore.Hbonds>
donor molecule, donor type, donor heavy atom, donor atom, acceptor molecule, acceptor atom, score
      L1  H     7    30       P1  7948  0.99
      L1  H    10    31       P1  7948  0.92

> <Gold.Chemscore.Hbond.Weighted>
-6.5162

> <Gold.Chemscore.Metal.Weighted>
-0.0000

> <Gold.Chemscore.Lipo.Weighted>
-9.1168

> <Gold.Chemscore.Internal_Hbond.Weighted>
0.0000

> <Gold.Chemscore.DEClash.Weighted>
0.3150

> <Gold.Chemscore.DEInternal.Weighted>
2.9261

> <Gold.Chemscore.Rot.Weighted>
3.2919

> <Gold.Chemscore.Internal.Correction.Weighted>
   9.000000E+99

> <Gold.Protein.RotatedTorsions>
[ 6907 6896 6895 6894 ] final   20.76 input  -60.11 | X-H torsion
[ 7974 7965 7964 7962 ] final  150.73 input  175.53 | X-H torsion
[ 8008 7997 7996 7995 ] final  -73.50 input   59.86 | X-H torsion
[ 10167 10162 10161 10158 ] final   71.64 input  -65.29 | X-H torsion
[ 10718 10713 10712 10709 ] final   22.36 input   66.30 | X-H torsion
[ 10763 10752 10751 10750 ] final -145.34 input  -60.55 | X-H torsion
[ 11005 11000 10999 10996 ] final  -98.19 input  -57.11 | X-H torsion

> <Gold.Protein.ActiveResidues>
 VAL166  LYS551  ARG553  GLY616  TRP617  ASP618  TYR619  PRO620  LYS621  CYS622 
 ASP623  PHE694  ASN695  SER759  ASP760  ASP761  ALA762  ILE779  LEU786  VAL792 
 PHE793  MET794  SER795  GLU796  ALA797  LYS798  CYS799  TRP800  GLU811  SER814 

> <Gold.Protein.RotatedAtoms>
  151.9014  135.0377  160.0506 H   0  0  0  0  0  0  0  0  0  0  0  0  # atno 6907 bound_to 6896
  152.2355  133.5088  159.5248 H   0  0  0  0  0  0  0  0  0  0  0  0  # atno 6908 bound_to 6896
  150.7038  134.1075  159.4031 H   0  0  0  0  0  0  0  0  0  0  0  0  # atno 6909 bound_to 6896
  144.8343  139.6446  143.6045 H   0  0  0  0  0  0  0  0  0  0  0  0  # atno 7974 bound_to 7965
  154.5252  140.0778  156.8246 H   0  0  0  0  0  0  0  0  0  0  0  0  # atno 8008 bound_to 7997
  155.3490  140.3411  155.4221 H   0  0  0  0  0  0  0  0  0  0  0  0  # atno 8009 bound_to 7997
  156.1724  140.1624  156.8410 H   0  0  0  0  0  0  0  0  0  0  0  0  # atno 8010 bound_to 7997
  140.0439  144.5367  150.7413 H   0  0  0  0  0  0  0  0  0  0  0  0  # atno 10167 bound_to 10162
  157.1513  130.6676  149.6013 H   0  0  0  0  0  0  0  0  0  0  0  0  # atno 10718 bound_to 10713
  154.8388  135.3416  154.6488 H   0  0  0  0  0  0  0  0  0  0  0  0  # atno 10763 bound_to 10752
  153.7101  135.6964  153.5044 H   0  0  0  0  0  0  0  0  0  0  0  0  # atno 10764 bound_to 10752
  153.2458  135.4369  155.0700 H   0  0  0  0  0  0  0  0  0  0  0  0  # atno 10765 bound_to 10752
  141.1353  133.8227  157.0806 H   0  0  0  0  0  0  0  0  0  0  0  0  # atno 11005 bound_to 11000
  146.2643  139.6484  142.9340 LP  0  0  0  0  0  0  0  0  0  0  0  0  # atno 17320 bound_to 7965
  145.4828  141.0438  143.2636 LP  0  0  0  0  0  0  0  0  0  0  0  0  # atno 17321 bound_to 7965
  140.7248  143.2624  151.4159 LP  0  0  0  0  0  0  0  0  0  0  0  0  # atno 17342 bound_to 10162
  139.5996  144.1324  152.2183 LP  0  0  0  0  0  0  0  0  0  0  0  0  # atno 17343 bound_to 10162
  155.9770  130.4743  150.6565 LP  0  0  0  0  0  0  0  0  0  0  0  0  # atno 17370 bound_to 10713
  157.4218  131.0837  151.1124 LP  0  0  0  0  0  0  0  0  0  0  0  0  # atno 17371 bound_to 10713
  140.0454  134.9833  157.1039 LP  0  0  0  0  0  0  0  0  0  0  0  0  # atno 17394 bound_to 11000
  140.4071  134.2020  155.7163 LP  0  0  0  0  0  0  0  0  0  0  0  0  # atno 17395 bound_to 11000

$$$$
