#       Name:                AV-unprocessed.smi:2775
#       Creating user name   scv26
#       Creation time:       Fri Mar 27 15:13:51 2020


#       File generated by GOLD software.
#

@<TRIPOS>MOLECULE
AV-unprocessed.smi:2775
    47    50     1
SMALL
NO_CHARGES


@<TRIPOS>ATOM
      1 ****        -5.1348   2.0133  -0.0658 C.3            1 S1                 0.0000
      2 ****        -4.3574   0.8197  -0.5866 C.ar           1 S1                 0.0000
      3 ****        -5.0593  -0.2008  -1.1266 N.pl3          1 S1                 1.0000
      4 ****        -4.4775  -1.3151  -1.6163 C.ar           1 S1                 0.0000
      5 ****        -3.0758  -1.4492  -1.5835 C.ar           1 S1                 0.0000
      6 ****        -2.2886  -0.4017  -1.0410 C.ar           1 S1                 0.0000
      7 ****        -0.8698  -0.4483  -0.9521 N.am           1 S1                 0.0000
      8 ****         0.0093  -1.2219  -1.6179 C.2            1 S1                 0.0000
      9 ****        -0.2918  -2.0698  -2.4546 O.2            1 S1                 0.0000
     10 ****         1.2925  -0.9842  -1.2950 N.am           1 S1                 0.0000
     11 ****         2.4800  -1.6490  -1.8343 C.3            1 S1                 0.0000
     12 ****         3.7579  -1.2972  -1.0498 C.3            1 S1                 0.0000
     13 ****         4.5043  -2.3769  -0.3132 C.3            1 S1                 0.0000
     14 ****         5.6197  -2.7509  -1.2932 C.3            1 S1                 0.0000
     15 ****         5.1302  -2.3413  -2.5680 O.3            1 S1                 0.0000
     16 ****         4.4588  -1.0978  -2.3892 C.3            1 S1                 0.0000
     17 ****         3.0947  -0.9736  -3.0787 C.3            1 S1                 0.0000
     18 ****         2.6250   0.3942  -3.6101 C.3            1 S1                 0.0000
     19 ****         1.9665  -0.3314  -4.7865 C.3            1 S1                 0.0000
     20 ****         2.8629  -1.5369  -4.4879 C.3            1 S1                 0.0000
     21 ****        -2.9462   0.7423  -0.5244 C.ar           1 S1                 0.0000
     22 ****        -2.0350   2.0394   0.1744 Cl             1 S1                 0.0000
     23 ****        -4.8151   2.9247  -0.5721 H              1 S1                 0.0000
     24 ****        -4.9678   2.1367   1.0046 H              1 S1                 0.0000
     25 ****        -6.2065   1.8941  -0.2302 H              1 S1                 0.0000
     26 ****        -5.1467  -2.0644  -2.0137 H              1 S1                 0.0000
     27 ****        -2.6380  -2.3579  -1.9655 H              1 S1                 0.0000
     28 ****        -0.4591   0.2419  -0.3399 H              1 S1                 0.0000
     29 ****         1.4621  -0.2747  -0.5964 H              1 S1                 0.0000
     30 ****         2.3784  -2.7292  -1.9611 H              1 S1                 0.0000
     31 ****         3.6701  -0.3543  -0.5069 H              1 S1                 0.0000
     32 ****         4.9058  -2.0348   0.6410 H              1 S1                 0.0000
     33 ****         3.8581  -3.2330  -0.1172 H              1 S1                 0.0000
     34 ****         6.5303  -2.1940  -1.0674 H              1 S1                 0.0000
     35 ****         5.8568  -3.8147  -1.2758 H              1 S1                 0.0000
     36 ****         5.1098  -0.2235  -2.4304 H              1 S1                 0.0000
     37 ****         1.9346   0.9471  -2.9733 H              1 S1                 0.0000
     38 ****         3.4555   1.0255  -3.9293 H              1 S1                 0.0000
     39 ****         0.9088  -0.5363  -4.6194 H              1 S1                 0.0000
     40 ****         2.1385   0.1319  -5.7585 H              1 S1                 0.0000
     41 ****         3.7714  -1.5443  -5.0920 H              1 S1                 0.0000
     42 ****         2.3520  -2.4995  -4.5173 H              1 S1                 0.0000
     43 ****        -6.0763  -0.1275  -1.1617 H              1 S1                 0.0000
     44 ****        -1.2523  -2.2258  -2.6851 LP             1 S1                 0.0000
     45 ****         0.4236  -2.6038  -2.9050 LP             1 S1                 0.0000
     46 ****         4.4935  -3.0248  -2.9250 LP             1 S1                 0.0000
     47 ****         5.8917  -2.2294  -3.2064 LP             1 S1                 0.0000
@<TRIPOS>BOND
    1    1    2 1     
    2    1   23 1     
    3    1   24 1     
    4    1   25 1     
    5    2   21 ar    
    6    2    3 ar    
    7    3    4 ar    
    8    3   43 1     
    9    4    5 ar    
   10    4   26 1     
   11    5    6 ar    
   12    5   27 1     
   13    6    7 1     
   14    6   21 ar    
   15    7    8 am    
   16    7   28 1     
   17    8    9 2     
   18    8   10 am    
   19   10   11 1     
   20   10   29 1     
   21   11   17 1     
   22   11   12 1     
   23   11   30 1     
   24   12   16 1     
   25   12   13 1     
   26   12   31 1     
   27   13   14 1     
   28   13   32 1     
   29   13   33 1     
   30   14   15 1     
   31   14   34 1     
   32   14   35 1     
   33   15   16 1     
   34   16   17 1     
   35   16   36 1     
   36   17   20 1     
   37   17   18 1     
   38   18   19 1     
   39   18   37 1     
   40   18   38 1     
   41   19   20 1     
   42   19   39 1     
   43   19   40 1     
   44   20   41 1     
   45   20   42 1     
   46   21   22 1     
   47    9   44 1     
   48    9   45 1     
   49   15   46 1     
   50   15   47 1     
@<TRIPOS>SUBSTRUCTURE
      1 S1             1
@<TRIPOS>SET
LONE_PAIRS      STATIC     ATOMS    <user>   **** ""
4 44 45 46 47
DONOR_HYDROGENS      STATIC     ATOMS    <user>   **** ""
3 43 28 29
ATOM$BLUE        STATIC     ATOMS    COLORGROUP SYSTEM
4 44 45 46 47
ATOM$RED        STATIC     ATOMS    COLORGROUP SYSTEM
3 43 28 29
