AV-unprocessed.smi:445|AV-procd|sdf|2592|dock9
  -GOLD-   2262022583D 1   1.00000     0.00000
 Structure written by MMmdl.
 44 45  0  0  0  0  0  0  0  0  3 V2000
  153.6439  141.6505  160.9974 C   0  0  0  0  0  0  0  0  0  0  0  0
  152.5395  142.2883  160.1346 C   0  0  1  0  0  0  0  0  0  0  0  0
  152.8395  143.7794  159.8806 C   0  0  0  0  0  0  0  0  0  0  0  0
  151.7406  144.4480  159.0405 C   0  0  0  0  0  0  0  0  0  0  0  0
  151.5362  143.7082  157.7115 C   0  0  0  0  0  0  0  0  0  0  0  0
  151.2265  142.2231  157.9488 C   0  0  0  0  0  0  0  0  0  0  0  0
  152.3227  141.5411  158.7949 C   0  0  2  0  0  0  0  0  0  0  0  0
  151.9638  140.1497  159.0511 N   0  0  0  0  0  0  0  0  0  0  0  0
  152.5922  139.0684  158.5595 C   0  0  0  0  0  0  0  0  0  0  0  0
  153.5572  139.1463  157.8005 O   0  0  0  0  0  0  0  0  0  0  0  0
  152.0821  137.6785  158.9790 C   0  0  0  0  0  0  0  0  0  0  0  0
  150.7309  137.3387  158.4900 N   0  0  0  0  0  0  0  0  0  0  0  0
  149.7403  137.1664  159.4730 C   0  0  0  0  0  0  0  0  0  0  0  0
  148.4680  136.8611  159.1640 C   0  0  0  0  0  0  0  0  0  0  0  0
  147.4654  136.6976  160.1948 N   0  3  0  0  0  0  0  0  0  0  0  0
  147.7241  137.0731  161.3338 O   0  0  0  0  0  0  0  0  0  0  0  0
  146.3874  136.1891  159.9019 O   0  5  0  0  0  0  0  0  0  0  0  0
  148.1298  136.7081  157.7641 C   0  0  0  0  0  0  0  0  0  0  0  0
  149.0678  136.8764  156.7971 C   0  0  0  0  0  0  0  0  0  0  0  0
  148.7646  136.7385  155.3548 C   0  0  0  0  0  0  0  0  0  0  0  0
  149.8204  136.4155  154.5971 N   0  0  0  0  0  0  0  0  0  0  0  0
  147.6706  136.8900  154.8116 O   0  0  0  0  0  0  0  0  0  0  0  0
  150.4717  137.2232  157.1497 C   0  0  0  0  0  0  0  0  0  0  0  0
  151.3773  137.4107  156.3332 O   0  0  0  0  0  0  0  0  0  0  0  0
  154.6004  141.6443  160.4738 H   0  0  0  0  0  0  0  0  0  0  0  0
  153.4045  140.6212  161.2660 H   0  0  0  0  0  0  0  0  0  0  0  0
  153.7790  142.2016  161.9284 H   0  0  0  0  0  0  0  0  0  0  0  0
  151.6105  142.2336  160.7047 H   0  0  0  0  0  0  0  0  0  0  0  0
  152.9401  144.3066  160.8297 H   0  0  0  0  0  0  0  0  0  0  0  0
  153.7982  143.8803  159.3696 H   0  0  0  0  0  0  0  0  0  0  0  0
  150.8055  144.4595  159.6018 H   0  0  0  0  0  0  0  0  0  0  0  0
  151.9999  145.4897  158.8499 H   0  0  0  0  0  0  0  0  0  0  0  0
  150.7256  144.1719  157.1486 H   0  0  0  0  0  0  0  0  0  0  0  0
  152.4329  143.8021  157.0977 H   0  0  0  0  0  0  0  0  0  0  0  0
  150.2621  142.1305  158.4509 H   0  0  0  0  0  0  0  0  0  0  0  0
  151.1219  141.7184  156.9876 H   0  0  0  0  0  0  0  0  0  0  0  0
  153.2608  141.5643  158.2364 H   0  0  0  0  0  0  0  0  0  0  0  0
  151.1770  139.9958  159.6645 H   0  0  0  0  0  0  0  0  0  0  0  0
  152.8093  136.9328  158.6534 H   0  0  0  0  0  0  0  0  0  0  0  0
  152.1077  137.6265  160.0685 H   0  0  0  0  0  0  0  0  0  0  0  0
  150.0868  137.3085  160.4868 H   0  0  0  0  0  0  0  0  0  0  0  0
  147.1087  136.4614  157.5147 H   0  0  0  0  0  0  0  0  0  0  0  0
  149.7132  136.2965  153.6006 H   0  0  0  0  0  0  0  0  0  0  0  0
  150.7243  136.2893  155.0295 H   0  0  0  0  0  0  0  0  0  0  0  0
  1  2  1  0  0  0  0
  1 25  1  0  0  0  0
  1 26  1  0  0  0  0
  1 27  1  0  0  0  0
  2  7  1  0  0  0  0
  2  3  1  0  0  0  0
  2 28  1  0  0  0  0
  3  4  1  0  0  0  0
  3 29  1  0  0  0  0
  3 30  1  0  0  0  0
  4  5  1  0  0  0  0
  4 31  1  0  0  0  0
  4 32  1  0  0  0  0
  5  6  1  0  0  0  0
  5 33  1  0  0  0  0
  5 34  1  0  0  0  0
  6  7  1  0  0  0  0
  6 35  1  0  0  0  0
  6 36  1  0  0  0  0
  7  8  1  0  0  0  0
  7 37  1  0  0  0  0
  8  9  1  0  0  0  0
  8 38  1  0  0  0  0
  9 10  2  0  0  0  0
  9 11  1  0  0  0  0
 11 12  1  0  0  0  0
 11 39  1  0  0  0  0
 11 40  1  0  0  0  0
 12 23  1  0  0  0  0
 12 13  1  0  0  0  0
 13 14  2  0  0  0  0
 13 41  1  0  0  0  0
 14 15  1  0  0  0  0
 14 18  1  0  0  0  0
 15 16  2  0  0  0  0
 15 17  1  0  0  0  0
 18 19  2  0  0  0  0
 18 42  1  0  0  0  0
 19 20  1  0  0  0  0
 19 23  1  0  0  0  0
 20 21  1  0  0  0  0
 20 22  2  0  0  0  0
 21 43  1  0  0  0  0
 21 44  1  0  0  0  0
 23 24  2  0  0  0  0
M  CHG  1  15   1
M  CHG  1  17  -1
M  END
> <s_m_source_file>
AV-unprocessed.smi

> <i_m_source_file_index>
445

> <i_lp_mmshare_version>
43012

> <i_f3d_flags>
0

> <s_epik_input>
W0NIM11bQ0BASF0xW0NIMl1bQ0gyXVtDSDJdW0NIMl1bQ0BIXTFbTkhdQyg9TylbQ0gyXW4yW2NIXWMoW04rXSg9TylbTy1dKVtjSF1jKGMyPU8pQyg9TylbTkgyXQ==

> <s_epik_cmdline>
J2VwaWtfcHl0aG9uJywgJy1waCcsICc3LjAnLCAnLXRuJywgJzgnLCAnLW1hJywgJzIwMCcsICctbWV0YWxfYmluZGluZycsICctaW1hZScsICc8aW5maWxlLm1hZT4nLCAnLW9tYWUnLCAnPG91dGZpbGUubWFlPic=

> <r_lp_tautomer_probability>
1

> <r_epik_Ionization_Penalty>
2.81321e-06

> <r_epik_Ionization_Penalty_Charging>
2.43777e-12

> <r_epik_Ionization_Penalty_Neutral>
2.81321e-06

> <r_epik_State_Penalty>
-0

> <r_epik_Charging_Adjusted_Penalty>
2.43777e-12

> <i_epik_Tot_Q>
0

> <i_epik_Tot_abs_Q>
2

> <r_epik_Metal_State_Penalty>
-0

> <b_epik_Metal_Only>
0

> <s_lp_Force_Field>
OPLS_2005

> <r_lp_Energy>
28.9067

> <b_lp_Chiralities_Consistent>
1

> <s_lp_Variant>
AV-unprocessed.smi:445-4

> <Gold.Version>
5.8.1

> <Gold.Id.Protein>
6NUR|6NUR_protein|mol2

> <Gold.PLP.Fitness>
48.0089

> <Gold.PLP.PLP>
-37.3025

> <Gold.PLP.part.hbond>
-4.1076

> <Gold.PLP.part.metal>
0.0000

> <Gold.PLP.part.buried>
-5.1808

> <Gold.PLP.part.nonpolar>
-29.3217

> <Gold.PLP.part.repulsive>
0.3178

> <Gold.PLP.ligand.clash>
0.0000

> <Gold.PLP.ligand.torsion>
0.4456

> <Gold.PLP.Chemscore.Hbond>
3.8560

> <Gold.PLP.Chemscore.CHOScore>
0.0000

> <Gold.PLP.Chemscore.Metal>
0.0000

> <Gold.Chemscore.Hbonds>
donor molecule, donor type, donor heavy atom, donor atom, acceptor molecule, acceptor atom, score
      L1  H    21    43       P1  7948  1.00
      P1  H  6931  6943       L1    16  1.00
      P1  H  6934  6947       L1    16  0.54
      P1  H  7997  8010       L1    10  1.00

> <Gold.PLP.Chemscore.Internal.Correction>
0.0297

> <Gold.Rescore>
     Score         DG    S(hbond)    S(metal)    S(lipo)     H(rot)  DE(clash)    DE(int)     intcor
     18.68     -21.45       2.97        0.00      89.10       1.71       0.00       2.76       ----

> <Gold.Chemscore.Fitness>
18.6849

> <Gold.Chemscore.DG>
-21.4535

> <Gold.Chemscore.ZeroCoef>
-5.4800

> <Gold.Chemscore.Hbond>
2.9739

> <Gold.Chemscore.Metal>
0.0000

> <Gold.Chemscore.Lipo>
89.0963

> <Gold.Chemscore.Internal_Hbond>
0.0000

> <Gold.Chemscore.DEClash>
0.0048

> <Gold.Chemscore.DEInternal>
2.7638

> <Gold.Chemscore.Rot>
1.7123

> <Gold.Chemscore.Internal.Correction>
   9.000000E+99

> <Gold.Chemscore.Hbonds>
donor molecule, donor type, donor heavy atom, donor atom, acceptor molecule, acceptor atom, score
      L1  H    21    43       P1  7948  0.35
      P1  H  6931  6943       L1    16  0.96
      P1  H  6934  6947       L1    16  0.05
      P1  H  7997  8010       L1    10  0.98

> <Gold.Chemscore.Hbond.Weighted>
-9.9327

> <Gold.Chemscore.Metal.Weighted>
-0.0000

> <Gold.Chemscore.Lipo.Weighted>
-10.4243

> <Gold.Chemscore.Internal_Hbond.Weighted>
0.0000

> <Gold.Chemscore.DEClash.Weighted>
0.0048

> <Gold.Chemscore.DEInternal.Weighted>
2.7638

> <Gold.Chemscore.Rot.Weighted>
4.3835

> <Gold.Chemscore.Internal.Correction.Weighted>
   9.000000E+99

> <Gold.Protein.RotatedTorsions>
[ 6907 6896 6895 6894 ] final  -16.98 input  -60.11 | X-H torsion
[ 7974 7965 7964 7962 ] final  -45.43 input  175.53 | X-H torsion
[ 8008 7997 7996 7995 ] final   47.26 input   59.86 | X-H torsion
[ 10167 10162 10161 10158 ] final  144.51 input  -65.29 | X-H torsion
[ 10718 10713 10712 10709 ] final  -30.30 input   66.30 | X-H torsion
[ 10763 10752 10751 10750 ] final   66.83 input  -60.55 | X-H torsion
[ 11005 11000 10999 10996 ] final -152.21 input  -57.11 | X-H torsion

> <Gold.Protein.ActiveResidues>
 VAL166  LYS551  ARG553  GLY616  TRP617  ASP618  TYR619  PRO620  LYS621  CYS622 
 ASP623  PHE694  ASN695  SER759  ASP760  ASP761  ALA762  ILE779  LEU786  VAL792 
 PHE793  MET794  SER795  GLU796  ALA797  LYS798  CYS799  TRP800  GLU811  SER814 

> <Gold.Protein.RotatedAtoms>
  151.3003  135.0766  159.9235 H   0  0  0  0  0  0  0  0  0  0  0  0  # atno 6907 bound_to 6896
  152.5299  133.9841  159.7830 H   0  0  0  0  0  0  0  0  0  0  0  0  # atno 6908 bound_to 6896
  151.0126  133.5899  159.2711 H   0  0  0  0  0  0  0  0  0  0  0  0  # atno 6909 bound_to 6896
  145.9821  140.7272  142.9358 H   0  0  0  0  0  0  0  0  0  0  0  0  # atno 7974 bound_to 7965
  155.3662  140.3421  155.4242 H   0  0  0  0  0  0  0  0  0  0  0  0  # atno 8008 bound_to 7997
  156.1687  140.1624  156.8520 H   0  0  0  0  0  0  0  0  0  0  0  0  # atno 8009 bound_to 7997
  154.5211  140.0767  156.8156 H   0  0  0  0  0  0  0  0  0  0  0  0  # atno 8010 bound_to 7997
  139.4945  144.5967  151.6569 H   0  0  0  0  0  0  0  0  0  0  0  0  # atno 10167 bound_to 10162
  156.4015  130.4391  149.7319 H   0  0  0  0  0  0  0  0  0  0  0  0  # atno 10718 bound_to 10713
  153.0158  135.5306  154.6884 H   0  0  0  0  0  0  0  0  0  0  0  0  # atno 10763 bound_to 10752
  154.6025  135.2870  155.0522 H   0  0  0  0  0  0  0  0  0  0  0  0  # atno 10764 bound_to 10752
  154.1573  135.6553  153.5030 H   0  0  0  0  0  0  0  0  0  0  0  0  # atno 10765 bound_to 10752
  140.7213  134.3724  157.5183 H   0  0  0  0  0  0  0  0  0  0  0  0  # atno 11005 bound_to 11000
  144.6864  140.2926  143.7275 LP  0  0  0  0  0  0  0  0  0  0  0  0  # atno 17320 bound_to 7965
  145.7754  139.1872  143.2188 LP  0  0  0  0  0  0  0  0  0  0  0  0  # atno 17321 bound_to 7965
  140.5606  144.0275  150.6168 LP  0  0  0  0  0  0  0  0  0  0  0  0  # atno 17342 bound_to 10162
  140.3359  143.3049  152.0638 LP  0  0  0  0  0  0  0  0  0  0  0  0  # atno 17343 bound_to 10162
  156.4333  130.7826  151.2846 LP  0  0  0  0  0  0  0  0  0  0  0  0  # atno 17370 bound_to 10713
  157.7504  131.0147  150.3475 LP  0  0  0  0  0  0  0  0  0  0  0  0  # atno 17371 bound_to 10713
  139.8847  134.8957  156.2685 LP  0  0  0  0  0  0  0  0  0  0  0  0  # atno 17394 bound_to 11000
  141.0001  133.7156  156.0947 LP  0  0  0  0  0  0  0  0  0  0  0  0  # atno 17395 bound_to 11000

$$$$
