AV-unprocessed.smi:3068|AV-procd|sdf|11705|dock2
  -GOLD-   2272017103D 1   1.00000     0.00000
 Structure written by MMmdl.
 40 42  0  0  0  0  0  0  0  0  2 V2000
  150.9432  142.3256  157.3441 N   0  0  0  0  0  0  0  0  0  0  0  0
  151.1140  141.4039  156.6654 C   0  0  0  0  0  0  0  0  0  0  0  0
  151.3283  140.2442  155.8093 C   0  0  0  0  0  0  0  0  0  0  0  0
  152.5052  139.5919  155.9530 N   0  0  0  0  0  0  0  0  0  0  0  0
  152.7176  138.5179  155.1634 C   0  0  0  0  0  0  0  0  0  0  0  0
  151.7576  138.0908  154.2256 C   0  0  0  0  0  0  0  0  0  0  0  0
  150.5814  138.7360  154.0745 N   0  0  0  0  0  0  0  0  0  0  0  0
  150.3543  139.8167  154.8628 C   0  0  0  0  0  0  0  0  0  0  0  0
  149.1313  140.4985  154.7200 N   0  0  0  0  0  0  0  0  0  0  0  0
  148.0683  140.0068  153.8515 C   0  0  0  0  0  0  0  0  0  0  0  0
  146.8369  140.9284  153.8507 C   0  0  1  0  0  0  0  0  0  0  0  0
  145.8580  140.5671  154.9824 C   0  0  0  0  0  0  0  0  0  0  0  0
  144.7180  141.5121  155.0065 N   0  3  1  0  0  0  0  0  0  0  0  0
  143.7250  141.1745  156.0574 C   0  0  0  0  0  0  0  0  0  0  0  0
  142.5113  142.1150  155.9938 C   0  0  0  0  0  0  0  0  0  0  0  0
  142.9512  143.5809  156.0999 C   0  0  0  0  0  0  0  0  0  0  0  0
  143.9964  143.8957  155.0211 C   0  0  0  0  0  0  0  0  0  0  0  0
  145.1885  142.9213  155.0958 C   0  0  2  0  0  0  0  0  0  0  0  0
  146.2142  143.2040  153.9804 C   0  0  0  0  0  0  0  0  0  0  0  0
  147.2801  142.2659  154.0545 O   0  0  0  0  0  0  0  0  0  0  0  0
  153.6570  137.9980  155.2795 H   0  0  0  0  0  0  0  0  0  0  0  0
  151.9335  137.2310  153.5962 H   0  0  0  0  0  0  0  0  0  0  0  0
  149.0177  141.4059  155.1497 H   0  0  0  0  0  0  0  0  0  0  0  0
  148.4544  139.8865  152.8386 H   0  0  0  0  0  0  0  0  0  0  0  0
  147.7838  139.0091  154.1865 H   0  0  0  0  0  0  0  0  0  0  0  0
  146.3208  140.8533  152.8919 H   0  0  0  0  0  0  0  0  0  0  0  0
  145.4850  139.5521  154.8393 H   0  0  0  0  0  0  0  0  0  0  0  0
  146.3706  140.5881  155.9456 H   0  0  0  0  0  0  0  0  0  0  0  0
  143.3937  140.1433  155.9281 H   0  0  0  0  0  0  0  0  0  0  0  0
  144.1961  141.2362  157.0399 H   0  0  0  0  0  0  0  0  0  0  0  0
  141.9750  141.9586  155.0568 H   0  0  0  0  0  0  0  0  0  0  0  0
  141.8114  141.8762  156.7951 H   0  0  0  0  0  0  0  0  0  0  0  0
  142.0899  144.2412  155.9945 H   0  0  0  0  0  0  0  0  0  0  0  0
  143.3716  143.7701  157.0885 H   0  0  0  0  0  0  0  0  0  0  0  0
  143.5302  143.8357  154.0364 H   0  0  0  0  0  0  0  0  0  0  0  0
  144.3440  144.9232  155.1352 H   0  0  0  0  0  0  0  0  0  0  0  0
  145.6857  143.0512  156.0590 H   0  0  0  0  0  0  0  0  0  0  0  0
  145.7479  143.1617  152.9945 H   0  0  0  0  0  0  0  0  0  0  0  0
  146.6261  144.2071  154.0930 H   0  0  0  0  0  0  0  0  0  0  0  0
  144.2451  141.4197  154.1189 H   0  0  0  0  0  0  0  0  0  0  0  0
  1  2  3  0  0  0  0
  2  3  1  0  0  0  0
  3  8  1  0  0  0  0
  3  4  2  0  0  0  0
  4  5  1  0  0  0  0
  5  6  2  0  0  0  0
  5 21  1  0  0  0  0
  6  7  1  0  0  0  0
  6 22  1  0  0  0  0
  7  8  2  0  0  0  0
  8  9  1  0  0  0  0
  9 10  1  0  0  0  0
  9 23  1  0  0  0  0
 10 11  1  0  0  0  0
 10 24  1  0  0  0  0
 10 25  1  0  0  0  0
 11 20  1  0  0  0  0
 11 12  1  0  0  0  0
 11 26  1  0  0  0  0
 12 13  1  0  0  0  0
 12 27  1  0  0  0  0
 12 28  1  0  0  0  0
 13 18  1  0  0  0  0
 13 14  1  0  0  0  0
 13 40  1  0  0  0  0
 14 15  1  0  0  0  0
 14 29  1  0  0  0  0
 14 30  1  0  0  0  0
 15 16  1  0  0  0  0
 15 31  1  0  0  0  0
 15 32  1  0  0  0  0
 16 17  1  0  0  0  0
 16 33  1  0  0  0  0
 16 34  1  0  0  0  0
 17 18  1  0  0  0  0
 17 35  1  0  0  0  0
 17 36  1  0  0  0  0
 18 19  1  0  0  0  0
 18 37  1  0  0  0  0
 19 20  1  0  0  0  0
 19 38  1  0  0  0  0
 19 39  1  0  0  0  0
M  CHG  1  13   1
M  END
> <s_m_source_file>
AV-unprocessed.smi

> <i_m_source_file_index>
3068

> <i_lp_mmshare_version>
43012

> <i_f3d_flags>
0

> <s_epik_input>
TiNDYzFuW2NIXVtjSF1uYzFbTkhdW0NIMl1bQ0BIXShbQ0gyXTIpT1tDSDJdW0NAQEhdKE4yMylbQ0gyXVtDSDJdW0NIMl1bQ0gyXTM=

> <s_epik_cmdline>
J2VwaWtfcHl0aG9uJywgJy1waCcsICc3LjAnLCAnLXRuJywgJzgnLCAnLW1hJywgJzIwMCcsICctbWV0YWxfYmluZGluZycsICctaW1hZScsICc8aW5maWxlLm1hZT4nLCAnLW9tYWUnLCAnPG91dGZpbGUubWFlPic=

> <r_epik_Ionization_Penalty>
0.0804321

> <r_epik_Ionization_Penalty_Charging>
0.0803403

> <r_epik_Ionization_Penalty_Neutral>
9.17277e-05

> <r_epik_State_Penalty>
0.0711481

> <r_epik_Charging_Adjusted_Penalty>
0.151488

> <i_epik_Tot_Q>
1

> <i_epik_Tot_abs_Q>
1

> <r_epik_Metal_State_Penalty>
0.0711481

> <b_epik_Metal_Only>
0

> <s_lp_Force_Field>
OPLS_2005

> <r_lp_Energy>
36.4506

> <b_lp_Chiralities_Consistent>
1

> <s_lp_Variant>
AV-unprocessed.smi:3068-8

> <Gold.Version>
5.8.1

> <Gold.Id.Protein>
6NUR|6NUR_protein|mol2

> <Gold.PLP.Fitness>
42.3858

> <Gold.PLP.PLP>
-31.2741

> <Gold.PLP.part.hbond>
-2.0000

> <Gold.PLP.part.metal>
0.0000

> <Gold.PLP.part.buried>
-4.4051

> <Gold.PLP.part.nonpolar>
-25.1069

> <Gold.PLP.part.repulsive>
0.5993

> <Gold.PLP.ligand.clash>
0.0000

> <Gold.PLP.ligand.torsion>
0.3447

> <Gold.PLP.Chemscore.Hbond>
3.0000

> <Gold.PLP.Chemscore.CHOScore>
0.9306

> <Gold.PLP.Chemscore.Metal>
0.0000

> <Gold.Chemscore.Hbonds>
donor molecule, donor type, donor heavy atom, donor atom, acceptor molecule, acceptor atom, score
      L1  H    13    40       P1 10175  2.00
      P1  H  7997  8009       L1     4  1.00
      L1  C     6    22       P1  7949  0.93

> <Gold.PLP.Chemscore.Internal.Correction>
0.0095

> <Gold.Rescore>
     Score         DG    S(hbond)    S(metal)    S(lipo)     H(rot)  DE(clash)    DE(int)     intcor
     13.75     -14.41       1.85        0.00      52.41       1.32       0.12       0.54       ----

> <Gold.Chemscore.Fitness>
13.7526

> <Gold.Chemscore.DG>
-14.4136

> <Gold.Chemscore.ZeroCoef>
-5.4800

> <Gold.Chemscore.Hbond>
1.8500

> <Gold.Chemscore.Metal>
0.0000

> <Gold.Chemscore.Lipo>
52.4105

> <Gold.Chemscore.Internal_Hbond>
0.0000

> <Gold.Chemscore.DEClash>
0.1186

> <Gold.Chemscore.DEInternal>
0.5425

> <Gold.Chemscore.Rot>
1.3193

> <Gold.Chemscore.Internal.Correction>
   9.000000E+99

> <Gold.Chemscore.Hbonds>
donor molecule, donor type, donor heavy atom, donor atom, acceptor molecule, acceptor atom, score
      L1  H    13    40       P1 10175  0.34
      P1  H  7997  8009       L1     4  0.30

> <Gold.Chemscore.Hbond.Weighted>
-6.1789

> <Gold.Chemscore.Metal.Weighted>
-0.0000

> <Gold.Chemscore.Lipo.Weighted>
-6.1320

> <Gold.Chemscore.Internal_Hbond.Weighted>
0.0000

> <Gold.Chemscore.DEClash.Weighted>
0.1186

> <Gold.Chemscore.DEInternal.Weighted>
0.5425

> <Gold.Chemscore.Rot.Weighted>
3.3774

> <Gold.Chemscore.Internal.Correction.Weighted>
   9.000000E+99

> <Gold.Protein.RotatedTorsions>
[ 6907 6896 6895 6894 ] final   23.21 input  -60.11 | X-H torsion
[ 7974 7965 7964 7962 ] final  127.95 input  175.53 | X-H torsion
[ 8008 7997 7996 7995 ] final -164.09 input   59.86 | X-H torsion
[ 10167 10162 10161 10158 ] final -146.94 input  -65.29 | X-H torsion
[ 10718 10713 10712 10709 ] final -162.09 input   66.30 | X-H torsion
[ 10763 10752 10751 10750 ] final   81.20 input  -60.55 | X-H torsion
[ 11005 11000 10999 10996 ] final  -89.00 input  -57.11 | X-H torsion

> <Gold.Protein.ActiveResidues>
 VAL166  LYS551  ARG553  GLY616  TRP617  ASP618  TYR619  PRO620  LYS621  CYS622 
 ASP623  PHE694  ASN695  SER759  ASP760  ASP761  ALA762  ILE779  LEU786  VAL792 
 PHE793  MET794  SER795  GLU796  ALA797  LYS798  CYS799  TRP800  GLU811  SER814 

> <Gold.Protein.RotatedAtoms>
  151.9389  135.0222  160.0534 H   0  0  0  0  0  0  0  0  0  0  0  0  # atno 6907 bound_to 6896
  152.2054  133.4867  159.5089 H   0  0  0  0  0  0  0  0  0  0  0  0  # atno 6908 bound_to 6896
  150.6964  134.1454  159.4163 H   0  0  0  0  0  0  0  0  0  0  0  0  # atno 6909 bound_to 6896
  145.0450  139.3931  143.5083 H   0  0  0  0  0  0  0  0  0  0  0  0  # atno 7974 bound_to 7965
  155.8307  140.0933  157.1794 H   0  0  0  0  0  0  0  0  0  0  0  0  # atno 8008 bound_to 7997
  154.3980  140.1419  156.3671 H   0  0  0  0  0  0  0  0  0  0  0  0  # atno 8009 bound_to 7997
  155.8169  140.3447  155.5493 H   0  0  0  0  0  0  0  0  0  0  0  0  # atno 8010 bound_to 7997
  139.7668  143.8296  152.2617 H   0  0  0  0  0  0  0  0  0  0  0  0  # atno 10167 bound_to 10162
  156.6055  130.8828  151.2924 H   0  0  0  0  0  0  0  0  0  0  0  0  # atno 10718 bound_to 10713
  153.1097  135.4774  154.9013 H   0  0  0  0  0  0  0  0  0  0  0  0  # atno 10763 bound_to 10752
  154.7467  135.3096  154.8633 H   0  0  0  0  0  0  0  0  0  0  0  0  # atno 10764 bound_to 10752
  153.9226  135.6853  153.4801 H   0  0  0  0  0  0  0  0  0  0  0  0  # atno 10765 bound_to 10752
  141.1592  133.7604  156.9532 H   0  0  0  0  0  0  0  0  0  0  0  0  # atno 11005 bound_to 11000
  146.3513  140.0070  142.8670 LP  0  0  0  0  0  0  0  0  0  0  0  0  # atno 17320 bound_to 7965
  145.1600  140.9668  143.4383 LP  0  0  0  0  0  0  0  0  0  0  0  0  # atno 17321 bound_to 7965
  139.8319  144.7250  150.9440 LP  0  0  0  0  0  0  0  0  0  0  0  0  # atno 17342 bound_to 10162
  140.7811  143.4062  151.1067 LP  0  0  0  0  0  0  0  0  0  0  0  0  # atno 17343 bound_to 10162
  157.7268  130.9634  150.1672 LP  0  0  0  0  0  0  0  0  0  0  0  0  # atno 17370 bound_to 10713
  156.2433  130.3693  149.8313 LP  0  0  0  0  0  0  0  0  0  0  0  0  # atno 17371 bound_to 10713
  140.1243  134.9397  157.2247 LP  0  0  0  0  0  0  0  0  0  0  0  0  # atno 17394 bound_to 11000
  140.3033  134.3107  155.7284 LP  0  0  0  0  0  0  0  0  0  0  0  0  # atno 17395 bound_to 11000

$$$$
