#       Name:                AV-unprocessed.smi:186
#       Creating user name   scv26
#       Creation time:       Thu Mar 26 19:28:05 2020


#       File generated by GOLD software.
#

@<TRIPOS>MOLECULE
AV-unprocessed.smi:186
    60    63     1
SMALL
NO_CHARGES


@<TRIPOS>ATOM
      1 ****        -7.2923   3.3416   3.2638 C.3            1 S1                 0.0000
      2 ****        -5.8871   3.4696   3.1363 O.3            1 S1                 0.0000
      3 ****        -5.2208   2.2176   3.1930 C.3            1 S1                 0.0000
      4 ****        -3.7122   2.4296   3.0551 C.2            1 S1                 0.0000
      5 ****        -3.2561   3.5256   2.7276 O.2            1 S1                 0.0000
      6 ****        -2.9437   1.3605   3.3079 N.am           1 S1                 0.0000
      7 ****        -1.4883   1.3551   3.2357 C.3            1 S1                 0.0000
      8 ****        -0.9372   1.3447   1.8074 C.3            1 S1                 0.0000
      9 ****         0.0331   0.3845   2.3196 N.3            1 S1                 0.0000
     10 ****         0.4564  -0.6137   1.3967 C.ar           1 S1                 0.0000
     11 ****         0.5555  -1.9064   1.8082 N.ar           1 S1                 0.0000
     12 ****         0.9592  -2.8679   0.9732 C.ar           1 S1                 0.0000
     13 ****         1.3246  -2.7617  -0.3040 N.ar           1 S1                 0.0000
     14 ****         1.2564  -1.4680  -0.7264 C.ar           1 S1                 0.0000
     15 ****         0.8356  -0.3493   0.0484 C.ar           1 S1                 0.0000
     16 ****         0.8955   0.8046  -0.7245 N.2            1 S1                 0.0000
     17 ****         1.3205   0.3916  -1.8870 C.2            1 S1                 0.0000
     18 ****         1.5770  -0.9580  -1.9729 N.pl3          1 S1                 0.0000
     19 ****         2.0614  -1.6834  -3.1383 C.3            1 S1                 0.0000
     20 ****         3.6006  -1.8643  -3.1813 C.3            1 S1                 0.0000
     21 ****         4.0239  -2.5602  -2.0233 O.3            1 S1                 0.0000
     22 ****         4.3847  -0.5536  -3.2905 C.3            1 S1                 0.0000
     23 ****         4.7494  -0.4898  -4.7669 C.3            1 S1                 0.0000
     24 ****         5.0364  -1.8436  -5.0662 O.3            1 S1                 0.0000
     25 ****         4.0434  -2.6431  -4.4367 C.3            1 S1                 0.0000
     26 ****        -0.8864  -0.0435   3.3698 C.3            1 S1                 0.0000
     27 ****        -7.7568   4.3262   3.2112 H              1 S1                 0.0000
     28 ****        -7.5612   2.8933   4.2211 H              1 S1                 0.0000
     29 ****        -7.7071   2.7300   2.4616 H              1 S1                 0.0000
     30 ****        -5.4323   1.7208   4.1414 H              1 S1                 0.0000
     31 ****        -5.5648   1.5672   2.3872 H              1 S1                 0.0000
     32 ****        -3.3951   0.4962   3.5696 H              1 S1                 0.0000
     33 ****        -1.0012   2.0910   3.8803 H              1 S1                 0.0000
     34 ****        -1.6201   0.9166   1.0707 H              1 S1                 0.0000
     35 ****        -0.5029   2.2908   1.4835 H              1 S1                 0.0000
     36 ****         0.9976  -3.8638   1.3889 H              1 S1                 0.0000
     37 ****         1.4656   1.0672  -2.7175 H              1 S1                 0.0000
     38 ****         1.5706  -2.6575  -3.1569 H              1 S1                 0.0000
     39 ****         1.7216  -1.1555  -4.0306 H              1 S1                 0.0000
     40 ****         4.9587  -2.6876  -2.0749 H              1 S1                 0.0000
     41 ****         3.8398   0.3286  -2.9592 H              1 S1                 0.0000
     42 ****         5.3054  -0.6028  -2.7065 H              1 S1                 0.0000
     43 ****         3.9051  -0.1466  -5.3669 H              1 S1                 0.0000
     44 ****         5.6039   0.1577  -4.9640 H              1 S1                 0.0000
     45 ****         4.4357  -3.6367  -4.2155 H              1 S1                 0.0000
     46 ****         3.2146  -2.7691  -5.1350 H              1 S1                 0.0000
     47 ****        -0.4062  -0.2425   4.3282 H              1 S1                 0.0000
     48 ****        -1.5620  -0.8434   3.0597 H              1 S1                 0.0000
     49 ****        -5.5487   4.0471   3.8793 LP             1 S1                 0.0000
     50 ****        -5.6827   3.9024   2.2583 LP             1 S1                 0.0000
     51 ****        -3.8741   4.2910   2.5480 LP             1 S1                 0.0000
     52 ****        -2.2676   3.6503   2.6412 LP             1 S1                 0.0000
     53 ****         0.9491   0.6926   2.5767 LP             1 S1                 0.0000
     54 ****         0.3222  -2.1410   2.7518 LP             1 S1                 0.0000
     55 ****         1.6110  -3.5298  -0.8767 LP             1 S1                 0.0000
     56 ****         0.6653   1.7387  -0.4517 LP             1 S1                 0.0000
     57 ****         3.5647  -3.4472  -1.9762 LP             1 S1                 0.0000
     58 ****         3.8009  -2.0256  -1.2082 LP             1 S1                 0.0000
     59 ****         5.9414  -2.0857  -4.7163 LP             1 S1                 0.0000
     60 ****         5.0125  -1.9865  -6.0557 LP             1 S1                 0.0000
@<TRIPOS>BOND
    1    1    2 1     
    2    1   27 1     
    3    1   28 1     
    4    1   29 1     
    5    2    3 1     
    6    3    4 1     
    7    3   30 1     
    8    3   31 1     
    9    4    5 2     
   10    4    6 am    
   11    6    7 1     
   12    6   32 1     
   13    7   26 1     
   14    7    8 1     
   15    7   33 1     
   16    8    9 1     
   17    8   34 1     
   18    8   35 1     
   19    9   10 1     
   20    9   26 1     
   21   10   15 ar    
   22   10   11 ar    
   23   11   12 ar    
   24   12   13 ar    
   25   12   36 1     
   26   13   14 ar    
   27   14   18 1     
   28   14   15 ar    
   29   15   16 1     
   30   16   17 2     
   31   17   18 1     
   32   17   37 1     
   33   18   19 1     
   34   19   20 1     
   35   19   38 1     
   36   19   39 1     
   37   20   25 1     
   38   20   21 1     
   39   20   22 1     
   40   21   40 1     
   41   22   23 1     
   42   22   41 1     
   43   22   42 1     
   44   23   24 1     
   45   23   43 1     
   46   23   44 1     
   47   24   25 1     
   48   25   45 1     
   49   25   46 1     
   50   26   47 1     
   51   26   48 1     
   52    2   49 1     
   53    2   50 1     
   54    5   51 1     
   55    5   52 1     
   56    9   53 1     
   57   11   54 1     
   58   13   55 1     
   59   16   56 1     
   60   21   57 1     
   61   21   58 1     
   62   24   59 1     
   63   24   60 1     
@<TRIPOS>SUBSTRUCTURE
      1 S1             1
@<TRIPOS>SET
LONE_PAIRS      STATIC     ATOMS    <user>   **** ""
12 49 50 51 52 53 54 55 56 57 58 59 60
DONOR_HYDROGENS      STATIC     ATOMS    <user>   **** ""
2 32 40
ATOM$BLUE        STATIC     ATOMS    COLORGROUP SYSTEM
12 49 50 51 52 53 54 55 56 57 58 59 60
ATOM$RED        STATIC     ATOMS    COLORGROUP SYSTEM
2 32 40
