AV-unprocessed.smi:3345|AV-procd|sdf|12902|dock9
  -GOLD-   2272019313D 1   1.00000     0.00000
 Structure written by MMmdl.
 40 41  0  0  0  0  0  0  0  0  1 V2000
  147.5855  136.8987  158.0221 C   0  0  0  0  0  0  0  0  0  0  0  0
  148.9432  137.0909  158.7099 C   0  0  1  0  0  0  0  0  0  0  0  0
  149.4158  138.5592  158.6384 C   0  0  0  0  0  0  0  0  0  0  0  0
  149.6395  139.0824  157.2886 N   0  0  0  0  0  0  0  0  0  0  0  0
  149.9672  140.5060  157.2796 C   0  0  0  0  0  0  0  0  0  0  0  0
  150.1958  141.0290  155.8510 C   0  0  0  0  0  0  0  0  0  0  0  0
  151.2200  140.2668  155.2205 O   0  0  0  0  0  0  0  0  0  0  0  0
  150.9196  138.8758  155.1722 C   0  0  0  0  0  0  0  0  0  0  0  0
  150.6926  138.3468  156.5991 C   0  0  0  0  0  0  0  0  0  0  0  0
  148.8446  136.6808  160.1086 N   0  0  0  0  0  0  0  0  0  0  0  0
  147.7736  136.8438  160.9021 C   0  0  0  0  0  0  0  0  0  0  0  0
  146.7968  137.5267  160.5922 O   0  0  0  0  0  0  0  0  0  0  0  0
  147.8033  136.0709  162.2289 C   0  0  1  0  0  0  0  0  0  0  0  0
  147.8234  136.9950  163.4640 C   0  0  0  0  0  0  0  0  0  0  0  0
  146.6949  135.1228  162.2625 N   0  0  0  0  0  0  0  0  0  0  0  0
  146.7019  133.7926  162.1475 C   0  0  0  0  0  0  0  0  0  0  0  0
  145.4953  133.2440  162.1504 N   0  0  0  0  0  0  0  0  0  0  0  0
  144.7334  134.3717  162.2655 C   0  0  0  0  0  0  0  0  0  0  0  0
  145.4004  135.5239  162.3252 N   0  0  0  0  0  0  0  0  0  0  0  0
  147.6346  137.1902  156.9726 H   0  0  0  0  0  0  0  0  0  0  0  0
  146.8084  137.4981  158.4978 H   0  0  0  0  0  0  0  0  0  0  0  0
  147.2714  135.8550  158.0593 H   0  0  0  0  0  0  0  0  0  0  0  0
  149.6613  136.4653  158.1783 H   0  0  0  0  0  0  0  0  0  0  0  0
  148.7044  139.1965  159.1658 H   0  0  0  0  0  0  0  0  0  0  0  0
  150.3500  138.6330  159.1973 H   0  0  0  0  0  0  0  0  0  0  0  0
  149.1648  141.0840  157.7359 H   0  0  0  0  0  0  0  0  0  0  0  0
  150.8615  140.6841  157.8784 H   0  0  0  0  0  0  0  0  0  0  0  0
  149.2761  140.9696  155.2673 H   0  0  0  0  0  0  0  0  0  0  0  0
  150.4932  142.0775  155.8738 H   0  0  0  0  0  0  0  0  0  0  0  0
  150.0375  138.7091  154.5528 H   0  0  0  0  0  0  0  0  0  0  0  0
  151.7473  138.3477  154.6990 H   0  0  0  0  0  0  0  0  0  0  0  0
  151.6238  138.4173  157.1632 H   0  0  0  0  0  0  0  0  0  0  0  0
  150.4350  137.2881  156.5521 H   0  0  0  0  0  0  0  0  0  0  0  0
  149.6021  136.1141  160.4607 H   0  0  0  0  0  0  0  0  0  0  0  0
  148.7253  135.4872  162.2454 H   0  0  0  0  0  0  0  0  0  0  0  0
  148.6933  137.6524  163.4477 H   0  0  0  0  0  0  0  0  0  0  0  0
  147.8727  136.4120  164.3840 H   0  0  0  0  0  0  0  0  0  0  0  0
  146.9347  137.6252  163.5205 H   0  0  0  0  0  0  0  0  0  0  0  0
  147.6088  133.2143  162.0490 H   0  0  0  0  0  0  0  0  0  0  0  0
  143.6541  134.3434  162.2963 H   0  0  0  0  0  0  0  0  0  0  0  0
  1  2  1  0  0  0  0
  1 20  1  0  0  0  0
  1 21  1  0  0  0  0
  1 22  1  0  0  0  0
  2  3  1  0  0  0  0
  2 10  1  0  0  0  0
  2 23  1  0  0  0  0
  3  4  1  0  0  0  0
  3 24  1  0  0  0  0
  3 25  1  0  0  0  0
  4  9  1  0  0  0  0
  4  5  1  0  0  0  0
  5  6  1  0  0  0  0
  5 26  1  0  0  0  0
  5 27  1  0  0  0  0
  6  7  1  0  0  0  0
  6 28  1  0  0  0  0
  6 29  1  0  0  0  0
  7  8  1  0  0  0  0
  8  9  1  0  0  0  0
  8 30  1  0  0  0  0
  8 31  1  0  0  0  0
  9 32  1  0  0  0  0
  9 33  1  0  0  0  0
 10 11  1  0  0  0  0
 10 34  1  0  0  0  0
 11 12  2  0  0  0  0
 11 13  1  0  0  0  0
 13 14  1  0  0  0  0
 13 15  1  0  0  0  0
 13 35  1  0  0  0  0
 14 36  1  0  0  0  0
 14 37  1  0  0  0  0
 14 38  1  0  0  0  0
 15 19  1  0  0  0  0
 15 16  1  0  0  0  0
 16 17  2  0  0  0  0
 16 39  1  0  0  0  0
 17 18  1  0  0  0  0
 18 19  2  0  0  0  0
 18 40  1  0  0  0  0
M  END
> <s_m_source_file>
AV-unprocessed.smi

> <i_m_source_file_index>
3345

> <i_lp_mmshare_version>
43012

> <i_f3d_flags>
0

> <s_epik_input>
W0NIMl0xW0NIMl1PW0NIMl1bQ0gyXU4xW0NIMl1bQ0BASF0oW0NIM10pW05IXUMoPU8pW0NASF0oW0NIM10pbjJbY0hdbltjSF1uMg==

> <s_epik_cmdline>
J2VwaWtfcHl0aG9uJywgJy1waCcsICc3LjAnLCAnLXRuJywgJzgnLCAnLW1hJywgJzIwMCcsICctbWV0YWxfYmluZGluZycsICctaW1hZScsICc8aW5maWxlLm1hZT4nLCAnLW9tYWUnLCAnPG91dGZpbGUubWFlPic=

> <r_lp_tautomer_probability>
1

> <r_epik_Ionization_Penalty>
0.211373

> <r_epik_Ionization_Penalty_Charging>
0

> <r_epik_Ionization_Penalty_Neutral>
0.211373

> <r_epik_State_Penalty>
0.201459

> <r_epik_Charging_Adjusted_Penalty>
0.201459

> <i_epik_Tot_Q>
0

> <i_epik_Tot_abs_Q>
0

> <r_epik_Metal_State_Penalty>
0.201458

> <b_epik_Metal_Only>
0

> <s_lp_Force_Field>
OPLS_2005

> <r_lp_Energy>
29.1888

> <b_lp_Chiralities_Consistent>
1

> <s_lp_Variant>
AV-unprocessed.smi:3345-4

> <Gold.Version>
5.8.1

> <Gold.Id.Protein>
6NUR|6NUR_protein|mol2

> <Gold.PLP.Fitness>
36.9992

> <Gold.PLP.PLP>
-31.8727

> <Gold.PLP.part.hbond>
-2.0000

> <Gold.PLP.part.metal>
0.0000

> <Gold.PLP.part.buried>
-5.2814

> <Gold.PLP.part.nonpolar>
-25.3107

> <Gold.PLP.part.repulsive>
0.3233

> <Gold.PLP.ligand.clash>
0.0000

> <Gold.PLP.ligand.torsion>
0.5196

> <Gold.PLP.Chemscore.Hbond>
2.0000

> <Gold.PLP.Chemscore.CHOScore>
0.0000

> <Gold.PLP.Chemscore.Metal>
0.0000

> <Gold.Chemscore.Hbonds>
donor molecule, donor type, donor heavy atom, donor atom, acceptor molecule, acceptor atom, score
      P1  H  6934  6947       L1    12  1.00
      P1  H  7989  7998       L1     7  1.00

> <Gold.PLP.Chemscore.Internal.Correction>
0.1657

> <Gold.Rescore>
     Score         DG    S(hbond)    S(metal)    S(lipo)     H(rot)  DE(clash)    DE(int)     intcor
      9.55     -10.90       1.91        0.00      47.16       2.54       0.00       1.34       ----

> <Gold.Chemscore.Fitness>
9.5536

> <Gold.Chemscore.DG>
-10.8962

> <Gold.Chemscore.ZeroCoef>
-5.4800

> <Gold.Chemscore.Hbond>
1.9127

> <Gold.Chemscore.Metal>
0.0000

> <Gold.Chemscore.Lipo>
47.1640

> <Gold.Chemscore.Internal_Hbond>
0.0000

> <Gold.Chemscore.DEClash>
0.0000

> <Gold.Chemscore.DEInternal>
1.3426

> <Gold.Chemscore.Rot>
2.5353

> <Gold.Chemscore.Internal.Correction>
   9.000000E+99

> <Gold.Chemscore.Hbonds>
donor molecule, donor type, donor heavy atom, donor atom, acceptor molecule, acceptor atom, score
      P1  H  6934  6947       L1    12  0.59
      P1  H  7989  7998       L1     7  0.62

> <Gold.Chemscore.Hbond.Weighted>
-6.3885

> <Gold.Chemscore.Metal.Weighted>
-0.0000

> <Gold.Chemscore.Lipo.Weighted>
-5.5182

> <Gold.Chemscore.Internal_Hbond.Weighted>
0.0000

> <Gold.Chemscore.DEClash.Weighted>
0.0000

> <Gold.Chemscore.DEInternal.Weighted>
1.3426

> <Gold.Chemscore.Rot.Weighted>
6.4905

> <Gold.Chemscore.Internal.Correction.Weighted>
   9.000000E+99

> <Gold.Protein.RotatedTorsions>
[ 6907 6896 6895 6894 ] final   24.06 input  -60.11 | X-H torsion
[ 7974 7965 7964 7962 ] final   49.72 input  175.53 | X-H torsion
[ 8008 7997 7996 7995 ] final  -23.85 input   59.86 | X-H torsion
[ 10167 10162 10161 10158 ] final   52.94 input  -65.29 | X-H torsion
[ 10718 10713 10712 10709 ] final  -63.66 input   66.30 | X-H torsion
[ 10763 10752 10751 10750 ] final  -38.74 input  -60.55 | X-H torsion
[ 11005 11000 10999 10996 ] final  100.78 input  -57.11 | X-H torsion

> <Gold.Protein.ActiveResidues>
 VAL166  LYS551  ARG553  GLY616  TRP617  ASP618  TYR619  PRO620  LYS621  CYS622 
 ASP623  PHE694  ASN695  SER759  ASP760  ASP761  ALA762  ILE779  LEU786  VAL792 
 PHE793  MET794  SER795  GLU796  ALA797  LYS798  CYS799  TRP800  GLU811  SER814 

> <Gold.Protein.RotatedAtoms>
  151.9517  135.0166  160.0542 H   0  0  0  0  0  0  0  0  0  0  0  0  # atno 6907 bound_to 6896
  152.1947  133.4793  159.5035 H   0  0  0  0  0  0  0  0  0  0  0  0  # atno 6908 bound_to 6896
  150.6942  134.1585  159.4210 H   0  0  0  0  0  0  0  0  0  0  0  0  # atno 6909 bound_to 6896
  146.0082  139.4513  142.9973 H   0  0  0  0  0  0  0  0  0  0  0  0  # atno 7974 bound_to 7965
  154.4562  140.1969  156.0374 H   0  0  0  0  0  0  0  0  0  0  0  0  # atno 8008 bound_to 7997
  156.0750  140.3279  155.7594 H   0  0  0  0  0  0  0  0  0  0  0  0  # atno 8009 bound_to 7997
  155.5203  140.0569  157.2898 H   0  0  0  0  0  0  0  0  0  0  0  0  # atno 8010 bound_to 7997
  140.2461  144.3531  150.6364 H   0  0  0  0  0  0  0  0  0  0  0  0  # atno 10167 bound_to 10162
  156.0777  130.4223  150.1308 H   0  0  0  0  0  0  0  0  0  0  0  0  # atno 10718 bound_to 10713
  153.9179  135.6785  153.4748 H   0  0  0  0  0  0  0  0  0  0  0  0  # atno 10763 bound_to 10752
  153.1044  135.4812  154.8922 H   0  0  0  0  0  0  0  0  0  0  0  0  # atno 10764 bound_to 10752
  154.7493  135.3180  154.8543 H   0  0  0  0  0  0  0  0  0  0  0  0  # atno 10765 bound_to 10752
  139.8771  134.9155  156.4808 H   0  0  0  0  0  0  0  0  0  0  0  0  # atno 11005 bound_to 11000
  145.7384  141.0017  143.1314 LP  0  0  0  0  0  0  0  0  0  0  0  0  # atno 17320 bound_to 7965
  144.6943  139.9069  143.7461 LP  0  0  0  0  0  0  0  0  0  0  0  0  # atno 17321 bound_to 7965
  140.6077  143.2168  151.6949 LP  0  0  0  0  0  0  0  0  0  0  0  0  # atno 17342 bound_to 10162
  139.5061  144.3692  152.0486 LP  0  0  0  0  0  0  0  0  0  0  0  0  # atno 17343 bound_to 10162
  156.9346  130.9725  151.3527 LP  0  0  0  0  0  0  0  0  0  0  0  0  # atno 17370 bound_to 10713
  157.5880  130.8424  149.8618 LP  0  0  0  0  0  0  0  0  0  0  0  0  # atno 17371 bound_to 10713
  140.8729  133.7975  155.9383 LP  0  0  0  0  0  0  0  0  0  0  0  0  # atno 17394 bound_to 11000
  140.8934  134.2467  157.5082 LP  0  0  0  0  0  0  0  0  0  0  0  0  # atno 17395 bound_to 11000

$$$$
