#       Name:                AV-unprocessed.smi:276
#       Creating user name   scv26
#       Creation time:       Thu Mar 26 21:34:28 2020


#       File generated by GOLD software.
#

@<TRIPOS>MOLECULE
AV-unprocessed.smi:276
    66    70     1
SMALL
NO_CHARGES


@<TRIPOS>ATOM
      1 ****        -7.2554  -2.3867   0.8148 C.3            1 S1                 0.0000
      2 ****        -5.9842  -2.6281   1.3930 O.3            1 S1                 0.0000
      3 ****        -5.0819  -1.5496   1.2022 C.3            1 S1                 0.0000
      4 ****        -4.4403  -1.5332  -0.1946 C.3            1 S1                 0.0000
      5 ****        -3.0472  -1.5644   0.4510 C.3            1 S1                 0.0000
      6 ****        -2.2950  -0.3067   0.3074 N.pl3          1 S1                 0.0000
      7 ****        -2.9186   1.0019   0.5048 C.3            1 S1                 0.0000
      8 ****        -0.9377  -0.3531   0.4132 C.ar           1 S1                 0.0000
      9 ****        -0.3547  -1.4195   1.0254 N.ar           1 S1                 0.0000
     10 ****         0.9721  -1.4896   1.1590 C.ar           1 S1                 0.0000
     11 ****         1.8973  -0.6190   0.7545 N.ar           1 S1                 0.0000
     12 ****         1.3269   0.4491   0.1280 C.ar           1 S1                 0.0000
     13 ****        -0.0660   0.6618  -0.0843 C.ar           1 S1                 0.0000
     14 ****        -0.2545   1.8582  -0.7699 N.2            1 S1                 0.0000
     15 ****         0.9512   2.3250  -0.9457 C.2            1 S1                 0.0000
     16 ****         1.9603   1.5409  -0.4380 N.pl3          1 S1                 0.0000
     17 ****         3.3856   1.8141  -0.4982 C.3            1 S1                 0.0000
     18 ****         4.0149   1.3819  -1.8378 C.3            1 S1                 0.0000
     19 ****         3.8006  -0.0032  -2.0331 O.3            1 S1                 0.0000
     20 ****         5.5281   1.6643  -1.8867 C.3            1 S1                 0.0000
     21 ****         6.2026   1.2780  -3.2042 C.3            1 S1                 0.0000
     22 ****         7.4271   2.1632  -3.1915 C.3            1 S1                 0.0000
     23 ****         6.8750   3.4507  -2.5872 C.3            1 S1                 0.0000
     24 ****         5.7786   3.0628  -1.7624 O.3            1 S1                 0.0000
     25 ****        -3.6937  -1.7913   1.8324 C.3            1 S1                 0.0000
     26 ****        -3.3952  -3.0881   2.6069 C.3            1 S1                 0.0000
     27 ****        -3.5689  -2.2980   3.9055 C.3            1 S1                 0.0000
     28 ****        -3.2681  -1.0305   3.1026 C.3            1 S1                 0.0000
     29 ****        -7.9048  -3.2449   0.9876 H              1 S1                 0.0000
     30 ****        -7.1810  -2.2333  -0.2624 H              1 S1                 0.0000
     31 ****        -7.7294  -1.5112   1.2604 H              1 S1                 0.0000
     32 ****        -5.4995  -0.5842   1.4922 H              1 S1                 0.0000
     33 ****        -4.6469  -2.4384  -0.7670 H              1 S1                 0.0000
     34 ****        -4.6694  -0.6425  -0.7804 H              1 S1                 0.0000
     35 ****        -2.5001  -2.4431   0.1060 H              1 S1                 0.0000
     36 ****        -2.3313   1.6230   1.1825 H              1 S1                 0.0000
     37 ****        -3.9157   0.9216   0.9326 H              1 S1                 0.0000
     38 ****        -3.0084   1.5217  -0.4491 H              1 S1                 0.0000
     39 ****         1.3454  -2.3690   1.6625 H              1 S1                 0.0000
     40 ****         1.1391   3.2583  -1.4567 H              1 S1                 0.0000
     41 ****         3.5316   2.8832  -0.3395 H              1 S1                 0.0000
     42 ****         3.8747   1.3084   0.3353 H              1 S1                 0.0000
     43 ****         3.5234   1.9140  -2.6535 H              1 S1                 0.0000
     44 ****         4.1887  -0.4720  -1.3100 H              1 S1                 0.0000
     45 ****         6.0359   1.1601  -1.0625 H              1 S1                 0.0000
     46 ****         6.4454   0.2166  -3.2637 H              1 S1                 0.0000
     47 ****         5.5665   1.5322  -4.0534 H              1 S1                 0.0000
     48 ****         8.1889   1.7368  -2.5374 H              1 S1                 0.0000
     49 ****         7.8652   2.3078  -4.1794 H              1 S1                 0.0000
     50 ****         7.6283   3.9949  -2.0173 H              1 S1                 0.0000
     51 ****         6.5005   4.1107  -3.3705 H              1 S1                 0.0000
     52 ****        -4.1062  -3.9025   2.4684 H              1 S1                 0.0000
     53 ****        -2.3690  -3.4319   2.4656 H              1 S1                 0.0000
     54 ****        -4.5923  -2.3263   4.2832 H              1 S1                 0.0000
     55 ****        -2.8411  -2.5310   4.6831 H              1 S1                 0.0000
     56 ****        -2.2081  -0.7740   3.1195 H              1 S1                 0.0000
     57 ****        -3.8914  -0.1732   3.3579 H              1 S1                 0.0000
     58 ****        -5.5939  -3.4492   0.9764 LP             1 S1                 0.0000
     59 ****        -6.1023  -2.7765   2.3748 LP             1 S1                 0.0000
     60 ****        -0.9266  -2.1595   1.3794 LP             1 S1                 0.0000
     61 ****         2.8810  -0.7344   0.8926 LP             1 S1                 0.0000
     62 ****        -1.1188   2.2676  -1.0619 LP             1 S1                 0.0000
     63 ****         4.2266  -0.2928  -2.8903 LP             1 S1                 0.0000
     64 ****         2.8190  -0.1909  -2.0687 LP             1 S1                 0.0000
     65 ****         5.9933   3.2749  -0.8090 LP             1 S1                 0.0000
     66 ****         4.9625   3.5690  -2.0409 LP             1 S1                 0.0000
@<TRIPOS>BOND
    1    1    2 1     
    2    1   29 1     
    3    1   30 1     
    4    1   31 1     
    5    2    3 1     
    6    3   25 1     
    7    3    4 1     
    8    3   32 1     
    9    4    5 1     
   10    4   33 1     
   11    4   34 1     
   12    5    6 1     
   13    5   25 1     
   14    5   35 1     
   15    6    7 1     
   16    6    8 1     
   17    7   36 1     
   18    7   37 1     
   19    7   38 1     
   20    8   13 ar    
   21    8    9 ar    
   22    9   10 ar    
   23   10   11 ar    
   24   10   39 1     
   25   11   12 ar    
   26   12   16 1     
   27   12   13 ar    
   28   13   14 1     
   29   14   15 2     
   30   15   16 1     
   31   15   40 1     
   32   16   17 1     
   33   17   18 1     
   34   17   41 1     
   35   17   42 1     
   36   18   19 1     
   37   18   20 1     
   38   18   43 1     
   39   19   44 1     
   40   20   24 1     
   41   20   21 1     
   42   20   45 1     
   43   21   22 1     
   44   21   46 1     
   45   21   47 1     
   46   22   23 1     
   47   22   48 1     
   48   22   49 1     
   49   23   24 1     
   50   23   50 1     
   51   23   51 1     
   52   25   28 1     
   53   25   26 1     
   54   26   27 1     
   55   26   52 1     
   56   26   53 1     
   57   27   28 1     
   58   27   54 1     
   59   27   55 1     
   60   28   56 1     
   61   28   57 1     
   62    2   58 1     
   63    2   59 1     
   64    9   60 1     
   65   11   61 1     
   66   14   62 1     
   67   19   63 1     
   68   19   64 1     
   69   24   65 1     
   70   24   66 1     
@<TRIPOS>SUBSTRUCTURE
      1 S1             1
@<TRIPOS>SET
LONE_PAIRS      STATIC     ATOMS    <user>   **** ""
9 58 59 60 61 62 63 64 65 66
DONOR_HYDROGENS      STATIC     ATOMS    <user>   **** ""
1 44
ATOM$BLUE        STATIC     ATOMS    COLORGROUP SYSTEM
9 58 59 60 61 62 63 64 65 66
ATOM$RED        STATIC     ATOMS    COLORGROUP SYSTEM
1 44
