AV-unprocessed.smi:197|AV-procd|sdf|1547|dock4
  -GOLD-   2262019413D 1   1.00000     0.00000
 Structure written by MMmdl.
 54 57  0  0  0  0  0  0  0  0  1 V2000
  151.8287  145.2854  159.9209 C   0  0  0  0  0  0  0  0  0  0  0  0
  151.9535  144.1275  160.7273 O   0  0  0  0  0  0  0  0  0  0  0  0
  153.0555  143.3182  160.3509 C   0  0  0  0  0  0  0  0  0  0  0  0
  152.5821  141.8682  160.1678 C   0  0  0  0  0  0  0  0  0  0  0  0
  153.6051  140.9407  159.4579 C   0  0  1  0  0  0  0  0  0  0  0  0
  154.9477  140.9146  160.2285 C   0  0  0  0  0  0  0  0  0  0  0  0
  155.8642  140.0119  159.6215 O   0  0  0  0  0  0  0  0  0  0  0  0
  155.3747  138.6790  159.6334 C   0  0  0  0  0  0  0  0  0  0  0  0
  154.0865  138.6205  158.8045 C   0  0  0  0  0  0  0  0  0  0  0  0
  153.1006  139.5660  159.3192 N   0  0  0  0  0  0  0  0  0  0  0  0
  151.9231  139.3899  158.6719 C   0  0  0  0  0  0  0  0  0  0  0  0
  151.2137  138.2407  158.8325 N   0  0  0  0  0  0  0  0  0  0  0  0
  150.0414  138.0852  158.2100 C   0  0  0  0  0  0  0  0  0  0  0  0
  149.4027  138.9390  157.4069 N   0  0  0  0  0  0  0  0  0  0  0  0
  150.1068  140.0975  157.2548 C   0  0  0  0  0  0  0  0  0  0  0  0
  151.3644  140.4015  157.8463 C   0  0  0  0  0  0  0  0  0  0  0  0
  151.7772  141.6716  157.4656 N   0  0  0  0  0  0  0  0  0  0  0  0
  150.8145  142.0975  156.6937 C   0  0  0  0  0  0  0  0  0  0  0  0
  149.7679  141.2195  156.5191 N   0  0  0  0  0  0  0  0  0  0  0  0
  148.5684  141.4398  155.7262 C   0  0  0  0  0  0  0  0  0  0  0  0
  148.6445  140.8072  154.3162 C   0  0  2  0  0  0  0  0  0  0  0  0
  149.6714  141.4596  153.5851 O   0  0  0  0  0  0  0  0  0  0  0  0
  147.3507  140.9019  153.5210 C   0  0  0  0  0  0  0  0  0  0  0  0
  147.4922  139.7591  152.5235 C   0  0  0  0  0  0  0  0  0  0  0  0
  148.1598  138.7296  153.2421 O   0  0  0  0  0  0  0  0  0  0  0  0
  148.8790  139.2807  154.3451 C   0  0  1  0  0  0  0  0  0  0  0  0
  150.3419  138.8087  154.3392 C   0  0  0  0  0  0  0  0  0  0  0  0
  150.9723  145.8722  160.2528 H   0  0  0  0  0  0  0  0  0  0  0  0
  151.6706  145.0212  158.8745 H   0  0  0  0  0  0  0  0  0  0  0  0
  152.7167  145.9147  159.9938 H   0  0  0  0  0  0  0  0  0  0  0  0
  153.5217  143.6995  159.4422 H   0  0  0  0  0  0  0  0  0  0  0  0
  153.8152  143.3528  161.1332 H   0  0  0  0  0  0  0  0  0  0  0  0
  152.3308  141.4477  161.1422 H   0  0  0  0  0  0  0  0  0  0  0  0
  151.6440  141.9067  159.6148 H   0  0  0  0  0  0  0  0  0  0  0  0
  153.7997  141.3265  158.4561 H   0  0  0  0  0  0  0  0  0  0  0  0
  155.4126  141.8996  160.2282 H   0  0  0  0  0  0  0  0  0  0  0  0
  154.7943  140.6364  161.2727 H   0  0  0  0  0  0  0  0  0  0  0  0
  156.1283  138.0183  159.2046 H   0  0  0  0  0  0  0  0  0  0  0  0
  155.1991  138.3452  160.6575 H   0  0  0  0  0  0  0  0  0  0  0  0
  154.3064  138.8572  157.7622 H   0  0  0  0  0  0  0  0  0  0  0  0
  153.6871  137.6052  158.8257 H   0  0  0  0  0  0  0  0  0  0  0  0
  149.5423  137.1433  158.3832 H   0  0  0  0  0  0  0  0  0  0  0  0
  150.8373  143.0747  156.2333 H   0  0  0  0  0  0  0  0  0  0  0  0
  147.7136  141.0428  156.2756 H   0  0  0  0  0  0  0  0  0  0  0  0
  148.4076  142.5159  155.6492 H   0  0  0  0  0  0  0  0  0  0  0  0
  149.7154  141.0753  152.7230 H   0  0  0  0  0  0  0  0  0  0  0  0
  146.4959  140.7053  154.1693 H   0  0  0  0  0  0  0  0  0  0  0  0
  147.1947  141.8713  153.0454 H   0  0  0  0  0  0  0  0  0  0  0  0
  146.5325  139.4189  152.1344 H   0  0  0  0  0  0  0  0  0  0  0  0
  148.1135  140.0620  151.6796 H   0  0  0  0  0  0  0  0  0  0  0  0
  148.3958  138.8729  155.2339 H   0  0  0  0  0  0  0  0  0  0  0  0
  150.8945  139.2340  155.1773 H   0  0  0  0  0  0  0  0  0  0  0  0
  150.8532  139.0893  153.4180 H   0  0  0  0  0  0  0  0  0  0  0  0
  150.3960  137.7233  154.4235 H   0  0  0  0  0  0  0  0  0  0  0  0
  1  2  1  0  0  0  0
  1 28  1  0  0  0  0
  1 29  1  0  0  0  0
  1 30  1  0  0  0  0
  2  3  1  0  0  0  0
  3  4  1  0  0  0  0
  3 31  1  0  0  0  0
  3 32  1  0  0  0  0
  4  5  1  0  0  0  0
  4 33  1  0  0  0  0
  4 34  1  0  0  0  0
  5 10  1  0  0  0  0
  5  6  1  0  0  0  0
  5 35  1  0  0  0  0
  6  7  1  0  0  0  0
  6 36  1  0  0  0  0
  6 37  1  0  0  0  0
  7  8  1  0  0  0  0
  8  9  1  0  0  0  0
  8 38  1  0  0  0  0
  8 39  1  0  0  0  0
  9 10  1  0  0  0  0
  9 40  1  0  0  0  0
  9 41  1  0  0  0  0
 10 11  1  0  0  0  0
 11 16  1  0  0  0  0
 11 12  2  0  0  0  0
 12 13  1  0  0  0  0
 13 14  2  0  0  0  0
 13 42  1  0  0  0  0
 14 15  1  0  0  0  0
 15 19  1  0  0  0  0
 15 16  2  0  0  0  0
 16 17  1  0  0  0  0
 17 18  2  0  0  0  0
 18 19  1  0  0  0  0
 18 43  1  0  0  0  0
 19 20  1  0  0  0  0
 20 21  1  0  0  0  0
 20 44  1  0  0  0  0
 20 45  1  0  0  0  0
 21 26  1  0  0  0  0
 21 22  1  0  0  0  0
 21 23  1  0  0  0  0
 22 46  1  0  0  0  0
 23 24  1  0  0  0  0
 23 47  1  0  0  0  0
 23 48  1  0  0  0  0
 24 25  1  0  0  0  0
 24 49  1  0  0  0  0
 24 50  1  0  0  0  0
 25 26  1  0  0  0  0
 26 27  1  0  0  0  0
 26 51  1  0  0  0  0
 27 52  1  0  0  0  0
 27 53  1  0  0  0  0
 27 54  1  0  0  0  0
M  END
> <s_m_source_file>
AV-unprocessed.smi

> <i_m_source_file_index>
197

> <i_lp_mmshare_version>
43012

> <i_f3d_flags>
0

> <s_epik_input>
W0NIM11PW0NIMl1bQ0gyXVtDQEBIXTFbQ0gyXU9bQ0gyXVtDSDJdTjFjKG5bY0hdbjIpYyhjMjMpbltjSF1uM1tDSDJdW0NAQF00KFtPSF0pW0NIMl1bQ0gyXU9bQ0BIXTRbQ0gzXQ==

> <s_epik_cmdline>
J2VwaWtfcHl0aG9uJywgJy1waCcsICc3LjAnLCAnLXRuJywgJzgnLCAnLW1hJywgJzIwMCcsICctbWV0YWxfYmluZGluZycsICctaW1hZScsICc8aW5maWxlLm1hZT4nLCAnLW9tYWUnLCAnPG91dGZpbGUubWFlPic=

> <r_lp_tautomer_probability>
1

> <r_epik_Ionization_Penalty>
0.000106218

> <r_epik_Ionization_Penalty_Charging>
0

> <r_epik_Ionization_Penalty_Neutral>
0.000106218

> <r_epik_State_Penalty>
-0

> <r_epik_Charging_Adjusted_Penalty>
0

> <i_epik_Tot_Q>
0

> <i_epik_Tot_abs_Q>
0

> <r_epik_Metal_State_Penalty>
-0

> <b_epik_Metal_Only>
0

> <s_lp_Force_Field>
OPLS_2005

> <r_lp_Energy>
42.2665

> <b_lp_Chiralities_Consistent>
1

> <s_lp_Variant>
AV-unprocessed.smi:197-4

> <Gold.Version>
5.8.1

> <Gold.Id.Protein>
6NUR|6NUR_protein|mol2

> <Gold.PLP.Fitness>
51.4347

> <Gold.PLP.PLP>
-43.9090

> <Gold.PLP.part.hbond>
-3.9780

> <Gold.PLP.part.metal>
0.0000

> <Gold.PLP.part.buried>
-4.6415

> <Gold.PLP.part.nonpolar>
-36.6801

> <Gold.PLP.part.repulsive>
0.6408

> <Gold.PLP.ligand.clash>
0.0000

> <Gold.PLP.ligand.torsion>
1.0012

> <Gold.PLP.Chemscore.Hbond>
2.0099

> <Gold.PLP.Chemscore.CHOScore>
1.0000

> <Gold.PLP.Chemscore.Metal>
0.0000

> <Gold.Chemscore.Hbonds>
donor molecule, donor type, donor heavy atom, donor atom, acceptor molecule, acceptor atom, score
      L1  H    22    46       P1  7957  1.00
      P1  H  7997  8010       L1     7  0.17
      L1  C    18    43       P1  8028  0.81

> <Gold.PLP.Chemscore.Internal.Correction>
0.4984

> <Gold.Rescore>
     Score         DG    S(hbond)    S(metal)    S(lipo)     H(rot)  DE(clash)    DE(int)     intcor
     11.68     -14.57       1.48        0.00      97.36       2.84       0.14       2.75       ----

> <Gold.Chemscore.Fitness>
11.6795

> <Gold.Chemscore.DG>
-14.5696

> <Gold.Chemscore.ZeroCoef>
-5.4800

> <Gold.Chemscore.Hbond>
1.4845

> <Gold.Chemscore.Metal>
0.0000

> <Gold.Chemscore.Lipo>
97.3578

> <Gold.Chemscore.Internal_Hbond>
0.0000

> <Gold.Chemscore.DEClash>
0.1383

> <Gold.Chemscore.DEInternal>
2.7519

> <Gold.Chemscore.Rot>
2.8358

> <Gold.Chemscore.Internal.Correction>
   9.000000E+99

> <Gold.Chemscore.Hbonds>
donor molecule, donor type, donor heavy atom, donor atom, acceptor molecule, acceptor atom, score
      L1  H    22    46       P1  7957  1.00
      P1  H  7997  8010       L1     7  0.01

> <Gold.Chemscore.Hbond.Weighted>
-4.9583

> <Gold.Chemscore.Metal.Weighted>
-0.0000

> <Gold.Chemscore.Lipo.Weighted>
-11.3909

> <Gold.Chemscore.Internal_Hbond.Weighted>
0.0000

> <Gold.Chemscore.DEClash.Weighted>
0.1383

> <Gold.Chemscore.DEInternal.Weighted>
2.7519

> <Gold.Chemscore.Rot.Weighted>
7.2596

> <Gold.Chemscore.Internal.Correction.Weighted>
   9.000000E+99

> <Gold.Protein.RotatedTorsions>
[ 6907 6896 6895 6894 ] final -139.31 input  -60.11 | X-H torsion
[ 7974 7965 7964 7962 ] final -175.34 input  175.53 | X-H torsion
[ 8008 7997 7996 7995 ] final  -29.17 input   59.86 | X-H torsion
[ 10167 10162 10161 10158 ] final  147.84 input  -65.29 | X-H torsion
[ 10718 10713 10712 10709 ] final   82.24 input   66.30 | X-H torsion
[ 10763 10752 10751 10750 ] final -156.75 input  -60.55 | X-H torsion
[ 11005 11000 10999 10996 ] final -148.61 input  -57.11 | X-H torsion

> <Gold.Protein.ActiveResidues>
 VAL166  LYS551  ARG553  GLY616  TRP617  ASP618  TYR619  PRO620  LYS621  CYS622 
 ASP623  PHE694  ASN695  SER759  ASP760  ASP761  ALA762  ILE779  LEU786  VAL792 
 PHE793  MET794  SER795  GLU796  ALA797  LYS798  CYS799  TRP800  GLU811  SER814 

> <Gold.Protein.RotatedAtoms>
  151.0462  133.5663  159.2646 H   0  0  0  0  0  0  0  0  0  0  0  0  # atno 6907 bound_to 6896
  151.2691  135.0678  159.9137 H   0  0  0  0  0  0  0  0  0  0  0  0  # atno 6908 bound_to 6896
  152.5373  134.0195  159.8029 H   0  0  0  0  0  0  0  0  0  0  0  0  # atno 6909 bound_to 6896
  144.7128  140.1336  143.6397 H   0  0  0  0  0  0  0  0  0  0  0  0  # atno 7974 bound_to 7965
  154.4301  140.1825  156.1205 H   0  0  0  0  0  0  0  0  0  0  0  0  # atno 8008 bound_to 7997
  156.0147  140.3347  155.6951 H   0  0  0  0  0  0  0  0  0  0  0  0  # atno 8009 bound_to 7997
  155.6061  140.0645  157.2710 H   0  0  0  0  0  0  0  0  0  0  0  0  # atno 8010 bound_to 7997
  139.4884  144.5725  151.7029 H   0  0  0  0  0  0  0  0  0  0  0  0  # atno 10167 bound_to 10162
  157.6852  131.0039  150.2345 H   0  0  0  0  0  0  0  0  0  0  0  0  # atno 10718 bound_to 10713
  154.7689  135.3139  154.8230 H   0  0  0  0  0  0  0  0  0  0  0  0  # atno 10763 bound_to 10752
  153.8971  135.6819  153.4761 H   0  0  0  0  0  0  0  0  0  0  0  0  # atno 10764 bound_to 10752
  153.1299  135.4785  154.9266 H   0  0  0  0  0  0  0  0  0  0  0  0  # atno 10765 bound_to 10752
  140.7594  134.3315  157.5105 H   0  0  0  0  0  0  0  0  0  0  0  0  # atno 11005 bound_to 11000
  145.9265  139.2578  143.1350 LP  0  0  0  0  0  0  0  0  0  0  0  0  # atno 17320 bound_to 7965
  145.9567  140.8867  143.0231 LP  0  0  0  0  0  0  0  0  0  0  0  0  # atno 17321 bound_to 7965
  140.5314  144.0724  150.6055 LP  0  0  0  0  0  0  0  0  0  0  0  0  # atno 17342 bound_to 10162
  140.3715  143.2852  152.0272 LP  0  0  0  0  0  0  0  0  0  0  0  0  # atno 17343 bound_to 10162
  156.2971  130.3753  149.7786 LP  0  0  0  0  0  0  0  0  0  0  0  0  # atno 17370 bound_to 10713
  156.5427  130.8307  151.3274 LP  0  0  0  0  0  0  0  0  0  0  0  0  # atno 17371 bound_to 10713
  139.8773  134.9192  156.3222 LP  0  0  0  0  0  0  0  0  0  0  0  0  # atno 17394 bound_to 11000
  140.9677  133.7347  156.0490 LP  0  0  0  0  0  0  0  0  0  0  0  0  # atno 17395 bound_to 11000

$$$$
