#       Name:                AV-unprocessed.smi:2733
#       Creating user name   scv26
#       Creation time:       Fri Mar 27 14:58:15 2020


#       File generated by GOLD software.
#

@<TRIPOS>MOLECULE
AV-unprocessed.smi:2733
    49    50     1
SMALL
NO_CHARGES


@<TRIPOS>ATOM
      1 ****        -5.8821   0.7393   2.3848 C.2            1 S1                 0.0000
      2 ****        -5.0251   0.2332   3.2868 C.2            1 S1                 0.0000
      3 ****        -4.4608   1.0752   4.4164 C.3            1 S1                 0.0000
      4 ****        -4.5733  -1.2190   3.2392 C.3            1 S1                 0.0000
      5 ****        -3.1233  -1.3473   3.1376 N.am           1 S1                 0.0000
      6 ****        -2.4133  -1.1480   2.0181 C.2            1 S1                 0.0000
      7 ****        -2.9209  -0.8410   0.9395 O.2            1 S1                 0.0000
      8 ****        -1.0975  -1.3064   2.2418 N.am           1 S1                 0.0000
      9 ****        -0.0224  -1.1650   1.3236 C.ar           1 S1                 0.0000
     10 ****        -0.1535  -1.2822  -0.0806 C.ar           1 S1                 0.0000
     11 ****         0.9920  -1.1335  -0.8849 C.ar           1 S1                 0.0000
     12 ****         2.2329  -0.8713  -0.2627 C.ar           1 S1                 0.0000
     13 ****         3.4797  -0.7196  -1.0843 C.2            1 S1                 0.0000
     14 ****         4.3810  -1.5469  -0.9420 O.2            1 S1                 0.0000
     15 ****         3.5570   0.3205  -1.9531 N.am           1 S1                 0.0000
     16 ****         2.5951   1.4284  -2.0682 C.3            1 S1                 0.0000
     17 ****         1.9361   1.3877  -3.4591 C.3            1 S1                 0.0000
     18 ****         2.9991   1.4265  -4.5718 C.3            1 S1                 0.0000
     19 ****         4.0962   0.3709  -4.3427 C.3            1 S1                 0.0000
     20 ****         4.6607   0.4606  -2.9130 C.3            1 S1                 0.0000
     21 ****         2.3690  -0.7878   1.0797 N.ar           1 S1                 0.0000
     22 ****         1.2669  -0.9321   1.8452 C.ar           1 S1                 0.0000
     23 ****        -6.1991   1.7710   2.4287 H              1 S1                 0.0000
     24 ****        -6.2790   0.1294   1.5865 H              1 S1                 0.0000
     25 ****        -4.7042   0.6263   5.3796 H              1 S1                 0.0000
     26 ****        -4.8696   2.0860   4.4011 H              1 S1                 0.0000
     27 ****        -3.3763   1.1512   4.3359 H              1 S1                 0.0000
     28 ****        -4.9000  -1.7164   4.1526 H              1 S1                 0.0000
     29 ****        -5.0529  -1.7444   2.4112 H              1 S1                 0.0000
     30 ****        -2.6269  -1.5950   3.9810 H              1 S1                 0.0000
     31 ****        -0.8281  -1.4816   3.1989 H              1 S1                 0.0000
     32 ****        -1.0988  -1.4971  -0.5542 H              1 S1                 0.0000
     33 ****         0.9168  -1.2256  -1.9585 H              1 S1                 0.0000
     34 ****         1.8318   1.4289  -1.2909 H              1 S1                 0.0000
     35 ****         3.1284   2.3716  -1.9420 H              1 S1                 0.0000
     36 ****         1.3386   0.4811  -3.5577 H              1 S1                 0.0000
     37 ****         1.2473   2.2253  -3.5725 H              1 S1                 0.0000
     38 ****         2.5312   1.2802  -5.5458 H              1 S1                 0.0000
     39 ****         3.4565   2.4165  -4.5944 H              1 S1                 0.0000
     40 ****         3.6845  -0.6256  -4.5085 H              1 S1                 0.0000
     41 ****         4.8966   0.5006  -5.0716 H              1 S1                 0.0000
     42 ****         5.1524   1.4225  -2.7609 H              1 S1                 0.0000
     43 ****         5.4366  -0.2948  -2.7825 H              1 S1                 0.0000
     44 ****         1.4208  -0.8530   2.9116 H              1 S1                 0.0000
     45 ****        -3.9119  -0.7281   0.8674 LP             1 S1                 0.0000
     46 ****        -2.3423  -0.7045   0.1355 LP             1 S1                 0.0000
     47 ****         4.2722  -2.2978  -0.2906 LP             1 S1                 0.0000
     48 ****         5.2216  -1.4676  -1.4778 LP             1 S1                 0.0000
     49 ****         3.2637  -0.6233   1.4951 LP             1 S1                 0.0000
@<TRIPOS>BOND
    1    1    2 2     
    2    1   23 1     
    3    1   24 1     
    4    2    3 1     
    5    2    4 1     
    6    3   25 1     
    7    3   26 1     
    8    3   27 1     
    9    4    5 1     
   10    4   28 1     
   11    4   29 1     
   12    5    6 am    
   13    5   30 1     
   14    6    7 2     
   15    6    8 am    
   16    8    9 1     
   17    8   31 1     
   18    9   22 ar    
   19    9   10 ar    
   20   10   11 ar    
   21   10   32 1     
   22   11   12 ar    
   23   11   33 1     
   24   12   13 1     
   25   12   21 ar    
   26   13   14 2     
   27   13   15 am    
   28   15   20 1     
   29   15   16 1     
   30   16   17 1     
   31   16   34 1     
   32   16   35 1     
   33   17   18 1     
   34   17   36 1     
   35   17   37 1     
   36   18   19 1     
   37   18   38 1     
   38   18   39 1     
   39   19   20 1     
   40   19   40 1     
   41   19   41 1     
   42   20   42 1     
   43   20   43 1     
   44   21   22 ar    
   45   22   44 1     
   46    7   45 1     
   47    7   46 1     
   48   14   47 1     
   49   14   48 1     
   50   21   49 1     
@<TRIPOS>SUBSTRUCTURE
      1 S1             1
@<TRIPOS>SET
LONE_PAIRS      STATIC     ATOMS    <user>   **** ""
5 45 46 47 48 49
DONOR_HYDROGENS      STATIC     ATOMS    <user>   **** ""
2 30 31
ATOM$BLUE        STATIC     ATOMS    COLORGROUP SYSTEM
5 45 46 47 48 49
ATOM$RED        STATIC     ATOMS    COLORGROUP SYSTEM
2 30 31
