AV-unprocessed.smi:1378|AV-procd|sdf|5596|dock1
  -GOLD-   22720 5203D 1   1.00000     0.00000
 Structure written by MMmdl.
 46 48  0  0  0  0  0  0  0  0  1 V2000
  150.2215  137.5078  158.7027 C   0  0  0  0  0  0  0  0  0  0  0  0
  151.4952  136.9486  158.9689 O   0  0  0  0  0  0  0  0  0  0  0  0
  152.5187  137.9286  159.0326 C   0  0  0  0  0  0  0  0  0  0  0  0
  153.0635  138.1949  157.6231 C   0  0  0  0  0  0  0  0  0  0  0  0
  152.3385  139.2635  156.9527 N   0  0  0  0  0  0  0  0  0  0  0  0
  151.8370  139.2665  155.6939 C   0  0  0  0  0  0  0  0  0  0  0  0
  151.9769  137.8674  154.6294 S   0  0  0  0  0  0  0  0  0  0  0  0
  150.2099  137.4529  154.4998 C   0  0  0  0  0  0  0  0  0  0  0  0
  149.8616  136.1206  155.1647 C   0  0  0  0  0  0  0  0  0  0  0  0
  150.1001  135.9455  156.3590 O   0  0  0  0  0  0  0  0  0  0  0  0
  149.2701  135.2048  154.3825 N   0  0  0  0  0  0  0  0  0  0  0  0
  148.7435  133.9185  154.8257 C   0  0  0  0  0  0  0  0  0  0  0  0
  149.7194  133.2199  155.7907 C   0  0  0  0  0  0  0  0  0  0  0  0
  150.3354  132.0663  154.9988 C   0  0  0  0  0  0  0  0  0  0  0  0
  149.2332  131.6497  154.0299 C   0  0  0  0  0  0  0  0  0  0  0  0
  148.5670  132.9661  153.6270 C   0  0  0  0  0  0  0  0  0  0  0  0
  151.1998  140.3784  155.3269 N   0  0  0  0  0  0  0  0  0  0  0  0
  151.2948  141.1693  156.4551 C   0  0  0  0  0  0  0  0  0  0  0  0
  150.8055  142.4707  156.7082 C   0  0  0  0  0  0  0  0  0  0  0  0
  151.0216  143.0832  157.9600 C   0  0  0  0  0  0  0  0  0  0  0  0
  151.7292  142.4057  158.9739 C   0  0  0  0  0  0  0  0  0  0  0  0
  152.2253  141.1085  158.7424 C   0  0  0  0  0  0  0  0  0  0  0  0
  152.0043  140.5008  157.4922 C   0  0  0  0  0  0  0  0  0  0  0  0
  149.4740  136.7153  158.6709 H   0  0  0  0  0  0  0  0  0  0  0  0
  150.2097  138.0204  157.7401 H   0  0  0  0  0  0  0  0  0  0  0  0
  149.9302  138.2148  159.4806 H   0  0  0  0  0  0  0  0  0  0  0  0
  152.1260  138.8519  159.4618 H   0  0  0  0  0  0  0  0  0  0  0  0
  153.3251  137.5842  159.6814 H   0  0  0  0  0  0  0  0  0  0  0  0
  154.1234  138.4472  157.6630 H   0  0  0  0  0  0  0  0  0  0  0  0
  152.9912  137.2913  157.0174 H   0  0  0  0  0  0  0  0  0  0  0  0
  149.6154  138.2574  154.9345 H   0  0  0  0  0  0  0  0  0  0  0  0
  149.9431  137.4025  153.4439 H   0  0  0  0  0  0  0  0  0  0  0  0
  149.1238  135.4417  153.4118 H   0  0  0  0  0  0  0  0  0  0  0  0
  147.7801  134.0575  155.3196 H   0  0  0  0  0  0  0  0  0  0  0  0
  150.4780  133.8879  156.2006 H   0  0  0  0  0  0  0  0  0  0  0  0
  149.1596  132.8163  156.6354 H   0  0  0  0  0  0  0  0  0  0  0  0
  151.2004  132.4248  154.4394 H   0  0  0  0  0  0  0  0  0  0  0  0
  150.6661  131.2468  155.6374 H   0  0  0  0  0  0  0  0  0  0  0  0
  149.6137  131.0925  153.1732 H   0  0  0  0  0  0  0  0  0  0  0  0
  148.5119  131.0156  154.5468 H   0  0  0  0  0  0  0  0  0  0  0  0
  147.5186  132.8287  153.3604 H   0  0  0  0  0  0  0  0  0  0  0  0
  149.0719  133.3595  152.7432 H   0  0  0  0  0  0  0  0  0  0  0  0
  150.2618  142.9982  155.9385 H   0  0  0  0  0  0  0  0  0  0  0  0
  150.6435  144.0783  158.1428 H   0  0  0  0  0  0  0  0  0  0  0  0
  151.8913  142.8827  159.9294 H   0  0  0  0  0  0  0  0  0  0  0  0
  152.7688  140.5867  159.5161 H   0  0  0  0  0  0  0  0  0  0  0  0
  1  2  1  0  0  0  0
  1 24  1  0  0  0  0
  1 25  1  0  0  0  0
  1 26  1  0  0  0  0
  2  3  1  0  0  0  0
  3  4  1  0  0  0  0
  3 27  1  0  0  0  0
  3 28  1  0  0  0  0
  4  5  1  0  0  0  0
  4 29  1  0  0  0  0
  4 30  1  0  0  0  0
  5 23  1  0  0  0  0
  5  6  1  0  0  0  0
  6  7  1  0  0  0  0
  6 17  2  0  0  0  0
  7  8  1  0  0  0  0
  8  9  1  0  0  0  0
  8 31  1  0  0  0  0
  8 32  1  0  0  0  0
  9 10  2  0  0  0  0
  9 11  1  0  0  0  0
 11 12  1  0  0  0  0
 11 33  1  0  0  0  0
 12 16  1  0  0  0  0
 12 13  1  0  0  0  0
 12 34  1  0  0  0  0
 13 14  1  0  0  0  0
 13 35  1  0  0  0  0
 13 36  1  0  0  0  0
 14 15  1  0  0  0  0
 14 37  1  0  0  0  0
 14 38  1  0  0  0  0
 15 16  1  0  0  0  0
 15 39  1  0  0  0  0
 15 40  1  0  0  0  0
 16 41  1  0  0  0  0
 16 42  1  0  0  0  0
 17 18  1  0  0  0  0
 18 23  2  0  0  0  0
 18 19  1  0  0  0  0
 19 20  2  0  0  0  0
 19 43  1  0  0  0  0
 20 21  1  0  0  0  0
 20 44  1  0  0  0  0
 21 22  2  0  0  0  0
 21 45  1  0  0  0  0
 22 23  1  0  0  0  0
 22 46  1  0  0  0  0
M  END
> <s_m_source_file>
AV-unprocessed.smi

> <i_m_source_file_index>
1378

> <i_lp_mmshare_version>
43012

> <i_f3d_flags>
0

> <s_epik_input>
W2NIXTFbY0hdW2NIXVtjSF1jKGMxMiluKFtDSDJdW0NIMl1PW0NIM10pYyhuMilTW0NIMl1DKD1PKVtOSF1bQ0hdM1tDSDJdW0NIMl1bQ0gyXVtDSDJdMw==

> <s_epik_cmdline>
J2VwaWtfcHl0aG9uJywgJy1waCcsICc3LjAnLCAnLXRuJywgJzgnLCAnLW1hJywgJzIwMCcsICctbWV0YWxfYmluZGluZycsICctaW1hZScsICc8aW5maWxlLm1hZT4nLCAnLW9tYWUnLCAnPG91dGZpbGUubWFlPic=

> <r_epik_Ionization_Penalty>
0.0369383

> <r_epik_Ionization_Penalty_Charging>
0

> <r_epik_Ionization_Penalty_Neutral>
0.0369383

> <r_epik_State_Penalty>
0.0308874

> <r_epik_Charging_Adjusted_Penalty>
0.0308874

> <i_epik_Tot_Q>
0

> <i_epik_Tot_abs_Q>
0

> <r_epik_Metal_State_Penalty>
0.0290628

> <b_epik_Metal_Only>
0

> <s_lp_Force_Field>
OPLS_2005

> <r_lp_Energy>
18.5214

> <b_lp_Chiralities_Consistent>
1

> <s_lp_Variant>
AV-unprocessed.smi:1378-1

> <Gold.Version>
5.8.1

> <Gold.Id.Protein>
6NUR|6NUR_protein|mol2

> <Gold.PLP.Fitness>
46.7989

> <Gold.PLP.PLP>
-39.6173

> <Gold.PLP.part.hbond>
-3.0000

> <Gold.PLP.part.metal>
0.0000

> <Gold.PLP.part.buried>
-2.9793

> <Gold.PLP.part.nonpolar>
-33.9779

> <Gold.PLP.part.repulsive>
0.0651

> <Gold.PLP.ligand.clash>
0.0000

> <Gold.PLP.ligand.torsion>
1.1085

> <Gold.PLP.Chemscore.Hbond>
2.9920

> <Gold.PLP.Chemscore.CHOScore>
0.0000

> <Gold.PLP.Chemscore.Metal>
0.0000

> <Gold.Chemscore.Hbonds>
donor molecule, donor type, donor heavy atom, donor atom, acceptor molecule, acceptor atom, score
      L1  H    11    33       P1  7948  1.00
      P1  H  6896  6908       L1     2  0.99
      P1  H  7989  7998       L1    17  0.99

> <Gold.PLP.Chemscore.Internal.Correction>
0.4226

> <Gold.Rescore>
     Score         DG    S(hbond)    S(metal)    S(lipo)     H(rot)  DE(clash)    DE(int)     intcor
     18.85     -21.36       2.73        0.00     101.01       1.98       0.02       2.49       ----

> <Gold.Chemscore.Fitness>
18.8531

> <Gold.Chemscore.DG>
-21.3634

> <Gold.Chemscore.ZeroCoef>
-5.4800

> <Gold.Chemscore.Hbond>
2.7341

> <Gold.Chemscore.Metal>
0.0000

> <Gold.Chemscore.Lipo>
101.0128

> <Gold.Chemscore.Internal_Hbond>
0.0000

> <Gold.Chemscore.DEClash>
0.0228

> <Gold.Chemscore.DEInternal>
2.4875

> <Gold.Chemscore.Rot>
1.9792

> <Gold.Chemscore.Internal.Correction>
   9.000000E+99

> <Gold.Chemscore.Hbonds>
donor molecule, donor type, donor heavy atom, donor atom, acceptor molecule, acceptor atom, score
      L1  H    11    33       P1  7948  0.50
      P1  H  6896  6908       L1     2  0.74
      P1  H  7989  7998       L1    17  0.73

> <Gold.Chemscore.Hbond.Weighted>
-9.1318

> <Gold.Chemscore.Metal.Weighted>
-0.0000

> <Gold.Chemscore.Lipo.Weighted>
-11.8185

> <Gold.Chemscore.Internal_Hbond.Weighted>
0.0000

> <Gold.Chemscore.DEClash.Weighted>
0.0228

> <Gold.Chemscore.DEInternal.Weighted>
2.4875

> <Gold.Chemscore.Rot.Weighted>
5.0669

> <Gold.Chemscore.Internal.Correction.Weighted>
   9.000000E+99

> <Gold.Protein.RotatedTorsions>
[ 6907 6896 6895 6894 ] final -131.32 input  -60.11 | X-H torsion
[ 7974 7965 7964 7962 ] final    3.86 input  175.53 | X-H torsion
[ 8008 7997 7996 7995 ] final  -11.32 input   59.86 | X-H torsion
[ 10167 10162 10161 10158 ] final   26.63 input  -65.29 | X-H torsion
[ 10718 10713 10712 10709 ] final   44.39 input   66.30 | X-H torsion
[ 10763 10752 10751 10750 ] final -110.56 input  -60.55 | X-H torsion
[ 11005 11000 10999 10996 ] final  -13.23 input  -57.11 | X-H torsion

> <Gold.Protein.ActiveResidues>
 VAL166  LYS551  ARG553  GLY616  TRP617  ASP618  TYR619  PRO620  LYS621  CYS622 
 ASP623  PHE694  ASN695  SER759  ASP760  ASP761  ALA762  ILE779  LEU786  VAL792 
 PHE793  MET794  SER795  GLU796  ALA797  LYS798  CYS799  TRP800  GLU811  SER814 

> <Gold.Protein.RotatedAtoms>
  150.9496  133.6564  159.2774 H   0  0  0  0  0  0  0  0  0  0  0  0  # atno 6907 bound_to 6896
  151.3925  135.0957  159.9540 H   0  0  0  0  0  0  0  0  0  0  0  0  # atno 6908 bound_to 6896
  152.5104  133.9007  159.7494 H   0  0  0  0  0  0  0  0  0  0  0  0  # atno 6909 bound_to 6896
  146.2445  140.0622  142.8368 H   0  0  0  0  0  0  0  0  0  0  0  0  # atno 7974 bound_to 7965
  154.5475  140.2305  155.8539 H   0  0  0  0  0  0  0  0  0  0  0  0  # atno 8008 bound_to 7997
  156.1916  140.3075  155.9306 H   0  0  0  0  0  0  0  0  0  0  0  0  # atno 8009 bound_to 7997
  155.3136  140.0437  157.3026 H   0  0  0  0  0  0  0  0  0  0  0  0  # atno 8010 bound_to 7997
  140.5007  144.0320  150.6331 H   0  0  0  0  0  0  0  0  0  0  0  0  # atno 10167 bound_to 10162
  157.4263  130.7998  149.7561 H   0  0  0  0  0  0  0  0  0  0  0  0  # atno 10718 bound_to 10713
  154.8254  135.4560  154.0903 H   0  0  0  0  0  0  0  0  0  0  0  0  # atno 10763 bound_to 10752
  153.2222  135.6895  153.7993 H   0  0  0  0  0  0  0  0  0  0  0  0  # atno 10764 bound_to 10752
  153.7406  135.3313  155.3280 H   0  0  0  0  0  0  0  0  0  0  0  0  # atno 10765 bound_to 10752
  140.7740  133.8416  155.9232 H   0  0  0  0  0  0  0  0  0  0  0  0  # atno 11005 bound_to 11000
  145.0890  140.9272  143.4780 LP  0  0  0  0  0  0  0  0  0  0  0  0  # atno 17320 bound_to 7965
  145.0791  139.2973  143.5793 LP  0  0  0  0  0  0  0  0  0  0  0  0  # atno 17321 bound_to 7965
  140.3615  143.2905  152.0378 LP  0  0  0  0  0  0  0  0  0  0  0  0  # atno 17342 bound_to 10162
  139.4871  144.6299  151.7090 LP  0  0  0  0  0  0  0  0  0  0  0  0  # atno 17343 bound_to 10162
  155.9897  130.3949  150.3059 LP  0  0  0  0  0  0  0  0  0  0  0  0  # atno 17370 bound_to 10713
  157.1211  131.0247  151.3009 LP  0  0  0  0  0  0  0  0  0  0  0  0  # atno 17371 bound_to 10713
  140.9547  134.1733  157.4701 LP  0  0  0  0  0  0  0  0  0  0  0  0  # atno 17394 bound_to 11000
  139.8752  134.9922  156.5587 LP  0  0  0  0  0  0  0  0  0  0  0  0  # atno 17395 bound_to 11000

$$$$
