#       Name:                AV-unprocessed.smi:2554
#       Creating user name   scv26
#       Creation time:       Fri Mar 27 14:06:38 2020


#       File generated by GOLD software.
#

@<TRIPOS>MOLECULE
AV-unprocessed.smi:2554
    22    22     1
SMALL
NO_CHARGES


@<TRIPOS>ATOM
      1 ****        -1.3438  -2.1667  -0.4793 C.3            1 S1                 0.0000
      2 ****        -1.5877  -0.6893  -0.4888 C.2            1 S1                 0.0000
      3 ****        -2.8875  -0.1774  -0.5002 N.2            1 S1                 0.0000
      4 ****        -2.7194   1.1389  -0.4995 C.2            1 S1                 0.0000
      5 ****        -1.4353   1.5052  -0.4859 N.pl3          1 S1                 0.0000
      6 ****        -0.6755   0.3467  -0.4818 C.2            1 S1                 0.0000
      7 ****         0.8178   0.3509  -0.4567 C.3            1 S1                 0.0000
      8 ****         1.3887   0.3408   0.9673 C.3            1 S1                 0.0000
      9 ****         2.8609   0.3353   0.9559 N.4            1 S1                 1.0000
     10 ****        -1.0870   2.4532  -0.4843 H              1 S1                 0.0000
     11 ****        -0.2792  -2.4000  -0.4669 H              1 S1                 0.0000
     12 ****        -1.7744  -2.6412  -1.3613 H              1 S1                 0.0000
     13 ****        -1.7923  -2.6325   0.3982 H              1 S1                 0.0000
     14 ****        -3.5388   1.8427  -0.5072 H              1 S1                 0.0000
     15 ****         1.1837   1.2290  -0.9907 H              1 S1                 0.0000
     16 ****         1.1904  -0.5126  -1.0091 H              1 S1                 0.0000
     17 ****         1.0454   1.2157   1.5205 H              1 S1                 0.0000
     18 ****         1.0405  -0.5393   1.5088 H              1 S1                 0.0000
     19 ****         3.2050   0.3297   1.9057 H              1 S1                 0.0000
     20 ****         3.1983   1.1604   0.4809 H              1 S1                 0.0000
     21 ****         3.1912  -0.4889   0.4746 H              1 S1                 0.0000
     22 ****        -3.7481  -0.6867  -0.5073 LP             1 S1                 0.0000
@<TRIPOS>BOND
    1    1   11 1     
    2    1   12 1     
    3    1   13 1     
    4    1    2 1     
    5    2    6 2     
    6    2    3 1     
    7    3    4 2     
    8    4    5 1     
    9    4   14 1     
   10    5    6 1     
   11    5   10 1     
   12    6    7 1     
   13    7    8 1     
   14    7   15 1     
   15    7   16 1     
   16    8    9 1     
   17    8   17 1     
   18    8   18 1     
   19    9   19 1     
   20    9   20 1     
   21    9   21 1     
   22    3   22 1     
@<TRIPOS>SUBSTRUCTURE
      1 S1             1
@<TRIPOS>SET
LONE_PAIRS      STATIC     ATOMS    <user>   **** ""
1 22
DONOR_HYDROGENS      STATIC     ATOMS    <user>   **** ""
4 10 19 20 21
ATOM$BLUE        STATIC     ATOMS    COLORGROUP SYSTEM
1 22
ATOM$RED        STATIC     ATOMS    COLORGROUP SYSTEM
4 10 19 20 21
