#       Name:                AV-unprocessed.smi:107
#       Creating user name   scv26
#       Creation time:       Thu Mar 26 18:02:56 2020


#       File generated by GOLD software.
#

@<TRIPOS>MOLECULE
AV-unprocessed.smi:107
    41    42     1
SMALL
NO_CHARGES


@<TRIPOS>ATOM
      1 ****        -3.7654   1.4524  -0.1853 C.3            1 S1                 0.0000
      2 ****        -2.9815   0.1761  -0.4362 C.2            1 S1                 0.0000
      3 ****        -1.6336   0.1278  -0.3458 C.2            1 S1                 0.0000
      4 ****        -0.9253  -1.0388  -0.5731 N.am           1 S1                 0.0000
      5 ****         0.5784  -1.0650  -0.4402 C.3            1 S1                 0.0000
      6 ****         0.9962  -1.3623   0.9943 C.3            1 S1                 0.0000
      7 ****         2.3290  -0.6302   1.0973 C.3            1 S1                 0.0000
      8 ****         2.4013   0.0730   2.3239 O.3            1 S1                 0.0000
      9 ****         2.3939   0.2673  -0.1635 C.3            1 S1                 0.0000
     10 ****         2.7770   1.7413   0.0679 C.3            1 S1                 0.0000
     11 ****         3.1959   2.3311  -1.1447 O.3            1 S1                 0.0000
     12 ****         1.0870   0.1960  -0.7212 O.3            1 S1                 0.0000
     13 ****        -1.6216  -2.2364  -0.8787 C.2            1 S1                 0.0000
     14 ****        -0.9647  -3.2668  -1.0307 O.2            1 S1                 0.0000
     15 ****        -2.9809  -2.1955  -0.9819 N.pl3          1 S1                -1.0000
     16 ****        -3.7027  -1.0550  -0.7827 C.2            1 S1                 0.0000
     17 ****        -4.9293  -1.0321  -0.8813 O.2            1 S1                 0.0000
     18 ****        -3.1033   2.2820   0.0639 H              1 S1                 0.0000
     19 ****        -4.4613   1.3145   0.6428 H              1 S1                 0.0000
     20 ****        -4.3354   1.7300  -1.0724 H              1 S1                 0.0000
     21 ****        -1.0984   1.0276  -0.0804 H              1 S1                 0.0000
     22 ****         0.9651  -1.7759  -1.1729 H              1 S1                 0.0000
     23 ****         0.2571  -0.9387   1.6771 H              1 S1                 0.0000
     24 ****         1.0655  -2.4367   1.1668 H              1 S1                 0.0000
     25 ****         3.1511  -1.3465   1.0718 H              1 S1                 0.0000
     26 ****         3.2436   0.4977   2.3770 H              1 S1                 0.0000
     27 ****         3.0894  -0.1929  -0.8679 H              1 S1                 0.0000
     28 ****         1.9471   2.3034   0.4976 H              1 S1                 0.0000
     29 ****         3.6169   1.8150   0.7591 H              1 S1                 0.0000
     30 ****         3.4079   3.2371  -0.9803 H              1 S1                 0.0000
     31 ****         2.2973  -0.5663   3.0858 LP             1 S1                 0.0000
     32 ****         1.6747   0.7589   2.3628 LP             1 S1                 0.0000
     33 ****         2.4600   2.2740  -1.8194 LP             1 S1                 0.0000
     34 ****         4.0033   1.8533  -1.4909 LP             1 S1                 0.0000
     35 ****         0.5033   0.8978  -0.3128 LP             1 S1                 0.0000
     36 ****         1.1307   0.3333  -1.7108 LP             1 S1                 0.0000
     37 ****         0.0308  -3.2434  -0.9380 LP             1 S1                 0.0000
     38 ****        -1.4266  -4.1269  -1.2468 LP             1 S1                 0.0000
     39 ****        -3.4691  -3.0369  -1.2134 LP             1 S1                 0.0000
     40 ****        -5.4275  -0.1791  -0.7258 LP             1 S1                 0.0000
     41 ****        -5.4276  -1.8664  -1.1170 LP             1 S1                 0.0000
@<TRIPOS>BOND
    1    1    2 1     
    2    1   18 1     
    3    1   19 1     
    4    1   20 1     
    5    2   16 1     
    6    2    3 2     
    7    3    4 1     
    8    3   21 1     
    9    4    5 1     
   10    4   13 am    
   11    5   12 1     
   12    5    6 1     
   13    5   22 1     
   14    6    7 1     
   15    6   23 1     
   16    6   24 1     
   17    7    8 1     
   18    7    9 1     
   19    7   25 1     
   20    8   26 1     
   21    9   10 1     
   22    9   12 1     
   23    9   27 1     
   24   10   11 1     
   25   10   28 1     
   26   10   29 1     
   27   11   30 1     
   28   13   14 2     
   29   13   15 1     
   30   15   16 1     
   31   16   17 2     
   32    8   31 1     
   33    8   32 1     
   34   11   33 1     
   35   11   34 1     
   36   12   35 1     
   37   12   36 1     
   38   14   37 1     
   39   14   38 1     
   40   15   39 1     
   41   17   40 1     
   42   17   41 1     
@<TRIPOS>SUBSTRUCTURE
      1 S1             1
@<TRIPOS>SET
LONE_PAIRS      STATIC     ATOMS    <user>   **** ""
11 31 32 33 34 35 36 37 38 39 40 41
DONOR_HYDROGENS      STATIC     ATOMS    <user>   **** ""
2 26 30
ATOM$BLUE        STATIC     ATOMS    COLORGROUP SYSTEM
11 31 32 33 34 35 36 37 38 39 40 41
ATOM$RED        STATIC     ATOMS    COLORGROUP SYSTEM
2 26 30
