AV-unprocessed.smi:1634|AV-procd|sdf|6539|dock1
  -GOLD-   22720 7223D 1   1.00000     0.00000
 Structure written by MMmdl.
 37 37  0  0  0  0  0  0  0  0  2 V2000
  148.0693  139.0367  153.6686 C   0  0  0  0  0  0  0  0  0  0  0  0
  148.0837  140.2988  154.5458 C   0  0  0  0  0  0  0  0  0  0  0  0
  147.3094  141.4400  153.8702 C   0  0  0  0  0  0  0  0  0  0  0  0
  149.5183  140.7338  154.8850 C   0  0  0  0  0  0  0  0  0  0  0  0
  150.4386  139.9283  154.1555 O   0  0  0  0  0  0  0  0  0  0  0  0
  151.1573  138.9670  154.9245 C   0  0  1  0  0  0  0  0  0  0  0  0
  151.9238  138.0678  153.9436 C   0  0  0  0  0  0  0  0  0  0  0  0
  152.1143  139.6726  155.8988 C   0  0  0  0  0  0  0  0  0  0  0  0
  153.3069  139.7717  155.6096 O   0  0  0  0  0  0  0  0  0  0  0  0
  151.5471  140.1433  157.0265 N   0  0  0  0  0  0  0  0  0  0  0  0
  152.1219  140.9006  158.0606 C   0  0  0  0  0  0  0  0  0  0  0  0
  151.6305  142.0869  158.5137 C   0  0  0  0  0  0  0  0  0  0  0  0
  152.2520  142.8226  159.6071 C   0  0  0  0  0  0  0  0  0  0  0  0
  151.6830  144.1063  160.1855 C   0  0  0  0  0  0  0  0  0  0  0  0
  150.3596  144.0274  160.3263 F   0  0  0  0  0  0  0  0  0  0  0  0
  152.2157  144.3388  161.3842 F   0  0  0  0  0  0  0  0  0  0  0  0
  151.9607  145.1467  159.3995 F   0  0  0  0  0  0  0  0  0  0  0  0
  153.3486  142.1615  160.1262 C   0  0  0  0  0  0  0  0  0  0  0  0
  153.9021  140.9927  159.7340 N   0  5  0  0  0  0  0  0  0  0  0  0
  153.3161  140.3168  158.7054 C   0  0  0  0  0  0  0  0  0  0  0  0
  153.7589  139.2391  158.3067 O   0  0  0  0  0  0  0  0  0  0  0  0
  148.5727  139.2091  152.7168 H   0  0  0  0  0  0  0  0  0  0  0  0
  147.0485  138.7198  153.4530 H   0  0  0  0  0  0  0  0  0  0  0  0
  148.5713  138.2045  154.1628 H   0  0  0  0  0  0  0  0  0  0  0  0
  147.5744  140.0642  155.4814 H   0  0  0  0  0  0  0  0  0  0  0  0
  147.7701  141.7252  152.9239 H   0  0  0  0  0  0  0  0  0  0  0  0
  147.2793  142.3253  154.5057 H   0  0  0  0  0  0  0  0  0  0  0  0
  146.2791  141.1484  153.6645 H   0  0  0  0  0  0  0  0  0  0  0  0
  149.6441  141.7929  154.6567 H   0  0  0  0  0  0  0  0  0  0  0  0
  149.7033  140.6084  155.9530 H   0  0  0  0  0  0  0  0  0  0  0  0
  150.4494  138.3473  155.4785 H   0  0  0  0  0  0  0  0  0  0  0  0
  152.5117  137.3168  154.4724 H   0  0  0  0  0  0  0  0  0  0  0  0
  152.6035  138.6452  153.3156 H   0  0  0  0  0  0  0  0  0  0  0  0
  151.2344  137.5409  153.2836 H   0  0  0  0  0  0  0  0  0  0  0  0
  150.5766  139.9058  157.1737 H   0  0  0  0  0  0  0  0  0  0  0  0
  150.7396  142.5151  158.0837 H   0  0  0  0  0  0  0  0  0  0  0  0
  153.8540  142.6406  160.9917 H   0  0  0  0  0  0  0  0  0  0  0  0
  1  2  1  0  0  0  0
  1 22  1  0  0  0  0
  1 23  1  0  0  0  0
  1 24  1  0  0  0  0
  2  3  1  0  0  0  0
  2  4  1  0  0  0  0
  2 25  1  0  0  0  0
  3 26  1  0  0  0  0
  3 27  1  0  0  0  0
  3 28  1  0  0  0  0
  4  5  1  0  0  0  0
  4 29  1  0  0  0  0
  4 30  1  0  0  0  0
  5  6  1  0  0  0  0
  6  7  1  0  0  0  0
  6  8  1  0  0  0  0
  6 31  1  0  0  0  0
  7 32  1  0  0  0  0
  7 33  1  0  0  0  0
  7 34  1  0  0  0  0
  8  9  2  0  0  0  0
  8 10  1  0  0  0  0
 10 11  1  0  0  0  0
 10 35  1  0  0  0  0
 11 20  1  0  0  0  0
 11 12  2  0  0  0  0
 12 13  1  0  0  0  0
 12 36  1  0  0  0  0
 13 14  1  0  0  0  0
 13 18  2  0  0  0  0
 14 15  1  0  0  0  0
 14 16  1  0  0  0  0
 14 17  1  0  0  0  0
 18 19  1  0  0  0  0
 18 37  1  0  0  0  0
 19 20  1  0  0  0  0
 20 21  2  0  0  0  0
M  CHG  1  19  -1
M  END
> <s_m_source_file>
AV-unprocessed.smi

> <i_m_source_file_index>
1634

> <i_lp_mmshare_version>
43012

> <i_f3d_flags>
0

> <s_epik_input>
W0NIM11bQ0hdKFtDSDNdKVtDSDJdT1tDQEhdKFtDSDNdKUMoPU8pW05IXWMxW2NIXWMoQyhGKShGKUYpW2NIXVtuSF1jMT1P

> <s_epik_cmdline>
J2VwaWtfcHl0aG9uJywgJy1waCcsICc3LjAnLCAnLXRuJywgJzgnLCAnLW1hJywgJzIwMCcsICctbWV0YWxfYmluZGluZycsICctaW1hZScsICc8aW5maWxlLm1hZT4nLCAnLW9tYWUnLCAnPG91dGZpbGUubWFlPic=

> <r_epik_Ionization_Penalty>
2.55349

> <r_epik_Ionization_Penalty_Charging>
0.0582825

> <r_epik_Ionization_Penalty_Neutral>
2.49521

> <r_epik_State_Penalty>
2.65983

> <r_epik_Charging_Adjusted_Penalty>
2.71812

> <i_epik_Tot_Q>
-1

> <i_epik_Tot_abs_Q>
1

> <r_epik_Metal_State_Penalty>
0.516727

> <b_epik_Metal_Only>
0

> <s_lp_Force_Field>
OPLS_2005

> <r_lp_Energy>
21.4582

> <b_lp_Chiralities_Consistent>
1

> <s_lp_Variant>
AV-unprocessed.smi:1634-4

> <Gold.Version>
5.8.1

> <Gold.Id.Protein>
6NUR|6NUR_protein|mol2

> <Gold.PLP.Fitness>
48.7517

> <Gold.PLP.PLP>
-47.2096

> <Gold.PLP.part.hbond>
-2.8325

> <Gold.PLP.part.metal>
0.0000

> <Gold.PLP.part.buried>
-5.5995

> <Gold.PLP.part.nonpolar>
-37.8767

> <Gold.PLP.part.repulsive>
0.9288

> <Gold.PLP.ligand.clash>
0.0000

> <Gold.PLP.ligand.torsion>
2.7340

> <Gold.PLP.Chemscore.Hbond>
2.1825

> <Gold.PLP.Chemscore.CHOScore>
0.0000

> <Gold.PLP.Chemscore.Metal>
0.0000

> <Gold.Chemscore.Hbonds>
donor molecule, donor type, donor heavy atom, donor atom, acceptor molecule, acceptor atom, score
      P1  H  7989  7998       L1     5  1.00
      P1  H  7997  8009       L1    21  0.50
      P1  H  7997  8010       L1     9  0.41

> <Gold.PLP.Chemscore.Internal.Correction>
0.4626

> <Gold.Rescore>
     Score         DG    S(hbond)    S(metal)    S(lipo)     H(rot)  DE(clash)    DE(int)     intcor
      9.41     -15.91       1.28        0.00      90.89       1.75       0.82       5.69       ----

> <Gold.Chemscore.Fitness>
9.4101

> <Gold.Chemscore.DG>
-15.9147

> <Gold.Chemscore.ZeroCoef>
-5.4800

> <Gold.Chemscore.Hbond>
1.2846

> <Gold.Chemscore.Metal>
0.0000

> <Gold.Chemscore.Lipo>
90.8888

> <Gold.Chemscore.Internal_Hbond>
0.0000

> <Gold.Chemscore.DEClash>
0.8187

> <Gold.Chemscore.DEInternal>
5.6858

> <Gold.Chemscore.Rot>
1.7538

> <Gold.Chemscore.Internal.Correction>
   9.000000E+99

> <Gold.Chemscore.Hbonds>
donor molecule, donor type, donor heavy atom, donor atom, acceptor molecule, acceptor atom, score
      P1  H  7989  7998       L1     5  0.35
      P1  H  7997  8009       L1    21  0.06
      P1  H  7997  8010       L1     9  0.40

> <Gold.Chemscore.Hbond.Weighted>
-4.2905

> <Gold.Chemscore.Metal.Weighted>
-0.0000

> <Gold.Chemscore.Lipo.Weighted>
-10.6340

> <Gold.Chemscore.Internal_Hbond.Weighted>
0.0000

> <Gold.Chemscore.DEClash.Weighted>
0.8187

> <Gold.Chemscore.DEInternal.Weighted>
5.6858

> <Gold.Chemscore.Rot.Weighted>
4.4898

> <Gold.Chemscore.Internal.Correction.Weighted>
   9.000000E+99

> <Gold.Protein.RotatedTorsions>
[ 6907 6896 6895 6894 ] final   30.93 input  -60.11 | X-H torsion
[ 7974 7965 7964 7962 ] final -113.38 input  175.53 | X-H torsion
[ 8008 7997 7996 7995 ] final  111.50 input   59.86 | X-H torsion
[ 10167 10162 10161 10158 ] final  -26.60 input  -65.29 | X-H torsion
[ 10718 10713 10712 10709 ] final   35.55 input   66.30 | X-H torsion
[ 10763 10752 10751 10750 ] final -151.14 input  -60.55 | X-H torsion
[ 11005 11000 10999 10996 ] final  -68.17 input  -57.11 | X-H torsion

> <Gold.Protein.ActiveResidues>
 VAL166  LYS551  ARG553  GLY616  TRP617  ASP618  TYR619  PRO620  LYS621  CYS622 
 ASP623  PHE694  ASN695  SER759  ASP760  ASP761  ALA762  ILE779  LEU786  VAL792 
 PHE793  MET794  SER795  GLU796  ALA797  LYS798  CYS799  TRP800  GLU811  SER814 

> <Gold.Protein.RotatedAtoms>
  152.0531  134.9641  160.0574 H   0  0  0  0  0  0  0  0  0  0  0  0  # atno 6907 bound_to 6896
  152.1034  133.4257  159.4606 H   0  0  0  0  0  0  0  0  0  0  0  0  # atno 6908 bound_to 6896
  150.6840  134.2652  159.4609 H   0  0  0  0  0  0  0  0  0  0  0  0  # atno 6909 bound_to 6896
  145.1327  140.8734  143.3748 H   0  0  0  0  0  0  0  0  0  0  0  0  # atno 7974 bound_to 7965
  156.2128  140.3018  155.9771 H   0  0  0  0  0  0  0  0  0  0  0  0  # atno 8008 bound_to 7997
  155.2681  140.0432  157.3021 H   0  0  0  0  0  0  0  0  0  0  0  0  # atno 8009 bound_to 7997
  154.5724  140.2352  155.8181 H   0  0  0  0  0  0  0  0  0  0  0  0  # atno 8010 bound_to 7997
  140.7282  143.4164  151.1022 H   0  0  0  0  0  0  0  0  0  0  0  0  # atno 10167 bound_to 10162
  157.3240  130.7463  149.6803 H   0  0  0  0  0  0  0  0  0  0  0  0  # atno 10718 bound_to 10713
  154.8076  135.3267  154.7390 H   0  0  0  0  0  0  0  0  0  0  0  0  # atno 10763 bound_to 10752
  153.8045  135.6900  153.4855 H   0  0  0  0  0  0  0  0  0  0  0  0  # atno 10764 bound_to 10752
  153.1832  135.4579  155.0000 H   0  0  0  0  0  0  0  0  0  0  0  0  # atno 10765 bound_to 10752
  141.1525  133.6735  156.6404 H   0  0  0  0  0  0  0  0  0  0  0  0  # atno 11005 bound_to 11000
  145.0617  139.3100  143.5877 LP  0  0  0  0  0  0  0  0  0  0  0  0  # atno 17320 bound_to 7965
  146.3512  140.0062  142.8671 LP  0  0  0  0  0  0  0  0  0  0  0  0  # atno 17321 bound_to 7965
  139.7804  143.8364  152.3136 LP  0  0  0  0  0  0  0  0  0  0  0  0  # atno 17342 bound_to 10162
  139.8313  144.7252  150.9447 LP  0  0  0  0  0  0  0  0  0  0  0  0  # atno 17343 bound_to 10162
  155.9688  130.4214  150.4471 LP  0  0  0  0  0  0  0  0  0  0  0  0  # atno 17370 bound_to 10713
  157.2491  131.0542  151.2390 LP  0  0  0  0  0  0  0  0  0  0  0  0  # atno 17371 bound_to 10713
  140.3397  134.7859  157.4389 LP  0  0  0  0  0  0  0  0  0  0  0  0  # atno 17394 bound_to 11000
  140.0948  134.5552  155.8409 LP  0  0  0  0  0  0  0  0  0  0  0  0  # atno 17395 bound_to 11000

$$$$
