#       Name:                AV-unprocessed.smi:746
#       Creating user name   scv26
#       Creation time:       Fri Mar 27 00:56:55 2020


#       File generated by GOLD software.
#

@<TRIPOS>MOLECULE
AV-unprocessed.smi:746
    55    57     1
SMALL
NO_CHARGES


@<TRIPOS>ATOM
      1 ****        -6.3689   7.0301   0.6975 C.3            1 S1                 0.0000
      2 ****        -5.8029   5.7583   0.4335 O.3            1 S1                 0.0000
      3 ****        -4.4046   5.7273   0.6659 C.3            1 S1                 0.0000
      4 ****        -3.8784   4.3228   0.3584 C.3            1 S1                 0.0000
      5 ****        -2.4770   4.2926   0.6122 O.3            1 S1                 0.0000
      6 ****        -1.7949   3.1115   0.4026 C.ar           1 S1                 0.0000
      7 ****        -0.4072   3.0824   0.6451 C.ar           1 S1                 0.0000
      8 ****         0.2973   1.8820   0.4316 C.ar           1 S1                 0.0000
      9 ****        -0.4112   0.7465  -0.0283 C.ar           1 S1                 0.0000
     10 ****         0.1778  -0.5249  -0.2626 N.am           1 S1                 0.0000
     11 ****         1.4499  -0.8172  -0.5999 C.2            1 S1                 0.0000
     12 ****         2.3495   0.0215  -0.6333 O.2            1 S1                 0.0000
     13 ****         1.6595  -2.1452  -0.7867 N.am           1 S1                 0.0000
     14 ****         0.6636  -3.0373  -1.4229 C.3            1 S1                 0.0000
     15 ****         0.4754  -4.3301  -0.6006 C.3            1 S1                 0.0000
     16 ****         1.8155  -5.0543  -0.3740 C.3            1 S1                 0.0000
     17 ****         2.8359  -4.0614   0.1956 C.3            1 S1                 0.0000
     18 ****         4.2773  -4.5503   0.3486 C.3            1 S1                 0.0000
     19 ****         5.1279  -3.2664   0.3184 C.3            1 S1                 0.0000
     20 ****         4.1706  -2.1204  -0.0559 C.3            1 S1                 0.0000
     21 ****         2.9669  -2.8285  -0.6999 C.3            1 S1                 0.0000
     22 ****        -1.8015   0.8750  -0.2237 C.ar           1 S1                 0.0000
     23 ****        -2.4824   2.0227  -0.0224 N.ar           1 S1                 0.0000
     24 ****        -7.4413   7.0011   0.5048 H              1 S1                 0.0000
     25 ****        -5.9323   7.7966   0.0558 H              1 S1                 0.0000
     26 ****        -6.2220   7.3191   1.7390 H              1 S1                 0.0000
     27 ****        -3.9018   6.4606   0.0334 H              1 S1                 0.0000
     28 ****        -4.1923   5.9854   1.7046 H              1 S1                 0.0000
     29 ****        -4.3940   3.5934   0.9854 H              1 S1                 0.0000
     30 ****        -4.0803   4.0754  -0.6852 H              1 S1                 0.0000
     31 ****         0.1084   3.9650   0.9937 H              1 S1                 0.0000
     32 ****         1.3558   1.8538   0.6381 H              1 S1                 0.0000
     33 ****        -0.4671  -1.3013  -0.2861 H              1 S1                 0.0000
     34 ****        -0.3089  -2.5689  -1.5769 H              1 S1                 0.0000
     35 ****         1.0159  -3.2912  -2.4238 H              1 S1                 0.0000
     36 ****         0.0274  -4.0823   0.3627 H              1 S1                 0.0000
     37 ****        -0.2256  -4.9958  -1.1049 H              1 S1                 0.0000
     38 ****         1.6837  -5.8994   0.3022 H              1 S1                 0.0000
     39 ****         2.1775  -5.4591  -1.3200 H              1 S1                 0.0000
     40 ****         2.4857  -3.7391   1.1788 H              1 S1                 0.0000
     41 ****         4.4203  -5.1233   1.2654 H              1 S1                 0.0000
     42 ****         4.5508  -5.1925  -0.4896 H              1 S1                 0.0000
     43 ****         5.6012  -3.0756   1.2821 H              1 S1                 0.0000
     44 ****         5.9229  -3.3627  -0.4219 H              1 S1                 0.0000
     45 ****         3.8691  -1.5975   0.8530 H              1 S1                 0.0000
     46 ****         4.6398  -1.3962  -0.7226 H              1 S1                 0.0000
     47 ****         3.2586  -3.1360  -1.7065 H              1 S1                 0.0000
     48 ****        -2.3878   0.0319  -0.5588 H              1 S1                 0.0000
     49 ****        -5.9743   5.5235  -0.5233 LP             1 S1                 0.0000
     50 ****        -6.2416   5.0829   1.0262 LP             1 S1                 0.0000
     51 ****        -2.3453   4.5433   1.5712 LP             1 S1                 0.0000
     52 ****        -2.0559   4.9847   0.0259 LP             1 S1                 0.0000
     53 ****         2.1532   0.9747  -0.4031 LP             1 S1                 0.0000
     54 ****         3.2769  -0.2499  -0.8907 LP             1 S1                 0.0000
     55 ****        -3.4685   2.0690  -0.1826 LP             1 S1                 0.0000
@<TRIPOS>BOND
    1    1    2 1     
    2    1   24 1     
    3    1   25 1     
    4    1   26 1     
    5    2    3 1     
    6    3    4 1     
    7    3   27 1     
    8    3   28 1     
    9    4    5 1     
   10    4   29 1     
   11    4   30 1     
   12    5    6 1     
   13    6   23 ar    
   14    6    7 ar    
   15    7    8 ar    
   16    7   31 1     
   17    8    9 ar    
   18    8   32 1     
   19    9   10 1     
   20    9   22 ar    
   21   10   11 am    
   22   10   33 1     
   23   11   12 2     
   24   11   13 am    
   25   13   21 1     
   26   13   14 1     
   27   14   15 1     
   28   14   34 1     
   29   14   35 1     
   30   15   16 1     
   31   15   36 1     
   32   15   37 1     
   33   16   17 1     
   34   16   38 1     
   35   16   39 1     
   36   17   21 1     
   37   17   18 1     
   38   17   40 1     
   39   18   19 1     
   40   18   41 1     
   41   18   42 1     
   42   19   20 1     
   43   19   43 1     
   44   19   44 1     
   45   20   21 1     
   46   20   45 1     
   47   20   46 1     
   48   21   47 1     
   49   22   23 ar    
   50   22   48 1     
   51    2   49 1     
   52    2   50 1     
   53    5   51 1     
   54    5   52 1     
   55   12   53 1     
   56   12   54 1     
   57   23   55 1     
@<TRIPOS>SUBSTRUCTURE
      1 S1             1
@<TRIPOS>SET
LONE_PAIRS      STATIC     ATOMS    <user>   **** ""
7 49 50 51 52 53 54 55
DONOR_HYDROGENS      STATIC     ATOMS    <user>   **** ""
1 33
ATOM$BLUE        STATIC     ATOMS    COLORGROUP SYSTEM
7 49 50 51 52 53 54 55
ATOM$RED        STATIC     ATOMS    COLORGROUP SYSTEM
1 33
