#       Name:                AV-unprocessed.smi:1374
#       Creating user name   scv26
#       Creation time:       Fri Mar 27 05:18:58 2020


#       File generated by GOLD software.
#

@<TRIPOS>MOLECULE
AV-unprocessed.smi:1374
    53    54     1
SMALL
NO_CHARGES


@<TRIPOS>ATOM
      1 ****        -3.7176   1.1478   1.7253 C.3            1 S1                 0.0000
      2 ****        -2.9297  -0.1474   1.5027 C.3            1 S1                 0.0000
      3 ****        -3.0345  -0.6607   0.0570 C.3            1 S1                 0.0000
      4 ****        -2.3145  -2.0027  -0.2007 C.3            1 S1                 0.0000
      5 ****        -0.8561  -1.9313   0.0470 N.am           1 S1                 0.0000
      6 ****        -0.0218  -1.3475  -0.9441 C.2            1 S1                 0.0000
      7 ****        -0.5953  -0.8802  -2.1181 N.pl3          1 S1                 0.0000
      8 ****         1.3125  -1.2118  -0.7180 C.2            1 S1                 0.0000
      9 ****         2.1779  -0.6281  -1.6691 N.am           1 S1                 0.0000
     10 ****         2.4205  -1.4018  -2.8919 C.3            1 S1                 0.0000
     11 ****         2.8298   0.5596  -1.4971 C.2            1 S1                 0.0000
     12 ****         3.7437   0.8961  -2.2542 O.2            1 S1                 0.0000
     13 ****         2.3656   1.4242  -0.4073 C.2            1 S1                 0.0000
     14 ****         3.2615   2.2227   0.2167 C.2            1 S1                 0.0000
     15 ****         2.9340   3.1067   1.2147 O.3            1 S1                 0.0000
     16 ****         1.5376   3.3094   1.3994 C.3            1 S1                 0.0000
     17 ****         0.7743   1.9861   1.2474 C.3            1 S1                 0.0000
     18 ****         1.0413   1.4214  -0.0298 O.3            1 S1                 0.0000
     19 ****         1.8753  -1.7377   0.5334 C.2            1 S1                 0.0000
     20 ****         3.0871  -1.6773   0.7429 O.2            1 S1                 0.0000
     21 ****         1.0167  -2.2882   1.4306 N.pl3          1 S1                -1.0000
     22 ****        -0.3267  -2.3905   1.2236 C.2            1 S1                 0.0000
     23 ****        -1.0724  -2.8790   2.0735 O.2            1 S1                 0.0000
     24 ****        -3.6163   1.4903   2.7551 H              1 S1                 0.0000
     25 ****        -4.7794   1.0028   1.5247 H              1 S1                 0.0000
     26 ****        -3.3572   1.9440   1.0733 H              1 S1                 0.0000
     27 ****        -1.8853   0.0310   1.7592 H              1 S1                 0.0000
     28 ****        -3.2913  -0.9128   2.1899 H              1 S1                 0.0000
     29 ****        -4.0874  -0.7817  -0.1995 H              1 S1                 0.0000
     30 ****        -2.6506   0.1029  -0.6195 H              1 S1                 0.0000
     31 ****        -2.7937  -2.7822   0.3930 H              1 S1                 0.0000
     32 ****        -2.4972  -2.3231  -1.2268 H              1 S1                 0.0000
     33 ****        -1.5890  -0.9447  -2.2848 H              1 S1                 0.0000
     34 ****        -0.0301  -0.5655  -2.8933 H              1 S1                 0.0000
     35 ****         2.1463  -0.8242  -3.7757 H              1 S1                 0.0000
     36 ****         1.8439  -2.3276  -2.9115 H              1 S1                 0.0000
     37 ****         3.4732  -1.6767  -2.9728 H              1 S1                 0.0000
     38 ****         4.3144   2.2673  -0.0229 H              1 S1                 0.0000
     39 ****         1.3668   3.7370   2.3874 H              1 S1                 0.0000
     40 ****         1.1833   4.0374   0.6685 H              1 S1                 0.0000
     41 ****         1.0691   1.2781   2.0234 H              1 S1                 0.0000
     42 ****        -0.2991   2.1465   1.3495 H              1 S1                 0.0000
     43 ****         4.0164   0.2962  -3.0063 LP             1 S1                 0.0000
     44 ****         4.2118   1.7689  -2.1158 LP             1 S1                 0.0000
     45 ****         3.3501   3.9896   0.9970 LP             1 S1                 0.0000
     46 ****         3.3142   2.7616   2.0728 LP             1 S1                 0.0000
     47 ****         0.7241   0.4731  -0.0210 LP             1 S1                 0.0000
     48 ****         0.5243   1.9395  -0.7112 LP             1 S1                 0.0000
     49 ****         3.6928  -1.2690   0.0600 LP             1 S1                 0.0000
     50 ****         3.4655  -2.0365   1.5960 LP             1 S1                 0.0000
     51 ****         1.3905  -2.6374   2.2899 LP             1 S1                 0.0000
     52 ****        -2.0558  -2.9378   1.9016 LP             1 S1                 0.0000
     53 ****        -0.6945  -3.2168   2.9356 LP             1 S1                 0.0000
@<TRIPOS>BOND
    1    1    2 1     
    2    1   24 1     
    3    1   25 1     
    4    1   26 1     
    5    2    3 1     
    6    2   27 1     
    7    2   28 1     
    8    3    4 1     
    9    3   29 1     
   10    3   30 1     
   11    4    5 1     
   12    4   31 1     
   13    4   32 1     
   14    5   22 am    
   15    5    6 1     
   16    6    7 1     
   17    6    8 2     
   18    7   33 1     
   19    7   34 1     
   20    8    9 1     
   21    8   19 1     
   22    9   10 1     
   23    9   11 am    
   24   10   35 1     
   25   10   36 1     
   26   10   37 1     
   27   11   12 2     
   28   11   13 1     
   29   13   18 1     
   30   13   14 2     
   31   14   15 1     
   32   14   38 1     
   33   15   16 1     
   34   16   17 1     
   35   16   39 1     
   36   16   40 1     
   37   17   18 1     
   38   17   41 1     
   39   17   42 1     
   40   19   20 2     
   41   19   21 1     
   42   21   22 1     
   43   22   23 2     
   44   12   43 1     
   45   12   44 1     
   46   15   45 1     
   47   15   46 1     
   48   18   47 1     
   49   18   48 1     
   50   20   49 1     
   51   20   50 1     
   52   21   51 1     
   53   23   52 1     
   54   23   53 1     
@<TRIPOS>SUBSTRUCTURE
      1 S1             1
@<TRIPOS>SET
LONE_PAIRS      STATIC     ATOMS    <user>   **** ""
11 43 44 45 46 47 48 49 50 51 52 53
DONOR_HYDROGENS      STATIC     ATOMS    <user>   **** ""
2 33 34
ATOM$BLUE        STATIC     ATOMS    COLORGROUP SYSTEM
11 43 44 45 46 47 48 49 50 51 52 53
ATOM$RED        STATIC     ATOMS    COLORGROUP SYSTEM
2 33 34
