AV-unprocessed.smi:2401|AV-procd|sdf|9503|dock1
  -GOLD-   2272013133D 1   1.00000     0.00000
 Structure written by MMmdl.
 34 35  0  0  0  0  0  0  0  0  1 V2000
  148.4865  139.1113  153.5811 C   0  0  0  0  0  0  0  0  0  0  0  0
  149.4710  139.7983  154.5108 C   0  0  0  0  0  0  0  0  0  0  0  0
  149.0843  141.0587  154.9748 N   0  0  0  0  0  0  0  0  0  0  0  0
  149.8600  141.7180  155.7714 C   0  0  0  0  0  0  0  0  0  0  0  0
  151.0964  141.2014  156.1945 N   0  0  0  0  0  0  0  0  0  0  0  0
  151.8864  142.0552  157.0987 C   0  0  0  0  0  0  0  0  0  0  0  0
  151.0070  142.7754  158.1465 C   0  0  2  0  0  0  0  0  0  0  0  0
  150.7381  144.0891  157.6994 O   0  0  0  0  0  0  0  0  0  0  0  0
  151.6843  142.7917  159.5086 C   0  0  0  0  0  0  0  0  0  0  0  0
  152.4713  141.6945  159.9198 C   0  0  0  0  0  0  0  0  0  0  0  0
  153.1046  141.7072  161.1779 C   0  0  0  0  0  0  0  0  0  0  0  0
  152.9570  142.8178  162.0311 C   0  0  0  0  0  0  0  0  0  0  0  0
  153.7335  142.8326  163.5717 Cl  0  0  0  0  0  0  0  0  0  0  0  0
  152.1759  143.9169  161.6247 C   0  0  0  0  0  0  0  0  0  0  0  0
  151.5419  143.9043  160.3672 C   0  0  0  0  0  0  0  0  0  0  0  0
  151.5501  139.9804  155.7886 C   0  0  0  0  0  0  0  0  0  0  0  0
  152.6361  139.5343  156.1631 O   0  0  0  0  0  0  0  0  0  0  0  0
  150.6570  139.2422  154.8804 C   0  0  0  0  0  0  0  0  0  0  0  0
  151.1311  137.8742  154.4058 C   0  0  0  0  0  0  0  0  0  0  0  0
  148.9482  138.9141  152.6132 H   0  0  0  0  0  0  0  0  0  0  0  0
  147.6039  139.7291  153.4101 H   0  0  0  0  0  0  0  0  0  0  0  0
  148.1539  138.1650  154.0087 H   0  0  0  0  0  0  0  0  0  0  0  0
  149.6084  142.7073  156.1578 H   0  0  0  0  0  0  0  0  0  0  0  0
  152.6121  141.4253  157.6178 H   0  0  0  0  0  0  0  0  0  0  0  0
  152.5014  142.7732  156.5525 H   0  0  0  0  0  0  0  0  0  0  0  0
  150.0506  142.2603  158.2462 H   0  0  0  0  0  0  0  0  0  0  0  0
  151.5544  144.5626  157.6507 H   0  0  0  0  0  0  0  0  0  0  0  0
  152.5933  140.8381  159.2729 H   0  0  0  0  0  0  0  0  0  0  0  0
  153.7042  140.8636  161.4866 H   0  0  0  0  0  0  0  0  0  0  0  0
  152.0618  144.7711  162.2760 H   0  0  0  0  0  0  0  0  0  0  0  0
  150.9465  144.7527  160.0624 H   0  0  0  0  0  0  0  0  0  0  0  0
  151.2825  137.2120  155.2589 H   0  0  0  0  0  0  0  0  0  0  0  0
  152.0804  137.9681  153.8773 H   0  0  0  0  0  0  0  0  0  0  0  0
  150.4290  137.3855  153.7324 H   0  0  0  0  0  0  0  0  0  0  0  0
  1  2  1  0  0  0  0
  1 20  1  0  0  0  0
  1 21  1  0  0  0  0
  1 22  1  0  0  0  0
  2 18  2  0  0  0  0
  2  3  1  0  0  0  0
  3  4  2  0  0  0  0
  4  5  1  0  0  0  0
  4 23  1  0  0  0  0
  5  6  1  0  0  0  0
  5 16  1  0  0  0  0
  6  7  1  0  0  0  0
  6 24  1  0  0  0  0
  6 25  1  0  0  0  0
  7  8  1  0  0  0  0
  7  9  1  0  0  0  0
  7 26  1  0  0  0  0
  8 27  1  0  0  0  0
  9 15  1  0  0  0  0
  9 10  2  0  0  0  0
 10 11  1  0  0  0  0
 10 28  1  0  0  0  0
 11 12  2  0  0  0  0
 11 29  1  0  0  0  0
 12 13  1  0  0  0  0
 12 14  1  0  0  0  0
 14 15  2  0  0  0  0
 14 30  1  0  0  0  0
 15 31  1  0  0  0  0
 16 17  2  0  0  0  0
 16 18  1  0  0  0  0
 18 19  1  0  0  0  0
 19 32  1  0  0  0  0
 19 33  1  0  0  0  0
 19 34  1  0  0  0  0
M  END
> <s_m_source_file>
AV-unprocessed.smi

> <i_m_source_file_index>
2401

> <i_lp_mmshare_version>
43012

> <i_f3d_flags>
0

> <s_epik_input>
W0NIM11jMW5bY0hdbihjKD1PKWMxW0NIM10pW0NIMl1bQ0BIXShbT0hdKWMyW2NIXVtjSF1jKENsKVtjSF1bY0hdMg==

> <s_epik_cmdline>
J2VwaWtfcHl0aG9uJywgJy1waCcsICc3LjAnLCAnLXRuJywgJzgnLCAnLW1hJywgJzIwMCcsICctbWV0YWxfYmluZGluZycsICctaW1hZScsICc8aW5maWxlLm1hZT4nLCAnLW9tYWUnLCAnPG91dGZpbGUubWFlPic=

> <r_lp_tautomer_probability>
1

> <r_epik_Ionization_Penalty>
5.07713e-05

> <r_epik_Ionization_Penalty_Charging>
7.56727e-08

> <r_epik_Ionization_Penalty_Neutral>
5.06957e-05

> <r_epik_State_Penalty>
-0

> <r_epik_Charging_Adjusted_Penalty>
7.56727e-08

> <i_epik_Tot_Q>
0

> <i_epik_Tot_abs_Q>
0

> <r_epik_Metal_State_Penalty>
-0

> <b_epik_Metal_Only>
0

> <s_lp_Force_Field>
OPLS_2005

> <r_lp_Energy>
19.2898

> <b_lp_Chiralities_Consistent>
1

> <s_lp_Variant>
AV-unprocessed.smi:2401-1

> <Gold.Version>
5.8.1

> <Gold.Id.Protein>
6NUR|6NUR_protein|mol2

> <Gold.PLP.Fitness>
48.4007

> <Gold.PLP.PLP>
-45.3496

> <Gold.PLP.part.hbond>
-2.0000

> <Gold.PLP.part.metal>
0.0000

> <Gold.PLP.part.buried>
-3.4031

> <Gold.PLP.part.nonpolar>
-39.4527

> <Gold.PLP.part.repulsive>
0.1189

> <Gold.PLP.ligand.clash>
0.0000

> <Gold.PLP.ligand.torsion>
1.5077

> <Gold.PLP.Chemscore.Hbond>
1.0000

> <Gold.PLP.Chemscore.CHOScore>
1.0000

> <Gold.PLP.Chemscore.Metal>
0.0000

> <Gold.Chemscore.Hbonds>
donor molecule, donor type, donor heavy atom, donor atom, acceptor molecule, acceptor atom, score
      P1  H  7997  8010       L1    17  1.00
      L1  C     4    23       P1  8028  1.00

> <Gold.PLP.Chemscore.Internal.Correction>
0.0664

> <Gold.Rescore>
     Score         DG    S(hbond)    S(metal)    S(lipo)     H(rot)  DE(clash)    DE(int)     intcor
     15.57     -17.46       0.99        0.00     116.33       1.93       0.40       1.50       ----

> <Gold.Chemscore.Fitness>
15.5692

> <Gold.Chemscore.DG>
-17.4613

> <Gold.Chemscore.ZeroCoef>
-5.4800

> <Gold.Chemscore.Hbond>
0.9889

> <Gold.Chemscore.Metal>
0.0000

> <Gold.Chemscore.Lipo>
116.3263

> <Gold.Chemscore.Internal_Hbond>
0.0000

> <Gold.Chemscore.DEClash>
0.3962

> <Gold.Chemscore.DEInternal>
1.4959

> <Gold.Chemscore.Rot>
1.9265

> <Gold.Chemscore.Internal.Correction>
   9.000000E+99

> <Gold.Chemscore.Hbonds>
donor molecule, donor type, donor heavy atom, donor atom, acceptor molecule, acceptor atom, score
      P1  H  7997  8010       L1    17  0.98

> <Gold.Chemscore.Hbond.Weighted>
-3.3028

> <Gold.Chemscore.Metal.Weighted>
-0.0000

> <Gold.Chemscore.Lipo.Weighted>
-13.6102

> <Gold.Chemscore.Internal_Hbond.Weighted>
0.0000

> <Gold.Chemscore.DEClash.Weighted>
0.3962

> <Gold.Chemscore.DEInternal.Weighted>
1.4959

> <Gold.Chemscore.Rot.Weighted>
4.9317

> <Gold.Chemscore.Internal.Correction.Weighted>
   9.000000E+99

> <Gold.Protein.RotatedTorsions>
[ 6907 6896 6895 6894 ] final -115.62 input  -60.11 | X-H torsion
[ 7974 7965 7964 7962 ] final  -32.17 input  175.53 | X-H torsion
[ 8008 7997 7996 7995 ] final   60.25 input   59.86 | X-H torsion
[ 10167 10162 10161 10158 ] final  151.06 input  -65.29 | X-H torsion
[ 10718 10713 10712 10709 ] final  -20.75 input   66.30 | X-H torsion
[ 10763 10752 10751 10750 ] final -157.55 input  -60.55 | X-H torsion
[ 11005 11000 10999 10996 ] final -126.47 input  -57.11 | X-H torsion

> <Gold.Protein.ActiveResidues>
 VAL166  LYS551  ARG553  GLY616  TRP617  ASP618  TYR619  PRO620  LYS621  CYS622 
 ASP623  PHE694  ASN695  SER759  ASP760  ASP761  ALA762  ILE779  LEU786  VAL792 
 PHE793  MET794  SER795  GLU796  ALA797  LYS798  CYS799  TRP800  GLU811  SER814 

> <Gold.Protein.RotatedAtoms>
  150.7992  133.8632  159.3237 H   0  0  0  0  0  0  0  0  0  0  0  0  # atno 6907 bound_to 6896
  151.6449  135.1006  160.0158 H   0  0  0  0  0  0  0  0  0  0  0  0  # atno 6908 bound_to 6896
  152.4077  133.6875  159.6406 H   0  0  0  0  0  0  0  0  0  0  0  0  # atno 6909 bound_to 6896
  146.1011  140.5759  142.8821 H   0  0  0  0  0  0  0  0  0  0  0  0  # atno 7974 bound_to 7965
  155.5793  140.3491  155.4536 H   0  0  0  0  0  0  0  0  0  0  0  0  # atno 8008 bound_to 7997
  156.0385  140.1290  157.0206 H   0  0  0  0  0  0  0  0  0  0  0  0  # atno 8009 bound_to 7997
  154.4382  140.1029  156.6188 H   0  0  0  0  0  0  0  0  0  0  0  0  # atno 8010 bound_to 7997
  139.4844  144.5472  151.7464 H   0  0  0  0  0  0  0  0  0  0  0  0  # atno 10167 bound_to 10162
  156.5276  130.4647  149.6564 H   0  0  0  0  0  0  0  0  0  0  0  0  # atno 10718 bound_to 10713
  154.7627  135.3122  154.8346 H   0  0  0  0  0  0  0  0  0  0  0  0  # atno 10763 bound_to 10752
  153.9103  135.6806  153.4755 H   0  0  0  0  0  0  0  0  0  0  0  0  # atno 10764 bound_to 10752
  153.1229  135.4814  154.9158 H   0  0  0  0  0  0  0  0  0  0  0  0  # atno 10765 bound_to 10752
  140.9679  134.0846  157.3901 H   0  0  0  0  0  0  0  0  0  0  0  0  # atno 11005 bound_to 11000
  144.7433  140.5001  143.6853 LP  0  0  0  0  0  0  0  0  0  0  0  0  # atno 17320 bound_to 7965
  145.5853  139.1491  143.3212 LP  0  0  0  0  0  0  0  0  0  0  0  0  # atno 17321 bound_to 7965
  140.5020  144.1154  150.5973 LP  0  0  0  0  0  0  0  0  0  0  0  0  # atno 17342 bound_to 10162
  140.4051  143.2684  151.9901 LP  0  0  0  0  0  0  0  0  0  0  0  0  # atno 17343 bound_to 10162
  156.3090  130.7218  151.2107 LP  0  0  0  0  0  0  0  0  0  0  0  0  # atno 17370 bound_to 10713
  157.7427  131.0486  150.5005 LP  0  0  0  0  0  0  0  0  0  0  0  0  # atno 17371 bound_to 10713
  139.8901  135.0110  156.6718 LP  0  0  0  0  0  0  0  0  0  0  0  0  # atno 17394 bound_to 11000
  140.7372  133.9008  155.8252 LP  0  0  0  0  0  0  0  0  0  0  0  0  # atno 17395 bound_to 11000

$$$$
