AV-unprocessed.smi:1947|AV-procd|sdf|7872|dock3
  -GOLD-   2272010 23D 1   1.00000     0.00000
 Structure written by MMmdl.
 38 39  0  0  0  0  0  0  0  0  2 V2000
  145.2283  135.5250  150.9013 C   0  0  0  0  0  0  0  0  0  0  0  0
  144.9993  134.0604  151.3125 C   0  0  1  0  0  0  0  0  0  0  0  0
  144.1048  133.3377  150.2851 C   0  0  0  0  0  0  0  0  0  0  0  0
  143.8747  131.8664  150.6637 C   0  0  0  0  0  0  0  0  0  0  0  0
  145.2081  131.1247  150.8331 C   0  0  0  0  0  0  0  0  0  0  0  0
  146.1014  131.8278  151.8657 C   0  0  0  0  0  0  0  0  0  0  0  0
  146.3349  133.3065  151.4970 C   0  0  2  0  0  0  0  0  0  0  0  0
  147.0477  133.9470  152.5463 O   0  0  0  0  0  0  0  0  0  0  0  0
  148.2203  133.2660  152.9668 C   0  0  0  0  0  0  0  0  0  0  0  0
  148.6434  133.8154  154.3380 C   0  0  0  0  0  0  0  0  0  0  0  0
  149.8430  134.6425  154.2417 N   0  0  0  0  0  0  0  0  0  0  0  0
  150.0422  135.8197  154.8507 C   0  0  0  0  0  0  0  0  0  0  0  0
  149.1430  136.3233  155.5278 O   0  0  0  0  0  0  0  0  0  0  0  0
  151.2758  136.3348  154.6471 N   0  5  0  0  0  0  0  0  0  0  0  0
  151.5496  137.5915  155.0336 C   0  0  0  0  0  0  0  0  0  0  0  0
  152.7784  137.9770  155.4131 N   0  0  0  0  0  0  0  0  0  0  0  0
  152.8419  139.3154  155.7769 N   0  0  0  0  0  0  0  0  0  0  0  0
  151.6517  139.9051  155.6694 C   0  0  0  0  0  0  0  0  0  0  0  0
  150.3442  138.8791  155.1185 S   0  0  0  0  0  0  0  0  0  0  0  0
  145.7639  135.5926  149.9540 H   0  0  0  0  0  0  0  0  0  0  0  0
  145.8129  136.0627  151.6486 H   0  0  0  0  0  0  0  0  0  0  0  0
  144.2819  136.0535  150.7871 H   0  0  0  0  0  0  0  0  0  0  0  0
  144.4759  134.0622  152.2697 H   0  0  0  0  0  0  0  0  0  0  0  0
  143.1440  133.8466  150.2044 H   0  0  0  0  0  0  0  0  0  0  0  0
  144.5639  133.3889  149.2968 H   0  0  0  0  0  0  0  0  0  0  0  0
  143.3042  131.8120  151.5917 H   0  0  0  0  0  0  0  0  0  0  0  0
  143.2710  131.3760  149.8997 H   0  0  0  0  0  0  0  0  0  0  0  0
  145.0247  130.0946  151.1399 H   0  0  0  0  0  0  0  0  0  0  0  0
  145.7253  131.0755  149.8741 H   0  0  0  0  0  0  0  0  0  0  0  0
  145.6351  131.7660  152.8500 H   0  0  0  0  0  0  0  0  0  0  0  0
  147.0523  131.3006  151.9414 H   0  0  0  0  0  0  0  0  0  0  0  0
  146.8914  133.3663  150.5598 H   0  0  0  0  0  0  0  0  0  0  0  0
  148.0305  132.1945  153.0343 H   0  0  0  0  0  0  0  0  0  0  0  0
  149.0266  133.4069  152.2457 H   0  0  0  0  0  0  0  0  0  0  0  0
  147.8423  134.4264  154.7542 H   0  0  0  0  0  0  0  0  0  0  0  0
  148.8110  132.9981  155.0409 H   0  0  0  0  0  0  0  0  0  0  0  0
  150.6073  134.2702  153.6975 H   0  0  0  0  0  0  0  0  0  0  0  0
  151.5419  140.9496  155.9196 H   0  0  0  0  0  0  0  0  0  0  0  0
  1  2  1  0  0  0  0
  1 20  1  0  0  0  0
  1 21  1  0  0  0  0
  1 22  1  0  0  0  0
  2  7  1  0  0  0  0
  2  3  1  0  0  0  0
  2 23  1  0  0  0  0
  3  4  1  0  0  0  0
  3 24  1  0  0  0  0
  3 25  1  0  0  0  0
  4  5  1  0  0  0  0
  4 26  1  0  0  0  0
  4 27  1  0  0  0  0
  5  6  1  0  0  0  0
  5 28  1  0  0  0  0
  5 29  1  0  0  0  0
  6  7  1  0  0  0  0
  6 30  1  0  0  0  0
  6 31  1  0  0  0  0
  7  8  1  0  0  0  0
  7 32  1  0  0  0  0
  8  9  1  0  0  0  0
  9 10  1  0  0  0  0
  9 33  1  0  0  0  0
  9 34  1  0  0  0  0
 10 11  1  0  0  0  0
 10 35  1  0  0  0  0
 10 36  1  0  0  0  0
 11 12  1  0  0  0  0
 11 37  1  0  0  0  0
 12 13  2  0  0  0  0
 12 14  1  0  0  0  0
 14 15  1  0  0  0  0
 15 19  1  0  0  0  0
 15 16  2  0  0  0  0
 16 17  1  0  0  0  0
 17 18  2  0  0  0  0
 18 19  1  0  0  0  0
 18 38  1  0  0  0  0
M  CHG  1  14  -1
M  END
> <s_m_source_file>
AV-unprocessed.smi

> <i_m_source_file_index>
1947

> <i_lp_mmshare_version>
43012

> <i_f3d_flags>
0

> <s_epik_input>
W0NIM11bQ0BASF0xW0NIMl1bQ0gyXVtDSDJdW0NIMl1bQ0BIXTFPW0NIMl1bQ0gyXVtOSF1DKD1PKVtOSF1jMm5uW2NIXXMy

> <s_epik_cmdline>
J2VwaWtfcHl0aG9uJywgJy1waCcsICc3LjAnLCAnLXRuJywgJzgnLCAnLW1hJywgJzIwMCcsICctbWV0YWxfYmluZGluZycsICctaW1hZScsICc8aW5maWxlLm1hZT4nLCAnLW9tYWUnLCAnPG91dGZpbGUubWFlPic=

> <r_lp_tautomer_probability>
1

> <r_epik_Ionization_Penalty>
3.35961

> <r_epik_Ionization_Penalty_Charging>
3.31977

> <r_epik_Ionization_Penalty_Neutral>
0.0398394

> <r_epik_State_Penalty>
3.31759

> <r_epik_Charging_Adjusted_Penalty>
6.63736

> <i_epik_Tot_Q>
-1

> <i_epik_Tot_abs_Q>
1

> <r_epik_Metal_State_Penalty>
0.484557

> <b_epik_Metal_Only>
1

> <s_lp_Force_Field>
OPLS_2005

> <r_lp_Energy>
7.96077

> <b_lp_Chiralities_Consistent>
1

> <s_lp_Variant>
AV-unprocessed.smi:1947-8

> <Gold.Version>
5.8.1

> <Gold.Id.Protein>
6NUR|6NUR_protein|mol2

> <Gold.PLP.Fitness>
44.2853

> <Gold.PLP.PLP>
-36.7094

> <Gold.PLP.part.hbond>
-3.9234

> <Gold.PLP.part.metal>
0.0000

> <Gold.PLP.part.buried>
-5.3798

> <Gold.PLP.part.nonpolar>
-29.2110

> <Gold.PLP.part.repulsive>
1.3020

> <Gold.PLP.ligand.clash>
0.0000

> <Gold.PLP.ligand.torsion>
0.7545

> <Gold.PLP.Chemscore.Hbond>
3.0000

> <Gold.PLP.Chemscore.CHOScore>
0.0000

> <Gold.PLP.Chemscore.Metal>
0.0000

> <Gold.Chemscore.Hbonds>
donor molecule, donor type, donor heavy atom, donor atom, acceptor molecule, acceptor atom, score
      P1  H  7997  8009       L1    17  1.00
      P1  H 10752 10765       L1    14  2.00

> <Gold.PLP.Chemscore.Internal.Correction>
0.0850

> <Gold.Rescore>
     Score         DG    S(hbond)    S(metal)    S(lipo)     H(rot)  DE(clash)    DE(int)     intcor
     11.98     -14.71       1.50        0.00      77.66       1.90       0.60       2.13       ----

> <Gold.Chemscore.Fitness>
11.9824

> <Gold.Chemscore.DG>
-14.7088

> <Gold.Chemscore.ZeroCoef>
-5.4800

> <Gold.Chemscore.Hbond>
1.4978

> <Gold.Chemscore.Metal>
0.0000

> <Gold.Chemscore.Lipo>
77.6590

> <Gold.Chemscore.Internal_Hbond>
0.0000

> <Gold.Chemscore.DEClash>
0.6013

> <Gold.Chemscore.DEInternal>
2.1252

> <Gold.Chemscore.Rot>
1.8984

> <Gold.Chemscore.Internal.Correction>
   9.000000E+99

> <Gold.Chemscore.Hbonds>
donor molecule, donor type, donor heavy atom, donor atom, acceptor molecule, acceptor atom, score
      P1  H  7997  8009       L1    17  0.95
      P1  H 10752 10765       L1    14  0.40

> <Gold.Chemscore.Hbond.Weighted>
-5.0025

> <Gold.Chemscore.Metal.Weighted>
-0.0000

> <Gold.Chemscore.Lipo.Weighted>
-9.0861

> <Gold.Chemscore.Internal_Hbond.Weighted>
0.0000

> <Gold.Chemscore.DEClash.Weighted>
0.6013

> <Gold.Chemscore.DEInternal.Weighted>
2.1252

> <Gold.Chemscore.Rot.Weighted>
4.8598

> <Gold.Chemscore.Internal.Correction.Weighted>
   9.000000E+99

> <Gold.Protein.RotatedTorsions>
[ 6907 6896 6895 6894 ] final  -26.68 input  -60.11 | X-H torsion
[ 7974 7965 7964 7962 ] final -172.55 input  175.53 | X-H torsion
[ 8008 7997 7996 7995 ] final -172.65 input   59.86 | X-H torsion
[ 10167 10162 10161 10158 ] final -106.64 input  -65.29 | X-H torsion
[ 10718 10713 10712 10709 ] final  -59.77 input   66.30 | X-H torsion
[ 10763 10752 10751 10750 ] final  164.77 input  -60.55 | X-H torsion
[ 11005 11000 10999 10996 ] final   -7.34 input  -57.11 | X-H torsion

> <Gold.Protein.ActiveResidues>
 VAL166  LYS551  ARG553  GLY616  TRP617  ASP618  TYR619  PRO620  LYS621  CYS622 
 ASP623  PHE694  ASN695  SER759  ASP760  ASP761  ALA762  ILE779  LEU786  VAL792 
 PHE793  MET794  SER795  GLU796  ALA797  LYS798  CYS799  TRP800  GLU811  SER814 

> <Gold.Protein.RotatedAtoms>
  151.1575  135.0257  159.8695 H   0  0  0  0  0  0  0  0  0  0  0  0  # atno 6907 bound_to 6896
  152.5452  134.1317  159.8452 H   0  0  0  0  0  0  0  0  0  0  0  0  # atno 6908 bound_to 6896
  151.1409  133.4926  159.2629 H   0  0  0  0  0  0  0  0  0  0  0  0  # atno 6909 bound_to 6896
  144.7145  140.1756  143.6363 H   0  0  0  0  0  0  0  0  0  0  0  0  # atno 7974 bound_to 7965
  155.9473  140.1120  157.1006 H   0  0  0  0  0  0  0  0  0  0  0  0  # atno 8008 bound_to 7997
  154.4102  140.1207  156.5072 H   0  0  0  0  0  0  0  0  0  0  0  0  # atno 8009 bound_to 7997
  155.6886  140.3473  155.4886 H   0  0  0  0  0  0  0  0  0  0  0  0  # atno 8010 bound_to 7997
  140.1856  143.3932  152.1247 H   0  0  0  0  0  0  0  0  0  0  0  0  # atno 10167 bound_to 10162
  156.1038  130.4183  150.0761 H   0  0  0  0  0  0  0  0  0  0  0  0  # atno 10718 bound_to 10713
  154.3139  135.2757  155.2552 H   0  0  0  0  0  0  0  0  0  0  0  0  # atno 10763 bound_to 10752
  154.4936  135.5827  153.6481 H   0  0  0  0  0  0  0  0  0  0  0  0  # atno 10764 bound_to 10752
  152.9884  135.6140  154.3318 H   0  0  0  0  0  0  0  0  0  0  0  0  # atno 10765 bound_to 10752
  140.7118  133.8902  155.8756 H   0  0  0  0  0  0  0  0  0  0  0  0  # atno 11005 bound_to 11000
  145.8904  139.2372  143.1553 LP  0  0  0  0  0  0  0  0  0  0  0  0  # atno 17320 bound_to 7965
  145.9909  140.8603  143.0067 LP  0  0  0  0  0  0  0  0  0  0  0  0  # atno 17321 bound_to 7965
  139.5277  144.7123  151.5168 LP  0  0  0  0  0  0  0  0  0  0  0  0  # atno 17342 bound_to 10162
  140.6490  143.8735  150.6766 LP  0  0  0  0  0  0  0  0  0  0  0  0  # atno 17343 bound_to 10162
  156.8742  130.9534  151.3606 LP  0  0  0  0  0  0  0  0  0  0  0  0  # atno 17370 bound_to 10713
  157.6212  130.8656  149.9112 LP  0  0  0  0  0  0  0  0  0  0  0  0  # atno 17371 bound_to 10713
  141.0078  134.1062  157.4252 LP  0  0  0  0  0  0  0  0  0  0  0  0  # atno 17394 bound_to 11000
  139.8870  135.0086  156.6532 LP  0  0  0  0  0  0  0  0  0  0  0  0  # atno 17395 bound_to 11000

$$$$
