AV-unprocessed.smi:1758|AV-procd|sdf|7084|dock2
  -GOLD-   22720 8303D 1   1.00000     0.00000
 Structure written by MMmdl.
 44 46  0  0  0  0  0  0  0  0  2 V2000
  145.6888  143.3241  153.9093 C   0  0  0  0  0  0  0  0  0  0  0  0
  146.5130  142.5661  154.9566 C   0  0  0  0  0  0  0  0  0  0  0  0
  147.0757  141.3443  154.4163 N   0  0  0  0  0  0  0  0  0  0  0  0
  146.4130  140.1941  154.0369 C   0  0  0  0  0  0  0  0  0  0  0  0
  147.3821  139.3396  153.5923 C   0  0  0  0  0  0  0  0  0  0  0  0
  147.2555  138.0234  153.0818 N   0  0  0  0  0  0  0  0  0  0  0  0
  146.1216  137.3310  152.8878 C   0  0  0  0  0  0  0  0  0  0  0  0
  144.9888  137.7390  153.1441 O   0  0  0  0  0  0  0  0  0  0  0  0
  146.3738  136.1161  152.3811 N   0  0  0  0  0  0  0  0  0  0  0  0
  145.3632  135.1085  152.0735 C   0  0  1  0  0  0  0  0  0  0  0  0
  144.6021  135.4011  150.7684 C   0  0  0  0  0  0  0  0  0  0  0  0
  144.3742  134.0252  150.1110 C   0  0  0  0  0  0  0  0  0  0  0  0
  144.9106  133.0393  151.0688 N   0  3  1  0  0  0  0  0  0  0  0  0
  145.3435  131.7349  150.5219 C   0  0  0  0  0  0  0  0  0  0  0  0
  145.7893  130.8204  151.6806 C   0  0  0  0  0  0  0  0  0  0  0  0
  146.8504  131.5000  152.5700 C   0  0  0  0  0  0  0  0  0  0  0  0
  146.3803  132.8927  153.0324 C   0  0  0  0  0  0  0  0  0  0  0  0
  145.9769  133.7318  151.8080 C   0  0  2  0  0  0  0  0  0  0  0  0
  148.6091  140.0387  153.7319 C   0  0  0  0  0  0  0  0  0  0  0  0
  148.4160  141.2494  154.2323 N   0  0  0  0  0  0  0  0  0  0  0  0
  145.2703  144.2371  154.3324 H   0  0  0  0  0  0  0  0  0  0  0  0
  144.8609  142.7154  153.5449 H   0  0  0  0  0  0  0  0  0  0  0  0
  146.3009  143.6058  153.0521 H   0  0  0  0  0  0  0  0  0  0  0  0
  147.3251  143.1921  155.3284 H   0  0  0  0  0  0  0  0  0  0  0  0
  145.8895  142.3140  155.8149 H   0  0  0  0  0  0  0  0  0  0  0  0
  145.3400  140.0981  154.1152 H   0  0  0  0  0  0  0  0  0  0  0  0
  148.1203  137.5624  152.8392 H   0  0  0  0  0  0  0  0  0  0  0  0
  147.3360  135.8686  152.2012 H   0  0  0  0  0  0  0  0  0  0  0  0
  144.6351  135.0328  152.8842 H   0  0  0  0  0  0  0  0  0  0  0  0
  143.6622  135.9171  150.9689 H   0  0  0  0  0  0  0  0  0  0  0  0
  145.1865  136.0352  150.0999 H   0  0  0  0  0  0  0  0  0  0  0  0
  143.3210  133.8303  149.9070 H   0  0  0  0  0  0  0  0  0  0  0  0
  144.9188  133.9677  149.1673 H   0  0  0  0  0  0  0  0  0  0  0  0
  144.5199  131.2754  149.9742 H   0  0  0  0  0  0  0  0  0  0  0  0
  146.1609  131.8811  149.8140 H   0  0  0  0  0  0  0  0  0  0  0  0
  144.9222  130.5630  152.2905 H   0  0  0  0  0  0  0  0  0  0  0  0
  146.1776  129.8805  151.2870 H   0  0  0  0  0  0  0  0  0  0  0  0
  147.0752  130.8732  153.4335 H   0  0  0  0  0  0  0  0  0  0  0  0
  147.7813  131.5999  152.0103 H   0  0  0  0  0  0  0  0  0  0  0  0
  145.5361  132.7938  153.7162 H   0  0  0  0  0  0  0  0  0  0  0  0
  147.1779  133.3870  153.5875 H   0  0  0  0  0  0  0  0  0  0  0  0
  146.8393  133.8468  151.1471 H   0  0  0  0  0  0  0  0  0  0  0  0
  149.6115  139.7161  153.4924 H   0  0  0  0  0  0  0  0  0  0  0  0
  144.1741  132.8570  151.7356 H   0  0  0  0  0  0  0  0  0  0  0  0
  1  2  1  0  0  0  0
  1 21  1  0  0  0  0
  1 22  1  0  0  0  0
  1 23  1  0  0  0  0
  2  3  1  0  0  0  0
  2 24  1  0  0  0  0
  2 25  1  0  0  0  0
  3 20  1  0  0  0  0
  3  4  1  0  0  0  0
  4  5  2  0  0  0  0
  4 26  1  0  0  0  0
  5  6  1  0  0  0  0
  5 19  1  0  0  0  0
  6  7  1  0  0  0  0
  6 27  1  0  0  0  0
  7  8  2  0  0  0  0
  7  9  1  0  0  0  0
  9 10  1  0  0  0  0
  9 28  1  0  0  0  0
 10 18  1  0  0  0  0
 10 11  1  0  0  0  0
 10 29  1  0  0  0  0
 11 12  1  0  0  0  0
 11 30  1  0  0  0  0
 11 31  1  0  0  0  0
 12 13  1  0  0  0  0
 12 32  1  0  0  0  0
 12 33  1  0  0  0  0
 13 18  1  0  0  0  0
 13 14  1  0  0  0  0
 13 44  1  0  0  0  0
 14 15  1  0  0  0  0
 14 34  1  0  0  0  0
 14 35  1  0  0  0  0
 15 16  1  0  0  0  0
 15 36  1  0  0  0  0
 15 37  1  0  0  0  0
 16 17  1  0  0  0  0
 16 38  1  0  0  0  0
 16 39  1  0  0  0  0
 17 18  1  0  0  0  0
 17 40  1  0  0  0  0
 17 41  1  0  0  0  0
 18 42  1  0  0  0  0
 19 20  2  0  0  0  0
 19 43  1  0  0  0  0
M  CHG  1  13   1
M  END
> <s_m_source_file>
AV-unprocessed.smi

> <i_m_source_file_index>
1758

> <i_lp_mmshare_version>
43012

> <i_f3d_flags>
0

> <s_epik_input>
W0NIM11bQ0gyXW4xW2NIXWMoW2NIXW4xKVtOSF1DKD1PKVtOSF1bQ0BIXShbQ0gyXVtDSDJdMilbQ0BASF0oTjIzKVtDSDJdW0NIMl1bQ0gyXVtDSDJdMw==

> <s_epik_cmdline>
J2VwaWtfcHl0aG9uJywgJy1waCcsICc3LjAnLCAnLXRuJywgJzgnLCAnLW1hJywgJzIwMCcsICctbWV0YWxfYmluZGluZycsICctaW1hZScsICc8aW5maWxlLm1hZT4nLCAnLW9tYWUnLCAnPG91dGZpbGUubWFlPic=

> <r_lp_tautomer_probability>
1

> <r_epik_Ionization_Penalty>
0.00111541

> <r_epik_Ionization_Penalty_Charging>
0.000974069

> <r_epik_Ionization_Penalty_Neutral>
0.000141346

> <r_epik_State_Penalty>
0.000633842

> <r_epik_Charging_Adjusted_Penalty>
0.00160791

> <i_epik_Tot_Q>
1

> <i_epik_Tot_abs_Q>
1

> <r_epik_Metal_State_Penalty>
-0

> <b_epik_Metal_Only>
0

> <s_lp_Force_Field>
OPLS_2005

> <r_lp_Energy>
38.7451

> <b_lp_Chiralities_Consistent>
1

> <s_lp_Variant>
AV-unprocessed.smi:1758-6

> <Gold.Version>
5.8.1

> <Gold.Id.Protein>
6NUR|6NUR_protein|mol2

> <Gold.PLP.Fitness>
41.6193

> <Gold.PLP.PLP>
-32.0568

> <Gold.PLP.part.hbond>
-2.0000

> <Gold.PLP.part.metal>
0.0000

> <Gold.PLP.part.buried>
-0.6094

> <Gold.PLP.part.nonpolar>
-30.1336

> <Gold.PLP.part.repulsive>
0.8931

> <Gold.PLP.ligand.clash>
0.0000

> <Gold.PLP.ligand.torsion>
0.2638

> <Gold.PLP.Chemscore.Hbond>
1.9600

> <Gold.PLP.Chemscore.CHOScore>
1.3999

> <Gold.PLP.Chemscore.Metal>
0.0000

> <Gold.Chemscore.Hbonds>
donor molecule, donor type, donor heavy atom, donor atom, acceptor molecule, acceptor atom, score
      L1  H     6    27       P1  7948  0.96
      L1  H     9    28       P1  7948  1.00
      L1  C     4    26       P1 10175  0.99
      L1  C    19    43       P1  7957  0.41

> <Gold.PLP.Chemscore.Internal.Correction>
0.0105

> <Gold.Rescore>
     Score         DG    S(hbond)    S(metal)    S(lipo)     H(rot)  DE(clash)    DE(int)     intcor
     15.63     -18.72       1.94        0.00      83.75       1.19       1.45       1.65       ----

> <Gold.Chemscore.Fitness>
15.6309

> <Gold.Chemscore.DG>
-18.7233

> <Gold.Chemscore.ZeroCoef>
-5.4800

> <Gold.Chemscore.Hbond>
1.9422

> <Gold.Chemscore.Metal>
0.0000

> <Gold.Chemscore.Lipo>
83.7497

> <Gold.Chemscore.Internal_Hbond>
0.0000

> <Gold.Chemscore.DEClash>
1.4452

> <Gold.Chemscore.DEInternal>
1.6472

> <Gold.Chemscore.Rot>
1.1884

> <Gold.Chemscore.Internal.Correction>
   9.000000E+99

> <Gold.Chemscore.Hbonds>
donor molecule, donor type, donor heavy atom, donor atom, acceptor molecule, acceptor atom, score
      L1  H     6    27       P1  7948  0.92
      L1  H     9    28       P1  7948  0.97

> <Gold.Chemscore.Hbond.Weighted>
-6.4869

> <Gold.Chemscore.Metal.Weighted>
-0.0000

> <Gold.Chemscore.Lipo.Weighted>
-9.7987

> <Gold.Chemscore.Internal_Hbond.Weighted>
0.0000

> <Gold.Chemscore.DEClash.Weighted>
1.4452

> <Gold.Chemscore.DEInternal.Weighted>
1.6472

> <Gold.Chemscore.Rot.Weighted>
3.0423

> <Gold.Chemscore.Internal.Correction.Weighted>
   9.000000E+99

> <Gold.Protein.RotatedTorsions>
[ 6907 6896 6895 6894 ] final  -51.09 input  -60.11 | X-H torsion
[ 7974 7965 7964 7962 ] final   -2.16 input  175.53 | X-H torsion
[ 8008 7997 7996 7995 ] final   64.39 input   59.86 | X-H torsion
[ 10167 10162 10161 10158 ] final  148.43 input  -65.29 | X-H torsion
[ 10718 10713 10712 10709 ] final    6.19 input   66.30 | X-H torsion
[ 10763 10752 10751 10750 ] final  159.83 input  -60.55 | X-H torsion
[ 11005 11000 10999 10996 ] final -106.39 input  -57.11 | X-H torsion

> <Gold.Protein.ActiveResidues>
 VAL166  LYS551  ARG553  GLY616  TRP617  ASP618  TYR619  PRO620  LYS621  CYS622 
 ASP623  PHE694  ASN695  SER759  ASP760  ASP761  ALA762  ILE779  LEU786  VAL792 
 PHE793  MET794  SER795  GLU796  ALA797  LYS798  CYS799  TRP800  GLU811  SER814 

> <Gold.Protein.RotatedAtoms>
  150.8644  134.8004  159.7107 H   0  0  0  0  0  0  0  0  0  0  0  0  # atno 6907 bound_to 6896
  152.4671  134.5047  159.9745 H   0  0  0  0  0  0  0  0  0  0  0  0  # atno 6908 bound_to 6896
  151.5146  133.3440  159.2926 H   0  0  0  0  0  0  0  0  0  0  0  0  # atno 6909 bound_to 6896
  146.2408  140.1530  142.8333 H   0  0  0  0  0  0  0  0  0  0  0  0  # atno 7974 bound_to 7965
  155.6453  140.3497  155.4729 H   0  0  0  0  0  0  0  0  0  0  0  0  # atno 8008 bound_to 7997
  155.9893  140.1190  157.0677 H   0  0  0  0  0  0  0  0  0  0  0  0  # atno 8009 bound_to 7997
  154.4214  140.1122  156.5529 H   0  0  0  0  0  0  0  0  0  0  0  0  # atno 8010 bound_to 7997
  139.4875  144.5679  151.7109 H   0  0  0  0  0  0  0  0  0  0  0  0  # atno 10167 bound_to 10162
  156.9185  130.5782  149.5647 H   0  0  0  0  0  0  0  0  0  0  0  0  # atno 10718 bound_to 10713
  154.2379  135.2776  155.2865 H   0  0  0  0  0  0  0  0  0  0  0  0  # atno 10763 bound_to 10752
  154.5570  135.5658  153.6976 H   0  0  0  0  0  0  0  0  0  0  0  0  # atno 10764 bound_to 10752
  153.0006  135.6288  154.2522 H   0  0  0  0  0  0  0  0  0  0  0  0  # atno 10765 bound_to 10752
  141.1006  133.8890  157.1851 H   0  0  0  0  0  0  0  0  0  0  0  0  # atno 11005 bound_to 11000
  145.0152  140.8748  143.5200 LP  0  0  0  0  0  0  0  0  0  0  0  0  # atno 17320 bound_to 7965
  145.1569  139.2481  143.5411 LP  0  0  0  0  0  0  0  0  0  0  0  0  # atno 17321 bound_to 7965
  140.5261  144.0803  150.6038 LP  0  0  0  0  0  0  0  0  0  0  0  0  # atno 17342 bound_to 10162
  140.3777  143.2819  152.0205 LP  0  0  0  0  0  0  0  0  0  0  0  0  # atno 17343 bound_to 10162
  156.0502  130.5572  150.8972 LP  0  0  0  0  0  0  0  0  0  0  0  0  # atno 17370 bound_to 10713
  157.5923  131.0944  150.9099 LP  0  0  0  0  0  0  0  0  0  0  0  0  # atno 17371 bound_to 10713
  139.9857  135.0083  156.9857 LP  0  0  0  0  0  0  0  0  0  0  0  0  # atno 17394 bound_to 11000
  140.5030  134.1078  155.7254 LP  0  0  0  0  0  0  0  0  0  0  0  0  # atno 17395 bound_to 11000

$$$$
