#       Name:                AV-unprocessed.smi:35
#       Creating user name   scv26
#       Creation time:       Thu Mar 26 16:03:09 2020


#       File generated by GOLD software.
#

@<TRIPOS>MOLECULE
AV-unprocessed.smi:35
    41    42     1
SMALL
NO_CHARGES


@<TRIPOS>ATOM
      1 ****        -2.1780   4.7614  -1.0798 O.2            1 S1                 0.0000
      2 ****        -1.9446   3.6256  -0.6701 C.2            1 S1                 0.0000
      3 ****        -2.9237   2.7737  -0.2488 N.pl3          1 S1                -1.0000
      4 ****        -2.6598   1.5141   0.2091 C.2            1 S1                 0.0000
      5 ****        -3.5400   0.7318   0.5669 O.2            1 S1                 0.0000
      6 ****        -1.3087   1.0744   0.2698 N.am           1 S1                 0.0000
      7 ****        -0.9971  -0.3192   0.7700 C.3            1 S1                 0.0000
      8 ****         0.2911  -0.3258   1.3169 O.3            1 S1                 0.0000
      9 ****         1.0865  -1.3379   0.7080 C.3            1 S1                 0.0000
     10 ****         2.5577  -0.8934   0.7031 C.3            1 S1                 0.0000
     11 ****         3.3956  -1.9509   0.2865 O.3            1 S1                 0.0000
     12 ****         0.4598  -1.5103  -0.6771 C.3            1 S1                 0.0000
     13 ****         0.7568  -2.7581  -1.2750 O.3            1 S1                 0.0000
     14 ****        -1.0258  -1.3198  -0.3958 C.3            1 S1                 0.0000
     15 ****        -1.6704  -2.5208  -0.0125 O.3            1 S1                 0.0000
     16 ****        -0.2957   1.9100  -0.1694 C.2            1 S1                 0.0000
     17 ****        -0.5649   3.1487  -0.6280 C.2            1 S1                 0.0000
     18 ****         0.9832   4.2318  -1.2250 Br             1 S1                 0.0000
     19 ****        -1.7192  -0.5307   1.5602 H              1 S1                 0.0000
     20 ****         0.9615  -2.2484   1.2971 H              1 S1                 0.0000
     21 ****         2.7058  -0.0291   0.0552 H              1 S1                 0.0000
     22 ****         2.8594  -0.5969   1.7079 H              1 S1                 0.0000
     23 ****         4.2928  -1.6566   0.3256 H              1 S1                 0.0000
     24 ****         0.8019  -0.7114  -1.3364 H              1 S1                 0.0000
     25 ****         1.6953  -2.8315  -1.3598 H              1 S1                 0.0000
     26 ****        -1.5548  -0.9086  -1.2567 H              1 S1                 0.0000
     27 ****        -1.1951  -2.8951   0.7131 H              1 S1                 0.0000
     28 ****         0.7293   1.5725  -0.1538 H              1 S1                 0.0000
     29 ****        -1.4265   5.3489  -1.3802 LP             1 S1                 0.0000
     30 ****        -3.1192   5.0975  -1.1127 LP             1 S1                 0.0000
     31 ****        -3.8738   3.0844  -0.2764 LP             1 S1                 0.0000
     32 ****        -4.5002   1.0086   0.5297 LP             1 S1                 0.0000
     33 ****        -3.2949  -0.1806   0.8947 LP             1 S1                 0.0000
     34 ****         0.2306  -0.5016   2.2994 LP             1 S1                 0.0000
     35 ****         0.7183   0.5653   1.1634 LP             1 S1                 0.0000
     36 ****         3.1672  -2.2127  -0.6512 LP             1 S1                 0.0000
     37 ****         3.2721  -2.7374   0.8916 LP             1 S1                 0.0000
     38 ****         0.3308  -2.8100  -2.1783 LP             1 S1                 0.0000
     39 ****         0.4105  -3.4993  -0.7001 LP             1 S1                 0.0000
     40 ****        -1.6749  -3.1617  -0.7801 LP             1 S1                 0.0000
     41 ****        -2.6112  -2.3258   0.2644 LP             1 S1                 0.0000
@<TRIPOS>BOND
    1    1    2 2     
    2    2   17 1     
    3    2    3 1     
    4    3    4 1     
    5    4    5 2     
    6    4    6 am    
    7    6    7 1     
    8    6   16 1     
    9    7   14 1     
   10    7    8 1     
   11    7   19 1     
   12    8    9 1     
   13    9   10 1     
   14    9   12 1     
   15    9   20 1     
   16   10   11 1     
   17   10   21 1     
   18   10   22 1     
   19   11   23 1     
   20   12   13 1     
   21   12   14 1     
   22   12   24 1     
   23   13   25 1     
   24   14   15 1     
   25   14   26 1     
   26   15   27 1     
   27   16   17 2     
   28   16   28 1     
   29   17   18 1     
   30    1   29 1     
   31    1   30 1     
   32    3   31 1     
   33    5   32 1     
   34    5   33 1     
   35    8   34 1     
   36    8   35 1     
   37   11   36 1     
   38   11   37 1     
   39   13   38 1     
   40   13   39 1     
   41   15   40 1     
   42   15   41 1     
@<TRIPOS>SUBSTRUCTURE
      1 S1             1
@<TRIPOS>SET
LONE_PAIRS      STATIC     ATOMS    <user>   **** ""
13 29 30 31 32 33 34 35 36 37 38 39 40 41
DONOR_HYDROGENS      STATIC     ATOMS    <user>   **** ""
3 23 25 27
ATOM$BLUE        STATIC     ATOMS    COLORGROUP SYSTEM
13 29 30 31 32 33 34 35 36 37 38 39 40 41
ATOM$RED        STATIC     ATOMS    COLORGROUP SYSTEM
3 23 25 27
