AV-unprocessed.smi:2106|AV-procd|sdf|8598|dock10
  -GOLD-   2272011333D 1   1.00000     0.00000
 Structure written by MMmdl.
 48 49  0  0  0  0  0  0  0  0  2 V2000
  154.2420  140.7277  160.9635 C   0  0  0  0  0  0  0  0  0  0  0  0
  153.3672  141.3874  159.9389 C   0  0  0  0  0  0  0  0  0  0  0  0
  153.2720  142.7710  159.6214 C   0  0  0  0  0  0  0  0  0  0  0  0
  152.3374  142.8261  158.6263 C   0  0  0  0  0  0  0  0  0  0  0  0
  151.8001  143.9995  157.8749 C   0  0  0  0  0  0  0  0  0  0  0  0
  151.9233  141.5264  158.3928 N   0  0  0  0  0  0  0  0  0  0  0  0
  150.9518  141.0313  157.4307 C   0  0  0  0  0  0  0  0  0  0  0  0
  151.5905  140.0245  156.4727 C   0  0  0  0  0  0  0  0  0  0  0  0
  152.4531  140.3927  155.6754 O   0  0  0  0  0  0  0  0  0  0  0  0
  151.1602  138.7563  156.5618 N   0  0  0  0  0  0  0  0  0  0  0  0
  151.6599  137.6426  155.7640 C   0  0  0  0  0  0  0  0  0  0  0  0
  150.8942  137.5036  154.4331 C   0  0  0  0  0  0  0  0  0  0  0  0
  149.8147  136.4868  154.4975 N   0  3  1  0  0  0  0  0  0  0  0  0
  150.3245  135.1533  154.8937 C   0  0  0  0  0  0  0  0  0  0  0  0
  149.1973  134.1055  154.8503 C   0  0  1  0  0  0  0  0  0  0  0  0
  149.6672  132.7355  155.3517 C   0  0  0  0  0  0  0  0  0  0  0  0
  148.1220  134.5286  155.6842 O   0  0  0  0  0  0  0  0  0  0  0  0
  147.5725  135.8035  155.3538 C   0  0  2  0  0  0  0  0  0  0  0  0
  146.7624  135.7686  154.0453 C   0  0  0  0  0  0  0  0  0  0  0  0
  148.6767  136.8790  155.3656 C   0  0  0  0  0  0  0  0  0  0  0  0
  152.5576  140.6471  159.1995 N   0  0  0  0  0  0  0  0  0  0  0  0
  154.8265  141.4646  161.5145 H   0  0  0  0  0  0  0  0  0  0  0  0
  154.9401  140.0335  160.4953 H   0  0  0  0  0  0  0  0  0  0  0  0
  153.6478  140.1685  161.6868 H   0  0  0  0  0  0  0  0  0  0  0  0
  153.8101  143.5992  160.0582 H   0  0  0  0  0  0  0  0  0  0  0  0
  152.2852  144.9215  158.1952 H   0  0  0  0  0  0  0  0  0  0  0  0
  150.7284  144.1098  158.0409 H   0  0  0  0  0  0  0  0  0  0  0  0
  151.9691  143.8878  156.8039 H   0  0  0  0  0  0  0  0  0  0  0  0
  150.1167  140.5718  157.9626 H   0  0  0  0  0  0  0  0  0  0  0  0
  150.5424  141.8712  156.8685 H   0  0  0  0  0  0  0  0  0  0  0  0
  150.4535  138.5454  157.2521 H   0  0  0  0  0  0  0  0  0  0  0  0
  152.7284  137.7827  155.5995 H   0  0  0  0  0  0  0  0  0  0  0  0
  151.5519  136.7310  156.3523 H   0  0  0  0  0  0  0  0  0  0  0  0
  150.4551  138.4730  154.1927 H   0  0  0  0  0  0  0  0  0  0  0  0
  151.5714  137.2602  153.6129 H   0  0  0  0  0  0  0  0  0  0  0  0
  151.1279  134.8510  154.2207 H   0  0  0  0  0  0  0  0  0  0  0  0
  150.7515  135.2106  155.8966 H   0  0  0  0  0  0  0  0  0  0  0  0
  148.8454  133.9872  153.8252 H   0  0  0  0  0  0  0  0  0  0  0  0
  150.4880  132.3539  154.7437 H   0  0  0  0  0  0  0  0  0  0  0  0
  148.8572  132.0068  155.3110 H   0  0  0  0  0  0  0  0  0  0  0  0
  150.0127  132.7902  156.3844 H   0  0  0  0  0  0  0  0  0  0  0  0
  146.8689  136.0427  156.1519 H   0  0  0  0  0  0  0  0  0  0  0  0
  146.2436  136.7145  153.8872 H   0  0  0  0  0  0  0  0  0  0  0  0
  146.0082  134.9820  154.0766 H   0  0  0  0  0  0  0  0  0  0  0  0
  147.3903  135.5954  153.1716 H   0  0  0  0  0  0  0  0  0  0  0  0
  149.0395  137.0187  156.3853 H   0  0  0  0  0  0  0  0  0  0  0  0
  148.2542  137.8323  155.0504 H   0  0  0  0  0  0  0  0  0  0  0  0
  149.4531  136.3876  153.5597 H   0  0  0  0  0  0  0  0  0  0  0  0
  1  2  1  0  0  0  0
  1 22  1  0  0  0  0
  1 23  1  0  0  0  0
  1 24  1  0  0  0  0
  2 21  2  0  0  0  0
  2  3  1  0  0  0  0
  3  4  2  0  0  0  0
  3 25  1  0  0  0  0
  4  5  1  0  0  0  0
  4  6  1  0  0  0  0
  5 26  1  0  0  0  0
  5 27  1  0  0  0  0
  5 28  1  0  0  0  0
  6  7  1  0  0  0  0
  6 21  1  0  0  0  0
  7  8  1  0  0  0  0
  7 29  1  0  0  0  0
  7 30  1  0  0  0  0
  8  9  2  0  0  0  0
  8 10  1  0  0  0  0
 10 11  1  0  0  0  0
 10 31  1  0  0  0  0
 11 12  1  0  0  0  0
 11 32  1  0  0  0  0
 11 33  1  0  0  0  0
 12 13  1  0  0  0  0
 12 34  1  0  0  0  0
 12 35  1  0  0  0  0
 13 20  1  0  0  0  0
 13 14  1  0  0  0  0
 13 48  1  0  0  0  0
 14 15  1  0  0  0  0
 14 36  1  0  0  0  0
 14 37  1  0  0  0  0
 15 16  1  0  0  0  0
 15 17  1  0  0  0  0
 15 38  1  0  0  0  0
 16 39  1  0  0  0  0
 16 40  1  0  0  0  0
 16 41  1  0  0  0  0
 17 18  1  0  0  0  0
 18 19  1  0  0  0  0
 18 20  1  0  0  0  0
 18 42  1  0  0  0  0
 19 43  1  0  0  0  0
 19 44  1  0  0  0  0
 19 45  1  0  0  0  0
 20 46  1  0  0  0  0
 20 47  1  0  0  0  0
M  CHG  1  13   1
M  END
> <s_m_source_file>
AV-unprocessed.smi

> <i_m_source_file_index>
2106

> <i_lp_mmshare_version>
43012

> <i_f3d_flags>
0

> <s_epik_input>
W0NIM11jMVtjSF1jKFtDSDNdKW4objEpW0NIMl1DKD1PKVtOSF1bQ0gyXVtDSDJdTjJbQ0gyXVtDQEBIXShbQ0gzXSlPW0NAQEhdKFtDSDNdKVtDSDJdMg==

> <s_epik_cmdline>
J2VwaWtfcHl0aG9uJywgJy1waCcsICc3LjAnLCAnLXRuJywgJzgnLCAnLW1hJywgJzIwMCcsICctbWV0YWxfYmluZGluZycsICctaW1hZScsICc8aW5maWxlLm1hZT4nLCAnLW9tYWUnLCAnPG91dGZpbGUubWFlPic=

> <r_lp_tautomer_probability>
1

> <r_epik_Ionization_Penalty>
0.748586

> <r_epik_Ionization_Penalty_Charging>
0.748396

> <r_epik_Ionization_Penalty_Neutral>
0.000189656

> <r_epik_State_Penalty>
0.775162

> <r_epik_Charging_Adjusted_Penalty>
1.52356

> <i_epik_Tot_Q>
1

> <i_epik_Tot_abs_Q>
1

> <r_epik_Metal_State_Penalty>
0.775295

> <b_epik_Metal_Only>
0

> <s_lp_Force_Field>
OPLS_2005

> <r_lp_Energy>
15.4858

> <b_lp_Chiralities_Consistent>
1

> <s_lp_Variant>
AV-unprocessed.smi:2106-6

> <Gold.Version>
5.8.1

> <Gold.Id.Protein>
6NUR|6NUR_protein|mol2

> <Gold.PLP.Fitness>
44.6853

> <Gold.PLP.PLP>
-35.9810

> <Gold.PLP.part.hbond>
-3.0641

> <Gold.PLP.part.metal>
0.0000

> <Gold.PLP.part.buried>
0.3024

> <Gold.PLP.part.nonpolar>
-32.7825

> <Gold.PLP.part.repulsive>
0.1252

> <Gold.PLP.ligand.clash>
0.0000

> <Gold.PLP.ligand.torsion>
0.5075

> <Gold.PLP.Chemscore.Hbond>
3.2257

> <Gold.PLP.Chemscore.CHOScore>
0.0000

> <Gold.PLP.Chemscore.Metal>
0.0000

> <Gold.Chemscore.Hbonds>
donor molecule, donor type, donor heavy atom, donor atom, acceptor molecule, acceptor atom, score
      L1  H    13    48       P1  7948  2.00
      P1  H  7989  7998       L1     9  0.11
      P1  H  7997  8009       L1     9  1.00

> <Gold.PLP.Chemscore.Internal.Correction>
0.0423

> <Gold.Rescore>
     Score         DG    S(hbond)    S(metal)    S(lipo)     H(rot)  DE(clash)    DE(int)     intcor
     17.23     -18.10       2.05        0.00      87.18       1.73       0.29       0.59       ----

> <Gold.Chemscore.Fitness>
17.2271

> <Gold.Chemscore.DG>
-18.1036

> <Gold.Chemscore.ZeroCoef>
-5.4800

> <Gold.Chemscore.Hbond>
2.0530

> <Gold.Chemscore.Metal>
0.0000

> <Gold.Chemscore.Lipo>
87.1762

> <Gold.Chemscore.Internal_Hbond>
0.0000

> <Gold.Chemscore.DEClash>
0.2858

> <Gold.Chemscore.DEInternal>
0.5907

> <Gold.Chemscore.Rot>
1.7316

> <Gold.Chemscore.Internal.Correction>
   9.000000E+99

> <Gold.Chemscore.Hbonds>
donor molecule, donor type, donor heavy atom, donor atom, acceptor molecule, acceptor atom, score
      L1  H    13    48       P1  7948  0.74
      P1  H  7989  7998       L1     9  0.10
      P1  H  7997  8009       L1     9  0.94

> <Gold.Chemscore.Hbond.Weighted>
-6.8570

> <Gold.Chemscore.Metal.Weighted>
-0.0000

> <Gold.Chemscore.Lipo.Weighted>
-10.1996

> <Gold.Chemscore.Internal_Hbond.Weighted>
0.0000

> <Gold.Chemscore.DEClash.Weighted>
0.2858

> <Gold.Chemscore.DEInternal.Weighted>
0.5907

> <Gold.Chemscore.Rot.Weighted>
4.4330

> <Gold.Chemscore.Internal.Correction.Weighted>
   9.000000E+99

> <Gold.Protein.RotatedTorsions>
[ 6907 6896 6895 6894 ] final   16.59 input  -60.11 | X-H torsion
[ 7974 7965 7964 7962 ] final  111.53 input  175.53 | X-H torsion
[ 8008 7997 7996 7995 ] final -147.87 input   59.86 | X-H torsion
[ 10167 10162 10161 10158 ] final  -22.09 input  -65.29 | X-H torsion
[ 10718 10713 10712 10709 ] final -163.60 input   66.30 | X-H torsion
[ 10763 10752 10751 10750 ] final  174.99 input  -60.55 | X-H torsion
[ 11005 11000 10999 10996 ] final  -25.13 input  -57.11 | X-H torsion

> <Gold.Protein.ActiveResidues>
 VAL166  LYS551  ARG553  GLY616  TRP617  ASP618  TYR619  PRO620  LYS621  CYS622 
 ASP623  PHE694  ASN695  SER759  ASP760  ASP761  ALA762  ILE779  LEU786  VAL792 
 PHE793  MET794  SER795  GLU796  ALA797  LYS798  CYS799  TRP800  GLU811  SER814 

> <Gold.Protein.RotatedAtoms>
  151.8363  135.0605  160.0442 H   0  0  0  0  0  0  0  0  0  0  0  0  # atno 6907 bound_to 6896
  152.2843  133.5495  159.5525 H   0  0  0  0  0  0  0  0  0  0  0  0  # atno 6908 bound_to 6896
  150.7202  134.0436  159.3816 H   0  0  0  0  0  0  0  0  0  0  0  0  # atno 6909 bound_to 6896
  145.2410  139.2779  143.4118 H   0  0  0  0  0  0  0  0  0  0  0  0  # atno 7974 bound_to 7965
  155.5826  140.0645  157.2779 H   0  0  0  0  0  0  0  0  0  0  0  0  # atno 8008 bound_to 7997
  154.4328  140.1849  156.1038 H   0  0  0  0  0  0  0  0  0  0  0  0  # atno 8009 bound_to 7997
  156.0294  140.3308  155.7126 H   0  0  0  0  0  0  0  0  0  0  0  0  # atno 8010 bound_to 7997
  140.7285  143.4566  151.0439 H   0  0  0  0  0  0  0  0  0  0  0  0  # atno 10167 bound_to 10162
  156.6270  130.8914  151.2969 H   0  0  0  0  0  0  0  0  0  0  0  0  # atno 10718 bound_to 10713
  154.4615  135.2768  155.1709 H   0  0  0  0  0  0  0  0  0  0  0  0  # atno 10763 bound_to 10752
  154.3495  135.6153  153.5639 H   0  0  0  0  0  0  0  0  0  0  0  0  # atno 10764 bound_to 10752
  152.9855  135.5808  154.4978 H   0  0  0  0  0  0  0  0  0  0  0  0  # atno 10765 bound_to 10752
  140.8909  133.7589  156.0420 H   0  0  0  0  0  0  0  0  0  0  0  0  # atno 11005 bound_to 11000
  146.3328  140.2773  142.8608 LP  0  0  0  0  0  0  0  0  0  0  0  0  # atno 17320 bound_to 7965
  144.9589  140.8255  143.5526 LP  0  0  0  0  0  0  0  0  0  0  0  0  # atno 17321 bound_to 7965
  139.8247  143.7771  152.3178 LP  0  0  0  0  0  0  0  0  0  0  0  0  # atno 17342 bound_to 10162
  139.7866  144.7425  151.0013 LP  0  0  0  0  0  0  0  0  0  0  0  0  # atno 17343 bound_to 10162
  157.7211  130.9560  150.1443 LP  0  0  0  0  0  0  0  0  0  0  0  0  # atno 17370 bound_to 10713
  156.2265  130.3678  149.8494 LP  0  0  0  0  0  0  0  0  0  0  0  0  # atno 17371 bound_to 10713
  140.8348  134.3136  157.5335 LP  0  0  0  0  0  0  0  0  0  0  0  0  # atno 17394 bound_to 11000
  139.8729  134.9383  156.3711 LP  0  0  0  0  0  0  0  0  0  0  0  0  # atno 17395 bound_to 11000

$$$$
