AV-unprocessed.smi:1264|AV-procd|sdf|5314|dock4
  -GOLD-   22720 4443D 1   1.00000     0.00000
 Structure written by MMmdl.
 43 43  0  0  0  0  0  0  0  0  1 V2000
  146.3054  138.1134  152.2451 C   0  0  0  0  0  0  0  0  0  0  0  0
  146.5217  136.6754  152.2095 N   0  0  0  0  0  0  0  0  0  0  0  0
  145.5426  135.7681  152.0850 C   0  0  0  0  0  0  0  0  0  0  0  0
  144.3508  136.0718  152.0015 O   0  0  0  0  0  0  0  0  0  0  0  0
  145.9799  134.2932  152.0716 C   0  0  1  0  0  0  0  0  0  0  0  0
  145.8288  133.7680  150.6242 C   0  0  0  0  0  0  0  0  0  0  0  0
  145.6799  132.2350  150.4913 C   0  0  0  0  0  0  0  0  0  0  0  0
  145.8378  131.8041  149.0253 C   0  0  0  0  0  0  0  0  0  0  0  0
  144.3456  131.7219  151.0581 C   0  0  0  0  0  0  0  0  0  0  0  0
  147.3843  134.1899  152.4647 N   0  0  0  0  0  0  0  0  0  0  0  0
  147.8769  133.3464  153.3853 C   0  0  0  0  0  0  0  0  0  0  0  0
  147.1935  132.5153  153.9828 O   0  0  0  0  0  0  0  0  0  0  0  0
  149.3687  133.4739  153.6882 C   0  0  0  0  0  0  0  0  0  0  0  0
  149.6333  133.0171  155.1000 C   0  0  0  0  0  0  0  0  0  0  0  0
  150.0543  133.8049  156.2095 C   0  0  0  0  0  0  0  0  0  0  0  0
  150.3359  135.2792  156.2539 C   0  0  0  0  0  0  0  0  0  0  0  0
  150.1944  133.0795  157.3065 N   0  0  0  0  0  0  0  0  0  0  0  0
  149.8725  131.7686  156.9424 O   0  0  0  0  0  0  0  0  0  0  0  0
  149.5433  131.7571  155.6258 C   0  0  0  0  0  0  0  0  0  0  0  0
  149.1774  130.4346  155.0414 C   0  0  0  0  0  0  0  0  0  0  0  0
  147.2595  138.6303  152.3487 H   0  0  0  0  0  0  0  0  0  0  0  0
  145.6733  138.3900  153.0900 H   0  0  0  0  0  0  0  0  0  0  0  0
  145.8291  138.4572  151.3258 H   0  0  0  0  0  0  0  0  0  0  0  0
  147.4748  136.3486  152.2777 H   0  0  0  0  0  0  0  0  0  0  0  0
  145.3509  133.7203  152.7548 H   0  0  0  0  0  0  0  0  0  0  0  0
  144.9656  134.2417  150.1526 H   0  0  0  0  0  0  0  0  0  0  0  0
  146.6946  134.0855  150.0395 H   0  0  0  0  0  0  0  0  0  0  0  0
  146.4849  131.7557  151.0492 H   0  0  0  0  0  0  0  0  0  0  0  0
  145.0596  132.2405  148.3978 H   0  0  0  0  0  0  0  0  0  0  0  0
  145.7777  130.7202  148.9245 H   0  0  0  0  0  0  0  0  0  0  0  0
  146.8026  132.1161  148.6241 H   0  0  0  0  0  0  0  0  0  0  0  0
  143.4966  132.1988  150.5675 H   0  0  0  0  0  0  0  0  0  0  0  0
  144.2633  131.9086  152.1284 H   0  0  0  0  0  0  0  0  0  0  0  0
  144.2486  130.6453  150.9145 H   0  0  0  0  0  0  0  0  0  0  0  0
  148.0231  134.8418  152.0337 H   0  0  0  0  0  0  0  0  0  0  0  0
  149.9302  132.8816  152.9649 H   0  0  0  0  0  0  0  0  0  0  0  0
  149.6803  134.5082  153.5374 H   0  0  0  0  0  0  0  0  0  0  0  0
  150.8947  135.5965  155.3733 H   0  0  0  0  0  0  0  0  0  0  0  0
  150.9236  135.5514  157.1315 H   0  0  0  0  0  0  0  0  0  0  0  0
  149.4089  135.8517  156.2829 H   0  0  0  0  0  0  0  0  0  0  0  0
  148.4994  130.5555  154.1968 H   0  0  0  0  0  0  0  0  0  0  0  0
  148.6840  129.8040  155.7811 H   0  0  0  0  0  0  0  0  0  0  0  0
  150.0666  129.9119  154.6887 H   0  0  0  0  0  0  0  0  0  0  0  0
  1  2  1  0  0  0  0
  1 21  1  0  0  0  0
  1 22  1  0  0  0  0
  1 23  1  0  0  0  0
  2  3  1  0  0  0  0
  2 24  1  0  0  0  0
  3  4  2  0  0  0  0
  3  5  1  0  0  0  0
  5  6  1  0  0  0  0
  5 10  1  0  0  0  0
  5 25  1  0  0  0  0
  6  7  1  0  0  0  0
  6 26  1  0  0  0  0
  6 27  1  0  0  0  0
  7  8  1  0  0  0  0
  7  9  1  0  0  0  0
  7 28  1  0  0  0  0
  8 29  1  0  0  0  0
  8 30  1  0  0  0  0
  8 31  1  0  0  0  0
  9 32  1  0  0  0  0
  9 33  1  0  0  0  0
  9 34  1  0  0  0  0
 10 11  1  0  0  0  0
 10 35  1  0  0  0  0
 11 12  2  0  0  0  0
 11 13  1  0  0  0  0
 13 14  1  0  0  0  0
 13 36  1  0  0  0  0
 13 37  1  0  0  0  0
 14 19  2  0  0  0  0
 14 15  1  0  0  0  0
 15 16  1  0  0  0  0
 15 17  2  0  0  0  0
 16 38  1  0  0  0  0
 16 39  1  0  0  0  0
 16 40  1  0  0  0  0
 17 18  1  0  0  0  0
 18 19  1  0  0  0  0
 19 20  1  0  0  0  0
 20 41  1  0  0  0  0
 20 42  1  0  0  0  0
 20 43  1  0  0  0  0
M  END
> <s_m_source_file>
AV-unprocessed.smi

> <i_m_source_file_index>
1264

> <i_lp_mmshare_version>
43012

> <i_f3d_flags>
0

> <s_epik_input>
W0NIM11bTkhdQyg9TylbQ0BIXShbQ0gyXVtDSF0oW0NIM10pW0NIM10pW05IXUMoPU8pW0NIMl1jMWMoW0NIM10pbm9jMVtDSDNd

> <s_epik_cmdline>
J2VwaWtfcHl0aG9uJywgJy1waCcsICc3LjAnLCAnLXRuJywgJzgnLCAnLW1hJywgJzIwMCcsICctbWV0YWxfYmluZGluZycsICctaW1hZScsICc8aW5maWxlLm1hZT4nLCAnLW9tYWUnLCAnPG91dGZpbGUubWFlPic=

> <r_lp_tautomer_probability>
1

> <r_epik_Ionization_Penalty>
6.00781e-08

> <r_epik_Ionization_Penalty_Charging>
0

> <r_epik_Ionization_Penalty_Neutral>
6.00781e-08

> <r_epik_State_Penalty>
-0

> <r_epik_Charging_Adjusted_Penalty>
0

> <i_epik_Tot_Q>
0

> <i_epik_Tot_abs_Q>
0

> <r_epik_Metal_State_Penalty>
-0

> <b_epik_Metal_Only>
0

> <s_lp_Force_Field>
OPLS_2005

> <r_lp_Energy>
-0.987692

> <b_lp_Chiralities_Consistent>
1

> <s_lp_Variant>
AV-unprocessed.smi:1264-2

> <Gold.Version>
5.8.1

> <Gold.Id.Protein>
6NUR|6NUR_protein|mol2

> <Gold.PLP.Fitness>
40.9839

> <Gold.PLP.PLP>
-34.1030

> <Gold.PLP.part.hbond>
-3.0000

> <Gold.PLP.part.metal>
0.0000

> <Gold.PLP.part.buried>
-4.4612

> <Gold.PLP.part.nonpolar>
-27.4849

> <Gold.PLP.part.repulsive>
0.2289

> <Gold.PLP.ligand.clash>
0.0000

> <Gold.PLP.ligand.torsion>
1.0960

> <Gold.PLP.Chemscore.Hbond>
2.9913

> <Gold.PLP.Chemscore.CHOScore>
0.0000

> <Gold.PLP.Chemscore.Metal>
0.0000

> <Gold.Chemscore.Hbonds>
donor molecule, donor type, donor heavy atom, donor atom, acceptor molecule, acceptor atom, score
      L1  H     2    24       P1  7948  0.99
      L1  H    10    35       P1  7948  1.00
      P1  H  6896  6909       L1    17  0.63

> <Gold.PLP.Chemscore.Internal.Correction>
0.0990

> <Gold.Rescore>
     Score         DG    S(hbond)    S(metal)    S(lipo)     H(rot)  DE(clash)    DE(int)     intcor
     16.60     -18.26       2.79        0.00      75.47       2.09       0.00       1.66       ----

> <Gold.Chemscore.Fitness>
16.6013

> <Gold.Chemscore.DG>
-18.2598

> <Gold.Chemscore.ZeroCoef>
-5.4800

> <Gold.Chemscore.Hbond>
2.7870

> <Gold.Chemscore.Metal>
0.0000

> <Gold.Chemscore.Lipo>
75.4659

> <Gold.Chemscore.Internal_Hbond>
0.0000

> <Gold.Chemscore.DEClash>
0.0015

> <Gold.Chemscore.DEInternal>
1.6571

> <Gold.Chemscore.Rot>
2.0931

> <Gold.Chemscore.Internal.Correction>
   9.000000E+99

> <Gold.Chemscore.Hbonds>
donor molecule, donor type, donor heavy atom, donor atom, acceptor molecule, acceptor atom, score
      L1  H     2    24       P1  7948  0.91
      L1  H    10    35       P1  7948  0.39
      P1  H  6896  6909       L1    17  0.58

> <Gold.Chemscore.Hbond.Weighted>
-9.3087

> <Gold.Chemscore.Metal.Weighted>
-0.0000

> <Gold.Chemscore.Lipo.Weighted>
-8.8295

> <Gold.Chemscore.Internal_Hbond.Weighted>
0.0000

> <Gold.Chemscore.DEClash.Weighted>
0.0015

> <Gold.Chemscore.DEInternal.Weighted>
1.6571

> <Gold.Chemscore.Rot.Weighted>
5.3584

> <Gold.Chemscore.Internal.Correction.Weighted>
   9.000000E+99

> <Gold.Protein.RotatedTorsions>
[ 6907 6896 6895 6894 ] final  -32.27 input  -60.11 | X-H torsion
[ 7974 7965 7964 7962 ] final    0.15 input  175.53 | X-H torsion
[ 8008 7997 7996 7995 ] final -116.02 input   59.86 | X-H torsion
[ 10167 10162 10161 10158 ] final  -62.03 input  -65.29 | X-H torsion
[ 10718 10713 10712 10709 ] final  125.57 input   66.30 | X-H torsion
[ 10763 10752 10751 10750 ] final  -25.89 input  -60.55 | X-H torsion
[ 11005 11000 10999 10996 ] final   82.36 input  -57.11 | X-H torsion

> <Gold.Protein.ActiveResidues>
 VAL166  LYS551  ARG553  GLY616  TRP617  ASP618  TYR619  PRO620  LYS621  CYS622 
 ASP623  PHE694  ASN695  SER759  ASP760  ASP761  ALA762  ILE779  LEU786  VAL792 
 PHE793  MET794  SER795  GLU796  ALA797  LYS798  CYS799  TRP800  GLU811  SER814 

> <Gold.Protein.RotatedAtoms>
  151.0810  134.9858  159.8355 H   0  0  0  0  0  0  0  0  0  0  0  0  # atno 6907 bound_to 6896
  152.5419  134.2182  159.8787 H   0  0  0  0  0  0  0  0  0  0  0  0  # atno 6908 bound_to 6896
  151.2212  133.4457  159.2634 H   0  0  0  0  0  0  0  0  0  0  0  0  # atno 6909 bound_to 6896
  146.2432  140.1182  142.8341 H   0  0  0  0  0  0  0  0  0  0  0  0  # atno 7974 bound_to 7965
  155.0613  140.0393  157.2577 H   0  0  0  0  0  0  0  0  0  0  0  0  # atno 8008 bound_to 7997
  154.7057  140.2682  155.6652 H   0  0  0  0  0  0  0  0  0  0  0  0  # atno 8009 bound_to 7997
  156.2774  140.2731  156.1683 H   0  0  0  0  0  0  0  0  0  0  0  0  # atno 8010 bound_to 7997
  140.5966  143.2352  151.6021 H   0  0  0  0  0  0  0  0  0  0  0  0  # atno 10167 bound_to 10162
  157.5492  131.1094  150.8731 H   0  0  0  0  0  0  0  0  0  0  0  0  # atno 10718 bound_to 10713
  153.7072  135.6953  153.5047 H   0  0  0  0  0  0  0  0  0  0  0  0  # atno 10763 bound_to 10752
  153.2299  135.4341  155.0583 H   0  0  0  0  0  0  0  0  0  0  0  0  # atno 10764 bound_to 10752
  154.8326  135.3481  154.6609 H   0  0  0  0  0  0  0  0  0  0  0  0  # atno 10765 bound_to 10752
  139.9066  134.8065  156.2164 H   0  0  0  0  0  0  0  0  0  0  0  0  # atno 11005 bound_to 11000
  145.0429  140.8959  143.5041 LP  0  0  0  0  0  0  0  0  0  0  0  0  # atno 17320 bound_to 7965
  145.1266  139.2659  143.5561 LP  0  0  0  0  0  0  0  0  0  0  0  0  # atno 17321 bound_to 7965
  139.5263  144.3051  152.1041 LP  0  0  0  0  0  0  0  0  0  0  0  0  # atno 17342 bound_to 10162
  140.2224  144.4452  150.6336 LP  0  0  0  0  0  0  0  0  0  0  0  0  # atno 17343 bound_to 10162
  156.9261  130.5332  149.5279 LP  0  0  0  0  0  0  0  0  0  0  0  0  # atno 17370 bound_to 10713
  156.0562  130.5623  150.9095 LP  0  0  0  0  0  0  0  0  0  0  0  0  # atno 17371 bound_to 10713
  141.0433  133.6926  156.1638 LP  0  0  0  0  0  0  0  0  0  0  0  0  # atno 17394 bound_to 11000
  140.6922  134.4654  157.5588 LP  0  0  0  0  0  0  0  0  0  0  0  0  # atno 17395 bound_to 11000

$$$$
