AV-unprocessed.smi:1283|AV-procd|sdf|5362|dock1
  -GOLD-   22720 4503D 1   1.00000     0.00000
 Structure written by MMmdl.
 30 31  0  0  0  0  0  0  0  0  1 V2000
  151.9585  137.8721  153.8886 C   0  0  0  0  0  0  0  0  0  0  0  0
  151.8313  138.6063  155.1485 N   0  0  0  0  0  0  0  0  0  0  0  0
  151.3791  139.8987  154.9822 N   0  0  0  0  0  0  0  0  0  0  0  0
  151.2259  140.6565  156.0127 C   0  0  0  0  0  0  0  0  0  0  0  0
  151.5101  140.2102  157.3671 C   0  0  0  0  0  0  0  0  0  0  0  0
  151.3462  141.0319  158.4739 N   0  0  0  0  0  0  0  0  0  0  0  0
  150.8885  142.4122  158.5058 C   0  0  0  0  0  0  0  0  0  0  0  0
  151.8425  143.3234  159.2941 C   0  0  1  0  0  0  0  0  0  0  0  0
  151.3591  144.7583  159.5172 C   0  0  0  0  0  0  0  0  0  0  0  0
  152.1402  145.1448  160.7529 C   0  0  0  0  0  0  0  0  0  0  0  0
  152.1181  143.8447  161.5527 C   0  0  0  0  0  0  0  0  0  0  0  0
  152.1125  142.7937  160.5897 O   0  0  0  0  0  0  0  0  0  0  0  0
  151.9516  138.9314  157.5044 C   0  0  0  0  0  0  0  0  0  0  0  0
  152.3156  138.2983  159.0754 Cl  0  0  0  0  0  0  0  0  0  0  0  0
  152.1377  138.0367  156.3521 C   0  0  0  0  0  0  0  0  0  0  0  0
  152.5344  136.8754  156.4564 O   0  0  0  0  0  0  0  0  0  0  0  0
  152.3173  136.8487  154.0032 H   0  0  0  0  0  0  0  0  0  0  0  0
  152.6541  138.3869  153.2246 H   0  0  0  0  0  0  0  0  0  0  0  0
  150.9918  137.8228  153.3859 H   0  0  0  0  0  0  0  0  0  0  0  0
  150.8718  141.6820  155.9108 H   0  0  0  0  0  0  0  0  0  0  0  0
  151.5660  140.6359  159.3770 H   0  0  0  0  0  0  0  0  0  0  0  0
  150.7923  142.7768  157.4828 H   0  0  0  0  0  0  0  0  0  0  0  0
  149.8950  142.4465  158.9540 H   0  0  0  0  0  0  0  0  0  0  0  0
  152.7985  143.3643  158.7702 H   0  0  0  0  0  0  0  0  0  0  0  0
  151.5537  145.4102  158.6652 H   0  0  0  0  0  0  0  0  0  0  0  0
  150.2907  144.7910  159.7343 H   0  0  0  0  0  0  0  0  0  0  0  0
  153.1652  145.4036  160.4835 H   0  0  0  0  0  0  0  0  0  0  0  0
  151.7043  145.9859  161.2926 H   0  0  0  0  0  0  0  0  0  0  0  0
  152.9658  143.7595  162.2329 H   0  0  0  0  0  0  0  0  0  0  0  0
  151.2027  143.7779  162.1419 H   0  0  0  0  0  0  0  0  0  0  0  0
  1  2  1  0  0  0  0
  1 17  1  0  0  0  0
  1 18  1  0  0  0  0
  1 19  1  0  0  0  0
  2 15  1  0  0  0  0
  2  3  1  0  0  0  0
  3  4  2  0  0  0  0
  4  5  1  0  0  0  0
  4 20  1  0  0  0  0
  5  6  1  0  0  0  0
  5 13  2  0  0  0  0
  6  7  1  0  0  0  0
  6 21  1  0  0  0  0
  7  8  1  0  0  0  0
  7 22  1  0  0  0  0
  7 23  1  0  0  0  0
  8 12  1  0  0  0  0
  8  9  1  0  0  0  0
  8 24  1  0  0  0  0
  9 10  1  0  0  0  0
  9 25  1  0  0  0  0
  9 26  1  0  0  0  0
 10 11  1  0  0  0  0
 10 27  1  0  0  0  0
 10 28  1  0  0  0  0
 11 12  1  0  0  0  0
 11 29  1  0  0  0  0
 11 30  1  0  0  0  0
 13 14  1  0  0  0  0
 13 15  1  0  0  0  0
 15 16  2  0  0  0  0
M  END
> <s_m_source_file>
AV-unprocessed.smi

> <i_m_source_file_index>
1283

> <i_lp_mmshare_version>
43012

> <i_f3d_flags>
0

> <s_epik_input>
W0NIM11uMW5bY0hdYyhjKENsKWMxPU8pW05IXVtDSDJdW0NAQEhdMltDSDJdW0NIMl1bQ0gyXU8y

> <s_epik_cmdline>
J2VwaWtfcHl0aG9uJywgJy1waCcsICc3LjAnLCAnLXRuJywgJzgnLCAnLW1hJywgJzIwMCcsICctbWV0YWxfYmluZGluZycsICctaW1hZScsICc8aW5maWxlLm1hZT4nLCAnLW9tYWUnLCAnPG91dGZpbGUubWFlPic=

> <r_lp_tautomer_probability>
1

> <r_epik_Ionization_Penalty>
2.40876e-05

> <r_epik_Ionization_Penalty_Charging>
4.17655e-09

> <r_epik_Ionization_Penalty_Neutral>
2.40834e-05

> <r_epik_State_Penalty>
-0

> <r_epik_Charging_Adjusted_Penalty>
4.17655e-09

> <i_epik_Tot_Q>
0

> <i_epik_Tot_abs_Q>
0

> <r_epik_Metal_State_Penalty>
-0

> <b_epik_Metal_Only>
0

> <s_lp_Force_Field>
OPLS_2005

> <r_lp_Energy>
41.0811

> <b_lp_Chiralities_Consistent>
1

> <s_lp_Variant>
AV-unprocessed.smi:1283-2

> <Gold.Version>
5.8.1

> <Gold.Id.Protein>
6NUR|6NUR_protein|mol2

> <Gold.PLP.Fitness>
37.0271

> <Gold.PLP.PLP>
-31.1762

> <Gold.PLP.part.hbond>
-2.0000

> <Gold.PLP.part.metal>
0.0000

> <Gold.PLP.part.buried>
-5.4069

> <Gold.PLP.part.nonpolar>
-24.2447

> <Gold.PLP.part.repulsive>
0.2038

> <Gold.PLP.ligand.clash>
0.0000

> <Gold.PLP.ligand.torsion>
0.0617

> <Gold.PLP.Chemscore.Hbond>
1.9913

> <Gold.PLP.Chemscore.CHOScore>
0.0000

> <Gold.PLP.Chemscore.Metal>
0.0000

> <Gold.Chemscore.Hbonds>
donor molecule, donor type, donor heavy atom, donor atom, acceptor molecule, acceptor atom, score
      P1  H  7989  7998       L1     3  1.00
      P1  H 10752 10765       L1    16  0.96

> <Gold.PLP.Chemscore.Internal.Correction>
0.0004

> <Gold.Rescore>
     Score         DG    S(hbond)    S(metal)    S(lipo)     H(rot)  DE(clash)    DE(int)     intcor
     17.69     -17.91       1.78        0.00      82.12       1.22       0.14       0.08       ----

> <Gold.Chemscore.Fitness>
17.6887

> <Gold.Chemscore.DG>
-17.9092

> <Gold.Chemscore.ZeroCoef>
-5.4800

> <Gold.Chemscore.Hbond>
1.7804

> <Gold.Chemscore.Metal>
0.0000

> <Gold.Chemscore.Lipo>
82.1200

> <Gold.Chemscore.Internal_Hbond>
0.0000

> <Gold.Chemscore.DEClash>
0.1423

> <Gold.Chemscore.DEInternal>
0.0782

> <Gold.Chemscore.Rot>
1.2208

> <Gold.Chemscore.Internal.Correction>
   9.000000E+99

> <Gold.Chemscore.Hbonds>
donor molecule, donor type, donor heavy atom, donor atom, acceptor molecule, acceptor atom, score
      P1  H  7989  7998       L1     3  0.78
      P1  H 10752 10765       L1    16  0.86

> <Gold.Chemscore.Hbond.Weighted>
-5.9465

> <Gold.Chemscore.Metal.Weighted>
-0.0000

> <Gold.Chemscore.Lipo.Weighted>
-9.6080

> <Gold.Chemscore.Internal_Hbond.Weighted>
0.0000

> <Gold.Chemscore.DEClash.Weighted>
0.1423

> <Gold.Chemscore.DEInternal.Weighted>
0.0782

> <Gold.Chemscore.Rot.Weighted>
3.1253

> <Gold.Chemscore.Internal.Correction.Weighted>
   9.000000E+99

> <Gold.Protein.RotatedTorsions>
[ 6907 6896 6895 6894 ] final -173.50 input  -60.11 | X-H torsion
[ 7974 7965 7964 7962 ] final  110.01 input  175.53 | X-H torsion
[ 8008 7997 7996 7995 ] final   59.97 input   59.86 | X-H torsion
[ 10167 10162 10161 10158 ] final    8.50 input  -65.29 | X-H torsion
[ 10718 10713 10712 10709 ] final -109.76 input   66.30 | X-H torsion
[ 10763 10752 10751 10750 ] final -143.85 input  -60.55 | X-H torsion
[ 11005 11000 10999 10996 ] final  -42.85 input  -57.11 | X-H torsion

> <Gold.Protein.ActiveResidues>
 VAL166  LYS551  ARG553  GLY616  TRP617  ASP618  TYR619  PRO620  LYS621  CYS622 
 ASP623  PHE694  ASN695  SER759  ASP760  ASP761  ALA762  ILE779  LEU786  VAL792 
 PHE793  MET794  SER795  GLU796  ALA797  LYS798  CYS799  TRP800  GLU811  SER814 

> <Gold.Protein.RotatedAtoms>
  151.5571  133.3408  159.2963 H   0  0  0  0  0  0  0  0  0  0  0  0  # atno 6907 bound_to 6896
  150.8444  134.7751  159.6970 H   0  0  0  0  0  0  0  0  0  0  0  0  # atno 6908 bound_to 6896
  152.4505  134.5411  159.9891 H   0  0  0  0  0  0  0  0  0  0  0  0  # atno 6909 bound_to 6896
  145.2604  139.2704  143.4020 H   0  0  0  0  0  0  0  0  0  0  0  0  # atno 7974 bound_to 7965
  155.5748  140.3490  155.4524 H   0  0  0  0  0  0  0  0  0  0  0  0  # atno 8008 bound_to 7997
  156.0417  140.1297  157.0173 H   0  0  0  0  0  0  0  0  0  0  0  0  # atno 8009 bound_to 7997
  154.4395  140.1022  156.6232 H   0  0  0  0  0  0  0  0  0  0  0  0  # atno 8010 bound_to 7997
  140.6310  143.7993  150.7295 H   0  0  0  0  0  0  0  0  0  0  0  0  # atno 10167 bound_to 10162
  156.0554  130.5781  150.8145 H   0  0  0  0  0  0  0  0  0  0  0  0  # atno 10718 bound_to 10713
  154.8453  135.3456  154.6253 H   0  0  0  0  0  0  0  0  0  0  0  0  # atno 10763 bound_to 10752
  153.6862  135.6977  153.5108 H   0  0  0  0  0  0  0  0  0  0  0  0  # atno 10764 bound_to 10752
  153.2630  135.4317  155.0868 H   0  0  0  0  0  0  0  0  0  0  0  0  # atno 10765 bound_to 10752
  141.0344  133.6806  156.2651 H   0  0  0  0  0  0  0  0  0  0  0  0  # atno 11005 bound_to 11000
  146.3277  140.3020  142.8621 LP  0  0  0  0  0  0  0  0  0  0  0  0  # atno 17320 bound_to 7965
  144.9423  140.8091  143.5623 LP  0  0  0  0  0  0  0  0  0  0  0  0  # atno 17321 bound_to 7965
  140.1604  143.4280  152.2070 LP  0  0  0  0  0  0  0  0  0  0  0  0  # atno 17342 bound_to 10162
  139.5524  144.7348  151.4394 LP  0  0  0  0  0  0  0  0  0  0  0  0  # atno 17343 bound_to 10162
  157.5520  131.0944  150.9682 LP  0  0  0  0  0  0  0  0  0  0  0  0  # atno 17370 bound_to 10713
  156.9940  130.5574  149.5305 LP  0  0  0  0  0  0  0  0  0  0  0  0  # atno 17371 bound_to 10713
  140.6349  134.5225  157.5563 LP  0  0  0  0  0  0  0  0  0  0  0  0  # atno 17394 bound_to 11000
  139.9230  134.8111  156.1153 LP  0  0  0  0  0  0  0  0  0  0  0  0  # atno 17395 bound_to 11000

$$$$
