AV-unprocessed.smi:196|AV-procd|sdf|1539|dock5
  -GOLD-   2262019393D 1   1.00000     0.00000
 Structure written by MMmdl.
 47 50  0  0  0  0  0  0  0  0  1 V2000
  148.3890  137.9069  155.4074 C   0  0  0  0  0  0  0  0  0  0  0  0
  149.7962  138.1442  154.8372 C   0  0  1  0  0  0  0  0  0  0  0  0
  150.2020  139.4562  155.2182 O   0  0  0  0  0  0  0  0  0  0  0  0
  151.6120  139.4799  155.3489 C   0  0  0  0  0  0  0  0  0  0  0  0
  151.9000  138.1456  156.0197 C   0  0  0  0  0  0  0  0  0  0  0  0
  150.9242  137.1943  155.3305 C   0  0  2  0  0  0  0  0  0  0  0  0
  151.5729  136.6668  154.1856 O   0  0  0  0  0  0  0  0  0  0  0  0
  150.4821  136.0045  156.2232 C   0  0  0  0  0  0  0  0  0  0  0  0
  149.8425  136.4181  157.4629 N   0  0  0  0  0  0  0  0  0  0  0  0
  150.4049  137.1701  158.4703 C   0  0  0  0  0  0  0  0  0  0  0  0
  149.6277  137.4041  159.4925 N   0  0  0  0  0  0  0  0  0  0  0  0
  148.4350  136.7758  159.1580 C   0  0  0  0  0  0  0  0  0  0  0  0
  147.1799  136.6372  159.8081 C   0  0  0  0  0  0  0  0  0  0  0  0
  146.9671  137.1639  161.0442 N   0  0  0  0  0  0  0  0  0  0  0  0
  147.8613  136.5696  162.0318 C   0  0  0  0  0  0  0  0  0  0  0  0
  147.0442  135.4894  162.7587 C   0  0  2  0  0  0  0  0  0  0  0  0
  147.3923  134.2708  162.3439 F   0  0  0  0  0  0  0  0  0  0  0  0
  145.5822  135.7767  162.3912 C   0  0  0  0  0  0  0  0  0  0  0  0
  145.6428  137.1406  161.6822 C   0  0  2  0  0  0  0  0  0  0  0  0
  144.4223  137.4962  160.8067 C   0  0  0  0  0  0  0  0  0  0  0  0
  143.4603  136.5756  160.7049 N   0  0  0  0  0  0  0  0  0  0  0  0
  144.3200  138.5964  160.2665 O   0  0  0  0  0  0  0  0  0  0  0  0
  146.2168  135.9204  159.1684 N   0  0  0  0  0  0  0  0  0  0  0  0
  146.4582  135.3953  157.9637 C   0  0  0  0  0  0  0  0  0  0  0  0
  147.5758  135.4531  157.2365 N   0  0  0  0  0  0  0  0  0  0  0  0
  148.5498  136.1561  157.8824 C   0  0  0  0  0  0  0  0  0  0  0  0
  147.2132  135.5238  163.8354 H   0  0  0  0  0  0  0  0  0  0  0  0
  145.6750  137.9154  162.4506 H   0  0  0  0  0  0  0  0  0  0  0  0
  148.0130  136.9185  155.1434 H   0  0  0  0  0  0  0  0  0  0  0  0
  147.6863  138.6387  155.0087 H   0  0  0  0  0  0  0  0  0  0  0  0
  148.3748  138.0006  156.4935 H   0  0  0  0  0  0  0  0  0  0  0  0
  149.7321  138.1236  153.7476 H   0  0  0  0  0  0  0  0  0  0  0  0
  152.0755  139.5350  154.3627 H   0  0  0  0  0  0  0  0  0  0  0  0
  151.9485  140.3319  155.9398 H   0  0  0  0  0  0  0  0  0  0  0  0
  152.9448  137.8414  155.9413 H   0  0  0  0  0  0  0  0  0  0  0  0
  151.6572  138.2289  157.0798 H   0  0  0  0  0  0  0  0  0  0  0  0
  150.9470  136.6230  153.4789 H   0  0  0  0  0  0  0  0  0  0  0  0
  149.7764  135.3682  155.6889 H   0  0  0  0  0  0  0  0  0  0  0  0
  151.3378  135.3759  156.4733 H   0  0  0  0  0  0  0  0  0  0  0  0
  151.4199  137.5373  158.4261 H   0  0  0  0  0  0  0  0  0  0  0  0
  148.7825  136.1655  161.6060 H   0  0  0  0  0  0  0  0  0  0  0  0
  148.1571  137.3526  162.7314 H   0  0  0  0  0  0  0  0  0  0  0  0
  145.1943  135.0035  161.7261 H   0  0  0  0  0  0  0  0  0  0  0  0
  144.9407  135.8028  163.2726 H   0  0  0  0  0  0  0  0  0  0  0  0
  142.6401  136.7628  160.1471 H   0  0  0  0  0  0  0  0  0  0  0  0
  143.5567  135.6959  161.1911 H   0  0  0  0  0  0  0  0  0  0  0  0
  145.6395  134.8485  157.5199 H   0  0  0  0  0  0  0  0  0  0  0  0
  1  2  1  0  0  0  0
  1 29  1  0  0  0  0
  1 30  1  0  0  0  0
  1 31  1  0  0  0  0
  2  6  1  0  0  0  0
  2  3  1  0  0  0  0
  2 32  1  0  0  0  0
  3  4  1  0  0  0  0
  4  5  1  0  0  0  0
  4 33  1  0  0  0  0
  4 34  1  0  0  0  0
  5  6  1  0  0  0  0
  5 35  1  0  0  0  0
  5 36  1  0  0  0  0
  6  7  1  0  0  0  0
  6  8  1  0  0  0  0
  7 37  1  0  0  0  0
  8  9  1  0  0  0  0
  8 38  1  0  0  0  0
  8 39  1  0  0  0  0
  9 26  1  0  0  0  0
  9 10  1  0  0  0  0
 10 11  2  0  0  0  0
 10 40  1  0  0  0  0
 11 12  1  0  0  0  0
 12 26  2  0  0  0  0
 12 13  1  0  0  0  0
 13 14  1  0  0  0  0
 13 23  2  0  0  0  0
 14 19  1  0  0  0  0
 14 15  1  0  0  0  0
 15 16  1  0  0  0  0
 15 41  1  0  0  0  0
 15 42  1  0  0  0  0
 16 27  1  0  0  0  0
 16 17  1  0  0  0  0
 16 18  1  0  0  0  0
 18 19  1  0  0  0  0
 18 43  1  0  0  0  0
 18 44  1  0  0  0  0
 19 28  1  0  0  0  0
 19 20  1  0  0  0  0
 20 21  1  0  0  0  0
 20 22  2  0  0  0  0
 21 45  1  0  0  0  0
 21 46  1  0  0  0  0
 23 24  1  0  0  0  0
 24 25  2  0  0  0  0
 24 47  1  0  0  0  0
 25 26  1  0  0  0  0
M  END
> <s_m_source_file>
AV-unprocessed.smi

> <i_m_source_file_index>
196

> <i_lp_mmshare_version>
43012

> <i_f3d_flags>
0

> <s_epik_input>
W0NIMl0xW0NIMl1PW0NAQEhdKFtDSDNdKVtDQEBdMShbT0hdKVtDSDJdbihbY0hdbjIpYyhjMjMpbltjSF1uYzNONFtDSDJdW0NASF0oRilbQ0gyXVtDQEhdNEMoPU8pW05IMl0=

> <s_epik_cmdline>
J2VwaWtfcHl0aG9uJywgJy1waCcsICc3LjAnLCAnLXRuJywgJzgnLCAnLW1hJywgJzIwMCcsICctbWV0YWxfYmluZGluZycsICctaW1hZScsICc8aW5maWxlLm1hZT4nLCAnLW9tYWUnLCAnPG91dGZpbGUubWFlPic=

> <r_lp_tautomer_probability>
1

> <r_epik_Ionization_Penalty>
0.000857933

> <r_epik_Ionization_Penalty_Charging>
0

> <r_epik_Ionization_Penalty_Neutral>
0.000857933

> <r_epik_State_Penalty>
0.000462053

> <r_epik_Charging_Adjusted_Penalty>
0.000462053

> <i_epik_Tot_Q>
0

> <i_epik_Tot_abs_Q>
0

> <r_epik_Metal_State_Penalty>
-0

> <b_epik_Metal_Only>
0

> <s_lp_Force_Field>
OPLS_2005

> <r_lp_Energy>
50.8061

> <b_lp_Chiralities_Consistent>
1

> <s_lp_Variant>
AV-unprocessed.smi:196-12

> <Gold.Version>
5.8.1

> <Gold.Id.Protein>
6NUR|6NUR_protein|mol2

> <Gold.PLP.Fitness>
42.3132

> <Gold.PLP.PLP>
-34.9927

> <Gold.PLP.part.hbond>
-4.0606

> <Gold.PLP.part.metal>
0.0000

> <Gold.PLP.part.buried>
-4.9694

> <Gold.PLP.part.nonpolar>
-26.4280

> <Gold.PLP.part.repulsive>
0.0759

> <Gold.PLP.ligand.clash>
0.0000

> <Gold.PLP.ligand.torsion>
0.0793

> <Gold.PLP.Chemscore.Hbond>
2.4723

> <Gold.PLP.Chemscore.CHOScore>
0.0000

> <Gold.PLP.Chemscore.Metal>
0.0000

> <Gold.Chemscore.Hbonds>
donor molecule, donor type, donor heavy atom, donor atom, acceptor molecule, acceptor atom, score
      L1  H     7    37       P1  7949  0.49
      P1  H  6934  6947       L1    14  0.90
      P1  H 10752 10763       L1     7  1.00

> <Gold.PLP.Chemscore.Internal.Correction>
0.0621

> <Gold.Rescore>
     Score         DG    S(hbond)    S(metal)    S(lipo)     H(rot)  DE(clash)    DE(int)     intcor
      8.46     -11.31       1.70        0.00      67.83       3.04       0.09       2.77       ----

> <Gold.Chemscore.Fitness>
8.4565

> <Gold.Chemscore.DG>
-11.3146

> <Gold.Chemscore.ZeroCoef>
-5.4800

> <Gold.Chemscore.Hbond>
1.7019

> <Gold.Chemscore.Metal>
0.0000

> <Gold.Chemscore.Lipo>
67.8276

> <Gold.Chemscore.Internal_Hbond>
0.0000

> <Gold.Chemscore.DEClash>
0.0901

> <Gold.Chemscore.DEInternal>
2.7680

> <Gold.Chemscore.Rot>
3.0413

> <Gold.Chemscore.Internal.Correction>
   9.000000E+99

> <Gold.Chemscore.Hbonds>
donor molecule, donor type, donor heavy atom, donor atom, acceptor molecule, acceptor atom, score
      L1  H     7    37       P1  7949  0.11
      P1  H  6934  6947       L1    14  0.10
      P1  H 10752 10763       L1     7  0.95

> <Gold.Chemscore.Hbond.Weighted>
-5.6844

> <Gold.Chemscore.Metal.Weighted>
-0.0000

> <Gold.Chemscore.Lipo.Weighted>
-7.9358

> <Gold.Chemscore.Internal_Hbond.Weighted>
0.0000

> <Gold.Chemscore.DEClash.Weighted>
0.0901

> <Gold.Chemscore.DEInternal.Weighted>
2.7680

> <Gold.Chemscore.Rot.Weighted>
7.7856

> <Gold.Chemscore.Internal.Correction.Weighted>
   9.000000E+99

> <Gold.Protein.RotatedTorsions>
[ 6907 6896 6895 6894 ] final   40.13 input  -60.11 | X-H torsion
[ 7974 7965 7964 7962 ] final   63.71 input  175.53 | X-H torsion
[ 8008 7997 7996 7995 ] final  -57.81 input   59.86 | X-H torsion
[ 10167 10162 10161 10158 ] final  -10.07 input  -65.29 | X-H torsion
[ 10718 10713 10712 10709 ] final -174.21 input   66.30 | X-H torsion
[ 10763 10752 10751 10750 ] final   51.89 input  -60.55 | X-H torsion
[ 11005 11000 10999 10996 ] final  137.60 input  -57.11 | X-H torsion

> <Gold.Protein.ActiveResidues>
 VAL166  LYS551  ARG553  GLY616  TRP617  ASP618  TYR619  PRO620  LYS621  CYS622 
 ASP623  PHE694  ASN695  SER759  ASP760  ASP761  ALA762  ILE779  LEU786  VAL792 
 PHE793  MET794  SER795  GLU796  ALA797  LYS798  CYS799  TRP800  GLU811  SER814 

> <Gold.Protein.RotatedAtoms>
  152.1785  134.8774  160.0528 H   0  0  0  0  0  0  0  0  0  0  0  0  # atno 6907 bound_to 6896
  151.9707  133.3720  159.4078 H   0  0  0  0  0  0  0  0  0  0  0  0  # atno 6908 bound_to 6896
  150.6913  134.4066  159.5186 H   0  0  0  0  0  0  0  0  0  0  0  0  # atno 6909 bound_to 6896
  145.8586  139.3300  143.0832 H   0  0  0  0  0  0  0  0  0  0  0  0  # atno 7974 bound_to 7965
  154.4283  140.1098  156.5857 H   0  0  0  0  0  0  0  0  0  0  0  0  # atno 8008 bound_to 7997
  155.6065  140.3494  155.4590 H   0  0  0  0  0  0  0  0  0  0  0  0  # atno 8009 bound_to 7997
  156.0133  140.1224  157.0422 H   0  0  0  0  0  0  0  0  0  0  0  0  # atno 8010 bound_to 7997
  140.7104  143.5789  150.9013 H   0  0  0  0  0  0  0  0  0  0  0  0  # atno 10167 bound_to 10162
  156.7817  130.9485  151.3120 H   0  0  0  0  0  0  0  0  0  0  0  0  # atno 10718 bound_to 10713
  152.9786  135.5830  154.4490 H   0  0  0  0  0  0  0  0  0  0  0  0  # atno 10763 bound_to 10752
  154.4081  135.2769  155.2056 H   0  0  0  0  0  0  0  0  0  0  0  0  # atno 10764 bound_to 10752
  154.3858  135.6136  153.5870 H   0  0  0  0  0  0  0  0  0  0  0  0  # atno 10765 bound_to 10752
  140.0125  134.9432  157.0308 H   0  0  0  0  0  0  0  0  0  0  0  0  # atno 11005 bound_to 11000
  145.9274  140.9072  143.0374 LP  0  0  0  0  0  0  0  0  0  0  0  0  # atno 17320 bound_to 7965
  144.6727  140.1372  143.7439 LP  0  0  0  0  0  0  0  0  0  0  0  0  # atno 17321 bound_to 7965
  139.9515  143.6267  152.3028 LP  0  0  0  0  0  0  0  0  0  0  0  0  # atno 17342 bound_to 10162
  139.6787  144.7657  151.1648 LP  0  0  0  0  0  0  0  0  0  0  0  0  # atno 17343 bound_to 10162
  157.6643  130.8994  149.9898 LP  0  0  0  0  0  0  0  0  0  0  0  0  # atno 17370 bound_to 10713
  156.1214  130.3646  149.9881 LP  0  0  0  0  0  0  0  0  0  0  0  0  # atno 17371 bound_to 10713
  140.4528  134.1564  155.7183 LP  0  0  0  0  0  0  0  0  0  0  0  0  # atno 17394 bound_to 11000
  141.1721  133.8588  157.1538 LP  0  0  0  0  0  0  0  0  0  0  0  0  # atno 17395 bound_to 11000

$$$$
