AV-unprocessed.smi:2443|AV-procd|sdf|9631|dock3
  -GOLD-   2272013263D 1   1.00000     0.00000
 Structure written by MMmdl.
 37 39  0  0  0  0  0  0  0  0  1 V2000
  152.8567  142.0841  150.8763 C   0  0  0  0  0  0  0  0  0  0  0  0
  152.3835  140.7682  151.1403 O   0  0  0  0  0  0  0  0  0  0  0  0
  151.7479  140.0882  150.1220 C   0  0  0  0  0  0  0  0  0  0  0  0
  150.9548  138.9642  150.4315 C   0  0  0  0  0  0  0  0  0  0  0  0
  150.3247  138.2942  149.3588 C   0  0  0  0  0  0  0  0  0  0  0  0
  149.5368  137.1674  149.7128 N   0  0  0  0  0  0  0  0  0  0  0  0
  148.6807  136.4783  148.9381 C   0  0  0  0  0  0  0  0  0  0  0  0
  148.4441  136.7146  147.7531 O   0  0  0  0  0  0  0  0  0  0  0  0
  148.1037  135.4803  149.6221 N   0  0  0  0  0  0  0  0  0  0  0  0
  147.1224  134.5497  149.0759 C   0  0  0  0  0  0  0  0  0  0  0  0
  146.2084  133.8704  150.0895 C   0  0  0  0  0  0  0  0  0  0  0  0
  145.2976  132.7853  149.5216 C   0  0  0  0  0  0  0  0  0  0  0  0
  144.0993  132.3158  150.3145 C   0  0  0  0  0  0  0  0  0  0  0  0
  145.2381  131.3647  150.0495 C   0  0  0  0  0  0  0  0  0  0  0  0
  146.7580  133.6286  151.4828 C   0  0  0  0  0  0  0  0  0  0  0  0
  145.7523  134.7222  151.2647 C   0  0  0  0  0  0  0  0  0  0  0  0
  150.4925  138.7415  148.0898 N   0  0  0  0  0  0  0  0  0  0  0  0
  151.2618  139.8152  147.9018 C   0  0  0  0  0  0  0  0  0  0  0  0
  151.8976  140.5123  148.8440 N   0  0  0  0  0  0  0  0  0  0  0  0
  153.3351  142.4818  151.7711 H   0  0  0  0  0  0  0  0  0  0  0  0
  152.0393  142.7563  150.6116 H   0  0  0  0  0  0  0  0  0  0  0  0
  153.5977  142.0886  150.0756 H   0  0  0  0  0  0  0  0  0  0  0  0
  150.8408  138.6316  151.4529 H   0  0  0  0  0  0  0  0  0  0  0  0
  149.6370  136.8489  150.6651 H   0  0  0  0  0  0  0  0  0  0  0  0
  148.3548  135.3578  150.5922 H   0  0  0  0  0  0  0  0  0  0  0  0
  146.5250  135.0550  148.3150 H   0  0  0  0  0  0  0  0  0  0  0  0
  147.6765  133.7714  148.5509 H   0  0  0  0  0  0  0  0  0  0  0  0
  145.1271  132.8757  148.4504 H   0  0  0  0  0  0  0  0  0  0  0  0
  143.9866  132.6899  151.3299 H   0  0  0  0  0  0  0  0  0  0  0  0
  143.1703  132.1545  149.7713 H   0  0  0  0  0  0  0  0  0  0  0  0
  145.0678  130.5717  149.3243 H   0  0  0  0  0  0  0  0  0  0  0  0
  145.8366  131.0766  150.9091 H   0  0  0  0  0  0  0  0  0  0  0  0
  146.4213  132.7384  152.0106 H   0  0  0  0  0  0  0  0  0  0  0  0
  147.7853  133.9247  151.6862 H   0  0  0  0  0  0  0  0  0  0  0  0
  146.1159  135.7466  151.3165 H   0  0  0  0  0  0  0  0  0  0  0  0
  144.7686  134.5691  151.6990 H   0  0  0  0  0  0  0  0  0  0  0  0
  151.3809  140.1547  146.8838 H   0  0  0  0  0  0  0  0  0  0  0  0
  1  2  1  0  0  0  0
  1 20  1  0  0  0  0
  1 21  1  0  0  0  0
  1 22  1  0  0  0  0
  2  3  1  0  0  0  0
  3 19  1  0  0  0  0
  3  4  2  0  0  0  0
  4  5  1  0  0  0  0
  4 23  1  0  0  0  0
  5  6  1  0  0  0  0
  5 17  2  0  0  0  0
  6  7  1  0  0  0  0
  6 24  1  0  0  0  0
  7  8  2  0  0  0  0
  7  9  1  0  0  0  0
  9 10  1  0  0  0  0
  9 25  1  0  0  0  0
 10 11  1  0  0  0  0
 10 26  1  0  0  0  0
 10 27  1  0  0  0  0
 11 16  1  0  0  0  0
 11 12  1  0  0  0  0
 11 15  1  0  0  0  0
 12 14  1  0  0  0  0
 12 13  1  0  0  0  0
 12 28  1  0  0  0  0
 13 14  1  0  0  0  0
 13 29  1  0  0  0  0
 13 30  1  0  0  0  0
 14 31  1  0  0  0  0
 14 32  1  0  0  0  0
 15 16  1  0  0  0  0
 15 33  1  0  0  0  0
 15 34  1  0  0  0  0
 16 35  1  0  0  0  0
 16 36  1  0  0  0  0
 17 18  1  0  0  0  0
 18 19  2  0  0  0  0
 18 37  1  0  0  0  0
M  END
> <s_m_source_file>
AV-unprocessed.smi

> <i_m_source_file_index>
2443

> <i_lp_mmshare_version>
43012

> <i_f3d_flags>
0

> <s_epik_input>
W0NIM11PYzFbY0hdYyhuW2NIXW4xKVtOSF1DKD1PKVtOSF1bQ0gyXUMyKFtDSDJdW0NIMl0yKVtDSF0zW0NIMl1bQ0gyXTM=

> <s_epik_cmdline>
J2VwaWtfcHl0aG9uJywgJy1waCcsICc3LjAnLCAnLXRuJywgJzgnLCAnLW1hJywgJzIwMCcsICctbWV0YWxfYmluZGluZycsICctaW1hZScsICc8aW5maWxlLm1hZT4nLCAnLW9tYWUnLCAnPG91dGZpbGUubWFlPic=

> <r_lp_tautomer_probability>
1

> <r_epik_Ionization_Penalty>
2.73859e-05

> <r_epik_Ionization_Penalty_Charging>
0

> <r_epik_Ionization_Penalty_Neutral>
2.73859e-05

> <r_epik_State_Penalty>
-0

> <r_epik_Charging_Adjusted_Penalty>
0

> <i_epik_Tot_Q>
0

> <i_epik_Tot_abs_Q>
0

> <r_epik_Metal_State_Penalty>
-0

> <b_epik_Metal_Only>
0

> <s_lp_Force_Field>
OPLS_2005

> <r_lp_Energy>
26.0575

> <b_lp_Chiralities_Consistent>
1

> <s_lp_Variant>
AV-unprocessed.smi:2443-1

> <Gold.Version>
5.8.1

> <Gold.Id.Protein>
6NUR|6NUR_protein|mol2

> <Gold.PLP.Fitness>
40.6736

> <Gold.PLP.PLP>
-33.4587

> <Gold.PLP.part.hbond>
-3.0000

> <Gold.PLP.part.metal>
0.0000

> <Gold.PLP.part.buried>
-5.2090

> <Gold.PLP.part.nonpolar>
-27.8369

> <Gold.PLP.part.repulsive>
3.2234

> <Gold.PLP.ligand.clash>
0.0000

> <Gold.PLP.ligand.torsion>
1.9563

> <Gold.PLP.Chemscore.Hbond>
2.8560

> <Gold.PLP.Chemscore.CHOScore>
0.0000

> <Gold.PLP.Chemscore.Metal>
0.0000

> <Gold.PLP.Chemscore.Internal.Correction>
2.5596

> <Gold.Rescore>
     Score         DG    S(hbond)    S(metal)    S(lipo)     H(rot)  DE(clash)    DE(int)     intcor
     10.72     -15.51       2.16        0.00      64.90       1.86       1.64       3.15       ----

> <Gold.Chemscore.Fitness>
10.7177

> <Gold.Chemscore.DG>
-15.5082

> <Gold.Chemscore.ZeroCoef>
-5.4800

> <Gold.Chemscore.Hbond>
2.1560

> <Gold.Chemscore.Metal>
0.0000

> <Gold.Chemscore.Lipo>
64.9039

> <Gold.Chemscore.Internal_Hbond>
0.0000

> <Gold.Chemscore.DEClash>
1.6361

> <Gold.Chemscore.DEInternal>
3.1544

> <Gold.Chemscore.Rot>
1.8619

> <Gold.Chemscore.Internal.Correction>
   9.000000E+99

> <Gold.Chemscore.Hbond.Weighted>
-7.2009

> <Gold.Chemscore.Metal.Weighted>
-0.0000

> <Gold.Chemscore.Lipo.Weighted>
-7.5938

> <Gold.Chemscore.Internal_Hbond.Weighted>
0.0000

> <Gold.Chemscore.DEClash.Weighted>
1.6361

> <Gold.Chemscore.DEInternal.Weighted>
3.1544

> <Gold.Chemscore.Rot.Weighted>
4.7665

> <Gold.Chemscore.Internal.Correction.Weighted>
   9.000000E+99

> <Gold.Protein.RotatedTorsions>
[ 6907 6896 6895 6894 ] final   46.91 input  -60.11 | X-H torsion
[ 7974 7965 7964 7962 ] final -138.52 input  175.53 | X-H torsion
[ 8008 7997 7996 7995 ] final  155.42 input   59.86 | X-H torsion
[ 10167 10162 10161 10158 ] final -142.26 input  -65.29 | X-H torsion
[ 10718 10713 10712 10709 ] final  135.81 input   66.30 | X-H torsion
[ 10763 10752 10751 10750 ] final  161.57 input  -60.55 | X-H torsion
[ 11005 11000 10999 10996 ] final   41.02 input  -57.11 | X-H torsion

> <Gold.Protein.ActiveResidues>
 VAL166  LYS551  ARG553  GLY616  TRP617  ASP618  TYR619  PRO620  LYS621  CYS622 
 ASP623  PHE694  ASN695  SER759  ASP760  ASP761  ALA762  ILE779  LEU786  VAL792 
 PHE793  MET794  SER795  GLU796  ALA797  LYS798  CYS799  TRP800  GLU811  SER814 

> <Gold.Protein.RotatedAtoms>
  152.2619  134.8025  160.0428 H   0  0  0  0  0  0  0  0  0  0  0  0  # atno 6907 bound_to 6896
  151.8668  133.3462  159.3730 H   0  0  0  0  0  0  0  0  0  0  0  0  # atno 6908 bound_to 6896
  150.7120  134.5079  159.5637 H   0  0  0  0  0  0  0  0  0  0  0  0  # atno 6909 bound_to 6896
  144.8751  140.6425  143.5242 H   0  0  0  0  0  0  0  0  0  0  0  0  # atno 7974 bound_to 7965
  156.2479  140.1940  156.6799 H   0  0  0  0  0  0  0  0  0  0  0  0  # atno 8008 bound_to 7997
  154.6329  140.0593  156.9780 H   0  0  0  0  0  0  0  0  0  0  0  0  # atno 8009 bound_to 7997
  155.1682  140.3266  155.4400 H   0  0  0  0  0  0  0  0  0  0  0  0  # atno 8010 bound_to 7997
  139.8106  143.7708  152.2663 H   0  0  0  0  0  0  0  0  0  0  0  0  # atno 10167 bound_to 10162
  157.4532  131.1067  151.0009 H   0  0  0  0  0  0  0  0  0  0  0  0  # atno 10718 bound_to 10713
  154.2649  135.2767  155.2762 H   0  0  0  0  0  0  0  0  0  0  0  0  # atno 10763 bound_to 10752
  154.5352  135.5718  153.6795 H   0  0  0  0  0  0  0  0  0  0  0  0  # atno 10764 bound_to 10752
  152.9955  135.6237  154.2801 H   0  0  0  0  0  0  0  0  0  0  0  0  # atno 10765 bound_to 10752
  140.1875  134.4028  155.8165 H   0  0  0  0  0  0  0  0  0  0  0  0  # atno 11005 bound_to 11000
  145.4057  139.1589  143.4153 LP  0  0  0  0  0  0  0  0  0  0  0  0  # atno 17320 bound_to 7965
  146.2957  140.4157  142.8722 LP  0  0  0  0  0  0  0  0  0  0  0  0  # atno 17321 bound_to 7965
  139.7856  144.7429  151.0027 LP  0  0  0  0  0  0  0  0  0  0  0  0  # atno 17342 bound_to 10162
  140.7818  143.4496  151.0432 LP  0  0  0  0  0  0  0  0  0  0  0  0  # atno 17343 bound_to 10162
  157.0831  130.5911  149.5424 LP  0  0  0  0  0  0  0  0  0  0  0  0  # atno 17370 bound_to 10713
  155.9996  130.5072  150.7612 LP  0  0  0  0  0  0  0  0  0  0  0  0  # atno 17371 bound_to 10713
  141.2225  133.7030  156.8037 LP  0  0  0  0  0  0  0  0  0  0  0  0  # atno 17394 bound_to 11000
  140.2198  134.8766  157.3364 LP  0  0  0  0  0  0  0  0  0  0  0  0  # atno 17395 bound_to 11000

$$$$
