AV-unprocessed.smi:48|AV-procd|sdf|449|dock3
  -GOLD-   2262016313D 1   1.00000     0.00000
 Structure written by MMmdl.
 30 32  0  0  0  0  0  0  0  0  1 V2000
  150.0119  138.1973  153.4501 O   0  0  0  0  0  0  0  0  0  0  0  0
  148.9391  139.0368  153.8201 C   0  0  0  0  0  0  0  0  0  0  0  0
  149.2668  139.7547  155.1377 C   0  0  1  0  0  0  0  0  0  0  0  0
  150.4349  140.5521  154.9749 O   0  0  0  0  0  0  0  0  0  0  0  0
  150.4714  141.5430  155.9587 C   0  0  2  0  0  0  0  0  0  0  0  0
  151.4475  141.1228  157.0170 N   0  0  0  0  0  0  0  0  0  0  0  0
  152.1416  139.9700  157.1348 C   0  0  0  0  0  0  0  0  0  0  0  0
  152.9579  139.8508  158.1820 N   0  0  0  0  0  0  0  0  0  0  0  0
  152.7741  141.0681  158.8163 C   0  0  0  0  0  0  0  0  0  0  0  0
  153.3219  141.6328  159.9936 C   0  0  0  0  0  0  0  0  0  0  0  0
  154.4656  140.7624  160.9487 Cl  0  0  0  0  0  0  0  0  0  0  0  0
  152.9261  142.8769  160.3560 N   0  0  0  0  0  0  0  0  0  0  0  0
  152.0368  143.5300  159.5971 C   0  0  0  0  0  0  0  0  0  0  0  0
  151.4373  143.1291  158.4697 N   0  0  0  0  0  0  0  0  0  0  0  0
  151.8406  141.8756  158.1080 C   0  0  0  0  0  0  0  0  0  0  0  0
  149.0300  141.6971  156.5021 C   0  0  2  0  0  0  0  0  0  0  0  0
  148.8766  141.2896  157.8540 O   0  0  0  0  0  0  0  0  0  0  0  0
  148.2408  140.8151  155.5363 C   0  0  2  0  0  0  0  0  0  0  0  0
  147.0660  140.2635  156.1015 O   0  0  0  0  0  0  0  0  0  0  0  0
  149.4029  139.0437  155.9549 H   0  0  0  0  0  0  0  0  0  0  0  0
  150.8888  142.4639  155.5500 H   0  0  0  0  0  0  0  0  0  0  0  0
  148.7214  142.7397  156.4207 H   0  0  0  0  0  0  0  0  0  0  0  0
  147.9674  141.4032  154.6589 H   0  0  0  0  0  0  0  0  0  0  0  0
  149.6868  137.5394  152.8546 H   0  0  0  0  0  0  0  0  0  0  0  0
  148.7193  139.7478  153.0233 H   0  0  0  0  0  0  0  0  0  0  0  0
  148.0583  138.4064  153.9446 H   0  0  0  0  0  0  0  0  0  0  0  0
  152.0477  139.1717  156.4135 H   0  0  0  0  0  0  0  0  0  0  0  0
  151.7652  144.5164  159.9432 H   0  0  0  0  0  0  0  0  0  0  0  0
  149.4663  140.5697  158.0186 H   0  0  0  0  0  0  0  0  0  0  0  0
  146.5023  140.9720  156.3719 H   0  0  0  0  0  0  0  0  0  0  0  0
  1  2  1  0  0  0  0
  1 24  1  0  0  0  0
  2  3  1  0  0  0  0
  2 25  1  0  0  0  0
  2 26  1  0  0  0  0
  3 20  1  0  0  0  0
  3 18  1  0  0  0  0
  3  4  1  0  0  0  0
  4  5  1  0  0  0  0
  5 21  1  0  0  0  0
  5  6  1  0  0  0  0
  5 16  1  0  0  0  0
  6 15  1  0  0  0  0
  6  7  1  0  0  0  0
  7  8  2  0  0  0  0
  7 27  1  0  0  0  0
  8  9  1  0  0  0  0
  9 15  2  0  0  0  0
  9 10  1  0  0  0  0
 10 11  1  0  0  0  0
 10 12  2  0  0  0  0
 12 13  1  0  0  0  0
 13 14  2  0  0  0  0
 13 28  1  0  0  0  0
 14 15  1  0  0  0  0
 16 22  1  0  0  0  0
 16 17  1  0  0  0  0
 16 18  1  0  0  0  0
 17 29  1  0  0  0  0
 18 23  1  0  0  0  0
 18 19  1  0  0  0  0
 19 30  1  0  0  0  0
M  END
> <s_m_source_file>
AV-unprocessed.smi

> <i_m_source_file_index>
48

> <i_lp_mmshare_version>
43012

> <i_f3d_flags>
0

> <s_epik_input>
W09IXVtDSDJdW0NASF0xT1tDQEhdKFtDQEhdKFtPSF0pW0NAQEhdMVtPSF0pbihbY0hdbjIpYyhjMjMpbltjSF1uYzNDbA==

> <s_epik_cmdline>
J2VwaWtfcHl0aG9uJywgJy1waCcsICc3LjAnLCAnLXRuJywgJzgnLCAnLW1hJywgJzIwMCcsICctbWV0YWxfYmluZGluZycsICctaW1hZScsICc8aW5maWxlLm1hZT4nLCAnLW9tYWUnLCAnPG91dGZpbGUubWFlPic=

> <r_lp_tautomer_probability>
1

> <r_epik_Ionization_Penalty>
3.45505e-06

> <r_epik_Ionization_Penalty_Charging>
0

> <r_epik_Ionization_Penalty_Neutral>
3.45505e-06

> <r_epik_State_Penalty>
-0

> <r_epik_Charging_Adjusted_Penalty>
0

> <i_epik_Tot_Q>
0

> <i_epik_Tot_abs_Q>
0

> <r_epik_Metal_State_Penalty>
-0

> <b_epik_Metal_Only>
0

> <s_epik_Chemistry_Notes>
This compound contains an acetal/aminal-like group ( X-CH(R)-Y where X, Y are N, S, or O) that may be acid/base labile, releasing an aldehyde.

> <s_lp_Force_Field>
OPLS_2005

> <r_lp_Energy>
41.4935

> <b_lp_Chiralities_Consistent>
1

> <s_lp_Variant>
AV-unprocessed.smi:48-3

> <Gold.Version>
5.8.1

> <Gold.Id.Protein>
6NUR|6NUR_protein|mol2

> <Gold.PLP.Fitness>
38.6287

> <Gold.PLP.PLP>
-30.2929

> <Gold.PLP.part.hbond>
-4.5915

> <Gold.PLP.part.metal>
0.0000

> <Gold.PLP.part.buried>
-2.2402

> <Gold.PLP.part.nonpolar>
-22.9308

> <Gold.PLP.part.repulsive>
0.1327

> <Gold.PLP.ligand.clash>
0.0000

> <Gold.PLP.ligand.torsion>
0.0783

> <Gold.PLP.Chemscore.Hbond>
2.8056

> <Gold.PLP.Chemscore.CHOScore>
0.0000

> <Gold.PLP.Chemscore.Metal>
0.0000

> <Gold.Chemscore.Hbonds>
donor molecule, donor type, donor heavy atom, donor atom, acceptor molecule, acceptor atom, score
      L1  H     1    24       P1  7948  1.00
      P1  H  7989  7998       L1     4  0.98
      P1  H  7997  8008       L1     8  0.73

> <Gold.PLP.Chemscore.Internal.Correction>
0.0757

> <Gold.Rescore>
     Score         DG    S(hbond)    S(metal)    S(lipo)     H(rot)  DE(clash)    DE(int)     intcor
      6.16      -7.71       1.94        0.00      46.81       3.80       0.41       1.14       ----

> <Gold.Chemscore.Fitness>
6.1639

> <Gold.Chemscore.DG>
-7.7145

> <Gold.Chemscore.ZeroCoef>
-5.4800

> <Gold.Chemscore.Hbond>
1.9432

> <Gold.Chemscore.Metal>
0.0000

> <Gold.Chemscore.Lipo>
46.8092

> <Gold.Chemscore.Internal_Hbond>
0.0000

> <Gold.Chemscore.DEClash>
0.4135

> <Gold.Chemscore.DEInternal>
1.1371

> <Gold.Chemscore.Rot>
3.8017

> <Gold.Chemscore.Internal.Correction>
   9.000000E+99

> <Gold.Chemscore.Hbonds>
donor molecule, donor type, donor heavy atom, donor atom, acceptor molecule, acceptor atom, score
      L1  H     1    24       P1  7948  0.55
      P1  H  7989  7998       L1     4  0.79
      P1  H  7997  8008       L1     8  0.08

> <Gold.Chemscore.Hbond.Weighted>
-6.4902

> <Gold.Chemscore.Metal.Weighted>
-0.0000

> <Gold.Chemscore.Lipo.Weighted>
-5.4767

> <Gold.Chemscore.Internal_Hbond.Weighted>
0.0000

> <Gold.Chemscore.DEClash.Weighted>
0.4135

> <Gold.Chemscore.DEInternal.Weighted>
1.1371

> <Gold.Chemscore.Rot.Weighted>
9.7324

> <Gold.Chemscore.Internal.Correction.Weighted>
   9.000000E+99

> <Gold.Protein.RotatedTorsions>
[ 6907 6896 6895 6894 ] final  147.36 input  -60.11 | X-H torsion
[ 7974 7965 7964 7962 ] final  -89.71 input  175.53 | X-H torsion
[ 8008 7997 7996 7995 ] final -101.54 input   59.86 | X-H torsion
[ 10167 10162 10161 10158 ] final  144.61 input  -65.29 | X-H torsion
[ 10718 10713 10712 10709 ] final  -61.35 input   66.30 | X-H torsion
[ 10763 10752 10751 10750 ] final -113.64 input  -60.55 | X-H torsion
[ 11005 11000 10999 10996 ] final   24.81 input  -57.11 | X-H torsion

> <Gold.Protein.ActiveResidues>
 VAL166  LYS551  ARG553  GLY616  TRP617  ASP618  TYR619  PRO620  LYS621  CYS622 
 ASP623  PHE694  ASN695  SER759  ASP760  ASP761  ALA762  ILE779  LEU786  VAL792 
 PHE793  MET794  SER795  GLU796  ALA797  LYS798  CYS799  TRP800  GLU811  SER814 

> <Gold.Protein.RotatedAtoms>
  152.1558  133.4550  159.4835 H   0  0  0  0  0  0  0  0  0  0  0  0  # atno 6907 bound_to 6896
  150.6901  134.2133  159.4377 H   0  0  0  0  0  0  0  0  0  0  0  0  # atno 6908 bound_to 6896
  152.0032  134.9916  160.0616 H   0  0  0  0  0  0  0  0  0  0  0  0  # atno 6909 bound_to 6896
  145.4361  140.9557  143.2101 H   0  0  0  0  0  0  0  0  0  0  0  0  # atno 7974 bound_to 7965
  154.8440  140.0434  157.1560 H   0  0  0  0  0  0  0  0  0  0  0  0  # atno 8008 bound_to 7997
  154.9015  140.3001  155.5294 H   0  0  0  0  0  0  0  0  0  0  0  0  # atno 8009 bound_to 7997
  156.2993  140.2375  156.4044 H   0  0  0  0  0  0  0  0  0  0  0  0  # atno 8010 bound_to 7997
  139.4943  144.5960  151.6582 H   0  0  0  0  0  0  0  0  0  0  0  0  # atno 10167 bound_to 10162
  156.0927  130.4197  150.0982 H   0  0  0  0  0  0  0  0  0  0  0  0  # atno 10718 bound_to 10713
  154.8405  135.4447  154.1380 H   0  0  0  0  0  0  0  0  0  0  0  0  # atno 10763 bound_to 10752
  153.2573  135.6932  153.7621 H   0  0  0  0  0  0  0  0  0  0  0  0  # atno 10764 bound_to 10752
  153.6911  135.3387  155.3178 H   0  0  0  0  0  0  0  0  0  0  0  0  # atno 10765 bound_to 10752
  140.3546  134.2191  155.7677 H   0  0  0  0  0  0  0  0  0  0  0  0  # atno 11005 bound_to 11000
  144.8151  139.5891  143.7012 LP  0  0  0  0  0  0  0  0  0  0  0  0  # atno 17320 bound_to 7965
  146.2581  139.6348  142.9381 LP  0  0  0  0  0  0  0  0  0  0  0  0  # atno 17321 bound_to 7965
  140.5598  144.0288  150.6164 LP  0  0  0  0  0  0  0  0  0  0  0  0  # atno 17342 bound_to 10162
  140.3370  143.3043  152.0628 LP  0  0  0  0  0  0  0  0  0  0  0  0  # atno 17343 bound_to 10162
  156.8988  130.9613  151.3579 LP  0  0  0  0  0  0  0  0  0  0  0  0  # atno 17370 bound_to 10713
  157.6081  130.8562  149.8907 LP  0  0  0  0  0  0  0  0  0  0  0  0  # atno 17371 bound_to 10713
  141.2002  133.7993  157.0500 LP  0  0  0  0  0  0  0  0  0  0  0  0  # atno 17394 bound_to 11000
  140.0675  134.9721  157.1411 LP  0  0  0  0  0  0  0  0  0  0  0  0  # atno 17395 bound_to 11000

$$$$
