#       Name:                AV-unprocessed.smi:355
#       Creating user name   scv26
#       Creation time:       Thu Mar 26 22:34:04 2020


#       File generated by GOLD software.
#

@<TRIPOS>MOLECULE
AV-unprocessed.smi:355
    45    46     1
SMALL
NO_CHARGES


@<TRIPOS>ATOM
      1 ****        -5.1041  -0.0604   2.0128 C.3            1 S1                 0.0000
      2 ****        -4.0787   0.8180   1.3258 C.ar           1 S1                 0.0000
      3 ****        -4.4950   1.9216   0.5550 C.ar           1 S1                 0.0000
      4 ****        -3.5393   2.7347  -0.0815 C.ar           1 S1                 0.0000
      5 ****        -2.1681   2.4451   0.0504 C.ar           1 S1                 0.0000
      6 ****        -1.7343   1.3425   0.8143 C.ar           1 S1                 0.0000
      7 ****        -0.3745   1.1325   0.8888 O.3            1 S1                 0.0000
      8 ****         0.0962  -0.0079   1.5932 C.3            1 S1                 0.0000
      9 ****         1.6354  -0.0739   1.5294 C.3            1 S1                 0.0000
     10 ****         2.1284  -0.5239   0.2050 N.am           1 S1                 0.0000
     11 ****         2.4136  -1.9083  -0.0201 C.2            1 S1                 0.0000
     12 ****         2.2771  -2.9094   1.1371 C.3            1 S1                 0.0000
     13 ****         2.4608  -4.1615   0.7159 F              1 S1                 0.0000
     14 ****         3.1986  -2.6798   2.0732 F              1 S1                 0.0000
     15 ****         1.0676  -2.8711   1.6945 F              1 S1                 0.0000
     16 ****         2.8073  -2.3202  -1.2394 C.2            1 S1                 0.0000
     17 ****         2.9496  -1.3749  -2.3114 C.2            1 S1                 0.0000
     18 ****         2.7129  -0.0592  -2.1078 C.2            1 S1                 0.0000
     19 ****         2.8478   0.9525  -3.1812 C.2            1 S1                 0.0000
     20 ****         3.2886   0.4625  -4.3467 N.am           1 S1                 0.0000
     21 ****         2.6023   2.1561  -3.1013 O.2            1 S1                 0.0000
     22 ****         2.2912   0.4339  -0.7710 C.2            1 S1                 0.0000
     23 ****         2.0868   1.6240  -0.5141 O.2            1 S1                 0.0000
     24 ****        -2.7041   0.5285   1.4530 C.ar           1 S1                 0.0000
     25 ****        -6.0346   0.4823   2.1827 H              1 S1                 0.0000
     26 ****        -4.7333  -0.4038   2.9791 H              1 S1                 0.0000
     27 ****        -5.3231  -0.9338   1.3983 H              1 S1                 0.0000
     28 ****        -5.5460   2.1479   0.4496 H              1 S1                 0.0000
     29 ****        -3.8572   3.5812  -0.6720 H              1 S1                 0.0000
     30 ****        -1.4409   3.0742  -0.4418 H              1 S1                 0.0000
     31 ****        -0.2093   0.0662   2.6379 H              1 S1                 0.0000
     32 ****        -0.3443  -0.9153   1.1787 H              1 S1                 0.0000
     33 ****         2.0521   0.8959   1.8066 H              1 S1                 0.0000
     34 ****         1.9920  -0.7125   2.3312 H              1 S1                 0.0000
     35 ****         3.0329  -3.3587  -1.4313 H              1 S1                 0.0000
     36 ****         3.2521  -1.7627  -3.2729 H              1 S1                 0.0000
     37 ****         3.4108   1.0754  -5.1393 H              1 S1                 0.0000
     38 ****         3.4954  -0.5226  -4.4277 H              1 S1                 0.0000
     39 ****        -2.4152  -0.3242   2.0484 H              1 S1                 0.0000
     40 ****         0.0251   1.9370   1.3283 LP             1 S1                 0.0000
     41 ****        -0.0347   1.0616  -0.0490 LP             1 S1                 0.0000
     42 ****         2.2733   2.5432  -2.2399 LP             1 S1                 0.0000
     43 ****         2.7318   2.7468  -3.8977 LP             1 S1                 0.0000
     44 ****         1.8020   1.8953   0.4053 LP             1 S1                 0.0000
     45 ****         2.2060   2.3167  -1.2254 LP             1 S1                 0.0000
@<TRIPOS>BOND
    1    1    2 1     
    2    1   25 1     
    3    1   26 1     
    4    1   27 1     
    5    2   24 ar    
    6    2    3 ar    
    7    3    4 ar    
    8    3   28 1     
    9    4    5 ar    
   10    4   29 1     
   11    5    6 ar    
   12    5   30 1     
   13    6    7 1     
   14    6   24 ar    
   15    7    8 1     
   16    8    9 1     
   17    8   31 1     
   18    8   32 1     
   19    9   10 1     
   20    9   33 1     
   21    9   34 1     
   22   10   22 am    
   23   10   11 1     
   24   11   12 1     
   25   11   16 2     
   26   12   13 1     
   27   12   14 1     
   28   12   15 1     
   29   16   17 1     
   30   16   35 1     
   31   17   18 2     
   32   17   36 1     
   33   18   19 1     
   34   18   22 1     
   35   19   20 am    
   36   19   21 2     
   37   20   37 1     
   38   20   38 1     
   39   22   23 2     
   40   24   39 1     
   41    7   40 1     
   42    7   41 1     
   43   21   42 1     
   44   21   43 1     
   45   23   44 1     
   46   23   45 1     
@<TRIPOS>SUBSTRUCTURE
      1 S1             1
@<TRIPOS>SET
LONE_PAIRS      STATIC     ATOMS    <user>   **** ""
6 40 41 42 43 44 45
DONOR_HYDROGENS      STATIC     ATOMS    <user>   **** ""
2 37 38
ATOM$BLUE        STATIC     ATOMS    COLORGROUP SYSTEM
6 40 41 42 43 44 45
ATOM$RED        STATIC     ATOMS    COLORGROUP SYSTEM
2 37 38
