AV-unprocessed.smi:2154|AV-procd|sdf|8771|dock4
  -GOLD-   2272011553D 1   1.00000     0.00000
 Structure written by MMmdl.
 32 33  0  0  0  0  0  0  0  0  1 V2000
  152.3793  143.4363  160.8356 C   0  0  0  0  0  0  0  0  0  0  0  0
  152.2432  144.5426  159.8083 C   0  0  1  0  0  0  0  0  0  0  0  0
  152.5402  144.2808  158.3507 C   0  0  0  0  0  0  0  0  0  0  0  0
  151.1221  144.5698  158.7878 C   0  0  1  0  0  0  0  0  0  0  0  0
  150.0523  143.4920  158.7391 C   0  0  0  0  0  0  0  0  0  0  0  0
  149.7735  142.9664  157.4096 N   0  0  0  0  0  0  0  0  0  0  0  0
  149.6164  141.6672  157.1148 C   0  0  0  0  0  0  0  0  0  0  0  0
  149.6687  140.7732  157.9607 O   0  0  0  0  0  0  0  0  0  0  0  0
  149.3365  141.3380  155.6414 C   0  0  0  0  0  0  0  0  0  0  0  0
  150.0519  140.1419  155.1733 N   0  0  0  0  0  0  0  0  0  0  0  0
  151.3562  139.9007  155.5814 C   0  0  0  0  0  0  0  0  0  0  0  0
  152.0753  138.8243  155.1837 C   0  0  0  0  0  0  0  0  0  0  0  0
  151.4918  137.8398  154.2788 C   0  0  0  0  0  0  0  0  0  0  0  0
  152.0608  136.8325  153.8641 O   0  0  0  0  0  0  0  0  0  0  0  0
  150.1795  138.1190  153.8880 N   0  0  0  0  0  0  0  0  0  0  0  0
  149.4335  139.2272  154.2931 C   0  0  0  0  0  0  0  0  0  0  0  0
  148.2826  139.3802  153.8852 O   0  0  0  0  0  0  0  0  0  0  0  0
  149.7347  137.4663  153.2591 H   0  0  0  0  0  0  0  0  0  0  0  0
  152.1859  142.4589  160.3937 H   0  0  0  0  0  0  0  0  0  0  0  0
  151.6763  143.5963  161.6532 H   0  0  0  0  0  0  0  0  0  0  0  0
  153.3902  143.4310  161.2434 H   0  0  0  0  0  0  0  0  0  0  0  0
  152.5450  145.5167  160.1885 H   0  0  0  0  0  0  0  0  0  0  0  0
  153.0607  145.0581  157.7954 H   0  0  0  0  0  0  0  0  0  0  0  0
  152.7798  143.2610  158.0558 H   0  0  0  0  0  0  0  0  0  0  0  0
  150.7406  145.5636  158.5601 H   0  0  0  0  0  0  0  0  0  0  0  0
  150.3163  142.6710  159.4073 H   0  0  0  0  0  0  0  0  0  0  0  0
  149.1254  143.9166  159.1249 H   0  0  0  0  0  0  0  0  0  0  0  0
  149.7081  143.6367  156.6572 H   0  0  0  0  0  0  0  0  0  0  0  0
  148.2601  141.2057  155.5234 H   0  0  0  0  0  0  0  0  0  0  0  0
  149.5913  142.1955  155.0149 H   0  0  0  0  0  0  0  0  0  0  0  0
  151.8309  140.6061  156.2486 H   0  0  0  0  0  0  0  0  0  0  0  0
  153.0880  138.6913  155.5359 H   0  0  0  0  0  0  0  0  0  0  0  0
  1  2  1  0  0  0  0
  1 19  1  0  0  0  0
  1 20  1  0  0  0  0
  1 21  1  0  0  0  0
  2  4  1  0  0  0  0
  2  3  1  0  0  0  0
  2 22  1  0  0  0  0
  3  4  1  0  0  0  0
  3 23  1  0  0  0  0
  3 24  1  0  0  0  0
  4  5  1  0  0  0  0
  4 25  1  0  0  0  0
  5  6  1  0  0  0  0
  5 26  1  0  0  0  0
  5 27  1  0  0  0  0
  6  7  1  0  0  0  0
  6 28  1  0  0  0  0
  7  8  2  0  0  0  0
  7  9  1  0  0  0  0
  9 10  1  0  0  0  0
  9 29  1  0  0  0  0
  9 30  1  0  0  0  0
 10 16  1  0  0  0  0
 10 11  1  0  0  0  0
 11 12  2  0  0  0  0
 11 31  1  0  0  0  0
 12 13  1  0  0  0  0
 12 32  1  0  0  0  0
 13 14  2  0  0  0  0
 13 15  1  0  0  0  0
 15 18  1  0  0  0  0
 15 16  1  0  0  0  0
 16 17  2  0  0  0  0
M  END
> <s_m_source_file>
AV-unprocessed.smi

> <i_m_source_file_index>
2154

> <i_lp_mmshare_version>
43012

> <i_f3d_flags>
0

> <s_epik_input>
W0NIM11bQ0BASF0xW0NIMl1bQ0BIXTFbQ0gyXVtOSF1DKD1PKVtDSDJdbjJbY0hdW2NIXWMoPU8pW25IXWMyPU8=

> <s_epik_cmdline>
J2VwaWtfcHl0aG9uJywgJy1waCcsICc3LjAnLCAnLXRuJywgJzgnLCAnLW1hJywgJzIwMCcsICctbWV0YWxfYmluZGluZycsICctaW1hZScsICc8aW5maWxlLm1hZT4nLCAnLW9tYWUnLCAnPG91dGZpbGUubWFlPic=

> <r_lp_tautomer_probability>
0.999537

> <r_epik_Ionization_Penalty>
0.00305319

> <r_epik_Ionization_Penalty_Charging>
0.00305317

> <r_epik_Ionization_Penalty_Neutral>
2.06703e-08

> <r_epik_State_Penalty>
0.00214626

> <r_epik_Charging_Adjusted_Penalty>
0.00519944

> <i_epik_Tot_Q>
0

> <i_epik_Tot_abs_Q>
0

> <r_epik_Metal_State_Penalty>
0.361976

> <b_epik_Metal_Only>
0

> <s_lp_Force_Field>
OPLS_2005

> <r_lp_Energy>
15.5744

> <b_lp_Chiralities_Consistent>
1

> <s_lp_Variant>
AV-unprocessed.smi:2154-2

> <Gold.Version>
5.8.1

> <Gold.Id.Protein>
6NUR|6NUR_protein|mol2

> <Gold.PLP.Fitness>
45.1079

> <Gold.PLP.PLP>
-37.7838

> <Gold.PLP.part.hbond>
-2.6392

> <Gold.PLP.part.metal>
0.0000

> <Gold.PLP.part.buried>
-5.6349

> <Gold.PLP.part.nonpolar>
-33.9562

> <Gold.PLP.part.repulsive>
3.0579

> <Gold.PLP.ligand.clash>
0.0000

> <Gold.PLP.ligand.torsion>
0.9968

> <Gold.PLP.Chemscore.Hbond>
2.9263

> <Gold.PLP.Chemscore.CHOScore>
0.0000

> <Gold.PLP.Chemscore.Metal>
0.0000

> <Gold.Chemscore.Hbonds>
donor molecule, donor type, donor heavy atom, donor atom, acceptor molecule, acceptor atom, score
      L1  H     6    28       P1  8028  1.00
      L1  H    15    18       P1  7948  1.00
      P1  H 10752 10763       L1    14  0.91

> <Gold.PLP.Chemscore.Internal.Correction>
0.5389

> <Gold.Rescore>
     Score         DG    S(hbond)    S(metal)    S(lipo)     H(rot)  DE(clash)    DE(int)     intcor
     16.78     -19.48       2.82        0.00      83.09       2.01       1.85       0.85       ----

> <Gold.Chemscore.Fitness>
16.7755

> <Gold.Chemscore.DG>
-19.4822

> <Gold.Chemscore.ZeroCoef>
-5.4800

> <Gold.Chemscore.Hbond>
2.8195

> <Gold.Chemscore.Metal>
0.0000

> <Gold.Chemscore.Lipo>
83.0913

> <Gold.Chemscore.Internal_Hbond>
0.0000

> <Gold.Chemscore.DEClash>
1.8541

> <Gold.Chemscore.DEInternal>
0.8526

> <Gold.Chemscore.Rot>
2.0065

> <Gold.Chemscore.Internal.Correction>
   9.000000E+99

> <Gold.Chemscore.Hbonds>
donor molecule, donor type, donor heavy atom, donor atom, acceptor molecule, acceptor atom, score
      L1  H     6    28       P1  8028  0.97
      L1  H    15    18       P1  7948  0.64
      P1  H 10752 10763       L1    14  0.87

> <Gold.Chemscore.Hbond.Weighted>
-9.4171

> <Gold.Chemscore.Metal.Weighted>
-0.0000

> <Gold.Chemscore.Lipo.Weighted>
-9.7217

> <Gold.Chemscore.Internal_Hbond.Weighted>
0.0000

> <Gold.Chemscore.DEClash.Weighted>
1.8541

> <Gold.Chemscore.DEInternal.Weighted>
0.8526

> <Gold.Chemscore.Rot.Weighted>
5.1366

> <Gold.Chemscore.Internal.Correction.Weighted>
   9.000000E+99

> <Gold.Protein.RotatedTorsions>
[ 6907 6896 6895 6894 ] final  131.97 input  -60.11 | X-H torsion
[ 7974 7965 7964 7962 ] final  -18.11 input  175.53 | X-H torsion
[ 8008 7997 7996 7995 ] final   54.26 input   59.86 | X-H torsion
[ 10167 10162 10161 10158 ] final -113.62 input  -65.29 | X-H torsion
[ 10718 10713 10712 10709 ] final -177.33 input   66.30 | X-H torsion
[ 10763 10752 10751 10750 ] final   36.47 input  -60.55 | X-H torsion
[ 11005 11000 10999 10996 ] final  124.57 input  -57.11 | X-H torsion

> <Gold.Protein.ActiveResidues>
 VAL166  LYS551  ARG553  GLY616  TRP617  ASP618  TYR619  PRO620  LYS621  CYS622 
 ASP623  PHE694  ASN695  SER759  ASP760  ASP761  ALA762  ILE779  LEU786  VAL792 
 PHE793  MET794  SER795  GLU796  ALA797  LYS798  CYS799  TRP800  GLU811  SER814 

> <Gold.Protein.RotatedAtoms>
  152.3372  133.6025  159.5850 H   0  0  0  0  0  0  0  0  0  0  0  0  # atno 6907 bound_to 6896
  150.7457  133.9778  159.3575 H   0  0  0  0  0  0  0  0  0  0  0  0  # atno 6908 bound_to 6896
  151.7646  135.0802  160.0402 H   0  0  0  0  0  0  0  0  0  0  0  0  # atno 6909 bound_to 6896
  146.1908  140.3874  142.8459 H   0  0  0  0  0  0  0  0  0  0  0  0  # atno 7974 bound_to 7965
  155.4817  140.3468  155.4341 H   0  0  0  0  0  0  0  0  0  0  0  0  # atno 8008 bound_to 7997
  156.1034  140.1441  156.9465 H   0  0  0  0  0  0  0  0  0  0  0  0  # atno 8009 bound_to 7997
  154.4709  140.0901  156.7119 H   0  0  0  0  0  0  0  0  0  0  0  0  # atno 8010 bound_to 7997
  140.1098  143.4537  152.1759 H   0  0  0  0  0  0  0  0  0  0  0  0  # atno 10167 bound_to 10162
  156.8278  130.9642  151.3108 H   0  0  0  0  0  0  0  0  0  0  0  0  # atno 10718 bound_to 10713
  153.0075  135.6305  154.1991 H   0  0  0  0  0  0  0  0  0  0  0  0  # atno 10763 bound_to 10752
  154.1734  135.2817  155.3076 H   0  0  0  0  0  0  0  0  0  0  0  0  # atno 10764 bound_to 10752
  154.5891  135.5623  153.7320 H   0  0  0  0  0  0  0  0  0  0  0  0  # atno 10765 bound_to 10752
  139.9365  134.9639  156.8428 H   0  0  0  0  0  0  0  0  0  0  0  0  # atno 11005 bound_to 11000
  144.8484  140.6963  143.6184 LP  0  0  0  0  0  0  0  0  0  0  0  0  # atno 17320 bound_to 7965
  145.3797  139.1639  143.4287 LP  0  0  0  0  0  0  0  0  0  0  0  0  # atno 17321 bound_to 7965
  139.5625  144.7415  151.4114 LP  0  0  0  0  0  0  0  0  0  0  0  0  # atno 17342 bound_to 10162
  140.6932  143.7812  150.7286 LP  0  0  0  0  0  0  0  0  0  0  0  0  # atno 17343 bound_to 10162
  157.6423  130.8815  149.9471 LP  0  0  0  0  0  0  0  0  0  0  0  0  # atno 17370 bound_to 10713
  156.0951  130.3660  150.0321 LP  0  0  0  0  0  0  0  0  0  0  0  0  # atno 17371 bound_to 10713
  140.6063  134.0124  155.7558 LP  0  0  0  0  0  0  0  0  0  0  0  0  # atno 17394 bound_to 11000
  141.0980  133.9812  157.3127 LP  0  0  0  0  0  0  0  0  0  0  0  0  # atno 17395 bound_to 11000

$$$$
