#       Name:                AV-unprocessed.smi:771
#       Creating user name   scv26
#       Creation time:       Fri Mar 27 01:09:45 2020


#       File generated by GOLD software.
#

@<TRIPOS>MOLECULE
AV-unprocessed.smi:771
    49    50     1
SMALL
NO_CHARGES


@<TRIPOS>ATOM
      1 ****        -0.3318   0.4173  -1.8306 O.2            1 S1                 0.0000
      2 ****         0.4972  -0.4373  -1.5152 C.2            1 S1                 0.0000
      3 ****         1.9977  -0.1774  -1.7050 C.3            1 S1                 0.0000
      4 ****         2.3611   1.2367  -1.5120 N.am           1 S1                 0.0000
      5 ****         2.5667   2.0123  -2.6701 C.2            1 S1                 0.0000
      6 ****         2.8982   3.3170  -2.6082 C.2            1 S1                 0.0000
      7 ****         3.1032   4.0993  -3.8075 N.pl3          1 S1                 1.0000
      8 ****         3.3904   5.2866  -3.6934 O.2            1 S1                 0.0000
      9 ****         2.9859   3.5546  -4.9013 O.2            1 S1                -1.0000
     10 ****         3.0406   3.9152  -1.2948 C.2            1 S1                 0.0000
     11 ****         2.8426   3.1793  -0.1834 C.2            1 S1                 0.0000
     12 ****         2.4812   1.7599  -0.2530 C.2            1 S1                 0.0000
     13 ****         2.2970   1.0822   0.7585 O.2            1 S1                 0.0000
     14 ****         0.1652  -1.6315  -1.0026 N.am           1 S1                 0.0000
     15 ****        -1.1937  -2.0629  -0.6908 C.3            1 S1                 0.0000
     16 ****        -1.7426  -1.4170   0.6033 C.3            1 S1                 0.0000
     17 ****        -3.1926  -1.8634   0.8830 C.3            1 S1                 0.0000
     18 ****        -3.7703  -1.1680   2.1260 C.3            1 S1                 0.0000
     19 ****        -2.8886  -1.4094   3.3601 C.3            1 S1                 0.0000
     20 ****        -1.4367  -0.9708   3.1026 C.3            1 S1                 0.0000
     21 ****        -0.8405  -1.6356   1.8467 C.3            1 S1                 0.0000
     22 ****        -0.6447  -3.0149   2.0978 O.3            1 S1                 0.0000
     23 ****         2.5708  -0.8026  -1.0172 H              1 S1                 0.0000
     24 ****         2.2771  -0.5197  -2.7023 H              1 S1                 0.0000
     25 ****         2.4301   1.4774  -3.5989 H              1 S1                 0.0000
     26 ****         3.3053   4.9574  -1.1925 H              1 S1                 0.0000
     27 ****         2.9523   3.6455   0.7847 H              1 S1                 0.0000
     28 ****         0.9103  -2.2773  -0.7839 H              1 S1                 0.0000
     29 ****        -1.8490  -1.8359  -1.5331 H              1 S1                 0.0000
     30 ****        -1.1890  -3.1490  -0.5966 H              1 S1                 0.0000
     31 ****        -1.7800  -0.3403   0.4297 H              1 S1                 0.0000
     32 ****        -3.8223  -1.6423   0.0206 H              1 S1                 0.0000
     33 ****        -3.2295  -2.9450   1.0193 H              1 S1                 0.0000
     34 ****        -3.8537  -0.0964   1.9400 H              1 S1                 0.0000
     35 ****        -4.7818  -1.5278   2.3164 H              1 S1                 0.0000
     36 ****        -3.2927  -0.8691   4.2166 H              1 S1                 0.0000
     37 ****        -2.9131  -2.4672   3.6249 H              1 S1                 0.0000
     38 ****        -1.4114   0.1123   2.9768 H              1 S1                 0.0000
     39 ****        -0.8193  -1.1883   3.9750 H              1 S1                 0.0000
     40 ****         0.1431  -1.2001   1.6675 H              1 S1                 0.0000
     41 ****        -0.2335  -3.4028   1.3409 H              1 S1                 0.0000
     42 ****        -0.0292   1.2898  -2.2141 LP             1 S1                 0.0000
     43 ****        -1.3074   0.2386  -1.7031 LP             1 S1                 0.0000
     44 ****         3.4784   5.6946  -2.7846 LP             1 S1                 0.0000
     45 ****         3.5366   5.8463  -4.5091 LP             1 S1                 0.0000
     46 ****         2.0511   0.1165   0.6754 LP             1 S1                 0.0000
     47 ****         2.3934   1.4975   1.6631 LP             1 S1                 0.0000
     48 ****        -1.5266  -3.4556   2.2653 LP             1 S1                 0.0000
     49 ****        -0.0564  -3.1317   2.8980 LP             1 S1                 0.0000
@<TRIPOS>BOND
    1    1    2 2     
    2    2    3 1     
    3    2   14 am    
    4    3    4 1     
    5    3   23 1     
    6    3   24 1     
    7    4   12 am    
    8    4    5 1     
    9    5    6 2     
   10    5   25 1     
   11    6    7 1     
   12    6   10 1     
   13    7    8 2     
   14    7    9 1     
   15   10   11 2     
   16   10   26 1     
   17   11   12 1     
   18   11   27 1     
   19   12   13 2     
   20   14   15 1     
   21   14   28 1     
   22   15   16 1     
   23   15   29 1     
   24   15   30 1     
   25   16   21 1     
   26   16   17 1     
   27   16   31 1     
   28   17   18 1     
   29   17   32 1     
   30   17   33 1     
   31   18   19 1     
   32   18   34 1     
   33   18   35 1     
   34   19   20 1     
   35   19   36 1     
   36   19   37 1     
   37   20   21 1     
   38   20   38 1     
   39   20   39 1     
   40   21   22 1     
   41   21   40 1     
   42   22   41 1     
   43    1   42 1     
   44    1   43 1     
   45    8   44 1     
   46    8   45 1     
   47   13   46 1     
   48   13   47 1     
   49   22   48 1     
   50   22   49 1     
@<TRIPOS>SUBSTRUCTURE
      1 S1             1
@<TRIPOS>SET
LONE_PAIRS      STATIC     ATOMS    <user>   **** ""
9 42 43 44 45 9 46 47 48 49
DONOR_HYDROGENS      STATIC     ATOMS    <user>   **** ""
2 28 41
ATOM$BLUE        STATIC     ATOMS    COLORGROUP SYSTEM
9 42 43 44 45 9 46 47 48 49
ATOM$RED        STATIC     ATOMS    COLORGROUP SYSTEM
2 28 41
