AV-unprocessed.smi:1570|AV-procd|sdf|6315|dock6
  -GOLD-   22720 6523D 1   1.00000     0.00000
 Structure written by MMmdl.
 51 53  0  0  0  0  0  0  0  0  1 V2000
  153.3365  142.0957  162.3819 C   0  0  0  0  0  0  0  0  0  0  0  0
  153.9925  141.6458  161.0707 C   0  0  0  0  0  0  0  0  0  0  0  0
  153.1463  141.9575  159.9213 N   0  0  0  0  0  0  0  0  0  0  0  0
  152.9289  141.1697  158.8418 C   0  0  0  0  0  0  0  0  0  0  0  0
  153.4015  140.0481  158.6576 O   0  0  0  0  0  0  0  0  0  0  0  0
  152.0982  141.8291  158.0005 N   0  0  0  0  0  0  0  0  0  0  0  0
  151.5878  141.3405  156.7208 C   0  0  0  0  0  0  0  0  0  0  0  0
  150.2372  140.6090  156.8874 C   0  0  1  0  0  0  0  0  0  0  0  0
  149.2213  141.5279  157.2376 O   0  0  0  0  0  0  0  0  0  0  0  0
  149.7722  139.7938  155.6570 C   0  0  0  0  0  0  0  0  0  0  0  0
  148.5159  140.1951  155.0109 N   0  0  0  0  0  0  0  0  0  0  0  0
  148.0757  139.1697  154.0715 C   0  0  0  0  0  0  0  0  0  0  0  0
  146.7330  139.5245  153.4091 C   0  0  2  0  0  0  0  0  0  0  0  0
  146.3118  138.4841  152.3659 C   0  0  0  0  0  0  0  0  0  0  0  0
  146.8501  140.7857  152.7547 O   0  0  0  0  0  0  0  0  0  0  0  0
  147.3035  141.8575  153.5820 C   0  0  1  0  0  0  0  0  0  0  0  0
  146.2035  142.3410  154.5425 C   0  0  0  0  0  0  0  0  0  0  0  0
  148.6116  141.4688  154.3004 C   0  0  0  0  0  0  0  0  0  0  0  0
  151.7708  143.0727  158.5592 C   0  0  0  0  0  0  0  0  0  0  0  0
  150.9473  144.1108  158.0896 C   0  0  0  0  0  0  0  0  0  0  0  0
  150.8263  145.2598  158.9060 C   0  0  0  0  0  0  0  0  0  0  0  0
  151.5131  145.3472  160.1447 C   0  0  0  0  0  0  0  0  0  0  0  0
  152.3334  144.2863  160.5949 C   0  0  0  0  0  0  0  0  0  0  0  0
  152.4343  143.1555  159.7658 C   0  0  0  0  0  0  0  0  0  0  0  0
  153.9732  141.8584  163.2340 H   0  0  0  0  0  0  0  0  0  0  0  0
  152.3778  141.5994  162.5347 H   0  0  0  0  0  0  0  0  0  0  0  0
  153.1623  143.1722  162.3868 H   0  0  0  0  0  0  0  0  0  0  0  0
  154.9640  142.1296  160.9586 H   0  0  0  0  0  0  0  0  0  0  0  0
  154.1916  140.5743  161.1003 H   0  0  0  0  0  0  0  0  0  0  0  0
  151.5137  142.1653  156.0119 H   0  0  0  0  0  0  0  0  0  0  0  0
  152.3303  140.6575  156.3048 H   0  0  0  0  0  0  0  0  0  0  0  0
  150.3252  139.8997  157.7118 H   0  0  0  0  0  0  0  0  0  0  0  0
  148.6312  141.6111  156.5039 H   0  0  0  0  0  0  0  0  0  0  0  0
  150.5740  139.7505  154.9184 H   0  0  0  0  0  0  0  0  0  0  0  0
  149.6539  138.7671  156.0072 H   0  0  0  0  0  0  0  0  0  0  0  0
  148.8357  139.0243  153.3019 H   0  0  0  0  0  0  0  0  0  0  0  0
  147.9722  138.2155  154.5898 H   0  0  0  0  0  0  0  0  0  0  0  0
  145.9541  139.5804  154.1702 H   0  0  0  0  0  0  0  0  0  0  0  0
  146.1969  137.4988  152.8183 H   0  0  0  0  0  0  0  0  0  0  0  0
  147.0512  138.4027  151.5686 H   0  0  0  0  0  0  0  0  0  0  0  0
  145.3585  138.7539  151.9108 H   0  0  0  0  0  0  0  0  0  0  0  0
  147.5254  142.6878  152.9110 H   0  0  0  0  0  0  0  0  0  0  0  0
  146.5273  143.2275  155.0881 H   0  0  0  0  0  0  0  0  0  0  0  0
  145.9415  141.5835  155.2808 H   0  0  0  0  0  0  0  0  0  0  0  0
  145.2975  142.6027  153.9956 H   0  0  0  0  0  0  0  0  0  0  0  0
  148.8704  142.2723  154.9847 H   0  0  0  0  0  0  0  0  0  0  0  0
  149.4165  141.4140  153.5658 H   0  0  0  0  0  0  0  0  0  0  0  0
  150.4256  144.0386  157.1468 H   0  0  0  0  0  0  0  0  0  0  0  0
  150.2034  146.0806  158.5822 H   0  0  0  0  0  0  0  0  0  0  0  0
  151.4076  146.2340  160.7520 H   0  0  0  0  0  0  0  0  0  0  0  0
  152.8578  144.3469  161.5369 H   0  0  0  0  0  0  0  0  0  0  0  0
  1  2  1  0  0  0  0
  1 25  1  0  0  0  0
  1 26  1  0  0  0  0
  1 27  1  0  0  0  0
  2  3  1  0  0  0  0
  2 28  1  0  0  0  0
  2 29  1  0  0  0  0
  3 24  1  0  0  0  0
  3  4  1  0  0  0  0
  4  5  2  0  0  0  0
  4  6  1  0  0  0  0
  6  7  1  0  0  0  0
  6 19  1  0  0  0  0
  7  8  1  0  0  0  0
  7 30  1  0  0  0  0
  7 31  1  0  0  0  0
  8  9  1  0  0  0  0
  8 10  1  0  0  0  0
  8 32  1  0  0  0  0
  9 33  1  0  0  0  0
 10 11  1  0  0  0  0
 10 34  1  0  0  0  0
 10 35  1  0  0  0  0
 11 18  1  0  0  0  0
 11 12  1  0  0  0  0
 12 13  1  0  0  0  0
 12 36  1  0  0  0  0
 12 37  1  0  0  0  0
 13 14  1  0  0  0  0
 13 15  1  0  0  0  0
 13 38  1  0  0  0  0
 14 39  1  0  0  0  0
 14 40  1  0  0  0  0
 14 41  1  0  0  0  0
 15 16  1  0  0  0  0
 16 17  1  0  0  0  0
 16 18  1  0  0  0  0
 16 42  1  0  0  0  0
 17 43  1  0  0  0  0
 17 44  1  0  0  0  0
 17 45  1  0  0  0  0
 18 46  1  0  0  0  0
 18 47  1  0  0  0  0
 19 24  2  0  0  0  0
 19 20  1  0  0  0  0
 20 21  2  0  0  0  0
 20 48  1  0  0  0  0
 21 22  1  0  0  0  0
 21 49  1  0  0  0  0
 22 23  2  0  0  0  0
 22 50  1  0  0  0  0
 23 24  1  0  0  0  0
 23 51  1  0  0  0  0
M  END
> <s_m_source_file>
AV-unprocessed.smi

> <i_m_source_file_index>
1570

> <i_lp_mmshare_version>
43012

> <i_f3d_flags>
0

> <s_epik_input>
W2NIXTFbY0hdW2NIXVtjSF1jKGMxMiluKFtDSDJdW0NIM10pYyg9TyluMltDSDJdW0NASF0oW09IXSlbQ0gyXU4zW0NIMl1bQ0BASF0oW0NIM10pT1tDQEBIXShbQ0gzXSlbQ0gyXTM=

> <s_epik_cmdline>
J2VwaWtfcHl0aG9uJywgJy1waCcsICc3LjAnLCAnLXRuJywgJzgnLCAnLW1hJywgJzIwMCcsICctbWV0YWxfYmluZGluZycsICctaW1hZScsICc8aW5maWxlLm1hZT4nLCAnLW9tYWUnLCAnPG91dGZpbGUubWFlPic=

> <r_epik_Ionization_Penalty>
0.214359

> <r_epik_Ionization_Penalty_Charging>
2.30976e-09

> <r_epik_Ionization_Penalty_Neutral>
0.214359

> <r_epik_State_Penalty>
0.204533

> <r_epik_Charging_Adjusted_Penalty>
0.204533

> <i_epik_Tot_Q>
0

> <i_epik_Tot_abs_Q>
0

> <r_epik_Metal_State_Penalty>
0.204533

> <b_epik_Metal_Only>
0

> <s_lp_Force_Field>
OPLS_2005

> <r_lp_Energy>
68.4361

> <b_lp_Chiralities_Consistent>
1

> <s_lp_Variant>
AV-unprocessed.smi:1570-4

> <Gold.Version>
5.8.1

> <Gold.Id.Protein>
6NUR|6NUR_protein|mol2

> <Gold.PLP.Fitness>
51.6398

> <Gold.PLP.PLP>
-51.8438

> <Gold.PLP.part.hbond>
-1.0000

> <Gold.PLP.part.metal>
0.0000

> <Gold.PLP.part.buried>
-4.8070

> <Gold.PLP.part.nonpolar>
-44.0825

> <Gold.PLP.part.repulsive>
0.9193

> <Gold.PLP.ligand.clash>
0.0119

> <Gold.PLP.ligand.torsion>
1.4957

> <Gold.PLP.Chemscore.Hbond>
0.9188

> <Gold.PLP.Chemscore.CHOScore>
0.0000

> <Gold.PLP.Chemscore.Metal>
0.0000

> <Gold.Chemscore.Hbonds>
donor molecule, donor type, donor heavy atom, donor atom, acceptor molecule, acceptor atom, score
      P1  H  7997  8008       L1     5  0.96

> <Gold.PLP.Chemscore.Internal.Correction>
0.0427

> <Gold.Rescore>
     Score         DG    S(hbond)    S(metal)    S(lipo)     H(rot)  DE(clash)    DE(int)     intcor
     15.46     -19.00       0.84        0.00     136.49       2.06       0.35       3.20       ----

> <Gold.Chemscore.Fitness>
15.4573

> <Gold.Chemscore.DG>
-19.0021

> <Gold.Chemscore.ZeroCoef>
-5.4800

> <Gold.Chemscore.Hbond>
0.8441

> <Gold.Chemscore.Metal>
0.0000

> <Gold.Chemscore.Lipo>
136.4929

> <Gold.Chemscore.Internal_Hbond>
0.0000

> <Gold.Chemscore.DEClash>
0.3490

> <Gold.Chemscore.DEInternal>
3.1958

> <Gold.Chemscore.Rot>
2.0574

> <Gold.Chemscore.Internal.Correction>
   9.000000E+99

> <Gold.Chemscore.Hbonds>
donor molecule, donor type, donor heavy atom, donor atom, acceptor molecule, acceptor atom, score
      P1  H  7997  8008       L1     5  0.72

> <Gold.Chemscore.Hbond.Weighted>
-2.8193

> <Gold.Chemscore.Metal.Weighted>
-0.0000

> <Gold.Chemscore.Lipo.Weighted>
-15.9697

> <Gold.Chemscore.Internal_Hbond.Weighted>
0.0000

> <Gold.Chemscore.DEClash.Weighted>
0.3490

> <Gold.Chemscore.DEInternal.Weighted>
3.1958

> <Gold.Chemscore.Rot.Weighted>
5.2669

> <Gold.Chemscore.Internal.Correction.Weighted>
   9.000000E+99

> <Gold.Protein.RotatedTorsions>
[ 6907 6896 6895 6894 ] final -108.17 input  -60.11 | X-H torsion
[ 7974 7965 7964 7962 ] final -136.02 input  175.53 | X-H torsion
[ 8008 7997 7996 7995 ] final -104.08 input   59.86 | X-H torsion
[ 10167 10162 10161 10158 ] final -158.33 input  -65.29 | X-H torsion
[ 10718 10713 10712 10709 ] final  -45.48 input   66.30 | X-H torsion
[ 10763 10752 10751 10750 ] final   39.86 input  -60.55 | X-H torsion
[ 11005 11000 10999 10996 ] final  -84.06 input  -57.11 | X-H torsion

> <Gold.Protein.ActiveResidues>
 VAL166  LYS551  ARG553  GLY616  TRP617  ASP618  TYR619  PRO620  LYS621  CYS622 
 ASP623  PHE694  ASN695  SER759  ASP760  ASP761  ALA762  ILE779  LEU786  VAL792 
 PHE793  MET794  SER795  GLU796  ALA797  LYS798  CYS799  TRP800  GLU811  SER814 

> <Gold.Protein.RotatedAtoms>
  150.7486  133.9717  159.3547 H   0  0  0  0  0  0  0  0  0  0  0  0  # atno 6907 bound_to 6896
  151.7652  135.0798  160.0361 H   0  0  0  0  0  0  0  0  0  0  0  0  # atno 6908 bound_to 6896
  152.3376  133.5993  159.5890 H   0  0  0  0  0  0  0  0  0  0  0  0  # atno 6909 bound_to 6896
  144.8963  140.6711  143.5113 H   0  0  0  0  0  0  0  0  0  0  0  0  # atno 7974 bound_to 7965
  154.8802  140.0419  157.1778 H   0  0  0  0  0  0  0  0  0  0  0  0  # atno 8008 bound_to 7997
  154.8647  140.2949  155.5497 H   0  0  0  0  0  0  0  0  0  0  0  0  # atno 8009 bound_to 7997
  156.2999  140.2440  156.3627 H   0  0  0  0  0  0  0  0  0  0  0  0  # atno 8010 bound_to 7997
  139.6700  143.9761  152.2278 H   0  0  0  0  0  0  0  0  0  0  0  0  # atno 10167 bound_to 10162
  156.2279  130.4170  149.8911 H   0  0  0  0  0  0  0  0  0  0  0  0  # atno 10718 bound_to 10713
  152.9954  135.6208  154.2532 H   0  0  0  0  0  0  0  0  0  0  0  0  # atno 10763 bound_to 10752
  154.2270  135.2793  155.2905 H   0  0  0  0  0  0  0  0  0  0  0  0  # atno 10764 bound_to 10752
  154.5481  135.5741  153.6956 H   0  0  0  0  0  0  0  0  0  0  0  0  # atno 10765 bound_to 10752
  141.1653  133.7326  156.8811 H   0  0  0  0  0  0  0  0  0  0  0  0  # atno 11005 bound_to 11000
  145.3694  139.1662  143.4340 LP  0  0  0  0  0  0  0  0  0  0  0  0  # atno 17320 bound_to 7965
  146.3083  140.3764  142.8679 LP  0  0  0  0  0  0  0  0  0  0  0  0  # atno 17321 bound_to 7965
  139.9523  144.6612  150.8160 LP  0  0  0  0  0  0  0  0  0  0  0  0  # atno 17342 bound_to 10162
  140.7614  143.3174  151.2700 LP  0  0  0  0  0  0  0  0  0  0  0  0  # atno 17343 bound_to 10162
  156.6536  130.8753  151.3535 LP  0  0  0  0  0  0  0  0  0  0  0  0  # atno 17370 bound_to 10713
  157.7119  130.9450  150.1119 LP  0  0  0  0  0  0  0  0  0  0  0  0  # atno 17371 bound_to 10713
  140.1714  134.9097  157.2838 LP  0  0  0  0  0  0  0  0  0  0  0  0  # atno 17394 bound_to 11000
  140.2498  134.3697  155.7447 LP  0  0  0  0  0  0  0  0  0  0  0  0  # atno 17395 bound_to 11000

$$$$
