AV-unprocessed.smi:546|AV-procd|sdf|2883|dock4
  -GOLD-   2262023373D 1   1.00000     0.00000
 Structure written by MMmdl.
 52 54  0  0  0  0  0  0  0  0  1 V2000
  154.8638  138.1254  159.7800 C   0  0  0  0  0  0  0  0  0  0  0  0
  153.7519  137.1607  160.1974 C   0  0  0  0  0  0  0  0  0  0  0  0
  153.0577  136.7217  159.0420 O   0  0  0  0  0  0  0  0  0  0  0  0
  152.0094  137.6020  158.6691 C   0  0  0  0  0  0  0  0  0  0  0  0
  152.5168  138.5978  157.6173 C   0  0  0  0  0  0  0  0  0  0  0  0
  151.4318  139.4099  157.0691 N   0  0  0  0  0  0  0  0  0  0  0  0
  151.0217  140.6628  157.4175 C   0  0  0  0  0  0  0  0  0  0  0  0
  151.5921  141.3847  158.4691 N   0  0  0  0  0  0  0  0  0  0  0  0
  151.3009  142.7946  158.7257 C   0  0  0  0  0  0  0  0  0  0  0  0
  152.5900  143.6172  158.9167 C   0  0  1  0  0  0  0  0  0  0  0  0
  152.2816  145.1033  159.1403 C   0  0  0  0  0  0  0  0  0  0  0  0
  153.4255  143.0322  160.0679 C   0  0  0  0  0  0  0  0  0  0  0  0
  153.6536  141.5265  159.8542 C   0  0  1  0  0  0  0  0  0  0  0  0
  154.4174  140.8977  161.0266 C   0  0  0  0  0  0  0  0  0  0  0  0
  152.2989  140.8275  159.6227 C   0  0  0  0  0  0  0  0  0  0  0  0
  150.0507  141.1606  156.6453 N   0  0  0  0  0  0  0  0  0  0  0  0
  149.7957  140.1334  155.7520 C   0  0  0  0  0  0  0  0  0  0  0  0
  150.6121  139.0763  155.9887 C   0  0  0  0  0  0  0  0  0  0  0  0
  150.5765  137.8565  155.1696 C   0  0  0  0  0  0  0  0  0  0  0  0
  151.3101  136.8890  155.3601 O   0  0  0  0  0  0  0  0  0  0  0  0
  149.6538  137.9079  154.1785 N   0  0  0  0  0  0  0  0  0  0  0  0
  148.8029  138.9384  153.8873 C   0  0  0  0  0  0  0  0  0  0  0  0
  148.0187  138.8404  152.9436 O   0  0  0  0  0  0  0  0  0  0  0  0
  148.8654  140.0584  154.6761 N   0  0  0  0  0  0  0  0  0  0  0  0
  147.9812  141.1941  154.4070 C   0  0  0  0  0  0  0  0  0  0  0  0
  149.5881  137.0934  153.5855 H   0  0  0  0  0  0  0  0  0  0  0  0
  155.4381  138.4554  160.6458 H   0  0  0  0  0  0  0  0  0  0  0  0
  154.4509  139.0115  159.2978 H   0  0  0  0  0  0  0  0  0  0  0  0
  155.5530  137.6509  159.0810 H   0  0  0  0  0  0  0  0  0  0  0  0
  154.1805  136.3055  160.7221 H   0  0  0  0  0  0  0  0  0  0  0  0
  153.0665  137.6606  160.8835 H   0  0  0  0  0  0  0  0  0  0  0  0
  151.1680  137.0341  158.2696 H   0  0  0  0  0  0  0  0  0  0  0  0
  151.6492  138.1419  159.5457 H   0  0  0  0  0  0  0  0  0  0  0  0
  153.2708  139.2560  158.0477 H   0  0  0  0  0  0  0  0  0  0  0  0
  153.0310  138.0565  156.8317 H   0  0  0  0  0  0  0  0  0  0  0  0
  150.7327  143.2040  157.8893 H   0  0  0  0  0  0  0  0  0  0  0  0
  150.6602  142.8772  159.6046 H   0  0  0  0  0  0  0  0  0  0  0  0
  153.1755  143.5360  158.0010 H   0  0  0  0  0  0  0  0  0  0  0  0
  151.6901  145.2536  160.0441 H   0  0  0  0  0  0  0  0  0  0  0  0
  151.7207  145.5172  158.3019 H   0  0  0  0  0  0  0  0  0  0  0  0
  153.1993  145.6833  159.2416 H   0  0  0  0  0  0  0  0  0  0  0  0
  154.3824  143.5505  160.1391 H   0  0  0  0  0  0  0  0  0  0  0  0
  152.9094  143.1955  161.0151 H   0  0  0  0  0  0  0  0  0  0  0  0
  154.2645  141.4028  158.9591 H   0  0  0  0  0  0  0  0  0  0  0  0
  153.8574  140.9861  161.9581 H   0  0  0  0  0  0  0  0  0  0  0  0
  155.3832  141.3826  161.1706 H   0  0  0  0  0  0  0  0  0  0  0  0
  154.6035  139.8381  160.8487 H   0  0  0  0  0  0  0  0  0  0  0  0
  151.6693  140.9445  160.5059 H   0  0  0  0  0  0  0  0  0  0  0  0
  152.4283  139.7524  159.5037 H   0  0  0  0  0  0  0  0  0  0  0  0
  146.9389  140.8738  154.3726 H   0  0  0  0  0  0  0  0  0  0  0  0
  148.2298  141.6489  153.4473 H   0  0  0  0  0  0  0  0  0  0  0  0
  148.0533  141.9709  155.1680 H   0  0  0  0  0  0  0  0  0  0  0  0
  1  2  1  0  0  0  0
  1 27  1  0  0  0  0
  1 28  1  0  0  0  0
  1 29  1  0  0  0  0
  2  3  1  0  0  0  0
  2 30  1  0  0  0  0
  2 31  1  0  0  0  0
  3  4  1  0  0  0  0
  4  5  1  0  0  0  0
  4 32  1  0  0  0  0
  4 33  1  0  0  0  0
  5  6  1  0  0  0  0
  5 34  1  0  0  0  0
  5 35  1  0  0  0  0
  6 18  1  0  0  0  0
  6  7  1  0  0  0  0
  7  8  1  0  0  0  0
  7 16  2  0  0  0  0
  8 15  1  0  0  0  0
  8  9  1  0  0  0  0
  9 10  1  0  0  0  0
  9 36  1  0  0  0  0
  9 37  1  0  0  0  0
 10 11  1  0  0  0  0
 10 12  1  0  0  0  0
 10 38  1  0  0  0  0
 11 39  1  0  0  0  0
 11 40  1  0  0  0  0
 11 41  1  0  0  0  0
 12 13  1  0  0  0  0
 12 42  1  0  0  0  0
 12 43  1  0  0  0  0
 13 14  1  0  0  0  0
 13 15  1  0  0  0  0
 13 44  1  0  0  0  0
 14 45  1  0  0  0  0
 14 46  1  0  0  0  0
 14 47  1  0  0  0  0
 15 48  1  0  0  0  0
 15 49  1  0  0  0  0
 16 17  1  0  0  0  0
 17 24  1  0  0  0  0
 17 18  2  0  0  0  0
 18 19  1  0  0  0  0
 19 20  2  0  0  0  0
 19 21  1  0  0  0  0
 21 26  1  0  0  0  0
 21 22  1  0  0  0  0
 22 23  2  0  0  0  0
 22 24  1  0  0  0  0
 24 25  1  0  0  0  0
 25 50  1  0  0  0  0
 25 51  1  0  0  0  0
 25 52  1  0  0  0  0
M  END
> <s_m_source_file>
AV-unprocessed.smi

> <i_m_source_file_index>
546

> <i_lp_mmshare_version>
43012

> <i_f3d_flags>
0

> <s_epik_input>
W0NIM11uMWMoPU8pW25IXWMoPU8pYyhjMTIpbihbQ0gyXVtDSDJdT1tDSDJdW0NIM10pYyhuMilOM1tDSDJdW0NAQEhdKFtDSDNdKVtDSDJdW0NAQEhdKFtDSDNdKVtDSDJdMw==

> <s_epik_cmdline>
J2VwaWtfcHl0aG9uJywgJy1waCcsICc3LjAnLCAnLXRuJywgJzgnLCAnLW1hJywgJzIwMCcsICctbWV0YWxfYmluZGluZycsICctaW1hZScsICc8aW5maWxlLm1hZT4nLCAnLW9tYWUnLCAnPG91dGZpbGUubWFlPic=

> <r_lp_tautomer_probability>
1

> <r_epik_Ionization_Penalty>
0.000576472

> <r_epik_Ionization_Penalty_Charging>
0.000118943

> <r_epik_Ionization_Penalty_Neutral>
0.000457529

> <r_epik_State_Penalty>
-0

> <r_epik_Charging_Adjusted_Penalty>
0.000118943

> <i_epik_Tot_Q>
0

> <i_epik_Tot_abs_Q>
0

> <r_epik_Metal_State_Penalty>
0.0916165

> <b_epik_Metal_Only>
0

> <s_lp_Force_Field>
OPLS_2005

> <r_lp_Energy>
35.568

> <b_lp_Chiralities_Consistent>
1

> <s_lp_Variant>
AV-unprocessed.smi:546-1

> <Gold.Version>
5.8.1

> <Gold.Id.Protein>
6NUR|6NUR_protein|mol2

> <Gold.PLP.Fitness>
44.7607

> <Gold.PLP.PLP>
-41.2169

> <Gold.PLP.part.hbond>
-1.8624

> <Gold.PLP.part.metal>
0.0000

> <Gold.PLP.part.buried>
-6.0802

> <Gold.PLP.part.nonpolar>
-38.1070

> <Gold.PLP.part.repulsive>
4.8345

> <Gold.PLP.ligand.clash>
0.0000

> <Gold.PLP.ligand.torsion>
0.8781

> <Gold.PLP.Chemscore.Hbond>
1.6663

> <Gold.PLP.Chemscore.CHOScore>
0.0000

> <Gold.PLP.Chemscore.Metal>
0.0000

> <Gold.Chemscore.Hbonds>
donor molecule, donor type, donor heavy atom, donor atom, acceptor molecule, acceptor atom, score
      L1  H    21    26       P1  7948  0.99
      P1  H 10752 10764       L1    20  0.42

> <Gold.PLP.Chemscore.Internal.Correction>
0.3012

> <Gold.Rescore>
     Score         DG    S(hbond)    S(metal)    S(lipo)     H(rot)  DE(clash)    DE(int)     intcor
     16.35     -19.18       1.76        0.00     100.74       1.55       0.99       1.84       ----

> <Gold.Chemscore.Fitness>
16.3537

> <Gold.Chemscore.DG>
-19.1774

> <Gold.Chemscore.ZeroCoef>
-5.4800

> <Gold.Chemscore.Hbond>
1.7576

> <Gold.Chemscore.Metal>
0.0000

> <Gold.Chemscore.Lipo>
100.7356

> <Gold.Chemscore.Internal_Hbond>
0.0000

> <Gold.Chemscore.DEClash>
0.9875

> <Gold.Chemscore.DEInternal>
1.8362

> <Gold.Chemscore.Rot>
1.5465

> <Gold.Chemscore.Internal.Correction>
   9.000000E+99

> <Gold.Chemscore.Hbonds>
donor molecule, donor type, donor heavy atom, donor atom, acceptor molecule, acceptor atom, score
      L1  H    21    26       P1  7948  0.74
      P1  H 10752 10764       L1    20  0.42

> <Gold.Chemscore.Hbond.Weighted>
-5.8704

> <Gold.Chemscore.Metal.Weighted>
-0.0000

> <Gold.Chemscore.Lipo.Weighted>
-11.7861

> <Gold.Chemscore.Internal_Hbond.Weighted>
0.0000

> <Gold.Chemscore.DEClash.Weighted>
0.9875

> <Gold.Chemscore.DEInternal.Weighted>
1.8362

> <Gold.Chemscore.Rot.Weighted>
3.9591

> <Gold.Chemscore.Internal.Correction.Weighted>
   9.000000E+99

> <Gold.Protein.RotatedTorsions>
[ 6907 6896 6895 6894 ] final -160.05 input  -60.11 | X-H torsion
[ 7974 7965 7964 7962 ] final  -41.31 input  175.53 | X-H torsion
[ 8008 7997 7996 7995 ] final -109.88 input   59.86 | X-H torsion
[ 10167 10162 10161 10158 ] final  100.21 input  -65.29 | X-H torsion
[ 10718 10713 10712 10709 ] final  -52.69 input   66.30 | X-H torsion
[ 10763 10752 10751 10750 ] final  -71.89 input  -60.55 | X-H torsion
[ 11005 11000 10999 10996 ] final  -63.03 input  -57.11 | X-H torsion

> <Gold.Protein.ActiveResidues>
 VAL166  LYS551  ARG553  GLY616  TRP617  ASP618  TYR619  PRO620  LYS621  CYS622 
 ASP623  PHE694  ASN695  SER759  ASP760  ASP761  ALA762  ILE779  LEU786  VAL792 
 PHE793  MET794  SER795  GLU796  ALA797  LYS798  CYS799  TRP800  GLU811  SER814 

> <Gold.Protein.RotatedAtoms>
  151.3431  133.3954  159.2672 H   0  0  0  0  0  0  0  0  0  0  0  0  # atno 6907 bound_to 6896
  150.9862  134.9207  159.7883 H   0  0  0  0  0  0  0  0  0  0  0  0  # atno 6908 bound_to 6896
  152.5233  134.3395  159.9264 H   0  0  0  0  0  0  0  0  0  0  0  0  # atno 6909 bound_to 6896
  146.0223  140.6835  142.9172 H   0  0  0  0  0  0  0  0  0  0  0  0  # atno 7974 bound_to 7965
  154.9660  140.0398  157.2212 H   0  0  0  0  0  0  0  0  0  0  0  0  # atno 8008 bound_to 7997
  154.7845  140.2824  155.6016 H   0  0  0  0  0  0  0  0  0  0  0  0  # atno 8009 bound_to 7997
  156.2941  140.2585  156.2678 H   0  0  0  0  0  0  0  0  0  0  0  0  # atno 8010 bound_to 7997
  139.7547  144.6973  151.0379 H   0  0  0  0  0  0  0  0  0  0  0  0  # atno 10167 bound_to 10162
  156.1599  130.4150  149.9809 H   0  0  0  0  0  0  0  0  0  0  0  0  # atno 10718 bound_to 10713
  154.4380  135.5947  153.6111 H   0  0  0  0  0  0  0  0  0  0  0  0  # atno 10763 bound_to 10752
  152.9803  135.5991  154.3757 H   0  0  0  0  0  0  0  0  0  0  0  0  # atno 10764 bound_to 10752
  154.3603  135.2841  155.2302 H   0  0  0  0  0  0  0  0  0  0  0  0  # atno 10765 bound_to 10752
  141.1380  133.6647  156.5618 H   0  0  0  0  0  0  0  0  0  0  0  0  # atno 11005 bound_to 11000
  144.6995  140.3587  143.7168 LP  0  0  0  0  0  0  0  0  0  0  0  0  # atno 17320 bound_to 7965
  145.7174  139.1700  143.2504 LP  0  0  0  0  0  0  0  0  0  0  0  0  # atno 17321 bound_to 7965
  140.7801  143.4767  151.0073 LP  0  0  0  0  0  0  0  0  0  0  0  0  # atno 17342 bound_to 10162
  139.8454  143.7509  152.3179 LP  0  0  0  0  0  0  0  0  0  0  0  0  # atno 17343 bound_to 10162
  156.7641  130.9162  151.3642 LP  0  0  0  0  0  0  0  0  0  0  0  0  # atno 17370 bound_to 10713
  157.6724  130.9063  150.0072 LP  0  0  0  0  0  0  0  0  0  0  0  0  # atno 17371 bound_to 10713
  140.3982  134.7380  157.4763 LP  0  0  0  0  0  0  0  0  0  0  0  0  # atno 17394 bound_to 11000
  140.0516  134.6123  155.8855 LP  0  0  0  0  0  0  0  0  0  0  0  0  # atno 17395 bound_to 11000

$$$$
