AV-unprocessed.smi:1425|AV-procd|sdf|5803|dock2
  -GOLD-   22720 5453D 1   1.00000     0.00000
 Structure written by MMmdl.
 36 37  0  0  0  0  0  0  0  0  1 V2000
  147.5418  133.1490  152.7216 C   0  0  0  0  0  0  0  0  0  0  0  0
  146.2399  133.0199  151.9475 C   0  0  0  0  0  0  0  0  0  0  0  0
  145.5980  131.7649  151.8811 C   0  0  0  0  0  0  0  0  0  0  0  0
  144.3946  131.6468  151.1650 C   0  0  0  0  0  0  0  0  0  0  0  0
  143.8807  132.7966  150.5416 C   0  0  0  0  0  0  0  0  0  0  0  0
  144.4872  133.9997  150.6003 N   0  0  0  0  0  0  0  0  0  0  0  0
  145.6493  134.1311  151.2881 C   0  0  0  0  0  0  0  0  0  0  0  0
  146.3437  135.3697  151.3915 N   0  0  0  0  0  0  0  0  0  0  0  0
  145.8507  136.6162  151.2824 C   0  0  0  0  0  0  0  0  0  0  0  0
  144.6715  136.9025  151.0733 O   0  0  0  0  0  0  0  0  0  0  0  0
  146.8161  137.5347  151.4318 N   0  0  0  0  0  0  0  0  0  0  0  0
  146.6119  138.9787  151.3756 C   0  0  0  0  0  0  0  0  0  0  0  0
  147.0012  139.6821  152.6916 C   0  0  2  0  0  0  0  0  0  0  0  0
  147.3192  141.1821  152.5180 C   0  0  0  0  0  0  0  0  0  0  0  0
  147.9681  141.6953  153.8067 C   0  0  0  0  0  0  0  0  0  0  0  0
  148.9723  140.3013  154.4386 S   0  0  0  0  0  0  0  0  0  0  0  0
  150.3741  140.4853  154.0332 O   0  0  0  0  0  0  0  0  0  0  0  0
  148.6172  140.0515  155.8437 O   0  0  0  0  0  0  0  0  0  0  0  0
  148.2099  139.0189  153.3717 C   0  0  0  0  0  0  0  0  0  0  0  0
  147.8409  132.1953  153.1574 H   0  0  0  0  0  0  0  0  0  0  0  0
  147.4338  133.8692  153.5332 H   0  0  0  0  0  0  0  0  0  0  0  0
  148.3453  133.4833  152.0646 H   0  0  0  0  0  0  0  0  0  0  0  0
  146.0200  130.9005  152.3725 H   0  0  0  0  0  0  0  0  0  0  0  0
  143.8792  130.7002  151.0957 H   0  0  0  0  0  0  0  0  0  0  0  0
  142.9589  132.7505  149.9810 H   0  0  0  0  0  0  0  0  0  0  0  0
  147.3334  135.2946  151.5734 H   0  0  0  0  0  0  0  0  0  0  0  0
  147.7581  137.2142  151.6023 H   0  0  0  0  0  0  0  0  0  0  0  0
  147.1787  139.3969  150.5419 H   0  0  0  0  0  0  0  0  0  0  0  0
  145.5603  139.1605  151.1522 H   0  0  0  0  0  0  0  0  0  0  0  0
  146.1650  139.6096  153.3890 H   0  0  0  0  0  0  0  0  0  0  0  0
  148.0229  141.3071  151.6939 H   0  0  0  0  0  0  0  0  0  0  0  0
  146.4296  141.7612  152.2685 H   0  0  0  0  0  0  0  0  0  0  0  0
  148.5934  142.5748  153.6532 H   0  0  0  0  0  0  0  0  0  0  0  0
  147.2093  141.9300  154.5536 H   0  0  0  0  0  0  0  0  0  0  0  0
  147.9339  138.1493  153.9686 H   0  0  0  0  0  0  0  0  0  0  0  0
  148.9564  138.7115  152.6387 H   0  0  0  0  0  0  0  0  0  0  0  0
  1  2  1  0  0  0  0
  1 20  1  0  0  0  0
  1 21  1  0  0  0  0
  1 22  1  0  0  0  0
  2  7  1  0  0  0  0
  2  3  2  0  0  0  0
  3  4  1  0  0  0  0
  3 23  1  0  0  0  0
  4  5  2  0  0  0  0
  4 24  1  0  0  0  0
  5  6  1  0  0  0  0
  5 25  1  0  0  0  0
  6  7  2  0  0  0  0
  7  8  1  0  0  0  0
  8  9  1  0  0  0  0
  8 26  1  0  0  0  0
  9 10  2  0  0  0  0
  9 11  1  0  0  0  0
 11 12  1  0  0  0  0
 11 27  1  0  0  0  0
 12 13  1  0  0  0  0
 12 28  1  0  0  0  0
 12 29  1  0  0  0  0
 13 19  1  0  0  0  0
 13 14  1  0  0  0  0
 13 30  1  0  0  0  0
 14 15  1  0  0  0  0
 14 31  1  0  0  0  0
 14 32  1  0  0  0  0
 15 16  1  0  0  0  0
 15 33  1  0  0  0  0
 15 34  1  0  0  0  0
 16 17  2  0  0  0  0
 16 18  2  0  0  0  0
 16 19  1  0  0  0  0
 19 35  1  0  0  0  0
 19 36  1  0  0  0  0
M  END
> <s_m_source_file>
AV-unprocessed.smi

> <i_m_source_file_index>
1425

> <i_lp_mmshare_version>
43012

> <i_f3d_flags>
0

> <s_epik_input>
W0NIM11jMVtjSF1bY0hdW2NIXW5jMVtOSF1DKD1PKVtOSF1bQ0gyXVtDQEBIXShbQ0gyXTIpW0NIMl1bQ0gyXVMyKD1PKT1P

> <s_epik_cmdline>
J2VwaWtfcHl0aG9uJywgJy1waCcsICc3LjAnLCAnLXRuJywgJzgnLCAnLW1hJywgJzIwMCcsICctbWV0YWxfYmluZGluZycsICctaW1hZScsICc8aW5maWxlLm1hZT4nLCAnLW9tYWUnLCAnPG91dGZpbGUubWFlPic=

> <r_lp_tautomer_probability>
1

> <r_epik_Ionization_Penalty>
5.46275e-05

> <r_epik_Ionization_Penalty_Charging>
0

> <r_epik_Ionization_Penalty_Neutral>
5.46275e-05

> <r_epik_State_Penalty>
-0

> <r_epik_Charging_Adjusted_Penalty>
0

> <i_epik_Tot_Q>
0

> <i_epik_Tot_abs_Q>
0

> <r_epik_Metal_State_Penalty>
-0

> <b_epik_Metal_Only>
0

> <s_lp_Force_Field>
OPLS_2005

> <r_lp_Energy>
6.25093

> <b_lp_Chiralities_Consistent>
1

> <s_lp_Variant>
AV-unprocessed.smi:1425-1

> <Gold.Version>
5.8.1

> <Gold.Id.Protein>
6NUR|6NUR_protein|mol2

> <Gold.PLP.Fitness>
44.1300

> <Gold.PLP.PLP>
-33.0521

> <Gold.PLP.part.hbond>
-2.9549

> <Gold.PLP.part.metal>
0.0000

> <Gold.PLP.part.buried>
-5.4103

> <Gold.PLP.part.nonpolar>
-29.3015

> <Gold.PLP.part.repulsive>
3.5911

> <Gold.PLP.ligand.clash>
0.0000

> <Gold.PLP.ligand.torsion>
0.3806

> <Gold.PLP.Chemscore.Hbond>
2.9440

> <Gold.PLP.Chemscore.CHOScore>
1.0000

> <Gold.PLP.Chemscore.Metal>
0.0000

> <Gold.Chemscore.Hbonds>
donor molecule, donor type, donor heavy atom, donor atom, acceptor molecule, acceptor atom, score
      L1  H     8    26       P1  7948  0.94
      L1  H    11    27       P1  7948  1.00
      P1  H  7989  7998       L1    17  0.59
      L1  C     5    25       P1 10186  0.82

> <Gold.PLP.Chemscore.Internal.Correction>
0.0070

> <Gold.Rescore>
     Score         DG    S(hbond)    S(metal)    S(lipo)     H(rot)  DE(clash)    DE(int)     intcor
     17.00     -19.93       2.86        0.00      70.08       1.29       1.51       1.42       ----

> <Gold.Chemscore.Fitness>
17.0041

> <Gold.Chemscore.DG>
-19.9312

> <Gold.Chemscore.ZeroCoef>
-5.4800

> <Gold.Chemscore.Hbond>
2.8634

> <Gold.Chemscore.Metal>
0.0000

> <Gold.Chemscore.Lipo>
70.0841

> <Gold.Chemscore.Internal_Hbond>
0.0000

> <Gold.Chemscore.DEClash>
1.5114

> <Gold.Chemscore.DEInternal>
1.4158

> <Gold.Chemscore.Rot>
1.2939

> <Gold.Chemscore.Internal.Correction>
   9.000000E+99

> <Gold.Chemscore.Hbonds>
donor molecule, donor type, donor heavy atom, donor atom, acceptor molecule, acceptor atom, score
      L1  H     8    26       P1  7948  0.84
      L1  H    11    27       P1  7948  0.93
      P1  H  7989  7998       L1    17  0.58

> <Gold.Chemscore.Hbond.Weighted>
-9.5636

> <Gold.Chemscore.Metal.Weighted>
-0.0000

> <Gold.Chemscore.Lipo.Weighted>
-8.1998

> <Gold.Chemscore.Internal_Hbond.Weighted>
0.0000

> <Gold.Chemscore.DEClash.Weighted>
1.5114

> <Gold.Chemscore.DEInternal.Weighted>
1.4158

> <Gold.Chemscore.Rot.Weighted>
3.3123

> <Gold.Chemscore.Internal.Correction.Weighted>
   9.000000E+99

> <Gold.Protein.RotatedTorsions>
[ 6907 6896 6895 6894 ] final   22.73 input  -60.11 | X-H torsion
[ 7974 7965 7964 7962 ] final  -90.60 input  175.53 | X-H torsion
[ 8008 7997 7996 7995 ] final  -32.22 input   59.86 | X-H torsion
[ 10167 10162 10161 10158 ] final  109.53 input  -65.29 | X-H torsion
[ 10718 10713 10712 10709 ] final -172.14 input   66.30 | X-H torsion
[ 10763 10752 10751 10750 ] final   87.87 input  -60.55 | X-H torsion
[ 11005 11000 10999 10996 ] final  -70.56 input  -57.11 | X-H torsion

> <Gold.Protein.ActiveResidues>
 VAL166  LYS551  ARG553  GLY616  TRP617  ASP618  TYR619  PRO620  LYS621  CYS622 
 ASP623  PHE694  ASN695  SER759  ASP760  ASP761  ALA762  ILE779  LEU786  VAL792 
 PHE793  MET794  SER795  GLU796  ALA797  LYS798  CYS799  TRP800  GLU811  SER814 

> <Gold.Protein.RotatedAtoms>
  151.9316  135.0254  160.0529 H   0  0  0  0  0  0  0  0  0  0  0  0  # atno 6907 bound_to 6896
  152.2113  133.4909  159.5120 H   0  0  0  0  0  0  0  0  0  0  0  0  # atno 6908 bound_to 6896
  150.6977  134.1379  159.4137 H   0  0  0  0  0  0  0  0  0  0  0  0  # atno 6909 bound_to 6896
  145.4244  140.9553  143.2163 H   0  0  0  0  0  0  0  0  0  0  0  0  # atno 7974 bound_to 7965
  154.4187  140.1743  156.1693 H   0  0  0  0  0  0  0  0  0  0  0  0  # atno 8008 bound_to 7997
  155.9774  140.3380  155.6607 H   0  0  0  0  0  0  0  0  0  0  0  0  # atno 8009 bound_to 7997
  155.6546  140.0694  157.2566 H   0  0  0  0  0  0  0  0  0  0  0  0  # atno 8010 bound_to 7997
  139.6759  144.7122  151.1603 H   0  0  0  0  0  0  0  0  0  0  0  0  # atno 10167 bound_to 10162
  156.7511  130.9378  151.3114 H   0  0  0  0  0  0  0  0  0  0  0  0  # atno 10718 bound_to 10713
  153.1711  135.4528  154.9904 H   0  0  0  0  0  0  0  0  0  0  0  0  # atno 10763 bound_to 10752
  154.7966  135.3240  154.7653 H   0  0  0  0  0  0  0  0  0  0  0  0  # atno 10764 bound_to 10752
  153.8129  135.6953  153.4893 H   0  0  0  0  0  0  0  0  0  0  0  0  # atno 10765 bound_to 10752
  141.1576  133.6793  156.6771 H   0  0  0  0  0  0  0  0  0  0  0  0  # atno 11005 bound_to 11000
  144.8224  139.5768  143.6981 LP  0  0  0  0  0  0  0  0  0  0  0  0  # atno 17320 bound_to 7965
  146.2640  139.6476  142.9342 LP  0  0  0  0  0  0  0  0  0  0  0  0  # atno 17321 bound_to 7965
  140.7635  143.5773  150.8932 LP  0  0  0  0  0  0  0  0  0  0  0  0  # atno 17342 bound_to 10162
  139.9441  143.6347  152.3046 LP  0  0  0  0  0  0  0  0  0  0  0  0  # atno 17343 bound_to 10162
  157.6776  130.9109  150.0189 LP  0  0  0  0  0  0  0  0  0  0  0  0  # atno 17370 bound_to 10713
  156.1400  130.3642  149.9596 LP  0  0  0  0  0  0  0  0  0  0  0  0  # atno 17371 bound_to 10713
  140.3131  134.8070  157.4192 LP  0  0  0  0  0  0  0  0  0  0  0  0  # atno 17394 bound_to 11000
  140.1162  134.5280  155.8223 LP  0  0  0  0  0  0  0  0  0  0  0  0  # atno 17395 bound_to 11000

$$$$
