AV-unprocessed.smi:1123|AV-procd|sdf|4830|dock10
  -GOLD-   22720 3393D 1   1.00000     0.00000
 Structure written by MMmdl.
 37 38  0  0  0  0  0  0  0  0  1 V2000
  148.0763  138.5624  154.6391 C   0  0  0  0  0  0  0  0  0  0  0  0
  149.2818  139.4401  154.2453 C   0  0  1  0  0  0  0  0  0  0  0  0
  149.2542  140.8271  154.9084 C   0  0  0  0  0  0  0  0  0  0  0  0
  149.2362  141.8519  154.2256 O   0  0  0  0  0  0  0  0  0  0  0  0
  149.2523  140.8434  156.2511 N   0  0  0  0  0  0  0  0  0  0  0  0
  149.2162  142.0453  157.0748 C   0  0  0  0  0  0  0  0  0  0  0  0
  150.6362  142.5258  157.4290 C   0  0  0  0  0  0  0  0  0  0  0  0
  151.2665  141.8178  158.5416 N   0  0  0  0  0  0  0  0  0  0  0  0
  152.3923  142.5537  159.1134 C   0  0  0  0  0  0  0  0  0  0  0  0
  153.0605  141.7789  160.2631 C   0  0  0  0  0  0  0  0  0  0  0  0
  153.4719  140.4959  159.8029 O   0  0  0  0  0  0  0  0  0  0  0  0
  152.3919  139.7287  159.2811 C   0  0  0  0  0  0  0  0  0  0  0  0
  151.7270  140.4970  158.1260 C   0  0  0  0  0  0  0  0  0  0  0  0
  150.5521  138.7755  154.5104 N   0  0  0  0  0  0  0  0  0  0  0  0
  150.8776  137.4836  154.4292 C   0  0  0  0  0  0  0  0  0  0  0  0
  152.1493  137.2298  154.7037 N   0  0  0  0  0  0  0  0  0  0  0  0
  152.5858  138.4996  154.9549 C   0  0  0  0  0  0  0  0  0  0  0  0
  151.6726  139.4639  154.8435 N   0  0  0  0  0  0  0  0  0  0  0  0
  147.1352  139.0492  154.3815 H   0  0  0  0  0  0  0  0  0  0  0  0
  148.0558  138.3495  155.7088 H   0  0  0  0  0  0  0  0  0  0  0  0
  148.1039  137.6075  154.1137 H   0  0  0  0  0  0  0  0  0  0  0  0
  149.2233  139.5996  153.1673 H   0  0  0  0  0  0  0  0  0  0  0  0
  149.2700  139.9586  156.7370 H   0  0  0  0  0  0  0  0  0  0  0  0
  148.6798  142.8069  156.5099 H   0  0  0  0  0  0  0  0  0  0  0  0
  148.6367  141.8616  157.9810 H   0  0  0  0  0  0  0  0  0  0  0  0
  151.2608  142.4033  156.5432 H   0  0  0  0  0  0  0  0  0  0  0  0
  150.6192  143.5970  157.6356 H   0  0  0  0  0  0  0  0  0  0  0  0
  153.1326  142.7586  158.3386 H   0  0  0  0  0  0  0  0  0  0  0  0
  152.0609  143.5189  159.4938 H   0  0  0  0  0  0  0  0  0  0  0  0
  153.9308  142.3219  160.6313 H   0  0  0  0  0  0  0  0  0  0  0  0
  152.3734  141.6678  161.1033 H   0  0  0  0  0  0  0  0  0  0  0  0
  152.7723  138.7696  158.9301 H   0  0  0  0  0  0  0  0  0  0  0  0
  151.6701  139.5181  160.0718 H   0  0  0  0  0  0  0  0  0  0  0  0
  150.8871  139.9151  157.7450 H   0  0  0  0  0  0  0  0  0  0  0  0
  152.4369  140.5945  157.3032 H   0  0  0  0  0  0  0  0  0  0  0  0
  150.1705  136.7129  154.1602 H   0  0  0  0  0  0  0  0  0  0  0  0
  153.6086  138.7205  155.2222 H   0  0  0  0  0  0  0  0  0  0  0  0
  1  2  1  0  0  0  0
  1 19  1  0  0  0  0
  1 20  1  0  0  0  0
  1 21  1  0  0  0  0
  2  3  1  0  0  0  0
  2 14  1  0  0  0  0
  2 22  1  0  0  0  0
  3  4  2  0  0  0  0
  3  5  1  0  0  0  0
  5  6  1  0  0  0  0
  5 23  1  0  0  0  0
  6  7  1  0  0  0  0
  6 24  1  0  0  0  0
  6 25  1  0  0  0  0
  7  8  1  0  0  0  0
  7 26  1  0  0  0  0
  7 27  1  0  0  0  0
  8 13  1  0  0  0  0
  8  9  1  0  0  0  0
  9 10  1  0  0  0  0
  9 28  1  0  0  0  0
  9 29  1  0  0  0  0
 10 11  1  0  0  0  0
 10 30  1  0  0  0  0
 10 31  1  0  0  0  0
 11 12  1  0  0  0  0
 12 13  1  0  0  0  0
 12 32  1  0  0  0  0
 12 33  1  0  0  0  0
 13 34  1  0  0  0  0
 13 35  1  0  0  0  0
 14 18  1  0  0  0  0
 14 15  1  0  0  0  0
 15 16  2  0  0  0  0
 15 36  1  0  0  0  0
 16 17  1  0  0  0  0
 17 18  2  0  0  0  0
 17 37  1  0  0  0  0
M  END
> <s_m_source_file>
AV-unprocessed.smi

> <i_m_source_file_index>
1123

> <i_lp_mmshare_version>
43012

> <i_f3d_flags>
0

> <s_epik_input>
bjFbY0hdbltjSF1uMVtDQEhdKFtDSDNdKUMoPU8pW05IXVtDSDJdW0NIMl1OMltDSDJdW0NIMl1PW0NIMl1bQ0gyXTI=

> <s_epik_cmdline>
J2VwaWtfcHl0aG9uJywgJy1waCcsICc3LjAnLCAnLXRuJywgJzgnLCAnLW1hJywgJzIwMCcsICctbWV0YWxfYmluZGluZycsICctaW1hZScsICc8aW5maWxlLm1hZT4nLCAnLW9tYWUnLCAnPG91dGZpbGUubWFlPic=

> <r_lp_tautomer_probability>
1

> <r_epik_Ionization_Penalty>
0.211373

> <r_epik_Ionization_Penalty_Charging>
0

> <r_epik_Ionization_Penalty_Neutral>
0.211373

> <r_epik_State_Penalty>
0.201459

> <r_epik_Charging_Adjusted_Penalty>
0.201459

> <i_epik_Tot_Q>
0

> <i_epik_Tot_abs_Q>
0

> <r_epik_Metal_State_Penalty>
0.201458

> <b_epik_Metal_Only>
0

> <s_lp_Force_Field>
OPLS_2005

> <r_lp_Energy>
26.9465

> <b_lp_Chiralities_Consistent>
1

> <s_lp_Variant>
AV-unprocessed.smi:1123-2

> <Gold.Version>
5.8.1

> <Gold.Id.Protein>
6NUR|6NUR_protein|mol2

> <Gold.PLP.Fitness>
40.8366

> <Gold.PLP.PLP>
-33.2186

> <Gold.PLP.part.hbond>
-3.5986

> <Gold.PLP.part.metal>
0.0000

> <Gold.PLP.part.buried>
-3.1504

> <Gold.PLP.part.nonpolar>
-27.8277

> <Gold.PLP.part.repulsive>
0.4176

> <Gold.PLP.ligand.clash>
0.0000

> <Gold.PLP.ligand.torsion>
1.1276

> <Gold.PLP.Chemscore.Hbond>
2.2455

> <Gold.PLP.Chemscore.CHOScore>
1.0011

> <Gold.PLP.Chemscore.Metal>
0.0000

> <Gold.Chemscore.Hbonds>
donor molecule, donor type, donor heavy atom, donor atom, acceptor molecule, acceptor atom, score
      P1  H  7989  7998       L1    18  1.00
      P1  H  8011  8017       L1     4  0.44
      P1  H 10752 10763       L1    16  0.83
      L1  C    15    36       P1  7948  0.81

> <Gold.PLP.Chemscore.Internal.Correction>
0.1332

> <Gold.Rescore>
     Score         DG    S(hbond)    S(metal)    S(lipo)     H(rot)  DE(clash)    DE(int)     intcor
     12.10     -14.13       2.53        0.00      58.71       2.61       0.79       1.24       ----

> <Gold.Chemscore.Fitness>
12.0974

> <Gold.Chemscore.DG>
-14.1317

> <Gold.Chemscore.ZeroCoef>
-5.4800

> <Gold.Chemscore.Hbond>
2.5338

> <Gold.Chemscore.Metal>
0.0000

> <Gold.Chemscore.Lipo>
58.7144

> <Gold.Chemscore.Internal_Hbond>
0.0000

> <Gold.Chemscore.DEClash>
0.7918

> <Gold.Chemscore.DEInternal>
1.2425

> <Gold.Chemscore.Rot>
2.6097

> <Gold.Chemscore.Internal.Correction>
   9.000000E+99

> <Gold.Chemscore.Hbonds>
donor molecule, donor type, donor heavy atom, donor atom, acceptor molecule, acceptor atom, score
      P1  H  7989  7998       L1    18  0.29
      P1  H  8011  8017       L1     4  0.42
      P1  H 10752 10763       L1    16  0.83

> <Gold.Chemscore.Hbond.Weighted>
-8.4630

> <Gold.Chemscore.Metal.Weighted>
-0.0000

> <Gold.Chemscore.Lipo.Weighted>
-6.8696

> <Gold.Chemscore.Internal_Hbond.Weighted>
0.0000

> <Gold.Chemscore.DEClash.Weighted>
0.7918

> <Gold.Chemscore.DEInternal.Weighted>
1.2425

> <Gold.Chemscore.Rot.Weighted>
6.6809

> <Gold.Chemscore.Internal.Correction.Weighted>
   9.000000E+99

> <Gold.Protein.RotatedTorsions>
[ 6907 6896 6895 6894 ] final   58.49 input  -60.11 | X-H torsion
[ 7974 7965 7964 7962 ] final  -88.32 input  175.53 | X-H torsion
[ 8008 7997 7996 7995 ] final  -33.54 input   59.86 | X-H torsion
[ 10167 10162 10161 10158 ] final   35.63 input  -65.29 | X-H torsion
[ 10718 10713 10712 10709 ] final  -62.63 input   66.30 | X-H torsion
[ 10763 10752 10751 10750 ] final   49.81 input  -60.55 | X-H torsion
[ 11005 11000 10999 10996 ] final -146.55 input  -57.11 | X-H torsion

> <Gold.Protein.ActiveResidues>
 VAL166  LYS551  ARG553  GLY616  TRP617  ASP618  TYR619  PRO620  LYS621  CYS622 
 ASP623  PHE694  ASN695  SER759  ASP760  ASP761  ALA762  ILE779  LEU786  VAL792 
 PHE793  MET794  SER795  GLU796  ALA797  LYS798  CYS799  TRP800  GLU811  SER814 

> <Gold.Protein.RotatedAtoms>
  152.3829  134.6562  160.0136 H   0  0  0  0  0  0  0  0  0  0  0  0  # atno 6907 bound_to 6896
  151.6820  133.3306  159.3230 H   0  0  0  0  0  0  0  0  0  0  0  0  # atno 6908 bound_to 6896
  150.7762  134.6708  159.6435 H   0  0  0  0  0  0  0  0  0  0  0  0  # atno 6909 bound_to 6896
  145.4547  140.9561  143.2003 H   0  0  0  0  0  0  0  0  0  0  0  0  # atno 7974 bound_to 7965
  154.4146  140.1708  156.1905 H   0  0  0  0  0  0  0  0  0  0  0  0  # atno 8008 bound_to 7997
  155.9608  140.3393  155.6465 H   0  0  0  0  0  0  0  0  0  0  0  0  # atno 8009 bound_to 7997
  155.6751  140.0716  157.2496 H   0  0  0  0  0  0  0  0  0  0  0  0  # atno 8010 bound_to 7997
  140.4204  144.1468  150.6147 H   0  0  0  0  0  0  0  0  0  0  0  0  # atno 10167 bound_to 10162
  156.0843  130.4211  150.1163 H   0  0  0  0  0  0  0  0  0  0  0  0  # atno 10718 bound_to 10713
  152.9786  135.5899  154.4149 H   0  0  0  0  0  0  0  0  0  0  0  0  # atno 10763 bound_to 10752
  154.3780  135.2767  155.2229 H   0  0  0  0  0  0  0  0  0  0  0  0  # atno 10764 bound_to 10752
  154.4155  135.6071  153.6033 H   0  0  0  0  0  0  0  0  0  0  0  0  # atno 10765 bound_to 10752
  140.7808  134.3081  157.5046 H   0  0  0  0  0  0  0  0  0  0  0  0  # atno 11005 bound_to 11000
  144.8039  139.6087  143.7059 LP  0  0  0  0  0  0  0  0  0  0  0  0  # atno 17320 bound_to 7965
  146.2484  139.6148  142.9443 LP  0  0  0  0  0  0  0  0  0  0  0  0  # atno 17321 bound_to 7965
  140.4540  143.2475  151.9309 LP  0  0  0  0  0  0  0  0  0  0  0  0  # atno 17342 bound_to 10162
  139.4782  144.5534  151.8351 LP  0  0  0  0  0  0  0  0  0  0  0  0  # atno 17343 bound_to 10162
  156.9187  130.9676  151.3552 LP  0  0  0  0  0  0  0  0  0  0  0  0  # atno 17370 bound_to 10713
  157.5971  130.8485  149.8745 LP  0  0  0  0  0  0  0  0  0  0  0  0  # atno 17371 bound_to 10713
  139.8743  134.9317  156.3535 LP  0  0  0  0  0  0  0  0  0  0  0  0  # atno 17394 bound_to 11000
  140.9484  133.7467  156.0239 LP  0  0  0  0  0  0  0  0  0  0  0  0  # atno 17395 bound_to 11000

$$$$
