AV-unprocessed.smi:2450|AV-procd|sdf|9668|dock6
  -GOLD-   2272013303D 1   1.00000     0.00000
 Structure written by MMmdl.
 42 43  0  0  0  0  0  0  0  0  2 V2000
  152.3250  144.7471  159.6256 C   0  0  0  0  0  0  0  0  0  0  0  0
  151.4265  144.5657  158.3935 C   0  0  0  0  0  0  0  0  0  0  0  0
  151.4439  143.1372  157.8174 C   0  0  1  0  0  0  0  0  0  0  0  0
  151.3549  142.0801  158.9302 C   0  0  0  0  0  0  0  0  0  0  0  0
  150.3476  142.9638  156.8664 N   0  0  0  0  0  0  0  0  0  0  0  0
  149.9435  141.7939  156.3510 C   0  0  0  0  0  0  0  0  0  0  0  0
  150.4427  140.7097  156.6500 O   0  0  0  0  0  0  0  0  0  0  0  0
  148.9250  141.9698  155.4923 N   0  0  0  0  0  0  0  0  0  0  0  0
  148.2122  140.9914  154.7402 C   0  0  0  0  0  0  0  0  0  0  0  0
  148.7446  139.7123  154.4338 C   0  0  0  0  0  0  0  0  0  0  0  0
  147.9853  138.8034  153.6708 C   0  0  0  0  0  0  0  0  0  0  0  0
  146.7110  139.1878  153.2153 C   0  0  0  0  0  0  0  0  0  0  0  0
  146.2390  140.4173  153.5083 N   0  3  0  0  0  0  0  0  0  0  0  0
  146.9286  141.3281  154.2387 C   0  0  0  0  0  0  0  0  0  0  0  0
  146.3450  142.5824  154.4875 N   0  0  0  0  0  0  0  0  0  0  0  0
  146.0107  143.3679  153.3111 C   0  0  0  0  0  0  0  0  0  0  0  0
  145.0649  144.4640  153.8088 C   0  0  0  0  0  0  0  0  0  0  0  0
  144.4952  143.9260  155.1273 C   0  0  0  0  0  0  0  0  0  0  0  0
  145.1447  142.5514  155.3056 C   0  0  0  0  0  0  0  0  0  0  0  0
  152.2381  145.7593  160.0211 H   0  0  0  0  0  0  0  0  0  0  0  0
  153.3751  144.5773  159.3873 H   0  0  0  0  0  0  0  0  0  0  0  0
  152.0453  144.0556  160.4207 H   0  0  0  0  0  0  0  0  0  0  0  0
  150.4039  144.8265  158.6690 H   0  0  0  0  0  0  0  0  0  0  0  0
  151.7226  145.2794  157.6234 H   0  0  0  0  0  0  0  0  0  0  0  0
  152.3917  143.0012  157.2927 H   0  0  0  0  0  0  0  0  0  0  0  0
  152.1745  142.1905  159.6409 H   0  0  0  0  0  0  0  0  0  0  0  0
  151.4109  141.0697  158.5239 H   0  0  0  0  0  0  0  0  0  0  0  0
  150.4202  142.1649  159.4854 H   0  0  0  0  0  0  0  0  0  0  0  0
  149.8733  143.8038  156.5688 H   0  0  0  0  0  0  0  0  0  0  0  0
  148.5725  142.9127  155.4159 H   0  0  0  0  0  0  0  0  0  0  0  0
  149.7294  139.4118  154.7561 H   0  0  0  0  0  0  0  0  0  0  0  0
  148.3795  137.8256  153.4345 H   0  0  0  0  0  0  0  0  0  0  0  0
  146.0626  138.5567  152.6245 H   0  0  0  0  0  0  0  0  0  0  0  0
  146.9063  143.7885  152.8529 H   0  0  0  0  0  0  0  0  0  0  0  0
  145.5085  142.7510  152.5646 H   0  0  0  0  0  0  0  0  0  0  0  0
  145.6161  145.3872  153.9920 H   0  0  0  0  0  0  0  0  0  0  0  0
  144.2858  144.6824  153.0776 H   0  0  0  0  0  0  0  0  0  0  0  0
  144.7746  144.5865  155.9491 H   0  0  0  0  0  0  0  0  0  0  0  0
  143.4071  143.8565  155.1130 H   0  0  0  0  0  0  0  0  0  0  0  0
  144.4676  141.7683  154.9610 H   0  0  0  0  0  0  0  0  0  0  0  0
  145.3852  142.3532  156.3505 H   0  0  0  0  0  0  0  0  0  0  0  0
  145.3147  140.6741  153.1614 H   0  0  0  0  0  0  0  0  0  0  0  0
  1  2  1  0  0  0  0
  1 20  1  0  0  0  0
  1 21  1  0  0  0  0
  1 22  1  0  0  0  0
  2  3  1  0  0  0  0
  2 23  1  0  0  0  0
  2 24  1  0  0  0  0
  3  4  1  0  0  0  0
  3  5  1  0  0  0  0
  3 25  1  0  0  0  0
  4 26  1  0  0  0  0
  4 27  1  0  0  0  0
  4 28  1  0  0  0  0
  5  6  1  0  0  0  0
  5 29  1  0  0  0  0
  6  7  2  0  0  0  0
  6  8  1  0  0  0  0
  8  9  1  0  0  0  0
  8 30  1  0  0  0  0
  9 14  1  0  0  0  0
  9 10  2  0  0  0  0
 10 11  1  0  0  0  0
 10 31  1  0  0  0  0
 11 12  2  0  0  0  0
 11 32  1  0  0  0  0
 12 13  1  0  0  0  0
 12 33  1  0  0  0  0
 13 14  2  0  0  0  0
 13 42  1  0  0  0  0
 14 15  1  0  0  0  0
 15 19  1  0  0  0  0
 15 16  1  0  0  0  0
 16 17  1  0  0  0  0
 16 34  1  0  0  0  0
 16 35  1  0  0  0  0
 17 18  1  0  0  0  0
 17 36  1  0  0  0  0
 17 37  1  0  0  0  0
 18 19  1  0  0  0  0
 18 38  1  0  0  0  0
 18 39  1  0  0  0  0
 19 40  1  0  0  0  0
 19 41  1  0  0  0  0
M  CHG  1  13   1
M  END
> <s_m_source_file>
AV-unprocessed.smi

> <i_m_source_file_index>
2450

> <i_lp_mmshare_version>
43012

> <i_f3d_flags>
0

> <s_epik_input>
W0NIM11bQ0gyXVtDQEhdKFtDSDNdKVtOSF1DKD1PKVtOSF1jMVtjSF1bY0hdW2NIXW5jMU4yW0NIMl1bQ0gyXVtDSDJdW0NIMl0y

> <s_epik_cmdline>
J2VwaWtfcHl0aG9uJywgJy1waCcsICc3LjAnLCAnLXRuJywgJzgnLCAnLW1hJywgJzIwMCcsICctbWV0YWxfYmluZGluZycsICctaW1hZScsICc8aW5maWxlLm1hZT4nLCAnLW9tYWUnLCAnPG91dGZpbGUubWFlPic=

> <r_lp_tautomer_probability>
0.999994

> <r_epik_Ionization_Penalty>
1.08838

> <r_epik_Ionization_Penalty_Charging>
1.08836

> <r_epik_Ionization_Penalty_Neutral>
2.1796e-05

> <r_epik_State_Penalty>
1.14442

> <r_epik_Charging_Adjusted_Penalty>
2.23278

> <i_epik_Tot_Q>
1

> <i_epik_Tot_abs_Q>
1

> <r_epik_Metal_State_Penalty>
1.23344

> <b_epik_Metal_Only>
0

> <s_lp_Force_Field>
OPLS_2005

> <r_lp_Energy>
41.1125

> <b_lp_Chiralities_Consistent>
1

> <s_lp_Variant>
AV-unprocessed.smi:2450-4

> <Gold.Version>
5.8.1

> <Gold.Id.Protein>
6NUR|6NUR_protein|mol2

> <Gold.PLP.Fitness>
47.8342

> <Gold.PLP.PLP>
-36.7664

> <Gold.PLP.part.hbond>
-3.0000

> <Gold.PLP.part.metal>
0.0000

> <Gold.PLP.part.buried>
-5.0498

> <Gold.PLP.part.nonpolar>
-29.6891

> <Gold.PLP.part.repulsive>
0.3780

> <Gold.PLP.ligand.clash>
0.0000

> <Gold.PLP.ligand.torsion>
0.3804

> <Gold.PLP.Chemscore.Hbond>
3.9280

> <Gold.PLP.Chemscore.CHOScore>
0.0000

> <Gold.PLP.Chemscore.Metal>
0.0000

> <Gold.Chemscore.Hbonds>
donor molecule, donor type, donor heavy atom, donor atom, acceptor molecule, acceptor atom, score
      L1  H     5    29       P1  8028  1.00
      L1  H     8    30       P1  8028  0.98
      L1  H    13    42       P1 10175  2.00

> <Gold.PLP.Chemscore.Internal.Correction>
0.0447

> <Gold.Rescore>
     Score         DG    S(hbond)    S(metal)    S(lipo)     H(rot)  DE(clash)    DE(int)     intcor
     19.27     -22.18       2.86        0.00      90.50       1.34       0.32       2.59       ----

> <Gold.Chemscore.Fitness>
19.2723

> <Gold.Chemscore.DG>
-22.1845

> <Gold.Chemscore.ZeroCoef>
-5.4800

> <Gold.Chemscore.Hbond>
2.8575

> <Gold.Chemscore.Metal>
0.0000

> <Gold.Chemscore.Lipo>
90.5034

> <Gold.Chemscore.Internal_Hbond>
0.0000

> <Gold.Chemscore.DEClash>
0.3185

> <Gold.Chemscore.DEInternal>
2.5937

> <Gold.Chemscore.Rot>
1.3393

> <Gold.Chemscore.Internal.Correction>
   9.000000E+99

> <Gold.Chemscore.Hbonds>
donor molecule, donor type, donor heavy atom, donor atom, acceptor molecule, acceptor atom, score
      L1  H     5    29       P1  8028  0.98
      L1  H     8    30       P1  8028  0.93
      L1  H    13    42       P1 10175  0.82

> <Gold.Chemscore.Hbond.Weighted>
-9.5442

> <Gold.Chemscore.Metal.Weighted>
-0.0000

> <Gold.Chemscore.Lipo.Weighted>
-10.5889

> <Gold.Chemscore.Internal_Hbond.Weighted>
0.0000

> <Gold.Chemscore.DEClash.Weighted>
0.3185

> <Gold.Chemscore.DEInternal.Weighted>
2.5937

> <Gold.Chemscore.Rot.Weighted>
3.4285

> <Gold.Chemscore.Internal.Correction.Weighted>
   9.000000E+99

> <Gold.Protein.RotatedTorsions>
[ 6907 6896 6895 6894 ] final  102.55 input  -60.11 | X-H torsion
[ 7974 7965 7964 7962 ] final -114.60 input  175.53 | X-H torsion
[ 8008 7997 7996 7995 ] final  161.93 input   59.86 | X-H torsion
[ 10167 10162 10161 10158 ] final   33.39 input  -65.29 | X-H torsion
[ 10718 10713 10712 10709 ] final   72.50 input   66.30 | X-H torsion
[ 10763 10752 10751 10750 ] final   94.40 input  -60.55 | X-H torsion
[ 11005 11000 10999 10996 ] final  -54.49 input  -57.11 | X-H torsion

> <Gold.Protein.ActiveResidues>
 VAL166  LYS551  ARG553  GLY616  TRP617  ASP618  TYR619  PRO620  LYS621  CYS622 
 ASP623  PHE694  ASN695  SER759  ASP760  ASP761  ALA762  ILE779  LEU786  VAL792 
 PHE793  MET794  SER795  GLU796  ALA797  LYS798  CYS799  TRP800  GLU811  SER814 

> <Gold.Protein.RotatedAtoms>
  152.5321  133.9959  159.7872 H   0  0  0  0  0  0  0  0  0  0  0  0  # atno 6907 bound_to 6896
  151.0187  133.5889  159.2681 H   0  0  0  0  0  0  0  0  0  0  0  0  # atno 6908 bound_to 6896
  151.2937  135.0756  159.9267 H   0  0  0  0  0  0  0  0  0  0  0  0  # atno 6909 bound_to 6896
  145.1182  140.8653  143.3829 H   0  0  0  0  0  0  0  0  0  0  0  0  # atno 7974 bound_to 7965
  156.2068  140.1764  156.7782 H   0  0  0  0  0  0  0  0  0  0  0  0  # atno 8008 bound_to 7997
  154.5666  140.0690  156.8931 H   0  0  0  0  0  0  0  0  0  0  0  0  # atno 8009 bound_to 7997
  155.2749  140.3345  155.4265 H   0  0  0  0  0  0  0  0  0  0  0  0  # atno 8010 bound_to 7997
  140.4411  144.1186  150.6174 H   0  0  0  0  0  0  0  0  0  0  0  0  # atno 10167 bound_to 10162
  157.6504  130.9582  150.0938 H   0  0  0  0  0  0  0  0  0  0  0  0  # atno 10718 bound_to 10713
  153.2412  135.4291  155.0700 H   0  0  0  0  0  0  0  0  0  0  0  0  # atno 10763 bound_to 10752
  154.8341  135.3403  154.6646 H   0  0  0  0  0  0  0  0  0  0  0  0  # atno 10764 bound_to 10752
  153.7070  135.7025  153.5104 H   0  0  0  0  0  0  0  0  0  0  0  0  # atno 10765 bound_to 10752
  141.1028  133.6616  156.4328 H   0  0  0  0  0  0  0  0  0  0  0  0  # atno 11005 bound_to 11000
  145.0770  139.2988  143.5803 LP  0  0  0  0  0  0  0  0  0  0  0  0  # atno 17320 bound_to 7965
  146.3522  140.0263  142.8654 LP  0  0  0  0  0  0  0  0  0  0  0  0  # atno 17321 bound_to 7965
  140.4317  143.2565  151.9587 LP  0  0  0  0  0  0  0  0  0  0  0  0  # atno 17342 bound_to 10162
  139.4789  144.5738  151.8045 LP  0  0  0  0  0  0  0  0  0  0  0  0  # atno 17343 bound_to 10162
  156.1880  130.3653  149.8948 LP  0  0  0  0  0  0  0  0  0  0  0  0  # atno 17370 bound_to 10713
  156.6883  130.8885  151.3585 LP  0  0  0  0  0  0  0  0  0  0  0  0  # atno 17371 bound_to 10713
  140.4978  134.6514  157.5236 LP  0  0  0  0  0  0  0  0  0  0  0  0  # atno 17394 bound_to 11000
  139.9886  134.7021  155.9729 LP  0  0  0  0  0  0  0  0  0  0  0  0  # atno 17395 bound_to 11000

$$$$
