AV-unprocessed.smi:1111|AV-procd|sdf|4794|dock2
  -GOLD-   22720 3343D 1   1.00000     0.00000
 Structure written by MMmdl.
 33 34  0  0  0  0  0  0  0  0  2 V2000
  151.1286  137.5247  158.7345 C   0  0  0  0  0  0  0  0  0  0  0  0
  151.1495  138.7657  157.8169 C   0  0  1  0  0  0  0  0  0  0  0  0
  151.4134  139.9814  158.5992 N   0  0  0  0  0  0  0  0  0  0  0  0
  152.5942  140.4489  159.0413 C   0  0  0  0  0  0  0  0  0  0  0  0
  153.6762  139.9048  158.8253 O   0  0  0  0  0  0  0  0  0  0  0  0
  152.5480  141.7419  159.8550 C   0  0  0  0  0  0  0  0  0  0  0  0
  152.2604  142.8966  158.9995 N   0  0  0  0  0  0  0  0  0  0  0  0
  152.9837  144.0577  158.8978 C   0  0  0  0  0  0  0  0  0  0  0  0
  152.3347  144.8434  157.9804 C   0  0  0  0  0  0  0  0  0  0  0  0
  151.2425  144.1307  157.5628 N   0  3  0  0  0  0  0  0  0  0  0  0
  151.1984  142.9476  158.1841 C   0  0  0  0  0  0  0  0  0  0  0  0
  152.2897  138.6334  156.7785 C   0  0  0  0  0  0  0  0  0  0  0  0
  152.0771  139.6429  155.6432 C   0  0  0  0  0  0  0  0  0  0  0  0
  150.2643  139.8294  155.4782 S   0  0  0  0  0  0  0  0  0  0  0  0
  149.9153  141.2470  155.6574 O   0  0  0  0  0  0  0  0  0  0  0  0
  149.7931  139.0740  154.3078 O   0  0  0  0  0  0  0  0  0  0  0  0
  149.8423  138.9011  157.0020 C   0  0  0  0  0  0  0  0  0  0  0  0
  151.0310  136.6065  158.1543 H   0  0  0  0  0  0  0  0  0  0  0  0
  150.2934  137.5465  159.4342 H   0  0  0  0  0  0  0  0  0  0  0  0
  152.0477  137.4470  159.3159 H   0  0  0  0  0  0  0  0  0  0  0  0
  150.5955  140.5200  158.8454 H   0  0  0  0  0  0  0  0  0  0  0  0
  151.7813  141.6856  160.6295 H   0  0  0  0  0  0  0  0  0  0  0  0
  153.5038  141.9081  160.3544 H   0  0  0  0  0  0  0  0  0  0  0  0
  153.8830  144.2338  159.4702 H   0  0  0  0  0  0  0  0  0  0  0  0
  152.5620  145.8301  157.6037 H   0  0  0  0  0  0  0  0  0  0  0  0
  150.4513  142.1846  158.0546 H   0  0  0  0  0  0  0  0  0  0  0  0
  153.2760  138.7451  157.2310 H   0  0  0  0  0  0  0  0  0  0  0  0
  152.2621  137.6321  156.3460 H   0  0  0  0  0  0  0  0  0  0  0  0
  152.4950  140.6162  155.9009 H   0  0  0  0  0  0  0  0  0  0  0  0
  152.5105  139.3173  154.6975 H   0  0  0  0  0  0  0  0  0  0  0  0
  149.4847  137.9197  156.6888 H   0  0  0  0  0  0  0  0  0  0  0  0
  149.0248  139.3953  157.5262 H   0  0  0  0  0  0  0  0  0  0  0  0
  150.5644  144.4504  156.8825 H   0  0  0  0  0  0  0  0  0  0  0  0
  1  2  1  0  0  0  0
  1 18  1  0  0  0  0
  1 19  1  0  0  0  0
  1 20  1  0  0  0  0
  2 17  1  0  0  0  0
  2  3  1  0  0  0  0
  2 12  1  0  0  0  0
  3  4  1  0  0  0  0
  3 21  1  0  0  0  0
  4  5  2  0  0  0  0
  4  6  1  0  0  0  0
  6  7  1  0  0  0  0
  6 22  1  0  0  0  0
  6 23  1  0  0  0  0
  7 11  1  0  0  0  0
  7  8  1  0  0  0  0
  8  9  2  0  0  0  0
  8 24  1  0  0  0  0
  9 10  1  0  0  0  0
  9 25  1  0  0  0  0
 10 11  2  0  0  0  0
 10 33  1  0  0  0  0
 11 26  1  0  0  0  0
 12 13  1  0  0  0  0
 12 27  1  0  0  0  0
 12 28  1  0  0  0  0
 13 14  1  0  0  0  0
 13 29  1  0  0  0  0
 13 30  1  0  0  0  0
 14 15  2  0  0  0  0
 14 16  2  0  0  0  0
 14 17  1  0  0  0  0
 17 31  1  0  0  0  0
 17 32  1  0  0  0  0
M  CHG  1  10   1
M  END
> <s_m_source_file>
AV-unprocessed.smi

> <i_m_source_file_index>
1111

> <i_lp_mmshare_version>
43012

> <i_f3d_flags>
0

> <s_epik_input>
Tz1TKD1PKShbQ0gyXTEpW0NIMl1bQ0gyXVtDQEBdMShbQ0gzXSlbTkhdQyg9TylbQ0gyXW4yW2NIXVtjSF1uW2NIXTI=

> <s_epik_cmdline>
J2VwaWtfcHl0aG9uJywgJy1waCcsICc3LjAnLCAnLXRuJywgJzgnLCAnLW1hJywgJzIwMCcsICctbWV0YWxfYmluZGluZycsICctaW1hZScsICc8aW5maWxlLm1hZT4nLCAnLW9tYWUnLCAnPG91dGZpbGUubWFlPic=

> <r_lp_tautomer_probability>
1

> <r_epik_Ionization_Penalty>
0.638881

> <r_epik_Ionization_Penalty_Charging>
0

> <r_epik_Ionization_Penalty_Neutral>
0.638881

> <r_epik_State_Penalty>
0.656385

> <r_epik_Charging_Adjusted_Penalty>
0.656385

> <i_epik_Tot_Q>
1

> <i_epik_Tot_abs_Q>
1

> <r_epik_Metal_State_Penalty>
0.832701

> <b_epik_Metal_Only>
0

> <s_lp_Force_Field>
OPLS_2005

> <r_lp_Energy>
7.94824

> <b_lp_Chiralities_Consistent>
1

> <s_lp_Variant>
AV-unprocessed.smi:1111-3

> <Gold.Version>
5.8.1

> <Gold.Id.Protein>
6NUR|6NUR_protein|mol2

> <Gold.PLP.Fitness>
39.0381

> <Gold.PLP.PLP>
-31.3256

> <Gold.PLP.part.hbond>
-2.0000

> <Gold.PLP.part.metal>
0.0000

> <Gold.PLP.part.buried>
-5.3118

> <Gold.PLP.part.nonpolar>
-25.1403

> <Gold.PLP.part.repulsive>
0.4567

> <Gold.PLP.ligand.clash>
0.0000

> <Gold.PLP.ligand.torsion>
0.6522

> <Gold.PLP.Chemscore.Hbond>
3.0000

> <Gold.PLP.Chemscore.CHOScore>
0.0000

> <Gold.PLP.Chemscore.Metal>
0.0000

> <Gold.Chemscore.Hbonds>
donor molecule, donor type, donor heavy atom, donor atom, acceptor molecule, acceptor atom, score
      L1  H    10    33       P1  8028  1.85
      P1  H  7997  8008       L1     5  1.00

> <Gold.PLP.Chemscore.Internal.Correction>
0.0169

> <Gold.Rescore>
     Score         DG    S(hbond)    S(metal)    S(lipo)     H(rot)  DE(clash)    DE(int)     intcor
     14.54     -14.78       1.95        0.00      62.61       1.78       0.01       0.23       ----

> <Gold.Chemscore.Fitness>
14.5445

> <Gold.Chemscore.DG>
-14.7789

> <Gold.Chemscore.ZeroCoef>
-5.4800

> <Gold.Chemscore.Hbond>
1.9542

> <Gold.Chemscore.Metal>
0.0000

> <Gold.Chemscore.Lipo>
62.6093

> <Gold.Chemscore.Internal_Hbond>
0.0000

> <Gold.Chemscore.DEClash>
0.0086

> <Gold.Chemscore.DEInternal>
0.2258

> <Gold.Chemscore.Rot>
1.7787

> <Gold.Chemscore.Internal.Correction>
   9.000000E+99

> <Gold.Chemscore.Hbonds>
donor molecule, donor type, donor heavy atom, donor atom, acceptor molecule, acceptor atom, score
      L1  H    10    33       P1  8028  0.82
      P1  H  7997  8008       L1     5  0.95

> <Gold.Chemscore.Hbond.Weighted>
-6.5271

> <Gold.Chemscore.Metal.Weighted>
-0.0000

> <Gold.Chemscore.Lipo.Weighted>
-7.3253

> <Gold.Chemscore.Internal_Hbond.Weighted>
0.0000

> <Gold.Chemscore.DEClash.Weighted>
0.0086

> <Gold.Chemscore.DEInternal.Weighted>
0.2258

> <Gold.Chemscore.Rot.Weighted>
4.5536

> <Gold.Chemscore.Internal.Correction.Weighted>
   9.000000E+99

> <Gold.Protein.RotatedTorsions>
[ 6907 6896 6895 6894 ] final  -78.59 input  -60.11 | X-H torsion
[ 7974 7965 7964 7962 ] final -174.74 input  175.53 | X-H torsion
[ 8008 7997 7996 7995 ] final  -93.55 input   59.86 | X-H torsion
[ 10167 10162 10161 10158 ] final   20.13 input  -65.29 | X-H torsion
[ 10718 10713 10712 10709 ] final   38.18 input   66.30 | X-H torsion
[ 10763 10752 10751 10750 ] final  -43.27 input  -60.55 | X-H torsion
[ 11005 11000 10999 10996 ] final   -6.41 input  -57.11 | X-H torsion

> <Gold.Protein.ActiveResidues>
 VAL166  LYS551  ARG553  GLY616  TRP617  ASP618  TYR619  PRO620  LYS621  CYS622 
 ASP623  PHE694  ASN695  SER759  ASP760  ASP761  ALA762  ILE779  LEU786  VAL792 
 PHE793  MET794  SER795  GLU796  ALA797  LYS798  CYS799  TRP800  GLU811  SER814 

> <Gold.Protein.RotatedAtoms>
  150.6969  134.4249  159.5221 H   0  0  0  0  0  0  0  0  0  0  0  0  # atno 6907 bound_to 6896
  152.1985  134.8606  160.0519 H   0  0  0  0  0  0  0  0  0  0  0  0  # atno 6908 bound_to 6896
  151.9535  133.3638  159.4045 H   0  0  0  0  0  0  0  0  0  0  0  0  # atno 6909 bound_to 6896
  144.7130  140.1426  143.6390 H   0  0  0  0  0  0  0  0  0  0  0  0  # atno 7974 bound_to 7965
  154.7371  140.0498  157.0778 H   0  0  0  0  0  0  0  0  0  0  0  0  # atno 8008 bound_to 7997
  155.0226  140.3149  155.4768 H   0  0  0  0  0  0  0  0  0  0  0  0  # atno 8009 bound_to 7997
  156.2855  140.2164  156.5344 H   0  0  0  0  0  0  0  0  0  0  0  0  # atno 8010 bound_to 7997
  140.5527  143.9480  150.6589 H   0  0  0  0  0  0  0  0  0  0  0  0  # atno 10167 bound_to 10162
  157.3557  130.7622  149.7011 H   0  0  0  0  0  0  0  0  0  0  0  0  # atno 10718 bound_to 10713
  153.9928  135.6703  153.4755 H   0  0  0  0  0  0  0  0  0  0  0  0  # atno 10763 bound_to 10752
  153.0697  135.4981  154.8274 H   0  0  0  0  0  0  0  0  0  0  0  0  # atno 10764 bound_to 10752
  154.7099  135.3095  154.9176 H   0  0  0  0  0  0  0  0  0  0  0  0  # atno 10765 bound_to 10752
  140.7016  133.8984  155.8687 H   0  0  0  0  0  0  0  0  0  0  0  0  # atno 11005 bound_to 11000
  145.9188  139.2533  143.1394 LP  0  0  0  0  0  0  0  0  0  0  0  0  # atno 17320 bound_to 7965
  145.9641  140.8812  143.0196 LP  0  0  0  0  0  0  0  0  0  0  0  0  # atno 17321 bound_to 7965
  140.2910  143.3324  152.1062 LP  0  0  0  0  0  0  0  0  0  0  0  0  # atno 17342 bound_to 10162
  139.5034  144.6755  151.6139 LP  0  0  0  0  0  0  0  0  0  0  0  0  # atno 17343 bound_to 10162
  155.9729  130.4128  150.4049 LP  0  0  0  0  0  0  0  0  0  0  0  0  # atno 17370 bound_to 10713
  157.2119  131.0462  151.2594 LP  0  0  0  0  0  0  0  0  0  0  0  0  # atno 17371 bound_to 10713
  141.0158  134.0957  157.4173 LP  0  0  0  0  0  0  0  0  0  0  0  0  # atno 17394 bound_to 11000
  139.8895  135.0105  156.6683 LP  0  0  0  0  0  0  0  0  0  0  0  0  # atno 17395 bound_to 11000

$$$$
