AV-unprocessed.smi:1605|AV-procd|sdf|6458|dock1
  -GOLD-   22720 7113D 1   1.00000     0.00000
 Structure written by MMmdl.
 52 54  0  0  0  0  0  0  0  0  3 V2000
  144.0384  132.2496  150.9983 C   0  0  0  0  0  0  0  0  0  0  0  0
  144.6093  132.9235  152.1094 O   0  0  0  0  0  0  0  0  0  0  0  0
  146.0026  133.1874  151.9876 C   0  0  2  0  0  0  0  0  0  0  0  0
  146.5416  133.9687  153.2009 C   0  0  0  0  0  0  0  0  0  0  0  0
  145.9182  135.3721  153.2868 C   0  0  0  0  0  0  0  0  0  0  0  0
  146.1479  136.1406  152.0339 N   0  3  2  0  0  0  0  0  0  0  0  0
  145.6681  137.5440  152.1156 C   0  0  0  0  0  0  0  0  0  0  0  0
  146.7861  138.5309  152.5195 C   0  0  1  0  0  0  0  0  0  0  0  0
  147.2040  139.2480  151.3762 O   0  0  0  0  0  0  0  0  0  0  0  0
  146.3383  139.5661  153.5721 C   0  0  0  0  0  0  0  0  0  0  0  0
  147.4420  140.3902  154.0817 N   0  0  0  0  0  0  0  0  0  0  0  0
  147.5315  141.7397  154.2360 C   0  0  0  0  0  0  0  0  0  0  0  0
  148.7652  142.0133  154.7437 N   0  3  0  0  0  0  0  0  0  0  0  0
  149.4783  140.8231  154.9039 C   0  0  0  0  0  0  0  0  0  0  0  0
  150.7634  140.5868  155.3777 C   0  0  0  0  0  0  0  0  0  0  0  0
  151.2027  139.2438  155.4088 C   0  0  0  0  0  0  0  0  0  0  0  0
  152.6036  138.9506  155.9182 C   0  0  0  0  0  0  0  0  0  0  0  0
  150.3590  138.1891  154.9730 C   0  0  0  0  0  0  0  0  0  0  0  0
  150.8418  136.7490  155.0090 C   0  0  0  0  0  0  0  0  0  0  0  0
  149.0553  138.4503  154.4943 C   0  0  0  0  0  0  0  0  0  0  0  0
  148.6375  139.7786  154.4735 C   0  0  0  0  0  0  0  0  0  0  0  0
  145.6049  135.4277  150.8489 C   0  0  0  0  0  0  0  0  0  0  0  0
  146.2139  134.0207  150.7145 C   0  0  0  0  0  0  0  0  0  0  0  0
  142.9655  132.1402  151.1558 H   0  0  0  0  0  0  0  0  0  0  0  0
  144.4557  131.2515  150.8687 H   0  0  0  0  0  0  0  0  0  0  0  0
  144.1833  132.8133  150.0760 H   0  0  0  0  0  0  0  0  0  0  0  0
  146.5440  132.2462  151.8788 H   0  0  0  0  0  0  0  0  0  0  0  0
  146.3664  133.4233  154.1277 H   0  0  0  0  0  0  0  0  0  0  0  0
  147.6246  134.0638  153.1127 H   0  0  0  0  0  0  0  0  0  0  0  0
  144.8465  135.2928  153.4768 H   0  0  0  0  0  0  0  0  0  0  0  0
  146.3470  135.8971  154.1394 H   0  0  0  0  0  0  0  0  0  0  0  0
  145.2617  137.8598  151.1533 H   0  0  0  0  0  0  0  0  0  0  0  0
  144.8350  137.5825  152.8181 H   0  0  0  0  0  0  0  0  0  0  0  0
  147.6505  137.9929  152.9056 H   0  0  0  0  0  0  0  0  0  0  0  0
  148.0603  139.6138  151.5356 H   0  0  0  0  0  0  0  0  0  0  0  0
  145.5784  140.2348  153.1645 H   0  0  0  0  0  0  0  0  0  0  0  0
  145.8837  139.0647  154.4279 H   0  0  0  0  0  0  0  0  0  0  0  0
  146.7634  142.4627  154.0013 H   0  0  0  0  0  0  0  0  0  0  0  0
  151.4012  141.3947  155.7056 H   0  0  0  0  0  0  0  0  0  0  0  0
  153.1832  138.4176  155.1645 H   0  0  0  0  0  0  0  0  0  0  0  0
  152.5623  138.3390  156.8197 H   0  0  0  0  0  0  0  0  0  0  0  0
  153.1400  139.8681  156.1617 H   0  0  0  0  0  0  0  0  0  0  0  0
  150.0595  136.0578  154.6942 H   0  0  0  0  0  0  0  0  0  0  0  0
  151.1445  136.4696  156.0183 H   0  0  0  0  0  0  0  0  0  0  0  0
  151.6933  136.6152  154.3414 H   0  0  0  0  0  0  0  0  0  0  0  0
  148.4154  137.6482  154.1568 H   0  0  0  0  0  0  0  0  0  0  0  0
  144.5181  135.3654  150.9261 H   0  0  0  0  0  0  0  0  0  0  0  0
  145.8252  135.9970  149.9449 H   0  0  0  0  0  0  0  0  0  0  0  0
  147.2823  134.1082  150.5119 H   0  0  0  0  0  0  0  0  0  0  0  0
  145.7812  133.5064  149.8556 H   0  0  0  0  0  0  0  0  0  0  0  0
  147.1468  136.1883  151.8932 H   0  0  0  0  0  0  0  0  0  0  0  0
  149.0968  142.9455  154.9574 H   0  0  0  0  0  0  0  0  0  0  0  0
  1  2  1  0  0  0  0
  1 24  1  0  0  0  0
  1 25  1  0  0  0  0
  1 26  1  0  0  0  0
  2  3  1  0  0  0  0
  3 23  1  0  0  0  0
  3  4  1  0  0  0  0
  3 27  1  0  0  0  0
  4  5  1  0  0  0  0
  4 28  1  0  0  0  0
  4 29  1  0  0  0  0
  5  6  1  0  0  0  0
  5 30  1  0  0  0  0
  5 31  1  0  0  0  0
  6  7  1  0  0  0  0
  6 22  1  0  0  0  0
  6 51  1  0  0  0  0
  7  8  1  0  0  0  0
  7 32  1  0  0  0  0
  7 33  1  0  0  0  0
  8  9  1  0  0  0  0
  8 10  1  0  0  0  0
  8 34  1  0  0  0  0
  9 35  1  0  0  0  0
 10 11  1  0  0  0  0
 10 36  1  0  0  0  0
 10 37  1  0  0  0  0
 11 21  1  0  0  0  0
 11 12  1  0  0  0  0
 12 13  2  0  0  0  0
 12 38  1  0  0  0  0
 13 14  1  0  0  0  0
 13 52  1  0  0  0  0
 14 21  2  0  0  0  0
 14 15  1  0  0  0  0
 15 16  2  0  0  0  0
 15 39  1  0  0  0  0
 16 17  1  0  0  0  0
 16 18  1  0  0  0  0
 17 40  1  0  0  0  0
 17 41  1  0  0  0  0
 17 42  1  0  0  0  0
 18 19  1  0  0  0  0
 18 20  2  0  0  0  0
 19 43  1  0  0  0  0
 19 44  1  0  0  0  0
 19 45  1  0  0  0  0
 20 21  1  0  0  0  0
 20 46  1  0  0  0  0
 22 23  1  0  0  0  0
 22 47  1  0  0  0  0
 22 48  1  0  0  0  0
 23 49  1  0  0  0  0
 23 50  1  0  0  0  0
M  CHG  1   6   1
M  CHG  1  13   1
M  END
> <s_m_source_file>
AV-unprocessed.smi

> <i_m_source_file_index>
1605

> <i_lp_mmshare_version>
43012

> <i_f3d_flags>
0

> <s_epik_input>
W0NIM11PW0NIXTFbQ0gyXVtDSDJdTihbQ0gyXVtDSDJdMSlbQ0gyXVtDQEhdKFtPSF0pW0NIMl1uKFtjSF1uMiljKGMyMylbY0hdYyhbQ0gzXSljKFtjSF0zKVtDSDNd

> <s_epik_cmdline>
J2VwaWtfcHl0aG9uJywgJy1waCcsICc3LjAnLCAnLXRuJywgJzgnLCAnLW1hJywgJzIwMCcsICctbWV0YWxfYmluZGluZycsICctaW1hZScsICc8aW5maWxlLm1hZT4nLCAnLW9tYWUnLCAnPG91dGZpbGUubWFlPic=

> <r_epik_Ionization_Penalty>
1.19848

> <r_epik_Ionization_Penalty_Charging>
1.19848

> <r_epik_Ionization_Penalty_Neutral>
1.67134e-06

> <r_epik_State_Penalty>
1.2782

> <r_epik_Charging_Adjusted_Penalty>
2.47668

> <i_epik_Tot_Q>
2

> <i_epik_Tot_abs_Q>
2

> <r_epik_Metal_State_Penalty>
5.29544

> <b_epik_Metal_Only>
0

> <s_lp_Force_Field>
OPLS_2005

> <r_lp_Energy>
34.9642

> <b_lp_Chiralities_Consistent>
1

> <s_lp_Variant>
AV-unprocessed.smi:1605-8

> <Gold.Version>
5.8.1

> <Gold.Id.Protein>
6NUR|6NUR_protein|mol2

> <Gold.PLP.Fitness>
54.1211

> <Gold.PLP.PLP>
-41.4082

> <Gold.PLP.part.hbond>
-3.6874

> <Gold.PLP.part.metal>
0.0000

> <Gold.PLP.part.buried>
0.9068

> <Gold.PLP.part.nonpolar>
-39.0373

> <Gold.PLP.part.repulsive>
0.3706

> <Gold.PLP.ligand.clash>
0.0000

> <Gold.PLP.ligand.torsion>
1.3254

> <Gold.PLP.Chemscore.Hbond>
5.0401

> <Gold.PLP.Chemscore.CHOScore>
0.0000

> <Gold.PLP.Chemscore.Metal>
0.0000

> <Gold.Chemscore.Hbonds>
donor molecule, donor type, donor heavy atom, donor atom, acceptor molecule, acceptor atom, score
      L1  H     6    51       P1  7948  2.00
      L1  H     9    35       P1  7957  1.00
      L1  H    13    52       P1  8028  2.00
      P1  H  7954  7966       L1     9  0.13

> <Gold.PLP.Chemscore.Internal.Correction>
0.2433

> <Gold.Rescore>
     Score         DG    S(hbond)    S(metal)    S(lipo)     H(rot)  DE(clash)    DE(int)     intcor
     19.28     -20.52       2.91        0.00      95.28       2.28       0.15       1.09       ----

> <Gold.Chemscore.Fitness>
19.2837

> <Gold.Chemscore.DG>
-20.5160

> <Gold.Chemscore.ZeroCoef>
-5.4800

> <Gold.Chemscore.Hbond>
2.9146

> <Gold.Chemscore.Metal>
0.0000

> <Gold.Chemscore.Lipo>
95.2827

> <Gold.Chemscore.Internal_Hbond>
0.0000

> <Gold.Chemscore.DEClash>
0.1454

> <Gold.Chemscore.DEInternal>
1.0870

> <Gold.Chemscore.Rot>
2.2839

> <Gold.Chemscore.Internal.Correction>
   9.000000E+99

> <Gold.Chemscore.Hbonds>
donor molecule, donor type, donor heavy atom, donor atom, acceptor molecule, acceptor atom, score
      L1  H     6    51       P1  7948  1.00
      L1  H     9    35       P1  7957  0.96
      L1  H    13    52       P1  8028  0.97

> <Gold.Chemscore.Hbond.Weighted>
-9.7348

> <Gold.Chemscore.Metal.Weighted>
-0.0000

> <Gold.Chemscore.Lipo.Weighted>
-11.1481

> <Gold.Chemscore.Internal_Hbond.Weighted>
0.0000

> <Gold.Chemscore.DEClash.Weighted>
0.1454

> <Gold.Chemscore.DEInternal.Weighted>
1.0870

> <Gold.Chemscore.Rot.Weighted>
5.8469

> <Gold.Chemscore.Internal.Correction.Weighted>
   9.000000E+99

> <Gold.Protein.RotatedTorsions>
[ 6907 6896 6895 6894 ] final   77.11 input  -60.11 | X-H torsion
[ 7974 7965 7964 7962 ] final   26.75 input  175.53 | X-H torsion
[ 8008 7997 7996 7995 ] final -120.49 input   59.86 | X-H torsion
[ 10167 10162 10161 10158 ] final  179.70 input  -65.29 | X-H torsion
[ 10718 10713 10712 10709 ] final   11.05 input   66.30 | X-H torsion
[ 10763 10752 10751 10750 ] final -117.24 input  -60.55 | X-H torsion
[ 11005 11000 10999 10996 ] final  -97.83 input  -57.11 | X-H torsion

> <Gold.Protein.ActiveResidues>
 VAL166  LYS551  ARG553  GLY616  TRP617  ASP618  TYR619  PRO620  LYS621  CYS622 
 ASP623  PHE694  ASN695  SER759  ASP760  ASP761  ALA762  ILE779  LEU786  VAL792 
 PHE793  MET794  SER795  GLU796  ALA797  LYS798  CYS799  TRP800  GLU811  SER814 

> <Gold.Protein.RotatedAtoms>
  152.5103  134.3867  159.9369 H   0  0  0  0  0  0  0  0  0  0  0  0  # atno 6907 bound_to 6896
  151.3826  133.3810  159.2719 H   0  0  0  0  0  0  0  0  0  0  0  0  # atno 6908 bound_to 6896
  150.9493  134.8915  159.7720 H   0  0  0  0  0  0  0  0  0  0  0  0  # atno 6909 bound_to 6896
  146.1821  139.7286  142.8893 H   0  0  0  0  0  0  0  0  0  0  0  0  # atno 7974 bound_to 7965
  155.1327  140.0400  157.2779 H   0  0  0  0  0  0  0  0  0  0  0  0  # atno 8008 bound_to 7997
  154.6531  140.2573  155.7166 H   0  0  0  0  0  0  0  0  0  0  0  0  # atno 8009 bound_to 7997
  156.2586  140.2832  156.0972 H   0  0  0  0  0  0  0  0  0  0  0  0  # atno 8010 bound_to 7997
  139.5348  144.2529  152.0770 H   0  0  0  0  0  0  0  0  0  0  0  0  # atno 10167 bound_to 10162
  156.9900  130.6038  149.5685 H   0  0  0  0  0  0  0  0  0  0  0  0  # atno 10718 bound_to 10713
  154.8548  135.4317  154.1948 H   0  0  0  0  0  0  0  0  0  0  0  0  # atno 10763 bound_to 10752
  153.3008  135.6968  153.7210 H   0  0  0  0  0  0  0  0  0  0  0  0  # atno 10764 bound_to 10752
  153.6341  135.3479  155.3025 H   0  0  0  0  0  0  0  0  0  0  0  0  # atno 10765 bound_to 10752
  141.1366  133.8200  157.0758 H   0  0  0  0  0  0  0  0  0  0  0  0  # atno 11005 bound_to 11000
  145.4046  141.0389  143.3051 LP  0  0  0  0  0  0  0  0  0  0  0  0  # atno 17320 bound_to 7965
  144.8333  139.5592  143.6934 LP  0  0  0  0  0  0  0  0  0  0  0  0  # atno 17321 bound_to 7965
  140.1998  144.4669  150.6437 LP  0  0  0  0  0  0  0  0  0  0  0  0  # atno 17342 bound_to 10162
  140.6548  143.2234  151.5994 LP  0  0  0  0  0  0  0  0  0  0  0  0  # atno 17343 bound_to 10162
  156.0211  130.5306  150.8277 LP  0  0  0  0  0  0  0  0  0  0  0  0  # atno 17370 bound_to 10713
  157.5466  131.0942  150.9754 LP  0  0  0  0  0  0  0  0  0  0  0  0  # atno 17371 bound_to 10713
  140.0482  134.9819  157.1089 LP  0  0  0  0  0  0  0  0  0  0  0  0  # atno 17394 bound_to 11000
  140.4030  134.2063  155.7163 LP  0  0  0  0  0  0  0  0  0  0  0  0  # atno 17395 bound_to 11000

$$$$
