AV-unprocessed.smi:2521|AV-procd|sdf|9916|dock9
  -GOLD-   2272013553D 1   1.00000     0.00000
 Structure written by MMmdl.
 36 37  0  0  0  0  0  0  0  0  1 V2000
  151.4874  143.4675  157.3656 C   0  0  0  0  0  0  0  0  0  0  0  0
  150.9226  142.0916  157.7482 C   0  0  0  0  0  0  0  0  0  0  0  0
  151.7480  141.3811  158.8309 C   0  0  0  0  0  0  0  0  0  0  0  0
  150.6944  141.2227  156.5508 C   0  0  0  0  0  0  0  0  0  0  0  0
  151.6867  140.8022  155.7544 N   0  0  0  0  0  0  0  0  0  0  0  0
  151.2281  140.0100  154.7117 N   0  0  0  0  0  0  0  0  0  0  0  0
  149.8978  139.8550  154.7500 C   0  0  0  0  0  0  0  0  0  0  0  0
  149.1642  139.0941  153.8018 N   0  0  0  0  0  0  0  0  0  0  0  0
  147.8698  139.2149  153.4583 C   0  0  0  0  0  0  0  0  0  0  0  0
  147.0820  140.0381  153.9249 O   0  0  0  0  0  0  0  0  0  0  0  0
  147.5308  138.3168  152.5224 N   0  0  0  0  0  0  0  0  0  0  0  0
  146.2075  138.1943  151.9202 C   0  0  0  0  0  0  0  0  0  0  0  0
  145.6267  136.7772  152.0860 C   0  0  1  0  0  0  0  0  0  0  0  0
  144.1630  136.7310  152.4789 C   0  0  0  0  0  0  0  0  0  0  0  0
  143.7825  135.3053  152.0942 C   0  0  0  0  0  0  0  0  0  0  0  0
  144.5869  134.9819  150.9638 O   0  0  0  0  0  0  0  0  0  0  0  0
  145.6129  135.9568  150.7966 C   0  0  0  0  0  0  0  0  0  0  0  0
  149.0903  140.6734  156.0759 S   0  0  0  0  0  0  0  0  0  0  0  0
  150.8307  143.9787  156.6610 H   0  0  0  0  0  0  0  0  0  0  0  0
  152.4699  143.3784  156.9009 H   0  0  0  0  0  0  0  0  0  0  0  0
  151.5921  144.1067  158.2427 H   0  0  0  0  0  0  0  0  0  0  0  0
  149.9404  142.2754  158.1853 H   0  0  0  0  0  0  0  0  0  0  0  0
  151.2728  140.4489  159.1374 H   0  0  0  0  0  0  0  0  0  0  0  0
  151.8526  142.0060  159.7182 H   0  0  0  0  0  0  0  0  0  0  0  0
  152.7503  141.1431  158.4734 H   0  0  0  0  0  0  0  0  0  0  0  0
  149.6883  138.3747  153.3263 H   0  0  0  0  0  0  0  0  0  0  0  0
  148.2399  137.6767  152.1959 H   0  0  0  0  0  0  0  0  0  0  0  0
  145.5531  138.9263  152.3942 H   0  0  0  0  0  0  0  0  0  0  0  0
  146.2529  138.4623  150.8633 H   0  0  0  0  0  0  0  0  0  0  0  0
  146.2037  136.2296  152.8334 H   0  0  0  0  0  0  0  0  0  0  0  0
  143.9936  136.9436  153.5348 H   0  0  0  0  0  0  0  0  0  0  0  0
  143.5864  137.4446  151.8883 H   0  0  0  0  0  0  0  0  0  0  0  0
  144.0280  134.6158  152.9030 H   0  0  0  0  0  0  0  0  0  0  0  0
  142.7202  135.2025  151.8718 H   0  0  0  0  0  0  0  0  0  0  0  0
  145.3526  136.5821  149.9415 H   0  0  0  0  0  0  0  0  0  0  0  0
  146.5761  135.4892  150.5909 H   0  0  0  0  0  0  0  0  0  0  0  0
  1  2  1  0  0  0  0
  1 19  1  0  0  0  0
  1 20  1  0  0  0  0
  1 21  1  0  0  0  0
  2  3  1  0  0  0  0
  2  4  1  0  0  0  0
  2 22  1  0  0  0  0
  3 23  1  0  0  0  0
  3 24  1  0  0  0  0
  3 25  1  0  0  0  0
  4 18  1  0  0  0  0
  4  5  2  0  0  0  0
  5  6  1  0  0  0  0
  6  7  2  0  0  0  0
  7  8  1  0  0  0  0
  7 18  1  0  0  0  0
  8  9  1  0  0  0  0
  8 26  1  0  0  0  0
  9 10  2  0  0  0  0
  9 11  1  0  0  0  0
 11 12  1  0  0  0  0
 11 27  1  0  0  0  0
 12 13  1  0  0  0  0
 12 28  1  0  0  0  0
 12 29  1  0  0  0  0
 13 17  1  0  0  0  0
 13 14  1  0  0  0  0
 13 30  1  0  0  0  0
 14 15  1  0  0  0  0
 14 31  1  0  0  0  0
 14 32  1  0  0  0  0
 15 16  1  0  0  0  0
 15 33  1  0  0  0  0
 15 34  1  0  0  0  0
 16 17  1  0  0  0  0
 17 35  1  0  0  0  0
 17 36  1  0  0  0  0
M  END
> <s_m_source_file>
AV-unprocessed.smi

> <i_m_source_file_index>
2521

> <i_lp_mmshare_version>
43012

> <i_f3d_flags>
0

> <s_epik_input>
W0NIM11bQ0hdKFtDSDNdKWMxbm5jKHMxKVtOSF1DKD1PKVtOSF1bQ0gyXVtDQEBIXTJbQ0gyXVtDSDJdT1tDSDJdMg==

> <s_epik_cmdline>
J2VwaWtfcHl0aG9uJywgJy1waCcsICc3LjAnLCAnLXRuJywgJzgnLCAnLW1hJywgJzIwMCcsICctbWV0YWxfYmluZGluZycsICctaW1hZScsICc8aW5maWxlLm1hZT4nLCAnLW9tYWUnLCAnPG91dGZpbGUubWFlPic=

> <r_lp_tautomer_probability>
1

> <r_epik_Ionization_Penalty>
0.000452582

> <r_epik_Ionization_Penalty_Charging>
0

> <r_epik_Ionization_Penalty_Neutral>
0.000452582

> <r_epik_State_Penalty>
-0

> <r_epik_Charging_Adjusted_Penalty>
0

> <i_epik_Tot_Q>
0

> <i_epik_Tot_abs_Q>
0

> <r_epik_Metal_State_Penalty>
0.207746

> <b_epik_Metal_Only>
0

> <s_lp_Force_Field>
OPLS_2005

> <r_lp_Energy>
10.682

> <b_lp_Chiralities_Consistent>
1

> <s_lp_Variant>
AV-unprocessed.smi:2521-2

> <Gold.Version>
5.8.1

> <Gold.Id.Protein>
6NUR|6NUR_protein|mol2

> <Gold.PLP.Fitness>
35.5062

> <Gold.PLP.PLP>
-31.0550

> <Gold.PLP.part.hbond>
-4.9750

> <Gold.PLP.part.metal>
0.0000

> <Gold.PLP.part.buried>
-2.5238

> <Gold.PLP.part.nonpolar>
-24.9180

> <Gold.PLP.part.repulsive>
0.5768

> <Gold.PLP.ligand.clash>
0.0000

> <Gold.PLP.ligand.torsion>
0.8144

> <Gold.PLP.Chemscore.Hbond>
2.0000

> <Gold.PLP.Chemscore.CHOScore>
0.0000

> <Gold.PLP.Chemscore.Metal>
0.0000

> <Gold.Chemscore.Hbonds>
donor molecule, donor type, donor heavy atom, donor atom, acceptor molecule, acceptor atom, score
      L1  H    11    27       P1  7948  1.00
      P1  H  7989  7998       L1     6  1.00

> <Gold.PLP.Chemscore.Internal.Correction>
0.0801

> <Gold.Rescore>
     Score         DG    S(hbond)    S(metal)    S(lipo)     H(rot)  DE(clash)    DE(int)     intcor
     13.40     -15.13       1.78        0.00      63.37       1.45       0.05       1.67       ----

> <Gold.Chemscore.Fitness>
13.3991

> <Gold.Chemscore.DG>
-15.1280

> <Gold.Chemscore.ZeroCoef>
-5.4800

> <Gold.Chemscore.Hbond>
1.7770

> <Gold.Chemscore.Metal>
0.0000

> <Gold.Chemscore.Lipo>
63.3724

> <Gold.Chemscore.Internal_Hbond>
0.0000

> <Gold.Chemscore.DEClash>
0.0549

> <Gold.Chemscore.DEInternal>
1.6739

> <Gold.Chemscore.Rot>
1.4461

> <Gold.Chemscore.Internal.Correction>
   9.000000E+99

> <Gold.Chemscore.Hbonds>
donor molecule, donor type, donor heavy atom, donor atom, acceptor molecule, acceptor atom, score
      L1  H    11    27       P1  7948  0.99
      P1  H  7989  7998       L1     6  0.22

> <Gold.Chemscore.Hbond.Weighted>
-5.9353

> <Gold.Chemscore.Metal.Weighted>
-0.0000

> <Gold.Chemscore.Lipo.Weighted>
-7.4146

> <Gold.Chemscore.Internal_Hbond.Weighted>
0.0000

> <Gold.Chemscore.DEClash.Weighted>
0.0549

> <Gold.Chemscore.DEInternal.Weighted>
1.6739

> <Gold.Chemscore.Rot.Weighted>
3.7019

> <Gold.Chemscore.Internal.Correction.Weighted>
   9.000000E+99

> <Gold.Protein.RotatedTorsions>
[ 6907 6896 6895 6894 ] final  -89.58 input  -60.11 | X-H torsion
[ 7974 7965 7964 7962 ] final   90.91 input  175.53 | X-H torsion
[ 8008 7997 7996 7995 ] final -153.71 input   59.86 | X-H torsion
[ 10167 10162 10161 10158 ] final   86.69 input  -65.29 | X-H torsion
[ 10718 10713 10712 10709 ] final  171.99 input   66.30 | X-H torsion
[ 10763 10752 10751 10750 ] final -133.11 input  -60.55 | X-H torsion
[ 11005 11000 10999 10996 ] final  171.69 input  -57.11 | X-H torsion

> <Gold.Protein.ActiveResidues>
 VAL166  LYS551  ARG553  GLY616  TRP617  ASP618  TYR619  PRO620  LYS621  CYS622 
 ASP623  PHE694  ASN695  SER759  ASP760  ASP761  ALA762  ILE779  LEU786  VAL792 
 PHE793  MET794  SER795  GLU796  ALA797  LYS798  CYS799  TRP800  GLU811  SER814 

> <Gold.Protein.RotatedAtoms>
  150.6875  134.2566  159.4531 H   0  0  0  0  0  0  0  0  0  0  0  0  # atno 6907 bound_to 6896
  152.0499  134.9657  160.0584 H   0  0  0  0  0  0  0  0  0  0  0  0  # atno 6908 bound_to 6896
  152.1126  133.4274  159.4675 H   0  0  0  0  0  0  0  0  0  0  0  0  # atno 6909 bound_to 6896
  145.5126  139.2277  143.2716 H   0  0  0  0  0  0  0  0  0  0  0  0  # atno 7974 bound_to 7965
  155.6750  140.0737  157.2506 H   0  0  0  0  0  0  0  0  0  0  0  0  # atno 8008 bound_to 7997
  154.4116  140.1692  156.1972 H   0  0  0  0  0  0  0  0  0  0  0  0  # atno 8009 bound_to 7997
  155.9584  140.3372  155.6471 H   0  0  0  0  0  0  0  0  0  0  0  0  # atno 8010 bound_to 7997
  139.8850  144.6418  150.8801 H   0  0  0  0  0  0  0  0  0  0  0  0  # atno 10167 bound_to 10162
  156.9855  131.0132  151.2870 H   0  0  0  0  0  0  0  0  0  0  0  0  # atno 10718 bound_to 10713
  154.8736  135.3776  154.4520 H   0  0  0  0  0  0  0  0  0  0  0  0  # atno 10763 bound_to 10752
  153.5195  135.7029  153.5744 H   0  0  0  0  0  0  0  0  0  0  0  0  # atno 10764 bound_to 10752
  153.3997  135.3951  155.1945 H   0  0  0  0  0  0  0  0  0  0  0  0  # atno 10765 bound_to 10752
  140.3217  134.7431  157.4069 H   0  0  0  0  0  0  0  0  0  0  0  0  # atno 11005 bound_to 11000
  146.2157  140.5934  142.9040 LP  0  0  0  0  0  0  0  0  0  0  0  0  # atno 17320 bound_to 7965
  144.7719  140.5656  143.6664 LP  0  0  0  0  0  0  0  0  0  0  0  0  # atno 17321 bound_to 7965
  140.7737  143.3555  151.1929 LP  0  0  0  0  0  0  0  0  0  0  0  0  # atno 17342 bound_to 10162
  139.7161  143.9297  152.2967 LP  0  0  0  0  0  0  0  0  0  0  0  0  # atno 17343 bound_to 10162
  157.5496  130.8173  149.8128 LP  0  0  0  0  0  0  0  0  0  0  0  0  # atno 17370 bound_to 10713
  156.0227  130.3790  150.1913 LP  0  0  0  0  0  0  0  0  0  0  0  0  # atno 17371 bound_to 10713
  140.0936  134.5568  155.8420 LP  0  0  0  0  0  0  0  0  0  0  0  0  # atno 17394 bound_to 11000
  141.2085  133.6674  156.6374 LP  0  0  0  0  0  0  0  0  0  0  0  0  # atno 17395 bound_to 11000

$$$$
