AV-unprocessed.smi:1217|AV-procd|sdf|5105|dock3
  -GOLD-   22720 4153D 1   1.00000     0.00000
 Structure written by MMmdl.
 34 35  0  0  0  0  0  0  0  0  1 V2000
  147.9636  140.4388  155.4631 C   0  0  0  0  0  0  0  0  0  0  0  0
  149.3718  140.8337  154.9924 C   0  0  1  0  0  0  0  0  0  0  0  0
  149.8073  142.0007  155.7568 N   0  0  0  0  0  0  0  0  0  0  0  0
  150.3623  141.9730  156.9778 C   0  0  0  0  0  0  0  0  0  0  0  0
  150.5748  140.9362  157.6072 O   0  0  0  0  0  0  0  0  0  0  0  0
  150.6420  143.2149  157.4109 N   0  0  0  0  0  0  0  0  0  0  0  0
  151.2755  143.6005  158.6224 C   0  0  0  0  0  0  0  0  0  0  0  0
  152.1074  142.6161  159.2024 C   0  0  0  0  0  0  0  0  0  0  0  0
  152.7768  142.8977  160.4091 C   0  0  0  0  0  0  0  0  0  0  0  0
  152.5945  144.1569  161.0075 C   0  0  0  0  0  0  0  0  0  0  0  0
  151.7483  145.0798  160.3655 C   0  0  0  0  0  0  0  0  0  0  0  0
  151.1070  144.8125  159.2082 N   0  0  0  0  0  0  0  0  0  0  0  0
  150.3883  139.6867  155.1646 C   0  0  1  0  0  0  0  0  0  0  0  0
  150.2743  138.5692  154.1257 C   0  0  0  0  0  0  0  0  0  0  0  0
  151.6758  137.9796  154.0675 C   0  0  0  0  0  0  0  0  0  0  0  0
  152.5417  138.9997  154.8103 C   0  0  0  0  0  0  0  0  0  0  0  0
  151.7150  140.1451  154.9523 O   0  0  0  0  0  0  0  0  0  0  0  0
  147.5729  139.5991  154.8884 H   0  0  0  0  0  0  0  0  0  0  0  0
  147.2642  141.2669  155.3428 H   0  0  0  0  0  0  0  0  0  0  0  0
  147.9619  140.1514  156.5151 H   0  0  0  0  0  0  0  0  0  0  0  0
  149.3058  141.0888  153.9331 H   0  0  0  0  0  0  0  0  0  0  0  0
  149.6681  142.9006  155.3218 H   0  0  0  0  0  0  0  0  0  0  0  0
  150.3838  143.9724  156.7963 H   0  0  0  0  0  0  0  0  0  0  0  0
  152.2350  141.6530  158.7298 H   0  0  0  0  0  0  0  0  0  0  0  0
  153.4177  142.1590  160.8673 H   0  0  0  0  0  0  0  0  0  0  0  0
  153.0895  144.4092  161.9336 H   0  0  0  0  0  0  0  0  0  0  0  0
  151.5807  146.0575  160.7924 H   0  0  0  0  0  0  0  0  0  0  0  0
  150.3199  139.2652  156.1696 H   0  0  0  0  0  0  0  0  0  0  0  0
  149.5160  137.8301  154.3858 H   0  0  0  0  0  0  0  0  0  0  0  0
  150.0164  138.9850  153.1506 H   0  0  0  0  0  0  0  0  0  0  0  0
  151.7245  137.0042  154.5528 H   0  0  0  0  0  0  0  0  0  0  0  0
  152.0000  137.8573  153.0336 H   0  0  0  0  0  0  0  0  0  0  0  0
  152.8101  138.6272  155.8000 H   0  0  0  0  0  0  0  0  0  0  0  0
  153.4611  139.2396  154.2758 H   0  0  0  0  0  0  0  0  0  0  0  0
  1  2  1  0  0  0  0
  1 18  1  0  0  0  0
  1 19  1  0  0  0  0
  1 20  1  0  0  0  0
  2  3  1  0  0  0  0
  2 13  1  0  0  0  0
  2 21  1  0  0  0  0
  3  4  1  0  0  0  0
  3 22  1  0  0  0  0
  4  5  2  0  0  0  0
  4  6  1  0  0  0  0
  6  7  1  0  0  0  0
  6 23  1  0  0  0  0
  7 12  1  0  0  0  0
  7  8  2  0  0  0  0
  8  9  1  0  0  0  0
  8 24  1  0  0  0  0
  9 10  2  0  0  0  0
  9 25  1  0  0  0  0
 10 11  1  0  0  0  0
 10 26  1  0  0  0  0
 11 12  2  0  0  0  0
 11 27  1  0  0  0  0
 13 17  1  0  0  0  0
 13 14  1  0  0  0  0
 13 28  1  0  0  0  0
 14 15  1  0  0  0  0
 14 29  1  0  0  0  0
 14 30  1  0  0  0  0
 15 16  1  0  0  0  0
 15 31  1  0  0  0  0
 15 32  1  0  0  0  0
 16 17  1  0  0  0  0
 16 33  1  0  0  0  0
 16 34  1  0  0  0  0
M  END
> <s_m_source_file>
AV-unprocessed.smi

> <i_m_source_file_index>
1217

> <i_lp_mmshare_version>
43012

> <i_f3d_flags>
0

> <s_epik_input>
TzFbQ0gyXVtDSDJdW0NIMl1bQ0BIXTFbQ0BIXShbQ0gzXSlbTkhdQyg9TylbTkhdYzJbY0hdW2NIXVtjSF1bY0hdbjI=

> <s_epik_cmdline>
J2VwaWtfcHl0aG9uJywgJy1waCcsICc3LjAnLCAnLXRuJywgJzgnLCAnLW1hJywgJzIwMCcsICctbWV0YWxfYmluZGluZycsICctaW1hZScsICc8aW5maWxlLm1hZT4nLCAnLW9tYWUnLCAnPG91dGZpbGUubWFlPic=

> <r_lp_tautomer_probability>
1

> <r_epik_Ionization_Penalty>
4.51768e-05

> <r_epik_Ionization_Penalty_Charging>
0

> <r_epik_Ionization_Penalty_Neutral>
4.51768e-05

> <r_epik_State_Penalty>
-0

> <r_epik_Charging_Adjusted_Penalty>
0

> <i_epik_Tot_Q>
0

> <i_epik_Tot_abs_Q>
0

> <r_epik_Metal_State_Penalty>
-0

> <b_epik_Metal_Only>
0

> <s_lp_Force_Field>
OPLS_2005

> <r_lp_Energy>
20.7335

> <b_lp_Chiralities_Consistent>
1

> <s_lp_Variant>
AV-unprocessed.smi:1217-4

> <Gold.Version>
5.8.1

> <Gold.Id.Protein>
6NUR|6NUR_protein|mol2

> <Gold.PLP.Fitness>
45.1994

> <Gold.PLP.PLP>
-38.5448

> <Gold.PLP.part.hbond>
-3.0000

> <Gold.PLP.part.metal>
0.0000

> <Gold.PLP.part.buried>
-6.9990

> <Gold.PLP.part.nonpolar>
-29.0004

> <Gold.PLP.part.repulsive>
0.3510

> <Gold.PLP.ligand.clash>
0.0021

> <Gold.PLP.ligand.torsion>
0.6179

> <Gold.PLP.Chemscore.Hbond>
2.6240

> <Gold.PLP.Chemscore.CHOScore>
0.0000

> <Gold.PLP.Chemscore.Metal>
0.0000

> <Gold.Chemscore.Hbonds>
donor molecule, donor type, donor heavy atom, donor atom, acceptor molecule, acceptor atom, score
      L1  H     3    22       P1  8028  0.86
      L1  H     6    23       P1  8028  0.90
      P1  H  7989  7998       L1    17  0.96

> <Gold.PLP.Chemscore.Internal.Correction>
0.0205

> <Gold.Rescore>
     Score         DG    S(hbond)    S(metal)    S(lipo)     H(rot)  DE(clash)    DE(int)     intcor
     17.73     -21.23       2.79        0.00      82.45       1.25       0.00       3.50       ----

> <Gold.Chemscore.Fitness>
17.7309

> <Gold.Chemscore.DG>
-21.2326

> <Gold.Chemscore.ZeroCoef>
-5.4800

> <Gold.Chemscore.Hbond>
2.7866

> <Gold.Chemscore.Metal>
0.0000

> <Gold.Chemscore.Lipo>
82.4517

> <Gold.Chemscore.Internal_Hbond>
0.0000

> <Gold.Chemscore.DEClash>
0.0004

> <Gold.Chemscore.DEInternal>
3.5013

> <Gold.Chemscore.Rot>
1.2506

> <Gold.Chemscore.Internal.Correction>
   9.000000E+99

> <Gold.Chemscore.Hbonds>
donor molecule, donor type, donor heavy atom, donor atom, acceptor molecule, acceptor atom, score
      L1  H     3    22       P1  8028  0.82
      L1  H     6    23       P1  8028  0.84
      P1  H  7989  7998       L1    17  0.28

> <Gold.Chemscore.Hbond.Weighted>
-9.3074

> <Gold.Chemscore.Metal.Weighted>
-0.0000

> <Gold.Chemscore.Lipo.Weighted>
-9.6469

> <Gold.Chemscore.Internal_Hbond.Weighted>
0.0000

> <Gold.Chemscore.DEClash.Weighted>
0.0004

> <Gold.Chemscore.DEInternal.Weighted>
3.5013

> <Gold.Chemscore.Rot.Weighted>
3.2016

> <Gold.Chemscore.Internal.Correction.Weighted>
   9.000000E+99

> <Gold.Protein.RotatedTorsions>
[ 6907 6896 6895 6894 ] final  -10.41 input  -60.11 | X-H torsion
[ 7974 7965 7964 7962 ] final -118.39 input  175.53 | X-H torsion
[ 8008 7997 7996 7995 ] final  -18.04 input   59.86 | X-H torsion
[ 10167 10162 10161 10158 ] final -152.01 input  -65.29 | X-H torsion
[ 10718 10713 10712 10709 ] final    9.42 input   66.30 | X-H torsion
[ 10763 10752 10751 10750 ] final  170.97 input  -60.55 | X-H torsion
[ 11005 11000 10999 10996 ] final -144.09 input  -57.11 | X-H torsion

> <Gold.Protein.ActiveResidues>
 VAL166  LYS551  ARG553  GLY616  TRP617  ASP618  TYR619  PRO620  LYS621  CYS622 
 ASP623  PHE694  ASN695  SER759  ASP760  ASP761  ALA762  ILE779  LEU786  VAL792 
 PHE793  MET794  SER795  GLU796  ALA797  LYS798  CYS799  TRP800  GLU811  SER814 

> <Gold.Protein.RotatedAtoms>
  151.4024  135.0973  159.9559 H   0  0  0  0  0  0  0  0  0  0  0  0  # atno 6907 bound_to 6896
  152.5046  133.8875  159.7388 H   0  0  0  0  0  0  0  0  0  0  0  0  # atno 6908 bound_to 6896
  150.9352  133.6663  159.2830 H   0  0  0  0  0  0  0  0  0  0  0  0  # atno 6909 bound_to 6896
  145.0744  140.8381  143.4076 H   0  0  0  0  0  0  0  0  0  0  0  0  # atno 7974 bound_to 7965
  154.4935  140.2126  155.9498 H   0  0  0  0  0  0  0  0  0  0  0  0  # atno 8008 bound_to 7997
  156.1338  140.3192  155.8357 H   0  0  0  0  0  0  0  0  0  0  0  0  # atno 8009 bound_to 7997
  155.4248  140.0499  157.3014 H   0  0  0  0  0  0  0  0  0  0  0  0  # atno 8010 bound_to 7997
  139.7218  143.8945  152.2506 H   0  0  0  0  0  0  0  0  0  0  0  0  # atno 10167 bound_to 10162
  156.9660  130.5951  149.5665 H   0  0  0  0  0  0  0  0  0  0  0  0  # atno 10718 bound_to 10713
  154.4052  135.2755  155.2072 H   0  0  0  0  0  0  0  0  0  0  0  0  # atno 10763 bound_to 10752
  154.4081  135.6029  153.5940 H   0  0  0  0  0  0  0  0  0  0  0  0  # atno 10764 bound_to 10752
  152.9831  135.5943  154.4325 H   0  0  0  0  0  0  0  0  0  0  0  0  # atno 10765 bound_to 10752
  140.8060  134.2801  157.4960 H   0  0  0  0  0  0  0  0  0  0  0  0  # atno 11005 bound_to 11000
  145.1254  139.2666  143.5567 LP  0  0  0  0  0  0  0  0  0  0  0  0  # atno 17320 bound_to 7965
  146.3529  140.0890  142.8613 LP  0  0  0  0  0  0  0  0  0  0  0  0  # atno 17321 bound_to 7965
  139.8843  144.7000  150.8842 LP  0  0  0  0  0  0  0  0  0  0  0  0  # atno 17342 bound_to 10162
  140.7755  143.3636  151.1781 LP  0  0  0  0  0  0  0  0  0  0  0  0  # atno 17343 bound_to 10162
  156.0302  130.5394  150.8514 LP  0  0  0  0  0  0  0  0  0  0  0  0  # atno 17370 bound_to 10713
  157.5625  131.0946  150.9538 LP  0  0  0  0  0  0  0  0  0  0  0  0  # atno 17371 bound_to 10713
  139.8718  134.9456  156.3915 LP  0  0  0  0  0  0  0  0  0  0  0  0  # atno 17394 bound_to 11000
  140.9247  133.7621  155.9949 LP  0  0  0  0  0  0  0  0  0  0  0  0  # atno 17395 bound_to 11000

$$$$
