AV-unprocessed.smi:3341|AV-procd|sdf|12883|dock10
  -GOLD-   2272019283D 1   1.00000     0.00000
 Structure written by MMmdl.
 46 47  0  0  0  0  0  0  0  0  2 V2000
  152.3398  142.1325  158.8123 C   0  0  0  0  0  0  0  0  0  0  0  0
  151.4153  142.6842  157.7205 C   0  0  0  0  0  0  0  0  0  0  0  0
  151.1397  141.6936  156.6981 N   0  0  0  0  0  0  0  0  0  0  0  0
  150.1413  141.7059  155.7443 C   0  0  0  0  0  0  0  0  0  0  0  0
  150.3056  140.5569  155.0230 C   0  0  0  0  0  0  0  0  0  0  0  0
  149.5520  140.0667  153.9266 N   0  0  0  0  0  0  0  0  0  0  0  0
  148.3056  139.5673  153.9525 C   0  0  0  0  0  0  0  0  0  0  0  0
  147.5981  139.4766  154.9561 O   0  0  0  0  0  0  0  0  0  0  0  0
  147.9106  139.1745  152.7333 N   0  0  0  0  0  0  0  0  0  0  0  0
  146.6162  138.5751  152.4292 C   0  0  0  0  0  0  0  0  0  0  0  0
  146.2852  137.4219  153.3962 C   0  0  0  0  0  0  0  0  0  0  0  0
  146.4771  136.0865  152.7756 N   0  3  1  0  0  0  0  0  0  0  0  0
  146.7926  135.0421  153.7846 C   0  0  0  0  0  0  0  0  0  0  0  0
  147.1230  133.7007  153.1110 C   0  0  0  0  0  0  0  0  0  0  0  0
  145.9760  133.2472  152.1997 C   0  0  0  0  0  0  0  0  0  0  0  0
  145.6421  134.3466  151.1778 C   0  0  1  0  0  0  0  0  0  0  0  0
  144.4793  133.9301  150.2659 C   0  0  0  0  0  0  0  0  0  0  0  0
  145.3453  135.6762  151.9007 C   0  0  0  0  0  0  0  0  0  0  0  0
  151.4232  139.8964  155.5966 C   0  0  0  0  0  0  0  0  0  0  0  0
  151.9223  140.5899  156.6083 N   0  0  0  0  0  0  0  0  0  0  0  0
  152.5418  142.8912  159.5685 H   0  0  0  0  0  0  0  0  0  0  0  0
  153.2960  141.8150  158.3950 H   0  0  0  0  0  0  0  0  0  0  0  0
  151.8914  141.2741  159.3140 H   0  0  0  0  0  0  0  0  0  0  0  0
  150.4703  143.0146  158.1537 H   0  0  0  0  0  0  0  0  0  0  0  0
  151.8693  143.5563  157.2483 H   0  0  0  0  0  0  0  0  0  0  0  0
  149.4264  142.5124  155.6728 H   0  0  0  0  0  0  0  0  0  0  0  0
  150.0159  140.0904  153.0303 H   0  0  0  0  0  0  0  0  0  0  0  0
  148.5562  139.2850  151.9647 H   0  0  0  0  0  0  0  0  0  0  0  0
  145.8724  139.3676  152.4976 H   0  0  0  0  0  0  0  0  0  0  0  0
  146.6022  138.2239  151.3958 H   0  0  0  0  0  0  0  0  0  0  0  0
  146.9417  137.5046  154.2635 H   0  0  0  0  0  0  0  0  0  0  0  0
  145.2657  137.5120  153.7744 H   0  0  0  0  0  0  0  0  0  0  0  0
  147.6454  135.3553  154.3884 H   0  0  0  0  0  0  0  0  0  0  0  0
  145.9474  134.9247  154.4650 H   0  0  0  0  0  0  0  0  0  0  0  0
  148.0393  133.7986  152.5272 H   0  0  0  0  0  0  0  0  0  0  0  0
  147.3190  132.9416  153.8689 H   0  0  0  0  0  0  0  0  0  0  0  0
  146.2514  132.3241  151.6883 H   0  0  0  0  0  0  0  0  0  0  0  0
  145.0963  133.0191  152.8033 H   0  0  0  0  0  0  0  0  0  0  0  0
  146.5179  134.4961  150.5443 H   0  0  0  0  0  0  0  0  0  0  0  0
  143.5653  133.7643  150.8372 H   0  0  0  0  0  0  0  0  0  0  0  0
  144.7101  133.0074  149.7326 H   0  0  0  0  0  0  0  0  0  0  0  0
  144.2705  134.6970  149.5194 H   0  0  0  0  0  0  0  0  0  0  0  0
  144.4378  135.5859  152.5002 H   0  0  0  0  0  0  0  0  0  0  0  0
  145.1523  136.4454  151.1537 H   0  0  0  0  0  0  0  0  0  0  0  0
  151.8792  138.9574  155.3197 H   0  0  0  0  0  0  0  0  0  0  0  0
  147.2940  136.1612  152.1862 H   0  0  0  0  0  0  0  0  0  0  0  0
  1  2  1  0  0  0  0
  1 21  1  0  0  0  0
  1 22  1  0  0  0  0
  1 23  1  0  0  0  0
  2  3  1  0  0  0  0
  2 24  1  0  0  0  0
  2 25  1  0  0  0  0
  3 20  1  0  0  0  0
  3  4  1  0  0  0  0
  4  5  2  0  0  0  0
  4 26  1  0  0  0  0
  5  6  1  0  0  0  0
  5 19  1  0  0  0  0
  6  7  1  0  0  0  0
  6 27  1  0  0  0  0
  7  8  2  0  0  0  0
  7  9  1  0  0  0  0
  9 10  1  0  0  0  0
  9 28  1  0  0  0  0
 10 11  1  0  0  0  0
 10 29  1  0  0  0  0
 10 30  1  0  0  0  0
 11 12  1  0  0  0  0
 11 31  1  0  0  0  0
 11 32  1  0  0  0  0
 12 18  1  0  0  0  0
 12 13  1  0  0  0  0
 12 46  1  0  0  0  0
 13 14  1  0  0  0  0
 13 33  1  0  0  0  0
 13 34  1  0  0  0  0
 14 15  1  0  0  0  0
 14 35  1  0  0  0  0
 14 36  1  0  0  0  0
 15 16  1  0  0  0  0
 15 37  1  0  0  0  0
 15 38  1  0  0  0  0
 16 17  1  0  0  0  0
 16 18  1  0  0  0  0
 16 39  1  0  0  0  0
 17 40  1  0  0  0  0
 17 41  1  0  0  0  0
 17 42  1  0  0  0  0
 18 43  1  0  0  0  0
 18 44  1  0  0  0  0
 19 20  2  0  0  0  0
 19 45  1  0  0  0  0
M  CHG  1  12   1
M  END
> <s_m_source_file>
AV-unprocessed.smi

> <i_m_source_file_index>
3341

> <i_lp_mmshare_version>
43012

> <i_f3d_flags>
0

> <s_epik_input>
W0NIM11bQ0gyXW4xW2NIXWMoW2NIXW4xKVtOSF1DKD1PKVtOSF1bQ0gyXVtDSDJdTjJbQ0gyXVtDSDJdW0NIMl1bQ0BASF0oW0NIM10pW0NIMl0y

> <s_epik_cmdline>
J2VwaWtfcHl0aG9uJywgJy1waCcsICc3LjAnLCAnLXRuJywgJzgnLCAnLW1hJywgJzIwMCcsICctbWV0YWxfYmluZGluZycsICctaW1hZScsICc8aW5maWxlLm1hZT4nLCAnLW9tYWUnLCAnPG91dGZpbGUubWFlPic=

> <r_lp_tautomer_probability>
1

> <r_epik_Ionization_Penalty>
0.00203389

> <r_epik_Ionization_Penalty_Charging>
0.00188267

> <r_epik_Ionization_Penalty_Neutral>
0.000151224

> <r_epik_State_Penalty>
0.0012808

> <r_epik_Charging_Adjusted_Penalty>
0.00316346

> <i_epik_Tot_Q>
1

> <i_epik_Tot_abs_Q>
1

> <r_epik_Metal_State_Penalty>
-0

> <b_epik_Metal_Only>
0

> <s_lp_Force_Field>
OPLS_2005

> <r_lp_Energy>
20.2182

> <b_lp_Chiralities_Consistent>
1

> <s_lp_Variant>
AV-unprocessed.smi:3341-1

> <Gold.Version>
5.8.1

> <Gold.Id.Protein>
6NUR|6NUR_protein|mol2

> <Gold.PLP.Fitness>
46.6907

> <Gold.PLP.PLP>
-34.3289

> <Gold.PLP.part.hbond>
-3.8023

> <Gold.PLP.part.metal>
0.0000

> <Gold.PLP.part.buried>
-1.8485

> <Gold.PLP.part.nonpolar>
-27.8718

> <Gold.PLP.part.repulsive>
0.4474

> <Gold.PLP.ligand.clash>
0.0000

> <Gold.PLP.ligand.torsion>
1.4958

> <Gold.PLP.Chemscore.Hbond>
4.1090

> <Gold.PLP.Chemscore.CHOScore>
1.0000

> <Gold.PLP.Chemscore.Metal>
0.0000

> <Gold.Chemscore.Hbonds>
donor molecule, donor type, donor heavy atom, donor atom, acceptor molecule, acceptor atom, score
      L1  H     6    27       P1  7957  0.82
      L1  H     9    28       P1  7957  0.93
      L1  H    12    46       P1  7948  2.00
      L1  C     4    26       P1  8028  1.00

> <Gold.PLP.Chemscore.Internal.Correction>
0.0263

> <Gold.Rescore>
     Score         DG    S(hbond)    S(metal)    S(lipo)     H(rot)  DE(clash)    DE(int)     intcor
     17.36     -20.04       2.80        0.00      79.38       1.59       0.02       2.66       ----

> <Gold.Chemscore.Fitness>
17.3599

> <Gold.Chemscore.DG>
-20.0406

> <Gold.Chemscore.ZeroCoef>
-5.4800

> <Gold.Chemscore.Hbond>
2.7981

> <Gold.Chemscore.Metal>
0.0000

> <Gold.Chemscore.Lipo>
79.3838

> <Gold.Chemscore.Internal_Hbond>
0.0000

> <Gold.Chemscore.DEClash>
0.0176

> <Gold.Chemscore.DEInternal>
2.6631

> <Gold.Chemscore.Rot>
1.5909

> <Gold.Chemscore.Internal.Correction>
   9.000000E+99

> <Gold.Chemscore.Hbonds>
donor molecule, donor type, donor heavy atom, donor atom, acceptor molecule, acceptor atom, score
      L1  H     6    27       P1  7957  0.81
      L1  H     9    28       P1  7957  0.87
      L1  H    12    46       P1  7948  0.99
      P1  H  7997  8008       L1    20  0.02

> <Gold.Chemscore.Hbond.Weighted>
-9.3455

> <Gold.Chemscore.Metal.Weighted>
-0.0000

> <Gold.Chemscore.Lipo.Weighted>
-9.2879

> <Gold.Chemscore.Internal_Hbond.Weighted>
0.0000

> <Gold.Chemscore.DEClash.Weighted>
0.0176

> <Gold.Chemscore.DEInternal.Weighted>
2.6631

> <Gold.Chemscore.Rot.Weighted>
4.0728

> <Gold.Chemscore.Internal.Correction.Weighted>
   9.000000E+99

> <Gold.Protein.RotatedTorsions>
[ 6907 6896 6895 6894 ] final -103.84 input  -60.11 | X-H torsion
[ 7974 7965 7964 7962 ] final  -77.35 input  175.53 | X-H torsion
[ 8008 7997 7996 7995 ] final  -52.15 input   59.86 | X-H torsion
[ 10167 10162 10161 10158 ] final  136.14 input  -65.29 | X-H torsion
[ 10718 10713 10712 10709 ] final  174.12 input   66.30 | X-H torsion
[ 10763 10752 10751 10750 ] final -161.37 input  -60.55 | X-H torsion
[ 11005 11000 10999 10996 ] final   97.74 input  -57.11 | X-H torsion

> <Gold.Protein.ActiveResidues>
 VAL166  LYS551  ARG553  GLY616  TRP617  ASP618  TYR619  PRO620  LYS621  CYS622 
 ASP623  PHE694  ASN695  SER759  ASP760  ASP761  ALA762  ILE779  LEU786  VAL792 
 PHE793  MET794  SER795  GLU796  ALA797  LYS798  CYS799  TRP800  GLU811  SER814 

> <Gold.Protein.RotatedAtoms>
  150.7259  134.0368  159.3751 H   0  0  0  0  0  0  0  0  0  0  0  0  # atno 6907 bound_to 6896
  151.8340  135.0610  160.0449 H   0  0  0  0  0  0  0  0  0  0  0  0  # atno 6908 bound_to 6896
  152.2912  133.5527  159.5595 H   0  0  0  0  0  0  0  0  0  0  0  0  # atno 6909 bound_to 6896
  145.6008  140.9409  143.1242 H   0  0  0  0  0  0  0  0  0  0  0  0  # atno 7974 bound_to 7965
  154.4099  140.1231  156.4944 H   0  0  0  0  0  0  0  0  0  0  0  0  # atno 8008 bound_to 7997
  155.6957  140.3495  155.4892 H   0  0  0  0  0  0  0  0  0  0  0  0  # atno 8009 bound_to 7997
  155.9429  140.1090  157.1030 H   0  0  0  0  0  0  0  0  0  0  0  0  # atno 8010 bound_to 7997
  139.5191  144.6480  151.5383 H   0  0  0  0  0  0  0  0  0  0  0  0  # atno 10167 bound_to 10162
  156.9543  131.0041  151.2942 H   0  0  0  0  0  0  0  0  0  0  0  0  # atno 10718 bound_to 10713
  154.7309  135.3046  154.8893 H   0  0  0  0  0  0  0  0  0  0  0  0  # atno 10763 bound_to 10752
  153.9736  135.6739  153.4752 H   0  0  0  0  0  0  0  0  0  0  0  0  # atno 10764 bound_to 10752
  153.0917  135.4956  154.8624 H   0  0  0  0  0  0  0  0  0  0  0  0  # atno 10765 bound_to 10752
  139.8775  134.9015  156.4352 H   0  0  0  0  0  0  0  0  0  0  0  0  # atno 11005 bound_to 11000
  144.7311  139.7724  143.7347 LP  0  0  0  0  0  0  0  0  0  0  0  0  # atno 17320 bound_to 7965
  146.1577  139.4681  143.0008 LP  0  0  0  0  0  0  0  0  0  0  0  0  # atno 17321 bound_to 7965
  140.6273  143.9143  150.6575 LP  0  0  0  0  0  0  0  0  0  0  0  0  # atno 17342 bound_to 10162
  140.2436  143.3645  152.1465 LP  0  0  0  0  0  0  0  0  0  0  0  0  # atno 17343 bound_to 10162
  157.5701  130.8304  149.8380 LP  0  0  0  0  0  0  0  0  0  0  0  0  # atno 17370 bound_to 10713
  156.0349  130.3754  150.1586 LP  0  0  0  0  0  0  0  0  0  0  0  0  # atno 17371 bound_to 10713
  140.9038  133.7760  155.9711 LP  0  0  0  0  0  0  0  0  0  0  0  0  # atno 17394 bound_to 11000
  140.8621  134.2828  157.5229 LP  0  0  0  0  0  0  0  0  0  0  0  0  # atno 17395 bound_to 11000

$$$$
