AV-unprocessed.smi:255|AV-procd|sdf|1952|dock1
  -GOLD-   2262021 93D 1   1.00000     0.00000
 Structure written by MMmdl.
 44 47  0  0  0  0  0  0  0  0  1 V2000
  146.4196  137.2646  150.8308 O   0  0  0  0  0  0  0  0  0  0  0  0
  145.6526  136.8600  151.9440 C   0  0  0  0  0  0  0  0  0  0  0  0
  144.7359  135.6791  151.5556 C   0  0  1  0  0  0  0  0  0  0  0  0
  145.3037  134.7468  150.4839 C   0  0  0  0  0  0  0  0  0  0  0  0
  144.4032  133.5157  150.6047 C   0  0  1  0  0  0  0  0  0  0  0  0
  145.0984  132.3913  150.4326 F   0  0  0  0  0  0  0  0  0  0  0  0
  143.7868  133.6014  152.0124 C   0  0  0  0  0  0  0  0  0  0  0  0
  144.3385  134.7946  152.6535 N   0  0  0  0  0  0  0  0  0  0  0  0
  145.2689  134.5644  153.6148 C   0  0  0  0  0  0  0  0  0  0  0  0
  145.0339  134.9141  154.9081 N   0  0  0  0  0  0  0  0  0  0  0  0
  145.9418  134.6451  155.8506 C   0  0  0  0  0  0  0  0  0  0  0  0
  147.1260  134.0434  155.7212 N   0  0  0  0  0  0  0  0  0  0  0  0
  147.3692  133.6988  154.4238 C   0  0  0  0  0  0  0  0  0  0  0  0
  146.4990  133.9184  153.3198 C   0  0  0  0  0  0  0  0  0  0  0  0
  147.0678  133.4169  152.1568 N   0  0  0  0  0  0  0  0  0  0  0  0
  148.2082  132.9207  152.5526 C   0  0  0  0  0  0  0  0  0  0  0  0
  148.4808  133.0633  153.8956 N   0  0  0  0  0  0  0  0  0  0  0  0
  149.6641  132.5915  154.6018 C   0  0  0  0  0  0  0  0  0  0  0  0
  149.6587  131.0850  154.9705 C   0  0  1  0  0  0  0  0  0  0  0  0
  148.7271  130.9323  156.0262 O   0  0  0  0  0  0  0  0  0  0  0  0
  149.2463  130.1383  153.8432 C   0  0  0  0  0  0  0  0  0  0  0  0
  150.0013  128.8593  154.1785 C   0  0  0  0  0  0  0  0  0  0  0  0
  151.2501  129.3537  154.6282 O   0  0  0  0  0  0  0  0  0  0  0  0
  151.0106  130.5001  155.4371 C   0  0  0  0  0  0  0  0  0  0  0  0
  143.8059  136.1046  151.1746 H   0  0  0  0  0  0  0  0  0  0  0  0
  143.6187  133.5297  149.8476 H   0  0  0  0  0  0  0  0  0  0  0  0
  147.3087  136.9695  150.9560 H   0  0  0  0  0  0  0  0  0  0  0  0
  146.3274  136.5949  152.7589 H   0  0  0  0  0  0  0  0  0  0  0  0
  145.0580  137.7128  152.2728 H   0  0  0  0  0  0  0  0  0  0  0  0
  145.2861  135.1849  149.4857 H   0  0  0  0  0  0  0  0  0  0  0  0
  146.3371  134.4872  150.7185 H   0  0  0  0  0  0  0  0  0  0  0  0
  142.7048  133.7154  151.9422 H   0  0  0  0  0  0  0  0  0  0  0  0
  143.9695  132.6929  152.5885 H   0  0  0  0  0  0  0  0  0  0  0  0
  145.6800  134.9529  156.8522 H   0  0  0  0  0  0  0  0  0  0  0  0
  148.8863  132.4317  151.8686 H   0  0  0  0  0  0  0  0  0  0  0  0
  150.5344  132.8166  153.9836 H   0  0  0  0  0  0  0  0  0  0  0  0
  149.7748  133.1931  155.5050 H   0  0  0  0  0  0  0  0  0  0  0  0
  148.2245  130.1473  155.8706 H   0  0  0  0  0  0  0  0  0  0  0  0
  148.1684  129.9914  153.7638 H   0  0  0  0  0  0  0  0  0  0  0  0
  149.5997  130.4928  152.8771 H   0  0  0  0  0  0  0  0  0  0  0  0
  149.5092  128.3080  154.9813 H   0  0  0  0  0  0  0  0  0  0  0  0
  150.1148  128.1969  153.3202 H   0  0  0  0  0  0  0  0  0  0  0  0
  151.8434  131.1905  155.3277 H   0  0  0  0  0  0  0  0  0  0  0  0
  150.9838  130.1993  156.4856 H   0  0  0  0  0  0  0  0  0  0  0  0
  1  2  1  0  0  0  0
  1 27  1  0  0  0  0
  2  3  1  0  0  0  0
  2 28  1  0  0  0  0
  2 29  1  0  0  0  0
  3 25  1  0  0  0  0
  3  8  1  0  0  0  0
  3  4  1  0  0  0  0
  4  5  1  0  0  0  0
  4 30  1  0  0  0  0
  4 31  1  0  0  0  0
  5 26  1  0  0  0  0
  5  6  1  0  0  0  0
  5  7  1  0  0  0  0
  7  8  1  0  0  0  0
  7 32  1  0  0  0  0
  7 33  1  0  0  0  0
  8  9  1  0  0  0  0
  9 14  1  0  0  0  0
  9 10  2  0  0  0  0
 10 11  1  0  0  0  0
 11 12  2  0  0  0  0
 11 34  1  0  0  0  0
 12 13  1  0  0  0  0
 13 17  1  0  0  0  0
 13 14  2  0  0  0  0
 14 15  1  0  0  0  0
 15 16  2  0  0  0  0
 16 17  1  0  0  0  0
 16 35  1  0  0  0  0
 17 18  1  0  0  0  0
 18 19  1  0  0  0  0
 18 36  1  0  0  0  0
 18 37  1  0  0  0  0
 19 24  1  0  0  0  0
 19 20  1  0  0  0  0
 19 21  1  0  0  0  0
 20 38  1  0  0  0  0
 21 22  1  0  0  0  0
 21 39  1  0  0  0  0
 21 40  1  0  0  0  0
 22 23  1  0  0  0  0
 22 41  1  0  0  0  0
 22 42  1  0  0  0  0
 23 24  1  0  0  0  0
 24 43  1  0  0  0  0
 24 44  1  0  0  0  0
M  END
> <s_m_source_file>
AV-unprocessed.smi

> <i_m_source_file_index>
255

> <i_lp_mmshare_version>
43012

> <i_f3d_flags>
0

> <s_epik_input>
W09IXVtDSDJdW0NAQEhdMVtDSDJdW0NASF0oRilbQ0gyXU4xYyhuW2NIXW4yKWMoYzIzKW5bY0hdbjNbQ0gyXVtDQEBdNChbT0hdKVtDSDJdW0NIMl1PW0NIMl00

> <s_epik_cmdline>
J2VwaWtfcHl0aG9uJywgJy1waCcsICc3LjAnLCAnLXRuJywgJzgnLCAnLW1hJywgJzIwMCcsICctbWV0YWxfYmluZGluZycsICctaW1hZScsICc8aW5maWxlLm1hZT4nLCAnLW9tYWUnLCAnPG91dGZpbGUubWFlPic=

> <r_lp_tautomer_probability>
1

> <r_epik_Ionization_Penalty>
0.0058098

> <r_epik_Ionization_Penalty_Charging>
0

> <r_epik_Ionization_Penalty_Neutral>
0.0058098

> <r_epik_State_Penalty>
0.00411166

> <r_epik_Charging_Adjusted_Penalty>
0.00411166

> <i_epik_Tot_Q>
0

> <i_epik_Tot_abs_Q>
0

> <r_epik_Metal_State_Penalty>
-0

> <b_epik_Metal_Only>
0

> <s_lp_Force_Field>
OPLS_2005

> <r_lp_Energy>
52.3077

> <b_lp_Chiralities_Consistent>
1

> <s_lp_Variant>
AV-unprocessed.smi:255-4

> <Gold.Version>
5.8.1

> <Gold.Id.Protein>
6NUR|6NUR_protein|mol2

> <Gold.PLP.Fitness>
40.8422

> <Gold.PLP.PLP>
-36.2422

> <Gold.PLP.part.hbond>
-2.9037

> <Gold.PLP.part.metal>
0.0000

> <Gold.PLP.part.buried>
-4.2300

> <Gold.PLP.part.nonpolar>
-29.9065

> <Gold.PLP.part.repulsive>
0.4066

> <Gold.PLP.ligand.clash>
0.0000

> <Gold.PLP.ligand.torsion>
0.7554

> <Gold.PLP.Chemscore.Hbond>
1.0000

> <Gold.PLP.Chemscore.CHOScore>
1.0000

> <Gold.PLP.Chemscore.Metal>
0.0000

> <Gold.Chemscore.Hbonds>
donor molecule, donor type, donor heavy atom, donor atom, acceptor molecule, acceptor atom, score
      L1  H     1    27       P1  7948  1.00
      L1  C    16    35       P1 10747  1.00

> <Gold.PLP.Chemscore.Internal.Correction>
0.1107

> <Gold.Rescore>
     Score         DG    S(hbond)    S(metal)    S(lipo)     H(rot)  DE(clash)    DE(int)     intcor
      3.62      -7.20       1.00        0.00      58.95       3.33       0.25       3.33       ----

> <Gold.Chemscore.Fitness>
3.6199

> <Gold.Chemscore.DG>
-7.1961

> <Gold.Chemscore.ZeroCoef>
-5.4800

> <Gold.Chemscore.Hbond>
0.9992

> <Gold.Chemscore.Metal>
0.0000

> <Gold.Chemscore.Lipo>
58.9451

> <Gold.Chemscore.Internal_Hbond>
0.0000

> <Gold.Chemscore.DEClash>
0.2489

> <Gold.Chemscore.DEInternal>
3.3272

> <Gold.Chemscore.Rot>
3.3273

> <Gold.Chemscore.Internal.Correction>
   9.000000E+99

> <Gold.Chemscore.Hbonds>
donor molecule, donor type, donor heavy atom, donor atom, acceptor molecule, acceptor atom, score
      L1  H     1    27       P1  7948  0.98

> <Gold.Chemscore.Hbond.Weighted>
-3.3374

> <Gold.Chemscore.Metal.Weighted>
-0.0000

> <Gold.Chemscore.Lipo.Weighted>
-6.8966

> <Gold.Chemscore.Internal_Hbond.Weighted>
0.0000

> <Gold.Chemscore.DEClash.Weighted>
0.2489

> <Gold.Chemscore.DEInternal.Weighted>
3.3272

> <Gold.Chemscore.Rot.Weighted>
8.5179

> <Gold.Chemscore.Internal.Correction.Weighted>
   9.000000E+99

> <Gold.Protein.RotatedTorsions>
[ 6907 6896 6895 6894 ] final   31.56 input  -60.11 | X-H torsion
[ 7974 7965 7964 7962 ] final  124.51 input  175.53 | X-H torsion
[ 8008 7997 7996 7995 ] final  -60.64 input   59.86 | X-H torsion
[ 10167 10162 10161 10158 ] final   61.40 input  -65.29 | X-H torsion
[ 10718 10713 10712 10709 ] final   86.42 input   66.30 | X-H torsion
[ 10763 10752 10751 10750 ] final  177.02 input  -60.55 | X-H torsion
[ 11005 11000 10999 10996 ] final  -93.92 input  -57.11 | X-H torsion

> <Gold.Protein.ActiveResidues>
 VAL166  LYS551  ARG553  GLY616  TRP617  ASP618  TYR619  PRO620  LYS621  CYS622 
 ASP623  PHE694  ASN695  SER759  ASP760  ASP761  ALA762  ILE779  LEU786  VAL792 
 PHE793  MET794  SER795  GLU796  ALA797  LYS798  CYS799  TRP800  GLU811  SER814 

> <Gold.Protein.RotatedAtoms>
  152.0619  134.9588  160.0574 H   0  0  0  0  0  0  0  0  0  0  0  0  # atno 6907 bound_to 6896
  152.0948  133.4214  159.4568 H   0  0  0  0  0  0  0  0  0  0  0  0  # atno 6908 bound_to 6896
  150.6837  134.2749  159.4646 H   0  0  0  0  0  0  0  0  0  0  0  0  # atno 6909 bound_to 6896
  145.0836  139.3639  143.4896 H   0  0  0  0  0  0  0  0  0  0  0  0  # atno 7974 bound_to 7965
  154.4408  140.1035  156.6305 H   0  0  0  0  0  0  0  0  0  0  0  0  # atno 8008 bound_to 7997
  155.5609  140.3487  155.4472 H   0  0  0  0  0  0  0  0  0  0  0  0  # atno 8009 bound_to 7997
  156.0460  140.1293  157.0092 H   0  0  0  0  0  0  0  0  0  0  0  0  # atno 8010 bound_to 7997
  140.1551  144.4425  150.6738 H   0  0  0  0  0  0  0  0  0  0  0  0  # atno 10167 bound_to 10162
  157.6928  131.0215  150.2970 H   0  0  0  0  0  0  0  0  0  0  0  0  # atno 10718 bound_to 10713
  154.4890  135.2778  155.1512 H   0  0  0  0  0  0  0  0  0  0  0  0  # atno 10763 bound_to 10752
  154.3191  135.6213  153.5503 H   0  0  0  0  0  0  0  0  0  0  0  0  # atno 10764 bound_to 10752
  152.9885  135.5738  154.5307 H   0  0  0  0  0  0  0  0  0  0  0  0  # atno 10765 bound_to 10752
  141.1484  133.7920  157.0226 H   0  0  0  0  0  0  0  0  0  0  0  0  # atno 11005 bound_to 11000
  146.3531  140.0638  142.8627 LP  0  0  0  0  0  0  0  0  0  0  0  0  # atno 17320 bound_to 7965
  145.1149  140.9427  143.4635 LP  0  0  0  0  0  0  0  0  0  0  0  0  # atno 17321 bound_to 7965
  140.6678  143.2274  151.5700 LP  0  0  0  0  0  0  0  0  0  0  0  0  # atno 17342 bound_to 10162
  139.5407  144.2655  152.1345 LP  0  0  0  0  0  0  0  0  0  0  0  0  # atno 17343 bound_to 10162
  156.3492  130.3828  149.7343 LP  0  0  0  0  0  0  0  0  0  0  0  0  # atno 17370 bound_to 10713
  156.4827  130.8048  151.3062 LP  0  0  0  0  0  0  0  0  0  0  0  0  # atno 17371 bound_to 10713
  140.0806  134.9650  157.1618 LP  0  0  0  0  0  0  0  0  0  0  0  0  # atno 17394 bound_to 11000
  140.3582  134.2523  155.7190 LP  0  0  0  0  0  0  0  0  0  0  0  0  # atno 17395 bound_to 11000

$$$$
