AV-unprocessed.smi:1809|AV-procd|sdf|7312|dock4
  -GOLD-   22720 8573D 1   1.00000     0.00000
 Structure written by MMmdl.
 40 42  0  0  0  0  0  0  0  0  2 V2000
  151.0017  142.1018  156.2794 C   0  0  0  0  0  0  0  0  0  0  0  0
  150.4784  140.9101  155.5527 C   0  0  0  0  0  0  0  0  0  0  0  0
  151.2642  140.0892  154.8442 N   0  0  0  0  0  0  0  0  0  0  0  0
  150.5520  139.0523  154.2562 N   0  0  0  0  0  0  0  0  0  0  0  0
  149.2479  139.1200  154.5375 C   0  0  0  0  0  0  0  0  0  0  0  0
  148.3965  138.1248  153.9957 N   0  0  0  0  0  0  0  0  0  0  0  0
  147.1021  137.9031  154.2756 C   0  0  0  0  0  0  0  0  0  0  0  0
  146.4338  138.5235  155.1024 O   0  0  0  0  0  0  0  0  0  0  0  0
  146.6095  136.9004  153.5347 N   0  0  0  0  0  0  0  0  0  0  0  0
  145.2296  136.4290  153.5785 C   0  0  0  0  0  0  0  0  0  0  0  0
  145.1384  134.8983  153.4511 C   0  0  1  0  0  0  0  0  0  0  0  0
  144.0366  134.4756  152.4666 C   0  0  0  0  0  0  0  0  0  0  0  0
  143.9815  133.0003  152.3080 N   0  3  1  0  0  0  0  0  0  0  0  0
  143.1419  132.5931  151.1580 C   0  0  0  0  0  0  0  0  0  0  0  0
  144.1027  132.2691  149.9986 C   0  0  0  0  0  0  0  0  0  0  0  0
  145.5123  132.4891  150.5569 C   0  0  0  0  0  0  0  0  0  0  0  0
  145.3089  132.3923  152.0680 C   0  0  1  0  0  0  0  0  0  0  0  0
  146.4277  132.9960  152.9417 C   0  0  0  0  0  0  0  0  0  0  0  0
  146.3747  134.4153  152.9410 O   0  0  0  0  0  0  0  0  0  0  0  0
  148.7736  140.4763  155.5605 S   0  0  0  0  0  0  0  0  0  0  0  0
  152.0915  142.1268  156.2438 H   0  0  0  0  0  0  0  0  0  0  0  0
  150.6879  142.0701  157.3228 H   0  0  0  0  0  0  0  0  0  0  0  0
  150.6165  143.0144  155.8243 H   0  0  0  0  0  0  0  0  0  0  0  0
  148.8185  137.5261  153.3012 H   0  0  0  0  0  0  0  0  0  0  0  0
  147.2282  136.4389  152.8835 H   0  0  0  0  0  0  0  0  0  0  0  0
  144.7619  136.7598  154.5075 H   0  0  0  0  0  0  0  0  0  0  0  0
  144.6775  136.9069  152.7687 H   0  0  0  0  0  0  0  0  0  0  0  0
  144.9402  134.4630  154.4326 H   0  0  0  0  0  0  0  0  0  0  0  0
  143.0649  134.8307  152.8114 H   0  0  0  0  0  0  0  0  0  0  0  0
  144.2195  134.9444  151.4978 H   0  0  0  0  0  0  0  0  0  0  0  0
  142.5852  131.6974  151.4358 H   0  0  0  0  0  0  0  0  0  0  0  0
  142.4095  133.3554  150.8876 H   0  0  0  0  0  0  0  0  0  0  0  0
  143.9733  131.2323  149.6861 H   0  0  0  0  0  0  0  0  0  0  0  0
  143.9190  132.8995  149.1280 H   0  0  0  0  0  0  0  0  0  0  0  0
  146.2331  131.7625  150.1808 H   0  0  0  0  0  0  0  0  0  0  0  0
  145.8683  133.4840  150.2857 H   0  0  0  0  0  0  0  0  0  0  0  0
  145.2238  131.3324  152.3152 H   0  0  0  0  0  0  0  0  0  0  0  0
  146.3427  132.6343  153.9676 H   0  0  0  0  0  0  0  0  0  0  0  0
  147.4045  132.6734  152.5804 H   0  0  0  0  0  0  0  0  0  0  0  0
  143.5964  132.6184  153.1604 H   0  0  0  0  0  0  0  0  0  0  0  0
  1  2  1  0  0  0  0
  1 21  1  0  0  0  0
  1 22  1  0  0  0  0
  1 23  1  0  0  0  0
  2 20  1  0  0  0  0
  2  3  2  0  0  0  0
  3  4  1  0  0  0  0
  4  5  2  0  0  0  0
  5  6  1  0  0  0  0
  5 20  1  0  0  0  0
  6  7  1  0  0  0  0
  6 24  1  0  0  0  0
  7  8  2  0  0  0  0
  7  9  1  0  0  0  0
  9 10  1  0  0  0  0
  9 25  1  0  0  0  0
 10 11  1  0  0  0  0
 10 26  1  0  0  0  0
 10 27  1  0  0  0  0
 11 19  1  0  0  0  0
 11 12  1  0  0  0  0
 11 28  1  0  0  0  0
 12 13  1  0  0  0  0
 12 29  1  0  0  0  0
 12 30  1  0  0  0  0
 13 17  1  0  0  0  0
 13 14  1  0  0  0  0
 13 40  1  0  0  0  0
 14 15  1  0  0  0  0
 14 31  1  0  0  0  0
 14 32  1  0  0  0  0
 15 16  1  0  0  0  0
 15 33  1  0  0  0  0
 15 34  1  0  0  0  0
 16 17  1  0  0  0  0
 16 35  1  0  0  0  0
 16 36  1  0  0  0  0
 17 18  1  0  0  0  0
 17 37  1  0  0  0  0
 18 19  1  0  0  0  0
 18 38  1  0  0  0  0
 18 39  1  0  0  0  0
M  CHG  1  13   1
M  END
> <s_m_source_file>
AV-unprocessed.smi

> <i_m_source_file_index>
1809

> <i_lp_mmshare_version>
43012

> <i_f3d_flags>
0

> <s_epik_input>
W0NIM11jMW5uYyhzMSlbTkhdQyg9TylbTkhdW0NIMl1bQ0BIXShbQ0gyXTIpT1tDSDJdW0NAQEhdKE4yMylbQ0gyXVtDSDJdW0NIMl0z

> <s_epik_cmdline>
J2VwaWtfcHl0aG9uJywgJy1waCcsICc3LjAnLCAnLXRuJywgJzgnLCAnLW1hJywgJzIwMCcsICctbWV0YWxfYmluZGluZycsICctaW1hZScsICc8aW5maWxlLm1hZT4nLCAnLW9tYWUnLCAnPG91dGZpbGUubWFlPic=

> <r_lp_tautomer_probability>
1

> <r_epik_Ionization_Penalty>
0.112474

> <r_epik_Ionization_Penalty_Charging>
0.108916

> <r_epik_Ionization_Penalty_Neutral>
0.00355844

> <r_epik_State_Penalty>
0.0565397

> <r_epik_Charging_Adjusted_Penalty>
0.165456

> <i_epik_Tot_Q>
1

> <i_epik_Tot_abs_Q>
1

> <r_epik_Metal_State_Penalty>
0.422831

> <b_epik_Metal_Only>
0

> <s_lp_Force_Field>
OPLS_2005

> <r_lp_Energy>
33.5148

> <b_lp_Chiralities_Consistent>
1

> <s_lp_Variant>
AV-unprocessed.smi:1809-4

> <Gold.Version>
5.8.1

> <Gold.Id.Protein>
6NUR|6NUR_protein|mol2

> <Gold.PLP.Fitness>
40.5474

> <Gold.PLP.PLP>
-27.5966

> <Gold.PLP.part.hbond>
-4.3408

> <Gold.PLP.part.metal>
0.0000

> <Gold.PLP.part.buried>
-6.1864

> <Gold.PLP.part.nonpolar>
-18.5296

> <Gold.PLP.part.repulsive>
0.3847

> <Gold.PLP.ligand.clash>
0.0000

> <Gold.PLP.ligand.torsion>
0.8008

> <Gold.PLP.Chemscore.Hbond>
4.8500

> <Gold.PLP.Chemscore.CHOScore>
0.0000

> <Gold.PLP.Chemscore.Metal>
0.0000

> <Gold.Chemscore.Hbonds>
donor molecule, donor type, donor heavy atom, donor atom, acceptor molecule, acceptor atom, score
      L1  H     6    24       P1  7948  1.00
      L1  H     9    25       P1  7948  1.00
      L1  H    13    40       P1 10957  1.85
      P1  H  7989  7998       L1     3  0.90

> <Gold.PLP.Chemscore.Internal.Correction>
0.0023

> <Gold.Rescore>
     Score         DG    S(hbond)    S(metal)    S(lipo)     H(rot)  DE(clash)    DE(int)     intcor
     16.35     -17.22       2.14        0.00      68.45       1.34       0.05       0.82       ----

> <Gold.Chemscore.Fitness>
16.3540

> <Gold.Chemscore.DG>
-17.2226

> <Gold.Chemscore.ZeroCoef>
-5.4800

> <Gold.Chemscore.Hbond>
2.1443

> <Gold.Chemscore.Metal>
0.0000

> <Gold.Chemscore.Lipo>
68.4512

> <Gold.Chemscore.Internal_Hbond>
0.0000

> <Gold.Chemscore.DEClash>
0.0489

> <Gold.Chemscore.DEInternal>
0.8197

> <Gold.Chemscore.Rot>
1.3391

> <Gold.Chemscore.Internal.Correction>
   9.000000E+99

> <Gold.Chemscore.Hbonds>
donor molecule, donor type, donor heavy atom, donor atom, acceptor molecule, acceptor atom, score
      L1  H     6    24       P1  7948  0.99
      L1  H     9    25       P1  7948  0.93
      L1  H    13    40       P1 10957  0.20
      P1  H  7989  7998       L1     3  0.11

> <Gold.Chemscore.Hbond.Weighted>
-7.1619

> <Gold.Chemscore.Metal.Weighted>
-0.0000

> <Gold.Chemscore.Lipo.Weighted>
-8.0088

> <Gold.Chemscore.Internal_Hbond.Weighted>
0.0000

> <Gold.Chemscore.DEClash.Weighted>
0.0489

> <Gold.Chemscore.DEInternal.Weighted>
0.8197

> <Gold.Chemscore.Rot.Weighted>
3.4281

> <Gold.Chemscore.Internal.Correction.Weighted>
   9.000000E+99

> <Gold.Protein.RotatedTorsions>
[ 6907 6896 6895 6894 ] final -130.80 input  -60.11 | X-H torsion
[ 7974 7965 7964 7962 ] final  -62.20 input  175.53 | X-H torsion
[ 8008 7997 7996 7995 ] final  -63.69 input   59.86 | X-H torsion
[ 10167 10162 10161 10158 ] final  -44.26 input  -65.29 | X-H torsion
[ 10718 10713 10712 10709 ] final   17.89 input   66.30 | X-H torsion
[ 10763 10752 10751 10750 ] final -109.85 input  -60.55 | X-H torsion
[ 11005 11000 10999 10996 ] final  -94.05 input  -57.11 | X-H torsion

> <Gold.Protein.ActiveResidues>
 VAL166  LYS551  ARG553  GLY616  TRP617  ASP618  TYR619  PRO620  LYS621  CYS622 
 ASP623  PHE694  ASN695  SER759  ASP760  ASP761  ALA762  ILE779  LEU786  VAL792 
 PHE793  MET794  SER795  GLU796  ALA797  LYS798  CYS799  TRP800  GLU811  SER814 

> <Gold.Protein.RotatedAtoms>
  150.9438  133.6626  159.2785 H   0  0  0  0  0  0  0  0  0  0  0  0  # atno 6907 bound_to 6896
  151.4006  135.0969  159.9564 H   0  0  0  0  0  0  0  0  0  0  0  0  # atno 6908 bound_to 6896
  152.5081  133.8933  159.7459 H   0  0  0  0  0  0  0  0  0  0  0  0  # atno 6909 bound_to 6896
  145.7942  140.8692  143.0265 H   0  0  0  0  0  0  0  0  0  0  0  0  # atno 7974 bound_to 7965
  154.4568  140.0969  156.6781 H   0  0  0  0  0  0  0  0  0  0  0  0  # atno 8008 bound_to 7997
  155.5112  140.3476  155.4370 H   0  0  0  0  0  0  0  0  0  0  0  0  # atno 8009 bound_to 7997
  156.0794  140.1369  156.9720 H   0  0  0  0  0  0  0  0  0  0  0  0  # atno 8010 bound_to 7997
  140.6903  143.2939  151.3470 H   0  0  0  0  0  0  0  0  0  0  0  0  # atno 10167 bound_to 10162
  157.0886  130.6418  149.5843 H   0  0  0  0  0  0  0  0  0  0  0  0  # atno 10718 bound_to 10713
  154.8216  135.4585  154.0796 H   0  0  0  0  0  0  0  0  0  0  0  0  # atno 10763 bound_to 10752
  153.2144  135.6886  153.8081 H   0  0  0  0  0  0  0  0  0  0  0  0  # atno 10764 bound_to 10752
  153.7520  135.3296  155.3299 H   0  0  0  0  0  0  0  0  0  0  0  0  # atno 10765 bound_to 10752
  141.1481  133.7929  157.0245 H   0  0  0  0  0  0  0  0  0  0  0  0  # atno 11005 bound_to 11000
  144.6777  140.0167  143.7484 LP  0  0  0  0  0  0  0  0  0  0  0  0  # atno 17320 bound_to 7965
  145.9945  139.3041  143.0965 LP  0  0  0  0  0  0  0  0  0  0  0  0  # atno 17321 bound_to 7965
  139.6300  144.0739  152.2468 LP  0  0  0  0  0  0  0  0  0  0  0  0  # atno 17342 bound_to 10162
  140.0211  144.6152  150.7566 LP  0  0  0  0  0  0  0  0  0  0  0  0  # atno 17343 bound_to 10162
  155.9904  130.4955  150.7256 LP  0  0  0  0  0  0  0  0  0  0  0  0  # atno 17370 bound_to 10713
  157.4740  131.0896  151.0610 LP  0  0  0  0  0  0  0  0  0  0  0  0  # atno 17371 bound_to 10713
  140.0794  134.9657  157.1600 LP  0  0  0  0  0  0  0  0  0  0  0  0  # atno 17394 bound_to 11000
  140.3598  134.2507  155.7188 LP  0  0  0  0  0  0  0  0  0  0  0  0  # atno 17395 bound_to 11000

$$$$
