AV-unprocessed.smi:808|AV-procd|sdf|3804|dock7
  -GOLD-   22720 1243D 1   1.00000     0.00000
 Structure written by MMmdl.
 34 35  0  0  0  0  0  0  0  0  2 V2000
  154.3706  140.0832  159.7503 O   0  0  0  0  0  0  0  0  0  0  0  0
  153.4646  140.0853  158.9171 C   0  0  0  0  0  0  0  0  0  0  0  0
  153.1243  138.8004  158.1560 C   0  0  0  0  0  0  0  0  0  0  0  0
  151.8358  138.2596  158.5552 N   0  0  0  0  0  0  0  0  0  0  0  0
  151.5641  137.3783  159.5850 C   0  0  0  0  0  0  0  0  0  0  0  0
  150.2199  137.1661  159.5312 C   0  0  0  0  0  0  0  0  0  0  0  0
  149.4205  136.2767  160.4297 C   0  0  0  0  0  0  0  0  0  0  0  0
  149.4719  135.0413  160.2433 O   0  0  0  0  0  0  0  0  0  0  0  0
  148.7341  136.8049  161.3324 O   0  5  0  0  0  0  0  0  0  0  0  0
  149.7281  137.9491  158.4549 C   0  0  0  0  0  0  0  0  0  0  0  0
  150.7168  138.6101  157.8679 N   0  0  0  0  0  0  0  0  0  0  0  0
  152.7434  141.1767  158.6134 N   0  0  0  0  0  0  0  0  0  0  0  0
  152.8832  142.4878  159.2371 C   0  0  0  0  0  0  0  0  0  0  0  0
  152.5886  142.3705  160.7446 C   0  0  0  0  0  0  0  0  0  0  0  0
  152.6607  143.7392  161.4405 C   0  0  0  0  0  0  0  0  0  0  0  0
  151.7172  144.7531  160.7744 C   0  0  0  0  0  0  0  0  0  0  0  0
  152.0102  144.8780  159.2709 C   0  0  0  0  0  0  0  0  0  0  0  0
  151.9398  143.5108  158.5715 C   0  0  0  0  0  0  0  0  0  0  0  0
  153.1050  139.0067  157.0853 H   0  0  0  0  0  0  0  0  0  0  0  0
  153.8954  138.0470  158.3243 H   0  0  0  0  0  0  0  0  0  0  0  0
  152.3285  136.9864  160.2397 H   0  0  0  0  0  0  0  0  0  0  0  0
  148.7181  138.0560  158.0873 H   0  0  0  0  0  0  0  0  0  0  0  0
  152.0211  141.0828  157.9138 H   0  0  0  0  0  0  0  0  0  0  0  0
  153.9136  142.8293  159.1202 H   0  0  0  0  0  0  0  0  0  0  0  0
  151.5972  141.9410  160.8960 H   0  0  0  0  0  0  0  0  0  0  0  0
  153.2961  141.6839  161.2114 H   0  0  0  0  0  0  0  0  0  0  0  0
  152.4076  143.6329  162.4957 H   0  0  0  0  0  0  0  0  0  0  0  0
  153.6844  144.1141  161.4045 H   0  0  0  0  0  0  0  0  0  0  0  0
  150.6824  144.4412  160.9210 H   0  0  0  0  0  0  0  0  0  0  0  0
  151.8183  145.7266  161.2551 H   0  0  0  0  0  0  0  0  0  0  0  0
  151.3025  145.5675  158.8098 H   0  0  0  0  0  0  0  0  0  0  0  0
  153.0012  145.3101  159.1269 H   0  0  0  0  0  0  0  0  0  0  0  0
  152.1930  143.6276  157.5172 H   0  0  0  0  0  0  0  0  0  0  0  0
  150.9135  143.1419  158.6035 H   0  0  0  0  0  0  0  0  0  0  0  0
  1  2  2  0  0  0  0
  2  3  1  0  0  0  0
  2 12  1  0  0  0  0
  3  4  1  0  0  0  0
  3 19  1  0  0  0  0
  3 20  1  0  0  0  0
  4 11  1  0  0  0  0
  4  5  1  0  0  0  0
  5  6  2  0  0  0  0
  5 21  1  0  0  0  0
  6  7  1  0  0  0  0
  6 10  1  0  0  0  0
  7  8  2  0  0  0  0
  7  9  1  0  0  0  0
 10 11  2  0  0  0  0
 10 22  1  0  0  0  0
 12 13  1  0  0  0  0
 12 23  1  0  0  0  0
 13 18  1  0  0  0  0
 13 14  1  0  0  0  0
 13 24  1  0  0  0  0
 14 15  1  0  0  0  0
 14 25  1  0  0  0  0
 14 26  1  0  0  0  0
 15 16  1  0  0  0  0
 15 27  1  0  0  0  0
 15 28  1  0  0  0  0
 16 17  1  0  0  0  0
 16 29  1  0  0  0  0
 16 30  1  0  0  0  0
 17 18  1  0  0  0  0
 17 31  1  0  0  0  0
 17 32  1  0  0  0  0
 18 33  1  0  0  0  0
 18 34  1  0  0  0  0
M  CHG  1   9  -1
M  END
> <s_m_source_file>
AV-unprocessed.smi

> <i_m_source_file_index>
808

> <i_lp_mmshare_version>
43012

> <i_f3d_flags>
0

> <s_epik_input>
Tz1DKFtPSF0pYyhbY0hdbjEpW2NIXW4xW0NIMl1DKD1PKVtOSF1bQ0hdMltDSDJdW0NIMl1bQ0gyXVtDSDJdW0NIMl0y

> <s_epik_cmdline>
J2VwaWtfcHl0aG9uJywgJy1waCcsICc3LjAnLCAnLXRuJywgJzgnLCAnLW1hJywgJzIwMCcsICctbWV0YWxfYmluZGluZycsICctaW1hZScsICc8aW5maWxlLm1hZT4nLCAnLW9tYWUnLCAnPG91dGZpbGUubWFlPic=

> <r_epik_Ionization_Penalty>
0.00097052

> <r_epik_Ionization_Penalty_Charging>
0.000938868

> <r_epik_Ionization_Penalty_Neutral>
3.16514e-05

> <r_epik_State_Penalty>
0.000609423

> <r_epik_Charging_Adjusted_Penalty>
0.00154829

> <i_epik_Tot_Q>
-1

> <i_epik_Tot_abs_Q>
1

> <r_epik_Metal_State_Penalty>
-0

> <b_epik_Metal_Only>
0

> <s_lp_Force_Field>
OPLS_2005

> <r_lp_Energy>
12.0504

> <b_lp_Chiralities_Consistent>
1

> <s_lp_Variant>
AV-unprocessed.smi:808-1

> <Gold.Version>
5.8.1

> <Gold.Id.Protein>
6NUR|6NUR_protein|mol2

> <Gold.PLP.Fitness>
48.3694

> <Gold.PLP.PLP>
-36.5696

> <Gold.PLP.part.hbond>
-3.0000

> <Gold.PLP.part.metal>
0.0000

> <Gold.PLP.part.buried>
-3.7967

> <Gold.PLP.part.nonpolar>
-31.0848

> <Gold.PLP.part.repulsive>
0.0944

> <Gold.PLP.ligand.clash>
0.0000

> <Gold.PLP.ligand.torsion>
1.8907

> <Gold.PLP.Chemscore.Hbond>
5.1868

> <Gold.PLP.Chemscore.CHOScore>
0.0000

> <Gold.PLP.Chemscore.Metal>
0.0000

> <Gold.Chemscore.Hbonds>
donor molecule, donor type, donor heavy atom, donor atom, acceptor molecule, acceptor atom, score
      P1  H  6896  6907       L1     8  0.94
      P1  H  6931  6943       L1     9  2.00

> <Gold.PLP.Chemscore.Internal.Correction>
0.0207

> <Gold.Rescore>
     Score         DG    S(hbond)    S(metal)    S(lipo)     H(rot)  DE(clash)    DE(int)     intcor
     16.98     -18.89       2.16        0.00      87.77       1.59       0.01       1.90       ----

> <Gold.Chemscore.Fitness>
16.9792

> <Gold.Chemscore.DG>
-18.8934

> <Gold.Chemscore.ZeroCoef>
-5.4800

> <Gold.Chemscore.Hbond>
2.1605

> <Gold.Chemscore.Metal>
0.0000

> <Gold.Chemscore.Lipo>
87.7659

> <Gold.Chemscore.Internal_Hbond>
0.0000

> <Gold.Chemscore.DEClash>
0.0118

> <Gold.Chemscore.DEInternal>
1.9024

> <Gold.Chemscore.Rot>
1.5904

> <Gold.Chemscore.Internal.Correction>
   9.000000E+99

> <Gold.Chemscore.Hbonds>
donor molecule, donor type, donor heavy atom, donor atom, acceptor molecule, acceptor atom, score
      P1  H  6896  6907       L1     8  0.40
      P1  H  6931  6943       L1     9  0.96

> <Gold.Chemscore.Hbond.Weighted>
-7.2162

> <Gold.Chemscore.Metal.Weighted>
-0.0000

> <Gold.Chemscore.Lipo.Weighted>
-10.2686

> <Gold.Chemscore.Internal_Hbond.Weighted>
0.0000

> <Gold.Chemscore.DEClash.Weighted>
0.0118

> <Gold.Chemscore.DEInternal.Weighted>
1.9024

> <Gold.Chemscore.Rot.Weighted>
4.0714

> <Gold.Chemscore.Internal.Correction.Weighted>
   9.000000E+99

> <Gold.Protein.RotatedTorsions>
[ 6907 6896 6895 6894 ] final  -66.96 input  -60.11 | X-H torsion
[ 7974 7965 7964 7962 ] final   46.13 input  175.53 | X-H torsion
[ 8008 7997 7996 7995 ] final   92.88 input   59.86 | X-H torsion
[ 10167 10162 10161 10158 ] final -135.91 input  -65.29 | X-H torsion
[ 10718 10713 10712 10709 ] final -143.03 input   66.30 | X-H torsion
[ 10763 10752 10751 10750 ] final  158.31 input  -60.55 | X-H torsion
[ 11005 11000 10999 10996 ] final  -52.74 input  -57.11 | X-H torsion

> <Gold.Protein.ActiveResidues>
 VAL166  LYS551  ARG553  GLY616  TRP617  ASP618  TYR619  PRO620  LYS621  CYS622 
 ASP623  PHE694  ASN695  SER759  ASP760  ASP761  ALA762  ILE779  LEU786  VAL792 
 PHE793  MET794  SER795  GLU796  ALA797  LYS798  CYS799  TRP800  GLU811  SER814 

> <Gold.Protein.RotatedAtoms>
  150.7436  134.5948  159.6005 H   0  0  0  0  0  0  0  0  0  0  0  0  # atno 6907 bound_to 6896
  152.3326  134.7236  160.0294 H   0  0  0  0  0  0  0  0  0  0  0  0  # atno 6908 bound_to 6896
  151.7715  133.3306  159.3482 H   0  0  0  0  0  0  0  0  0  0  0  0  # atno 6909 bound_to 6896
  146.0417  139.4889  142.9774 H   0  0  0  0  0  0  0  0  0  0  0  0  # atno 7974 bound_to 7965
  156.0404  140.3320  155.7237 H   0  0  0  0  0  0  0  0  0  0  0  0  # atno 8008 bound_to 7997
  155.5752  140.0631  157.2814 H   0  0  0  0  0  0  0  0  0  0  0  0  # atno 8009 bound_to 7997
  154.4391  140.1853  156.0909 H   0  0  0  0  0  0  0  0  0  0  0  0  # atno 8010 bound_to 7997
  139.8731  143.6932  152.2637 H   0  0  0  0  0  0  0  0  0  0  0  0  # atno 10167 bound_to 10162
  156.3531  130.7698  151.1854 H   0  0  0  0  0  0  0  0  0  0  0  0  # atno 10718 bound_to 10713
  154.2140  135.2785  155.2948 H   0  0  0  0  0  0  0  0  0  0  0  0  # atno 10763 bound_to 10752
  154.5756  135.5605  153.7139 H   0  0  0  0  0  0  0  0  0  0  0  0  # atno 10764 bound_to 10752
  153.0057  135.6332  154.2279 H   0  0  0  0  0  0  0  0  0  0  0  0  # atno 10765 bound_to 10752
  141.0940  133.6627  156.4069 H   0  0  0  0  0  0  0  0  0  0  0  0  # atno 11005 bound_to 11000
  145.6873  141.0174  143.1574 LP  0  0  0  0  0  0  0  0  0  0  0  0  # atno 17320 bound_to 7965
  144.7078  139.8491  143.7424 LP  0  0  0  0  0  0  0  0  0  0  0  0  # atno 17321 bound_to 7965
  139.7265  144.7592  151.0871 LP  0  0  0  0  0  0  0  0  0  0  0  0  # atno 17342 bound_to 10162
  140.7757  143.5142  150.9615 LP  0  0  0  0  0  0  0  0  0  0  0  0  # atno 17343 bound_to 10162
  157.7464  131.0422  150.4682 LP  0  0  0  0  0  0  0  0  0  0  0  0  # atno 17370 bound_to 10713
  156.4880  130.4089  149.6423 LP  0  0  0  0  0  0  0  0  0  0  0  0  # atno 17371 bound_to 10713
  140.5184  134.6327  157.5309 LP  0  0  0  0  0  0  0  0  0  0  0  0  # atno 17394 bound_to 11000
  139.9772  134.7196  155.9927 LP  0  0  0  0  0  0  0  0  0  0  0  0  # atno 17395 bound_to 11000

$$$$
