AV-unprocessed.smi:2826|AV-procd|sdf|10892|dock1
  -GOLD-   2272015343D 1   1.00000     0.00000
 Structure written by MMmdl.
 50 51  0  0  0  0  0  0  0  0  1 V2000
  150.9883  142.8923  157.5437 C   0  0  0  0  0  0  0  0  0  0  0  0
  151.6373  141.8804  156.7816 O   0  0  0  0  0  0  0  0  0  0  0  0
  150.8697  141.0986  155.9433 C   0  0  0  0  0  0  0  0  0  0  0  0
  149.5679  141.5294  155.6238 C   0  0  0  0  0  0  0  0  0  0  0  0
  148.7818  140.7388  154.7649 C   0  0  0  0  0  0  0  0  0  0  0  0
  149.3244  139.5407  154.2411 C   0  0  0  0  0  0  0  0  0  0  0  0
  148.5995  138.6685  153.3816 N   0  0  0  0  0  0  0  0  0  0  0  0
  147.2790  138.6535  153.1329 C   0  0  0  0  0  0  0  0  0  0  0  0
  146.4532  139.4218  153.6258 O   0  0  0  0  0  0  0  0  0  0  0  0
  146.9642  137.6981  152.2471 N   0  0  0  0  0  0  0  0  0  0  0  0
  145.6212  137.4276  151.7355 C   0  0  2  0  0  0  0  0  0  0  0  0
  144.6301  137.2497  152.8963 C   0  0  0  0  0  0  0  0  0  0  0  0
  144.8345  135.9007  153.6069 C   0  0  0  0  0  0  0  0  0  0  0  0
  144.7488  134.8368  152.6654 O   0  0  0  0  0  0  0  0  0  0  0  0
  145.7649  134.8822  151.6665 C   0  0  1  0  0  0  0  0  0  0  0  0
  145.6465  133.6238  150.7868 C   0  0  0  0  0  0  0  0  0  0  0  0
  144.2260  133.3368  150.2527 C   0  0  0  0  0  0  0  0  0  0  0  0
  143.2946  132.7534  151.3288 C   0  0  0  0  0  0  0  0  0  0  0  0
  144.2865  132.4011  149.0355 C   0  0  0  0  0  0  0  0  0  0  0  0
  145.5953  136.1741  150.8408 C   0  0  0  0  0  0  0  0  0  0  0  0
  150.6365  139.1852  154.6372 C   0  0  0  0  0  0  0  0  0  0  0  0
  151.2938  137.9077  154.1444 C   0  0  0  0  0  0  0  0  0  0  0  0
  151.3921  139.9441  155.4614 N   0  0  0  0  0  0  0  0  0  0  0  0
  151.7251  143.4095  158.1579 H   0  0  0  0  0  0  0  0  0  0  0  0
  150.2380  142.4691  158.2132 H   0  0  0  0  0  0  0  0  0  0  0  0
  150.5156  143.6347  156.8991 H   0  0  0  0  0  0  0  0  0  0  0  0
  149.1769  142.4492  156.0329 H   0  0  0  0  0  0  0  0  0  0  0  0
  147.7766  141.0586  154.5372 H   0  0  0  0  0  0  0  0  0  0  0  0
  149.1622  138.0345  152.8333 H   0  0  0  0  0  0  0  0  0  0  0  0
  147.7092  137.1168  151.8918 H   0  0  0  0  0  0  0  0  0  0  0  0
  145.3038  138.2905  151.1472 H   0  0  0  0  0  0  0  0  0  0  0  0
  144.7169  138.0723  153.6072 H   0  0  0  0  0  0  0  0  0  0  0  0
  143.6125  137.2899  152.5054 H   0  0  0  0  0  0  0  0  0  0  0  0
  145.7957  135.8687  154.1222 H   0  0  0  0  0  0  0  0  0  0  0  0
  144.0651  135.7594  154.3659 H   0  0  0  0  0  0  0  0  0  0  0  0
  146.7441  134.8950  152.1457 H   0  0  0  0  0  0  0  0  0  0  0  0
  146.3289  133.7302  149.9424 H   0  0  0  0  0  0  0  0  0  0  0  0
  145.9988  132.7570  151.3478 H   0  0  0  0  0  0  0  0  0  0  0  0
  143.7920  134.2770  149.9105 H   0  0  0  0  0  0  0  0  0  0  0  0
  143.7032  131.8354  151.7520 H   0  0  0  0  0  0  0  0  0  0  0  0
  142.3151  132.5180  150.9116 H   0  0  0  0  0  0  0  0  0  0  0  0
  143.1307  133.4555  152.1456 H   0  0  0  0  0  0  0  0  0  0  0  0
  144.7102  131.4320  149.3012 H   0  0  0  0  0  0  0  0  0  0  0  0
  144.9005  132.8264  148.2412 H   0  0  0  0  0  0  0  0  0  0  0  0
  143.2927  132.2276  148.6219 H   0  0  0  0  0  0  0  0  0  0  0  0
  144.6410  136.1374  150.3136 H   0  0  0  0  0  0  0  0  0  0  0  0
  146.3638  136.2360  150.0693 H   0  0  0  0  0  0  0  0  0  0  0  0
  151.3527  137.9066  153.0557 H   0  0  0  0  0  0  0  0  0  0  0  0
  150.7170  137.0383  154.4605 H   0  0  0  0  0  0  0  0  0  0  0  0
  152.3056  137.7992  154.5367 H   0  0  0  0  0  0  0  0  0  0  0  0
  1  2  1  0  0  0  0
  1 24  1  0  0  0  0
  1 25  1  0  0  0  0
  1 26  1  0  0  0  0
  2  3  1  0  0  0  0
  3 23  1  0  0  0  0
  3  4  2  0  0  0  0
  4  5  1  0  0  0  0
  4 27  1  0  0  0  0
  5  6  2  0  0  0  0
  5 28  1  0  0  0  0
  6  7  1  0  0  0  0
  6 21  1  0  0  0  0
  7  8  1  0  0  0  0
  7 29  1  0  0  0  0
  8  9  2  0  0  0  0
  8 10  1  0  0  0  0
 10 11  1  0  0  0  0
 10 30  1  0  0  0  0
 11 20  1  0  0  0  0
 11 12  1  0  0  0  0
 11 31  1  0  0  0  0
 12 13  1  0  0  0  0
 12 32  1  0  0  0  0
 12 33  1  0  0  0  0
 13 14  1  0  0  0  0
 13 34  1  0  0  0  0
 13 35  1  0  0  0  0
 14 15  1  0  0  0  0
 15 16  1  0  0  0  0
 15 20  1  0  0  0  0
 15 36  1  0  0  0  0
 16 17  1  0  0  0  0
 16 37  1  0  0  0  0
 16 38  1  0  0  0  0
 17 18  1  0  0  0  0
 17 19  1  0  0  0  0
 17 39  1  0  0  0  0
 18 40  1  0  0  0  0
 18 41  1  0  0  0  0
 18 42  1  0  0  0  0
 19 43  1  0  0  0  0
 19 44  1  0  0  0  0
 19 45  1  0  0  0  0
 20 46  1  0  0  0  0
 20 47  1  0  0  0  0
 21 22  1  0  0  0  0
 21 23  2  0  0  0  0
 22 48  1  0  0  0  0
 22 49  1  0  0  0  0
 22 50  1  0  0  0  0
M  END
> <s_m_source_file>
AV-unprocessed.smi

> <i_m_source_file_index>
2826

> <i_lp_mmshare_version>
43012

> <i_f3d_flags>
0

> <s_epik_input>
W0NIM11PYzFbY0hdW2NIXWMoYyhuMSlbQ0gzXSlbTkhdQyg9TylbTkhdW0NAQEhdMltDSDJdW0NIMl1PW0NASF0oW0NIMl0yKVtDSDJdW0NIXShbQ0gzXSlbQ0gzXQ==

> <s_epik_cmdline>
J2VwaWtfcHl0aG9uJywgJy1waCcsICc3LjAnLCAnLXRuJywgJzgnLCAnLW1hJywgJzIwMCcsICctbWV0YWxfYmluZGluZycsICctaW1hZScsICc8aW5maWxlLm1hZT4nLCAnLW9tYWUnLCAnPG91dGZpbGUubWFlPic=

> <r_lp_tautomer_probability>
1

> <r_epik_Ionization_Penalty>
0.000249977

> <r_epik_Ionization_Penalty_Charging>
0

> <r_epik_Ionization_Penalty_Neutral>
0.000249977

> <r_epik_State_Penalty>
-0

> <r_epik_Charging_Adjusted_Penalty>
0

> <i_epik_Tot_Q>
0

> <i_epik_Tot_abs_Q>
0

> <r_epik_Metal_State_Penalty>
-0

> <b_epik_Metal_Only>
0

> <s_lp_Force_Field>
OPLS_2005

> <r_lp_Energy>
13.0861

> <b_lp_Chiralities_Consistent>
1

> <s_lp_Variant>
AV-unprocessed.smi:2826-1

> <Gold.Version>
5.8.1

> <Gold.Id.Protein>
6NUR|6NUR_protein|mol2

> <Gold.PLP.Fitness>
44.5073

> <Gold.PLP.PLP>
-39.9842

> <Gold.PLP.part.hbond>
-3.6792

> <Gold.PLP.part.metal>
0.0000

> <Gold.PLP.part.buried>
1.2881

> <Gold.PLP.part.nonpolar>
-39.5035

> <Gold.PLP.part.repulsive>
0.4566

> <Gold.PLP.ligand.clash>
0.0095

> <Gold.PLP.ligand.torsion>
0.5012

> <Gold.PLP.Chemscore.Hbond>
1.7588

> <Gold.PLP.Chemscore.CHOScore>
0.0000

> <Gold.PLP.Chemscore.Metal>
0.0000

> <Gold.Chemscore.Hbonds>
donor molecule, donor type, donor heavy atom, donor atom, acceptor molecule, acceptor atom, score
      L1  H     7    29       P1  7948  0.80
      L1  H    10    30       P1  7948  0.93

> <Gold.PLP.Chemscore.Internal.Correction>
0.2587

> <Gold.Rescore>
     Score         DG    S(hbond)    S(metal)    S(lipo)     H(rot)  DE(clash)    DE(int)     intcor
     14.46     -19.64       1.73        0.00     104.52       1.51       0.99       4.19       ----

> <Gold.Chemscore.Fitness>
14.4598

> <Gold.Chemscore.DG>
-19.6406

> <Gold.Chemscore.ZeroCoef>
-5.4800

> <Gold.Chemscore.Hbond>
1.7324

> <Gold.Chemscore.Metal>
0.0000

> <Gold.Chemscore.Lipo>
104.5216

> <Gold.Chemscore.Internal_Hbond>
0.0000

> <Gold.Chemscore.DEClash>
0.9858

> <Gold.Chemscore.DEInternal>
4.1950

> <Gold.Chemscore.Rot>
1.5057

> <Gold.Chemscore.Internal.Correction>
   9.000000E+99

> <Gold.Chemscore.Hbonds>
donor molecule, donor type, donor heavy atom, donor atom, acceptor molecule, acceptor atom, score
      L1  H     7    29       P1  7948  0.73
      L1  H    10    30       P1  7948  0.88

> <Gold.Chemscore.Hbond.Weighted>
-5.7863

> <Gold.Chemscore.Metal.Weighted>
-0.0000

> <Gold.Chemscore.Lipo.Weighted>
-12.2290

> <Gold.Chemscore.Internal_Hbond.Weighted>
0.0000

> <Gold.Chemscore.DEClash.Weighted>
0.9858

> <Gold.Chemscore.DEInternal.Weighted>
4.1950

> <Gold.Chemscore.Rot.Weighted>
3.8547

> <Gold.Chemscore.Internal.Correction.Weighted>
   9.000000E+99

> <Gold.Protein.RotatedTorsions>
[ 6907 6896 6895 6894 ] final  -96.53 input  -60.11 | X-H torsion
[ 7974 7965 7964 7962 ] final -153.22 input  175.53 | X-H torsion
[ 8008 7997 7996 7995 ] final -103.08 input   59.86 | X-H torsion
[ 10167 10162 10161 10158 ] final   15.55 input  -65.29 | X-H torsion
[ 10718 10713 10712 10709 ] final   62.09 input   66.30 | X-H torsion
[ 10763 10752 10751 10750 ] final  140.92 input  -60.55 | X-H torsion
[ 11005 11000 10999 10996 ] final  -29.11 input  -57.11 | X-H torsion

> <Gold.Protein.ActiveResidues>
 VAL166  LYS551  ARG553  GLY616  TRP617  ASP618  TYR619  PRO620  LYS621  CYS622 
 ASP623  PHE694  ASN695  SER759  ASP760  ASP761  ALA762  ILE779  LEU786  VAL792 
 PHE793  MET794  SER795  GLU796  ALA797  LYS798  CYS799  TRP800  GLU811  SER814 

> <Gold.Protein.RotatedAtoms>
  150.6991  134.1488  159.4132 H   0  0  0  0  0  0  0  0  0  0  0  0  # atno 6907 bound_to 6896
  151.9471  135.0184  160.0549 H   0  0  0  0  0  0  0  0  0  0  0  0  # atno 6908 bound_to 6896
  152.2043  133.4829  159.5112 H   0  0  0  0  0  0  0  0  0  0  0  0  # atno 6909 bound_to 6896
  144.7752  140.4556  143.5878 H   0  0  0  0  0  0  0  0  0  0  0  0  # atno 7974 bound_to 7965
  154.8658  140.0425  157.1693 H   0  0  0  0  0  0  0  0  0  0  0  0  # atno 8008 bound_to 7997
  154.8792  140.2970  155.5415 H   0  0  0  0  0  0  0  0  0  0  0  0  # atno 8009 bound_to 7997
  156.2999  140.2414  156.3792 H   0  0  0  0  0  0  0  0  0  0  0  0  # atno 8010 bound_to 7997
  140.5859  143.8890  150.6830 H   0  0  0  0  0  0  0  0  0  0  0  0  # atno 10167 bound_to 10162
  157.5876  130.9031  149.9544 H   0  0  0  0  0  0  0  0  0  0  0  0  # atno 10718 bound_to 10713
  153.9306  135.2990  155.3446 H   0  0  0  0  0  0  0  0  0  0  0  0  # atno 10763 bound_to 10752
  154.7528  135.4972  153.9324 H   0  0  0  0  0  0  0  0  0  0  0  0  # atno 10764 bound_to 10752
  153.1093  135.6755  153.9633 H   0  0  0  0  0  0  0  0  0  0  0  0  # atno 10765 bound_to 10752
  140.9267  133.7364  156.0878 H   0  0  0  0  0  0  0  0  0  0  0  0  # atno 11005 bound_to 11000
  145.6206  139.1523  143.3025 LP  0  0  0  0  0  0  0  0  0  0  0  0  # atno 17320 bound_to 7965
  146.1927  140.6316  142.9138 LP  0  0  0  0  0  0  0  0  0  0  0  0  # atno 17321 bound_to 7965
  140.2401  143.3670  152.1494 LP  0  0  0  0  0  0  0  0  0  0  0  0  # atno 17342 bound_to 10162
  139.5197  144.7024  151.5456 LP  0  0  0  0  0  0  0  0  0  0  0  0  # atno 17343 bound_to 10162
  156.0926  130.3662  150.0365 LP  0  0  0  0  0  0  0  0  0  0  0  0  # atno 17370 bound_to 10713
  156.8494  130.9453  151.3626 LP  0  0  0  0  0  0  0  0  0  0  0  0  # atno 17371 bound_to 10713
  140.7916  134.3611  157.5463 LP  0  0  0  0  0  0  0  0  0  0  0  0  # atno 17394 bound_to 11000
  139.8787  134.9144  156.3105 LP  0  0  0  0  0  0  0  0  0  0  0  0  # atno 17395 bound_to 11000

$$$$
