AV-unprocessed.smi:1093|AV-procd|sdf|4741|dock6
  -GOLD-   22720 3273D 1   1.00000     0.00000
 Structure written by MMmdl.
 48 49  0  0  0  0  0  0  0  0  3 V2000
  145.6871  134.8793  152.7403 C   0  0  0  0  0  0  0  0  0  0  0  0
  146.2954  135.6344  153.9309 C   0  0  0  0  0  0  0  0  0  0  0  0
  147.7555  135.4015  154.0688 N   0  3  2  0  0  0  0  0  0  0  0  0
  148.0678  133.9861  154.3971 C   0  0  0  0  0  0  0  0  0  0  0  0
  149.5847  133.7363  154.3941 C   0  0  0  0  0  0  0  0  0  0  0  0
  150.3034  134.6893  155.3576 C   0  0  0  0  0  0  0  0  0  0  0  0
  149.9420  136.1475  155.0240 C   0  0  2  0  0  0  0  0  0  0  0  0
  150.5539  137.0635  155.9836 N   0  0  0  0  0  0  0  0  0  0  0  0
  150.4546  138.4003  155.9448 C   0  0  0  0  0  0  0  0  0  0  0  0
  149.8295  139.0079  155.0762 O   0  0  0  0  0  0  0  0  0  0  0  0
  151.1357  138.9705  156.9542 N   0  0  0  0  0  0  0  0  0  0  0  0
  151.2482  140.3507  157.2771 C   0  0  0  0  0  0  0  0  0  0  0  0
  152.0544  140.7066  158.3783 C   0  0  0  0  0  0  0  0  0  0  0  0
  152.1826  142.0615  158.7470 C   0  0  0  0  0  0  0  0  0  0  0  0
  151.4936  143.0597  158.0151 C   0  0  0  0  0  0  0  0  0  0  0  0
  151.5694  144.4354  158.3228 N   0  0  0  0  0  0  0  0  0  0  0  0
  152.5421  145.2773  157.6383 C   0  0  0  0  0  0  0  0  0  0  0  0
  150.5871  145.0303  159.2225 C   0  0  0  0  0  0  0  0  0  0  0  0
  150.7209  142.6674  156.9728 N   0  3  0  0  0  0  0  0  0  0  0  0
  150.5716  141.3827  156.5843 C   0  0  0  0  0  0  0  0  0  0  0  0
  148.4132  136.3384  155.0195 C   0  0  0  0  0  0  0  0  0  0  0  0
  144.6030  134.9947  152.7281 H   0  0  0  0  0  0  0  0  0  0  0  0
  145.9035  133.8123  152.7984 H   0  0  0  0  0  0  0  0  0  0  0  0
  146.0599  135.2482  151.7855 H   0  0  0  0  0  0  0  0  0  0  0  0
  146.0911  136.7033  153.8553 H   0  0  0  0  0  0  0  0  0  0  0  0
  145.7903  135.2872  154.8333 H   0  0  0  0  0  0  0  0  0  0  0  0
  147.6460  133.7353  155.3717 H   0  0  0  0  0  0  0  0  0  0  0  0
  147.5974  133.3248  153.6682 H   0  0  0  0  0  0  0  0  0  0  0  0
  149.7926  132.7019  154.6695 H   0  0  0  0  0  0  0  0  0  0  0  0
  149.9762  133.8723  153.3850 H   0  0  0  0  0  0  0  0  0  0  0  0
  150.0152  134.4575  156.3842 H   0  0  0  0  0  0  0  0  0  0  0  0
  151.3815  134.5375  155.2937 H   0  0  0  0  0  0  0  0  0  0  0  0
  150.3109  136.3817  154.0233 H   0  0  0  0  0  0  0  0  0  0  0  0
  151.0943  136.6484  156.7287 H   0  0  0  0  0  0  0  0  0  0  0  0
  151.6678  138.3444  157.5407 H   0  0  0  0  0  0  0  0  0  0  0  0
  152.5786  139.9473  158.9405 H   0  0  0  0  0  0  0  0  0  0  0  0
  152.8084  142.3119  159.5904 H   0  0  0  0  0  0  0  0  0  0  0  0
  153.5578  144.9390  157.8466 H   0  0  0  0  0  0  0  0  0  0  0  0
  152.4657  146.3155  157.9620 H   0  0  0  0  0  0  0  0  0  0  0  0
  152.3793  145.2514  156.5603 H   0  0  0  0  0  0  0  0  0  0  0  0
  150.6183  144.5465  160.1992 H   0  0  0  0  0  0  0  0  0  0  0  0
  149.5815  144.9250  158.8145 H   0  0  0  0  0  0  0  0  0  0  0  0
  150.7775  146.0933  159.3722 H   0  0  0  0  0  0  0  0  0  0  0  0
  149.9076  141.2395  155.7453 H   0  0  0  0  0  0  0  0  0  0  0  0
  148.1877  137.3687  154.7450 H   0  0  0  0  0  0  0  0  0  0  0  0
  148.0071  136.1823  156.0205 H   0  0  0  0  0  0  0  0  0  0  0  0
  148.1585  135.5734  153.1586 H   0  0  0  0  0  0  0  0  0  0  0  0
  150.2186  143.3853  156.4502 H   0  0  0  0  0  0  0  0  0  0  0  0
  1  2  1  0  0  0  0
  1 22  1  0  0  0  0
  1 23  1  0  0  0  0
  1 24  1  0  0  0  0
  2  3  1  0  0  0  0
  2 25  1  0  0  0  0
  2 26  1  0  0  0  0
  3 21  1  0  0  0  0
  3  4  1  0  0  0  0
  3 47  1  0  0  0  0
  4  5  1  0  0  0  0
  4 27  1  0  0  0  0
  4 28  1  0  0  0  0
  5  6  1  0  0  0  0
  5 29  1  0  0  0  0
  5 30  1  0  0  0  0
  6  7  1  0  0  0  0
  6 31  1  0  0  0  0
  6 32  1  0  0  0  0
  7  8  1  0  0  0  0
  7 21  1  0  0  0  0
  7 33  1  0  0  0  0
  8  9  1  0  0  0  0
  8 34  1  0  0  0  0
  9 10  2  0  0  0  0
  9 11  1  0  0  0  0
 11 12  1  0  0  0  0
 11 35  1  0  0  0  0
 12 20  1  0  0  0  0
 12 13  2  0  0  0  0
 13 14  1  0  0  0  0
 13 36  1  0  0  0  0
 14 15  2  0  0  0  0
 14 37  1  0  0  0  0
 15 16  1  0  0  0  0
 15 19  1  0  0  0  0
 16 17  1  0  0  0  0
 16 18  1  0  0  0  0
 17 38  1  0  0  0  0
 17 39  1  0  0  0  0
 17 40  1  0  0  0  0
 18 41  1  0  0  0  0
 18 42  1  0  0  0  0
 18 43  1  0  0  0  0
 19 20  2  0  0  0  0
 19 48  1  0  0  0  0
 20 44  1  0  0  0  0
 21 45  1  0  0  0  0
 21 46  1  0  0  0  0
M  CHG  1   3   1
M  CHG  1  19   1
M  END
> <s_m_source_file>
AV-unprocessed.smi

> <i_m_source_file_index>
1093

> <i_lp_mmshare_version>
43012

> <i_f3d_flags>
0

> <s_epik_input>
W0NIM11bQ0gyXU4xW0NIMl1bQ0gyXVtDSDJdW0NASF0oW0NIMl0xKVtOSF1DKD1PKVtOSF1jMltjSF1bY0hdYyhOKFtDSDNdKVtDSDNdKW5bY0hdMg==

> <s_epik_cmdline>
J2VwaWtfcHl0aG9uJywgJy1waCcsICc3LjAnLCAnLXRuJywgJzgnLCAnLW1hJywgJzIwMCcsICctbWV0YWxfYmluZGluZycsICctaW1hZScsICc8aW5maWxlLm1hZT4nLCAnLW9tYWUnLCAnPG91dGZpbGUubWFlPic=

> <r_lp_tautomer_probability>
0.999994

> <r_epik_Ionization_Penalty>
0.346711

> <r_epik_Ionization_Penalty_Charging>
0.346691

> <r_epik_Ionization_Penalty_Neutral>
1.93006e-05

> <r_epik_State_Penalty>
0.339838

> <r_epik_Charging_Adjusted_Penalty>
0.68653

> <i_epik_Tot_Q>
2

> <i_epik_Tot_abs_Q>
2

> <r_epik_Metal_State_Penalty>
0.600835

> <b_epik_Metal_Only>
0

> <s_lp_Force_Field>
OPLS_2005

> <r_lp_Energy>
27.882

> <b_lp_Chiralities_Consistent>
1

> <s_lp_Variant>
AV-unprocessed.smi:1093-4

> <Gold.Version>
5.8.1

> <Gold.Id.Protein>
6NUR|6NUR_protein|mol2

> <Gold.PLP.Fitness>
40.6065

> <Gold.PLP.PLP>
-31.7189

> <Gold.PLP.part.hbond>
-1.9459

> <Gold.PLP.part.metal>
0.0000

> <Gold.PLP.part.buried>
-5.2602

> <Gold.PLP.part.nonpolar>
-25.3198

> <Gold.PLP.part.repulsive>
0.1989

> <Gold.PLP.ligand.clash>
0.0000

> <Gold.PLP.ligand.torsion>
1.5429

> <Gold.PLP.Chemscore.Hbond>
3.9825

> <Gold.PLP.Chemscore.CHOScore>
0.0000

> <Gold.PLP.Chemscore.Metal>
0.0000

> <Gold.Chemscore.Hbonds>
donor molecule, donor type, donor heavy atom, donor atom, acceptor molecule, acceptor atom, score
      L1  H     3    47       P1  7948  2.00
      L1  H    19    48       P1  8028  1.95

> <Gold.PLP.Chemscore.Internal.Correction>
0.0258

> <Gold.Rescore>
     Score         DG    S(hbond)    S(metal)    S(lipo)     H(rot)  DE(clash)    DE(int)     intcor
     14.22     -18.79       1.99        0.00      83.26       1.19       1.72       2.86       ----

> <Gold.Chemscore.Fitness>
14.2217

> <Gold.Chemscore.DG>
-18.7947

> <Gold.Chemscore.ZeroCoef>
-5.4800

> <Gold.Chemscore.Hbond>
1.9858

> <Gold.Chemscore.Metal>
0.0000

> <Gold.Chemscore.Lipo>
83.2568

> <Gold.Chemscore.Internal_Hbond>
0.0000

> <Gold.Chemscore.DEClash>
1.7169

> <Gold.Chemscore.DEInternal>
2.8562

> <Gold.Chemscore.Rot>
1.1949

> <Gold.Chemscore.Internal.Correction>
   9.000000E+99

> <Gold.Chemscore.Hbonds>
donor molecule, donor type, donor heavy atom, donor atom, acceptor molecule, acceptor atom, score
      L1  H     3    47       P1  7948  1.00
      L1  H    19    48       P1  8028  0.92

> <Gold.Chemscore.Hbond.Weighted>
-6.6327

> <Gold.Chemscore.Metal.Weighted>
-0.0000

> <Gold.Chemscore.Lipo.Weighted>
-9.7411

> <Gold.Chemscore.Internal_Hbond.Weighted>
0.0000

> <Gold.Chemscore.DEClash.Weighted>
1.7169

> <Gold.Chemscore.DEInternal.Weighted>
2.8562

> <Gold.Chemscore.Rot.Weighted>
3.0590

> <Gold.Chemscore.Internal.Correction.Weighted>
   9.000000E+99

> <Gold.Protein.RotatedTorsions>
[ 6907 6896 6895 6894 ] final  -57.48 input  -60.11 | X-H torsion
[ 7974 7965 7964 7962 ] final  160.66 input  175.53 | X-H torsion
[ 8008 7997 7996 7995 ] final   38.92 input   59.86 | X-H torsion
[ 10167 10162 10161 10158 ] final   13.42 input  -65.29 | X-H torsion
[ 10718 10713 10712 10709 ] final   95.24 input   66.30 | X-H torsion
[ 10763 10752 10751 10750 ] final  159.70 input  -60.55 | X-H torsion
[ 11005 11000 10999 10996 ] final   75.68 input  -57.11 | X-H torsion

> <Gold.Protein.ActiveResidues>
 VAL166  LYS551  ARG553  GLY616  TRP617  ASP618  TYR619  PRO620  LYS621  CYS622 
 ASP623  PHE694  ASN695  SER759  ASP760  ASP761  ALA762  ILE779  LEU786  VAL792 
 PHE793  MET794  SER795  GLU796  ALA797  LYS798  CYS799  TRP800  GLU811  SER814 

> <Gold.Protein.RotatedAtoms>
  150.8083  134.7221  159.6663 H   0  0  0  0  0  0  0  0  0  0  0  0  # atno 6907 bound_to 6896
  152.4202  134.5965  159.9998 H   0  0  0  0  0  0  0  0  0  0  0  0  # atno 6908 bound_to 6896
  151.6182  133.3304  159.3118 H   0  0  0  0  0  0  0  0  0  0  0  0  # atno 6909 bound_to 6896
  144.7725  139.7788  143.6291 H   0  0  0  0  0  0  0  0  0  0  0  0  # atno 7974 bound_to 7965
  155.2280  140.3336  155.4307 H   0  0  0  0  0  0  0  0  0  0  0  0  # atno 8008 bound_to 7997
  156.2306  140.1849  156.7298 H   0  0  0  0  0  0  0  0  0  0  0  0  # atno 8009 bound_to 7997
  154.5972  140.0629  156.9305 H   0  0  0  0  0  0  0  0  0  0  0  0  # atno 8010 bound_to 7997
  140.6004  143.8617  150.6959 H   0  0  0  0  0  0  0  0  0  0  0  0  # atno 10167 bound_to 10162
  157.6940  131.0539  150.4308 H   0  0  0  0  0  0  0  0  0  0  0  0  # atno 10718 bound_to 10713
  154.2360  135.2776  155.2872 H   0  0  0  0  0  0  0  0  0  0  0  0  # atno 10763 bound_to 10752
  154.5585  135.5654  153.6989 H   0  0  0  0  0  0  0  0  0  0  0  0  # atno 10764 bound_to 10752
  153.0010  135.6292  154.2502 H   0  0  0  0  0  0  0  0  0  0  0  0  # atno 10765 bound_to 10752
  139.9332  134.7538  156.1301 H   0  0  0  0  0  0  0  0  0  0  0  0  # atno 11005 bound_to 11000
  146.1882  139.5109  142.9822 LP  0  0  0  0  0  0  0  0  0  0  0  0  # atno 17320 bound_to 7965
  145.6281  141.0309  143.1878 LP  0  0  0  0  0  0  0  0  0  0  0  0  # atno 17321 bound_to 7965
  140.2161  143.3845  152.1680 LP  0  0  0  0  0  0  0  0  0  0  0  0  # atno 17342 bound_to 10162
  139.5287  144.7133  151.5135 LP  0  0  0  0  0  0  0  0  0  0  0  0  # atno 17343 bound_to 10162
  156.4675  130.4045  149.6538 LP  0  0  0  0  0  0  0  0  0  0  0  0  # atno 17370 bound_to 10713
  156.3631  130.7492  151.2466 LP  0  0  0  0  0  0  0  0  0  0  0  0  # atno 17371 bound_to 10713
  141.0933  133.6705  156.2588 LP  0  0  0  0  0  0  0  0  0  0  0  0  # atno 17394 bound_to 11000
  140.6144  134.5425  157.5538 LP  0  0  0  0  0  0  0  0  0  0  0  0  # atno 17395 bound_to 11000

$$$$
