AV-unprocessed.smi:1593|AV-procd|sdf|6409|dock10
  -GOLD-   22720 7 43D 1   1.00000     0.00000
 Structure written by MMmdl.
 36 37  0  0  0  0  0  0  0  0  1 V2000
  152.2492  139.8367  158.2757 C   0  0  0  0  0  0  0  0  0  0  0  0
  151.7447  139.5351  156.9062 C   0  0  0  0  0  0  0  0  0  0  0  0
  150.5209  139.1594  156.4289 C   0  0  0  0  0  0  0  0  0  0  0  0
  150.7479  139.0394  155.0268 C   0  0  0  0  0  0  0  0  0  0  0  0
  149.7908  138.6646  154.0488 N   0  0  0  0  0  0  0  0  0  0  0  0
  148.5057  139.0440  153.9495 C   0  0  0  0  0  0  0  0  0  0  0  0
  147.9336  139.8260  154.7086 O   0  0  0  0  0  0  0  0  0  0  0  0
  147.9075  138.4558  152.9032 N   0  0  0  0  0  0  0  0  0  0  0  0
  146.5056  138.6179  152.5305 C   0  0  0  0  0  0  0  0  0  0  0  0
  146.1017  137.6401  151.4098 C   0  0  0  0  0  0  0  0  0  0  0  0
  145.4734  136.3953  151.8527 N   0  0  0  0  0  0  0  0  0  0  0  0
  145.4373  135.4103  150.7779 C   0  0  0  0  0  0  0  0  0  0  0  0
  144.7916  134.0898  151.2325 C   0  0  0  0  0  0  0  0  0  0  0  0
  143.4813  134.3447  151.7288 O   0  0  0  0  0  0  0  0  0  0  0  0
  143.4744  135.2733  152.8085 C   0  0  0  0  0  0  0  0  0  0  0  0
  144.1162  136.5961  152.3561 C   0  0  0  0  0  0  0  0  0  0  0  0
  151.9937  139.3166  154.6880 N   0  0  0  0  0  0  0  0  0  0  0  0
  152.6405  139.6355  155.8878 O   0  0  0  0  0  0  0  0  0  0  0  0
  151.4244  140.0535  158.9549 H   0  0  0  0  0  0  0  0  0  0  0  0
  152.9124  140.7019  158.2638 H   0  0  0  0  0  0  0  0  0  0  0  0
  152.8040  138.9886  158.6770 H   0  0  0  0  0  0  0  0  0  0  0  0
  149.6218  138.9998  157.0045 H   0  0  0  0  0  0  0  0  0  0  0  0
  150.1243  138.0226  153.3449 H   0  0  0  0  0  0  0  0  0  0  0  0
  148.4572  137.8298  152.3331 H   0  0  0  0  0  0  0  0  0  0  0  0
  145.8485  138.5383  153.3972 H   0  0  0  0  0  0  0  0  0  0  0  0
  146.3858  139.6381  152.1661 H   0  0  0  0  0  0  0  0  0  0  0  0
  145.4370  138.1524  150.7125 H   0  0  0  0  0  0  0  0  0  0  0  0
  147.0004  137.4019  150.8389 H   0  0  0  0  0  0  0  0  0  0  0  0
  144.8818  135.8096  149.9277 H   0  0  0  0  0  0  0  0  0  0  0  0
  146.4495  135.2113  150.4240 H   0  0  0  0  0  0  0  0  0  0  0  0
  144.7274  133.3917  150.3978 H   0  0  0  0  0  0  0  0  0  0  0  0
  145.3943  133.6115  152.0061 H   0  0  0  0  0  0  0  0  0  0  0  0
  142.4461  135.4404  153.1294 H   0  0  0  0  0  0  0  0  0  0  0  0
  144.0128  134.8558  153.6608 H   0  0  0  0  0  0  0  0  0  0  0  0
  144.1194  137.2858  153.1985 H   0  0  0  0  0  0  0  0  0  0  0  0
  143.4973  137.0517  151.5816 H   0  0  0  0  0  0  0  0  0  0  0  0
  1  2  1  0  0  0  0
  1 19  1  0  0  0  0
  1 20  1  0  0  0  0
  1 21  1  0  0  0  0
  2 18  1  0  0  0  0
  2  3  2  0  0  0  0
  3  4  1  0  0  0  0
  3 22  1  0  0  0  0
  4  5  1  0  0  0  0
  4 17  2  0  0  0  0
  5  6  1  0  0  0  0
  5 23  1  0  0  0  0
  6  7  2  0  0  0  0
  6  8  1  0  0  0  0
  8  9  1  0  0  0  0
  8 24  1  0  0  0  0
  9 10  1  0  0  0  0
  9 25  1  0  0  0  0
  9 26  1  0  0  0  0
 10 11  1  0  0  0  0
 10 27  1  0  0  0  0
 10 28  1  0  0  0  0
 11 16  1  0  0  0  0
 11 12  1  0  0  0  0
 12 13  1  0  0  0  0
 12 29  1  0  0  0  0
 12 30  1  0  0  0  0
 13 14  1  0  0  0  0
 13 31  1  0  0  0  0
 13 32  1  0  0  0  0
 14 15  1  0  0  0  0
 15 16  1  0  0  0  0
 15 33  1  0  0  0  0
 15 34  1  0  0  0  0
 16 35  1  0  0  0  0
 16 36  1  0  0  0  0
 17 18  1  0  0  0  0
M  END
> <s_m_source_file>
AV-unprocessed.smi

> <i_m_source_file_index>
1593

> <i_lp_mmshare_version>
43012

> <i_f3d_flags>
0

> <s_epik_input>
W0NIM11jMVtjSF1jKG5vMSlbTkhdQyg9TylbTkhdW0NIMl1bQ0gyXU4yW0NIMl1bQ0gyXU9bQ0gyXVtDSDJdMg==

> <s_epik_cmdline>
J2VwaWtfcHl0aG9uJywgJy1waCcsICc3LjAnLCAnLXRuJywgJzgnLCAnLW1hJywgJzIwMCcsICctbWV0YWxfYmluZGluZycsICctaW1hZScsICc8aW5maWxlLm1hZT4nLCAnLW9tYWUnLCAnPG91dGZpbGUubWFlPic=

> <r_epik_Ionization_Penalty>
0.214073

> <r_epik_Ionization_Penalty_Charging>
0

> <r_epik_Ionization_Penalty_Neutral>
0.214073

> <r_epik_State_Penalty>
0.204211

> <r_epik_Charging_Adjusted_Penalty>
0.204211

> <i_epik_Tot_Q>
0

> <i_epik_Tot_abs_Q>
0

> <r_epik_Metal_State_Penalty>
0.217151

> <b_epik_Metal_Only>
0

> <s_lp_Force_Field>
OPLS_2005

> <r_lp_Energy>
24.5673

> <b_lp_Chiralities_Consistent>
1

> <s_lp_Variant>
AV-unprocessed.smi:1593-1

> <Gold.Version>
5.8.1

> <Gold.Id.Protein>
6NUR|6NUR_protein|mol2

> <Gold.PLP.Fitness>
34.6132

> <Gold.PLP.PLP>
-27.2011

> <Gold.PLP.part.hbond>
-4.4561

> <Gold.PLP.part.metal>
0.0000

> <Gold.PLP.part.buried>
-1.8158

> <Gold.PLP.part.nonpolar>
-22.1314

> <Gold.PLP.part.repulsive>
0.6524

> <Gold.PLP.ligand.clash>
0.0000

> <Gold.PLP.ligand.torsion>
0.6892

> <Gold.PLP.Chemscore.Hbond>
2.9280

> <Gold.PLP.Chemscore.CHOScore>
0.0000

> <Gold.PLP.Chemscore.Metal>
0.0000

> <Gold.Chemscore.Hbonds>
donor molecule, donor type, donor heavy atom, donor atom, acceptor molecule, acceptor atom, score
      L1  H     8    24       P1  7948  1.00
      P1  H  7989  7998       L1    17  0.93
      P1  H  7997  8009       L1    18  1.00

> <Gold.PLP.Chemscore.Internal.Correction>
0.0065

> <Gold.Rescore>
     Score         DG    S(hbond)    S(metal)    S(lipo)     H(rot)  DE(clash)    DE(int)     intcor
     15.14     -16.23       2.77        0.00      47.77       1.60       0.33       0.77       ----

> <Gold.Chemscore.Fitness>
15.1361

> <Gold.Chemscore.DG>
-16.2326

> <Gold.Chemscore.ZeroCoef>
-5.4800

> <Gold.Chemscore.Hbond>
2.7737

> <Gold.Chemscore.Metal>
0.0000

> <Gold.Chemscore.Lipo>
47.7714

> <Gold.Chemscore.Internal_Hbond>
0.0000

> <Gold.Chemscore.DEClash>
0.3252

> <Gold.Chemscore.DEInternal>
0.7713

> <Gold.Chemscore.Rot>
1.6019

> <Gold.Chemscore.Internal.Correction>
   9.000000E+99

> <Gold.Chemscore.Hbonds>
donor molecule, donor type, donor heavy atom, donor atom, acceptor molecule, acceptor atom, score
      L1  H     8    24       P1  7948  0.97
      P1  H  7989  7998       L1    17  0.20
      P1  H  7997  8009       L1    18  0.94

> <Gold.Chemscore.Hbond.Weighted>
-9.2643

> <Gold.Chemscore.Metal.Weighted>
-0.0000

> <Gold.Chemscore.Lipo.Weighted>
-5.5893

> <Gold.Chemscore.Internal_Hbond.Weighted>
0.0000

> <Gold.Chemscore.DEClash.Weighted>
0.3252

> <Gold.Chemscore.DEInternal.Weighted>
0.7713

> <Gold.Chemscore.Rot.Weighted>
4.1009

> <Gold.Chemscore.Internal.Correction.Weighted>
   9.000000E+99

> <Gold.Protein.RotatedTorsions>
[ 6907 6896 6895 6894 ] final  -57.07 input  -60.11 | X-H torsion
[ 7974 7965 7964 7962 ] final  -23.22 input  175.53 | X-H torsion
[ 8008 7997 7996 7995 ] final -162.86 input   59.86 | X-H torsion
[ 10167 10162 10161 10158 ] final -164.16 input  -65.29 | X-H torsion
[ 10718 10713 10712 10709 ] final  -80.37 input   66.30 | X-H torsion
[ 10763 10752 10751 10750 ] final  -47.30 input  -60.55 | X-H torsion
[ 11005 11000 10999 10996 ] final  -30.22 input  -57.11 | X-H torsion

> <Gold.Protein.ActiveResidues>
 VAL166  LYS551  ARG553  GLY616  TRP617  ASP618  TYR619  PRO620  LYS621  CYS622 
 ASP623  PHE694  ASN695  SER759  ASP760  ASP761  ALA762  ILE779  LEU786  VAL792 
 PHE793  MET794  SER795  GLU796  ALA797  LYS798  CYS799  TRP800  GLU811  SER814 

> <Gold.Protein.RotatedAtoms>
  150.8116  134.7274  159.6692 H   0  0  0  0  0  0  0  0  0  0  0  0  # atno 6907 bound_to 6896
  152.4236  134.5907  159.9983 H   0  0  0  0  0  0  0  0  0  0  0  0  # atno 6908 bound_to 6896
  151.6115  133.3309  159.3104 H   0  0  0  0  0  0  0  0  0  0  0  0  # atno 6909 bound_to 6896
  146.1629  140.4587  142.8564 H   0  0  0  0  0  0  0  0  0  0  0  0  # atno 7974 bound_to 7965
  155.8129  140.0908  157.1893 H   0  0  0  0  0  0  0  0  0  0  0  0  # atno 8008 bound_to 7997
  154.3979  140.1451  156.3468 H   0  0  0  0  0  0  0  0  0  0  0  0  # atno 8009 bound_to 7997
  155.8346  140.3441  155.5596 H   0  0  0  0  0  0  0  0  0  0  0  0  # atno 8010 bound_to 7997
  139.6270  144.0513  152.1983 H   0  0  0  0  0  0  0  0  0  0  0  0  # atno 10167 bound_to 10162
  156.0072  130.4572  150.3790 H   0  0  0  0  0  0  0  0  0  0  0  0  # atno 10718 bound_to 10713
  154.0591  135.6620  153.4809 H   0  0  0  0  0  0  0  0  0  0  0  0  # atno 10763 bound_to 10752
  153.0434  135.5130  154.7676 H   0  0  0  0  0  0  0  0  0  0  0  0  # atno 10764 bound_to 10752
  154.6707  135.3029  154.9712 H   0  0  0  0  0  0  0  0  0  0  0  0  # atno 10765 bound_to 10752
  140.9364  133.7306  156.1011 H   0  0  0  0  0  0  0  0  0  0  0  0  # atno 11005 bound_to 11000
  144.8052  140.6286  143.6452 LP  0  0  0  0  0  0  0  0  0  0  0  0  # atno 17320 bound_to 7965
  145.4542  139.1520  143.3901 LP  0  0  0  0  0  0  0  0  0  0  0  0  # atno 17321 bound_to 7965
  140.0169  144.6182  150.7599 LP  0  0  0  0  0  0  0  0  0  0  0  0  # atno 17342 bound_to 10162
  140.7417  143.2821  151.3568 LP  0  0  0  0  0  0  0  0  0  0  0  0  # atno 17343 bound_to 10162
  157.1871  131.0406  151.2719 LP  0  0  0  0  0  0  0  0  0  0  0  0  # atno 17370 bound_to 10713
  157.4094  130.7377  149.6827 LP  0  0  0  0  0  0  0  0  0  0  0  0  # atno 17371 bound_to 10713
  140.7793  134.3743  157.5491 LP  0  0  0  0  0  0  0  0  0  0  0  0  # atno 17394 bound_to 11000
  139.8809  134.9072  156.2939 LP  0  0  0  0  0  0  0  0  0  0  0  0  # atno 17395 bound_to 11000

$$$$
