AV-unprocessed.smi:1600|AV-procd|sdf|6428|dock9
  -GOLD-   22720 7 73D 1   1.00000     0.00000
 Structure written by MMmdl.
 46 47  0  0  0  0  0  0  0  0  2 V2000
  153.2617  141.6118  161.6586 C   0  0  0  0  0  0  0  0  0  0  0  0
  152.7610  142.1360  160.3452 C   0  0  0  0  0  0  0  0  0  0  0  0
  151.7441  141.5865  159.5116 C   0  0  0  0  0  0  0  0  0  0  0  0
  151.7086  142.4634  158.4618 C   0  0  0  0  0  0  0  0  0  0  0  0
  150.9170  142.4417  157.3565 N   0  0  0  0  0  0  0  0  0  0  0  0
  150.5318  141.3829  156.6227 C   0  0  0  0  0  0  0  0  0  0  0  0
  150.8319  140.2102  156.8474 O   0  0  0  0  0  0  0  0  0  0  0  0
  149.7783  141.7632  155.5804 N   0  0  0  0  0  0  0  0  0  0  0  0
  149.1954  140.8660  154.5846 C   0  0  0  0  0  0  0  0  0  0  0  0
  147.6509  140.8473  154.5941 C   0  0  1  0  0  0  0  0  0  0  0  0
  147.0017  140.3242  155.8752 C   0  0  0  0  0  0  0  0  0  0  0  0
  145.5784  140.8995  155.8458 C   0  0  0  0  0  0  0  0  0  0  0  0
  145.5534  141.9643  154.8097 N   0  3  1  0  0  0  0  0  0  0  0  0
  144.7758  143.1831  155.1726 C   0  0  0  0  0  0  0  0  0  0  0  0
  145.4825  143.9789  156.2860 C   0  0  0  0  0  0  0  0  0  0  0  0
  143.3428  142.8364  155.6201 C   0  0  0  0  0  0  0  0  0  0  0  0
  146.9574  142.1979  154.4073 C   0  0  0  0  0  0  0  0  0  0  0  0
  152.6394  143.4548  158.6786 N   0  0  0  0  0  0  0  0  0  0  0  0
  152.9704  144.6031  157.8576 C   0  0  0  0  0  0  0  0  0  0  0  0
  153.2904  143.2462  159.8433 N   0  0  0  0  0  0  0  0  0  0  0  0
  152.6439  140.7871  162.0145 H   0  0  0  0  0  0  0  0  0  0  0  0
  153.2494  142.3884  162.4238 H   0  0  0  0  0  0  0  0  0  0  0  0
  154.2845  141.2452  161.5696 H   0  0  0  0  0  0  0  0  0  0  0  0
  151.1522  140.6993  159.6776 H   0  0  0  0  0  0  0  0  0  0  0  0
  150.5999  143.3453  157.0374 H   0  0  0  0  0  0  0  0  0  0  0  0
  149.5806  142.7478  155.4732 H   0  0  0  0  0  0  0  0  0  0  0  0
  149.5576  141.1143  153.5856 H   0  0  0  0  0  0  0  0  0  0  0  0
  149.5659  139.8621  154.7926 H   0  0  0  0  0  0  0  0  0  0  0  0
  147.3272  140.2017  153.7759 H   0  0  0  0  0  0  0  0  0  0  0  0
  147.0117  139.2352  155.9319 H   0  0  0  0  0  0  0  0  0  0  0  0
  147.5220  140.7040  156.7551 H   0  0  0  0  0  0  0  0  0  0  0  0
  144.8479  140.1338  155.5832 H   0  0  0  0  0  0  0  0  0  0  0  0
  145.3169  141.2832  156.8331 H   0  0  0  0  0  0  0  0  0  0  0  0
  144.7068  143.8172  154.2872 H   0  0  0  0  0  0  0  0  0  0  0  0
  144.9067  144.8640  156.5587 H   0  0  0  0  0  0  0  0  0  0  0  0
  146.4702  144.3253  155.9824 H   0  0  0  0  0  0  0  0  0  0  0  0
  145.6043  143.3755  157.1862 H   0  0  0  0  0  0  0  0  0  0  0  0
  142.8029  143.7330  155.9264 H   0  0  0  0  0  0  0  0  0  0  0  0
  143.3463  142.1488  156.4664 H   0  0  0  0  0  0  0  0  0  0  0  0
  142.7621  142.3800  154.8186 H   0  0  0  0  0  0  0  0  0  0  0  0
  147.3896  142.9515  155.0658 H   0  0  0  0  0  0  0  0  0  0  0  0
  147.0329  142.5573  153.3807 H   0  0  0  0  0  0  0  0  0  0  0  0
  153.2896  144.2680  156.8705 H   0  0  0  0  0  0  0  0  0  0  0  0
  153.7758  145.1816  158.3123 H   0  0  0  0  0  0  0  0  0  0  0  0
  152.0935  145.2418  157.7517 H   0  0  0  0  0  0  0  0  0  0  0  0
  145.1028  141.5567  154.0028 H   0  0  0  0  0  0  0  0  0  0  0  0
  1  2  1  0  0  0  0
  1 21  1  0  0  0  0
  1 22  1  0  0  0  0
  1 23  1  0  0  0  0
  2 20  2  0  0  0  0
  2  3  1  0  0  0  0
  3  4  2  0  0  0  0
  3 24  1  0  0  0  0
  4  5  1  0  0  0  0
  4 18  1  0  0  0  0
  5  6  1  0  0  0  0
  5 25  1  0  0  0  0
  6  7  2  0  0  0  0
  6  8  1  0  0  0  0
  8  9  1  0  0  0  0
  8 26  1  0  0  0  0
  9 10  1  0  0  0  0
  9 27  1  0  0  0  0
  9 28  1  0  0  0  0
 10 17  1  0  0  0  0
 10 11  1  0  0  0  0
 10 29  1  0  0  0  0
 11 12  1  0  0  0  0
 11 30  1  0  0  0  0
 11 31  1  0  0  0  0
 12 13  1  0  0  0  0
 12 32  1  0  0  0  0
 12 33  1  0  0  0  0
 13 14  1  0  0  0  0
 13 17  1  0  0  0  0
 13 46  1  0  0  0  0
 14 15  1  0  0  0  0
 14 16  1  0  0  0  0
 14 34  1  0  0  0  0
 15 35  1  0  0  0  0
 15 36  1  0  0  0  0
 15 37  1  0  0  0  0
 16 38  1  0  0  0  0
 16 39  1  0  0  0  0
 16 40  1  0  0  0  0
 17 41  1  0  0  0  0
 17 42  1  0  0  0  0
 18 19  1  0  0  0  0
 18 20  1  0  0  0  0
 19 43  1  0  0  0  0
 19 44  1  0  0  0  0
 19 45  1  0  0  0  0
M  CHG  1  13   1
M  END
> <s_m_source_file>
AV-unprocessed.smi

> <i_m_source_file_index>
1600

> <i_lp_mmshare_version>
43012

> <i_f3d_flags>
0

> <s_epik_input>
W0NIM11jMVtjSF1jKG4objEpW0NIM10pW05IXUMoPU8pW05IXVtDSDJdW0NAQEhdMltDSDJdW0NIMl1OKFtDSDJdMilbQ0hdKFtDSDNdKVtDSDNd

> <s_epik_cmdline>
J2VwaWtfcHl0aG9uJywgJy1waCcsICc3LjAnLCAnLXRuJywgJzgnLCAnLW1hJywgJzIwMCcsICctbWV0YWxfYmluZGluZycsICctaW1hZScsICc8aW5maWxlLm1hZT4nLCAnLW9tYWUnLCAnPG91dGZpbGUubWFlPic=

> <r_lp_tautomer_probability>
1

> <r_epik_Ionization_Penalty>
0.000297652

> <r_epik_Ionization_Penalty_Charging>
0.000213653

> <r_epik_Ionization_Penalty_Neutral>
8.3999e-05

> <r_epik_State_Penalty>
-0

> <r_epik_Charging_Adjusted_Penalty>
0.000213653

> <i_epik_Tot_Q>
1

> <i_epik_Tot_abs_Q>
1

> <r_epik_Metal_State_Penalty>
-0

> <b_epik_Metal_Only>
0

> <s_lp_Force_Field>
OPLS_2005

> <r_lp_Energy>
33.4544

> <b_lp_Chiralities_Consistent>
1

> <s_lp_Variant>
AV-unprocessed.smi:1600-2

> <Gold.Version>
5.8.1

> <Gold.Id.Protein>
6NUR|6NUR_protein|mol2

> <Gold.PLP.Fitness>
50.8169

> <Gold.PLP.PLP>
-39.5105

> <Gold.PLP.part.hbond>
-3.0000

> <Gold.PLP.part.metal>
0.0000

> <Gold.PLP.part.buried>
-6.1524

> <Gold.PLP.part.nonpolar>
-31.2425

> <Gold.PLP.part.repulsive>
0.2476

> <Gold.PLP.ligand.clash>
0.0000

> <Gold.PLP.ligand.torsion>
0.3577

> <Gold.PLP.Chemscore.Hbond>
4.0000

> <Gold.PLP.Chemscore.CHOScore>
0.0000

> <Gold.PLP.Chemscore.Metal>
0.0000

> <Gold.Chemscore.Hbonds>
donor molecule, donor type, donor heavy atom, donor atom, acceptor molecule, acceptor atom, score
      L1  H     8    26       P1  8028  0.83
      L1  H    13    46       P1 10175  0.52

> <Gold.PLP.Chemscore.Internal.Correction>
0.0218

> <Gold.Rescore>
     Score         DG    S(hbond)    S(metal)    S(lipo)     H(rot)  DE(clash)    DE(int)     intcor
     18.22     -20.47       2.86        0.00      78.03       1.44       1.72       0.53       ----

> <Gold.Chemscore.Fitness>
18.2208

> <Gold.Chemscore.DG>
-20.4710

> <Gold.Chemscore.ZeroCoef>
-5.4800

> <Gold.Chemscore.Hbond>
2.8564

> <Gold.Chemscore.Metal>
0.0000

> <Gold.Chemscore.Lipo>
78.0253

> <Gold.Chemscore.Internal_Hbond>
0.0000

> <Gold.Chemscore.DEClash>
1.7218

> <Gold.Chemscore.DEInternal>
0.5285

> <Gold.Chemscore.Rot>
1.4369

> <Gold.Chemscore.Internal.Correction>
   9.000000E+99

> <Gold.Chemscore.Hbonds>
donor molecule, donor type, donor heavy atom, donor atom, acceptor molecule, acceptor atom, score
      L1  H     8    26       P1  8028  0.82
      L1  H    13    46       P1 10175  0.07

> <Gold.Chemscore.Hbond.Weighted>
-9.5405

> <Gold.Chemscore.Metal.Weighted>
-0.0000

> <Gold.Chemscore.Lipo.Weighted>
-9.1290

> <Gold.Chemscore.Internal_Hbond.Weighted>
0.0000

> <Gold.Chemscore.DEClash.Weighted>
1.7218

> <Gold.Chemscore.DEInternal.Weighted>
0.5285

> <Gold.Chemscore.Rot.Weighted>
3.6785

> <Gold.Chemscore.Internal.Correction.Weighted>
   9.000000E+99

> <Gold.Protein.RotatedTorsions>
[ 6907 6896 6895 6894 ] final -164.48 input  -60.11 | X-H torsion
[ 7974 7965 7964 7962 ] final  -95.16 input  175.53 | X-H torsion
[ 8008 7997 7996 7995 ] final  128.18 input   59.86 | X-H torsion
[ 10167 10162 10161 10158 ] final  -11.59 input  -65.29 | X-H torsion
[ 10718 10713 10712 10709 ] final  -63.84 input   66.30 | X-H torsion
[ 10763 10752 10751 10750 ] final  100.73 input  -60.55 | X-H torsion
[ 11005 11000 10999 10996 ] final   18.23 input  -57.11 | X-H torsion

> <Gold.Protein.ActiveResidues>
 VAL166  LYS551  ARG553  GLY616  TRP617  ASP618  TYR619  PRO620  LYS621  CYS622 
 ASP623  PHE694  ASN695  SER759  ASP760  ASP761  ALA762  ILE779  LEU786  VAL792 
 PHE793  MET794  SER795  GLU796  ALA797  LYS798  CYS799  TRP800  GLU811  SER814 

> <Gold.Protein.RotatedAtoms>
  151.4125  133.3723  159.2745 H   0  0  0  0  0  0  0  0  0  0  0  0  # atno 6907 bound_to 6896
  150.9352  134.8766  159.7588 H   0  0  0  0  0  0  0  0  0  0  0  0  # atno 6908 bound_to 6896
  152.5046  134.4073  159.9489 H   0  0  0  0  0  0  0  0  0  0  0  0  # atno 6909 bound_to 6896
  145.3637  140.9495  143.2486 H   0  0  0  0  0  0  0  0  0  0  0  0  # atno 7974 bound_to 7965
  156.2909  140.2651  156.2393 H   0  0  0  0  0  0  0  0  0  0  0  0  # atno 8008 bound_to 7997
  154.9993  140.0388  157.2371 H   0  0  0  0  0  0  0  0  0  0  0  0  # atno 8009 bound_to 7997
  154.7616  140.2761  155.6215 H   0  0  0  0  0  0  0  0  0  0  0  0  # atno 8010 bound_to 7997
  140.7142  143.5623  150.9182 H   0  0  0  0  0  0  0  0  0  0  0  0  # atno 10167 bound_to 10162
  156.0765  130.4226  150.1335 H   0  0  0  0  0  0  0  0  0  0  0  0  # atno 10718 bound_to 10713
  153.3176  135.4069  155.1389 H   0  0  0  0  0  0  0  0  0  0  0  0  # atno 10763 bound_to 10752
  154.8592  135.3579  154.5639 H   0  0  0  0  0  0  0  0  0  0  0  0  # atno 10764 bound_to 10752
  153.6071  135.7069  153.5420 H   0  0  0  0  0  0  0  0  0  0  0  0  # atno 10765 bound_to 10752
  140.4271  134.1458  155.7677 H   0  0  0  0  0  0  0  0  0  0  0  0  # atno 11005 bound_to 11000
  144.8628  139.5152  143.6804 LP  0  0  0  0  0  0  0  0  0  0  0  0  # atno 17320 bound_to 7965
  146.2916  139.7156  142.9157 LP  0  0  0  0  0  0  0  0  0  0  0  0  # atno 17321 bound_to 7965
  139.9349  143.6450  152.3068 LP  0  0  0  0  0  0  0  0  0  0  0  0  # atno 17342 bound_to 10162
  139.6914  144.7646  151.1432 LP  0  0  0  0  0  0  0  0  0  0  0  0  # atno 17343 bound_to 10162
  156.9375  130.9734  151.3522 LP  0  0  0  0  0  0  0  0  0  0  0  0  # atno 17370 bound_to 10713
  157.5863  130.8412  149.8595 LP  0  0  0  0  0  0  0  0  0  0  0  0  # atno 17371 bound_to 10713
  141.1760  133.8512  157.1418 LP  0  0  0  0  0  0  0  0  0  0  0  0  # atno 17394 bound_to 11000
  140.0159  134.9967  157.0493 LP  0  0  0  0  0  0  0  0  0  0  0  0  # atno 17395 bound_to 11000

$$$$
