#       Name:                AV-unprocessed.smi:2272
#       Creating user name   scv26
#       Creation time:       Fri Mar 27 12:37:16 2020


#       File generated by GOLD software.
#

@<TRIPOS>MOLECULE
AV-unprocessed.smi:2272
    48    49     1
SMALL
NO_CHARGES


@<TRIPOS>ATOM
      1 ****        -1.3027   4.2868  -0.3548 C.3            1 S1                 0.0000
      2 ****        -1.0139   2.9119  -0.9310 C.2            1 S1                 0.0000
      3 ****        -0.2553   2.8961  -2.1045 N.2            1 S1                 0.0000
      4 ****         0.0523   1.7689  -2.6574 C.2            1 S1                 0.0000
      5 ****        -0.3526   0.5402  -2.1089 N.am           1 S1                 0.0000
      6 ****         0.0898  -0.6663  -2.8314 C.3            1 S1                 0.0000
      7 ****         1.5647  -1.0252  -2.5393 C.3            1 S1                 0.0000
      8 ****         2.0014  -2.0456  -3.4119 O.3            1 S1                 0.0000
      9 ****         1.8712  -1.4373  -1.0892 C.3            1 S1                 0.0000
     10 ****         0.9843  -2.4661  -0.6712 O.3            1 S1                 0.0000
     11 ****         1.2367  -2.9489   0.6416 C.3            1 S1                 0.0000
     12 ****         0.7171  -2.0237   1.7300 C.ar           1 S1                 0.0000
     13 ****         1.5769  -1.0724   2.3192 C.ar           1 S1                 0.0000
     14 ****         1.0992  -0.2104   3.3252 C.ar           1 S1                 0.0000
     15 ****        -0.2392  -0.3004   3.7523 C.ar           1 S1                 0.0000
     16 ****        -1.0995  -1.2521   3.1719 C.ar           1 S1                 0.0000
     17 ****        -0.6243  -2.1127   2.1632 C.ar           1 S1                 0.0000
     18 ****        -1.4638  -3.0214   1.6111 F              1 S1                 0.0000
     19 ****        -1.1167   0.4678  -0.9803 C.2            1 S1                 0.0000
     20 ****        -1.4930  -0.6104  -0.5197 O.2            1 S1                 0.0000
     21 ****        -1.4538   1.7586  -0.3581 C.2            1 S1                 0.0000
     22 ****        -2.2782   1.7167   0.9222 C.3            1 S1                 0.0000
     23 ****        -0.9274   4.3610   0.6663 H              1 S1                 0.0000
     24 ****        -2.3759   4.4794  -0.3473 H              1 S1                 0.0000
     25 ****        -0.8265   5.0723  -0.9432 H              1 S1                 0.0000
     26 ****         0.6431   1.7003  -3.5729 H              1 S1                 0.0000
     27 ****        -0.5512  -1.5233  -2.6183 H              1 S1                 0.0000
     28 ****        -0.0338  -0.4993  -3.9035 H              1 S1                 0.0000
     29 ****         2.1881  -0.1624  -2.7759 H              1 S1                 0.0000
     30 ****         1.5167  -2.8328  -3.2145 H              1 S1                 0.0000
     31 ****         2.9087  -1.7643  -1.0020 H              1 S1                 0.0000
     32 ****         1.7557  -0.5692  -0.4400 H              1 S1                 0.0000
     33 ****         0.7402  -3.9142   0.7413 H              1 S1                 0.0000
     34 ****         2.3003  -3.1468   0.7852 H              1 S1                 0.0000
     35 ****         2.6050  -0.9980   1.9960 H              1 S1                 0.0000
     36 ****         1.7598   0.5198   3.7692 H              1 S1                 0.0000
     37 ****        -0.6069   0.3607   4.5231 H              1 S1                 0.0000
     38 ****        -2.1270  -1.3199   3.4976 H              1 S1                 0.0000
     39 ****        -1.7041   1.2442   1.7185 H              1 S1                 0.0000
     40 ****        -3.1893   1.1369   0.7700 H              1 S1                 0.0000
     41 ****        -2.5775   2.7031   1.2725 H              1 S1                 0.0000
     42 ****         0.0491   3.7553  -2.5158 LP             1 S1                 0.0000
     43 ****         2.9791  -2.2084  -3.2793 LP             1 S1                 0.0000
     44 ****         1.8342  -1.7744  -4.3598 LP             1 S1                 0.0000
     45 ****         1.0677  -3.2316  -1.3092 LP             1 S1                 0.0000
     46 ****         0.0511  -2.1080  -0.7005 LP             1 S1                 0.0000
     47 ****        -1.2394  -1.4642  -0.9744 LP             1 S1                 0.0000
     48 ****        -2.0521  -0.6323   0.3090 LP             1 S1                 0.0000
@<TRIPOS>BOND
    1    1    2 1     
    2    1   23 1     
    3    1   24 1     
    4    1   25 1     
    5    2   21 2     
    6    2    3 1     
    7    3    4 2     
    8    4    5 1     
    9    4   26 1     
   10    5    6 1     
   11    5   19 am    
   12    6    7 1     
   13    6   27 1     
   14    6   28 1     
   15    7    8 1     
   16    7    9 1     
   17    7   29 1     
   18    8   30 1     
   19    9   10 1     
   20    9   31 1     
   21    9   32 1     
   22   10   11 1     
   23   11   12 1     
   24   11   33 1     
   25   11   34 1     
   26   12   17 ar    
   27   12   13 ar    
   28   13   14 ar    
   29   13   35 1     
   30   14   15 ar    
   31   14   36 1     
   32   15   16 ar    
   33   15   37 1     
   34   16   17 ar    
   35   16   38 1     
   36   17   18 1     
   37   19   20 2     
   38   19   21 1     
   39   21   22 1     
   40   22   39 1     
   41   22   40 1     
   42   22   41 1     
   43    3   42 1     
   44    8   43 1     
   45    8   44 1     
   46   10   45 1     
   47   10   46 1     
   48   20   47 1     
   49   20   48 1     
@<TRIPOS>SUBSTRUCTURE
      1 S1             1
@<TRIPOS>SET
LONE_PAIRS      STATIC     ATOMS    <user>   **** ""
7 42 43 44 45 46 47 48
DONOR_HYDROGENS      STATIC     ATOMS    <user>   **** ""
1 30
ATOM$BLUE        STATIC     ATOMS    COLORGROUP SYSTEM
7 42 43 44 45 46 47 48
ATOM$RED        STATIC     ATOMS    COLORGROUP SYSTEM
1 30
