AV-unprocessed.smi:3035|AV-procd|sdf|11581|dock4
  -GOLD-   2272016553D 1   1.00000     0.00000
 Structure written by MMmdl.
 38 39  0  0  0  0  0  0  0  0  1 V2000
  155.8613  138.4354  159.3711 C   0  0  0  0  0  0  0  0  0  0  0  0
  154.7120  138.9557  158.7262 O   0  0  0  0  0  0  0  0  0  0  0  0
  153.9348  137.9474  158.1020 C   0  0  0  0  0  0  0  0  0  0  0  0
  152.7823  138.5652  157.3688 C   0  0  0  0  0  0  0  0  0  0  0  0
  151.6735  138.9740  157.8578 N   0  0  0  0  0  0  0  0  0  0  0  0
  151.0100  139.4260  156.7928 N   0  0  0  0  0  0  0  0  0  0  0  0
  149.6781  140.0073  156.9175 C   0  0  0  0  0  0  0  0  0  0  0  0
  149.7259  141.5380  156.7997 C   0  0  0  0  0  0  0  0  0  0  0  0
  150.9314  142.0635  157.4246 N   0  0  0  0  0  0  0  0  0  0  0  0
  150.9425  143.0387  158.3448 C   0  0  0  0  0  0  0  0  0  0  0  0
  149.9187  143.5893  158.7515 O   0  0  0  0  0  0  0  0  0  0  0  0
  152.3208  143.4560  158.8844 C   0  0  0  0  0  0  0  0  0  0  0  0
  153.0495  142.2846  159.5838 C   0  0  0  0  0  0  0  0  0  0  0  0
  153.2677  142.6989  161.0451 C   0  0  0  0  0  0  0  0  0  0  0  0
  152.2748  143.8297  161.2982 C   0  0  0  0  0  0  0  0  0  0  0  0
  152.2011  144.5564  159.9563 C   0  0  0  0  0  0  0  0  0  0  0  0
  151.7386  139.2897  155.6264 C   0  0  0  0  0  0  0  0  0  0  0  0
  151.4314  139.6068  154.4785 O   0  0  0  0  0  0  0  0  0  0  0  0
  152.8920  138.7264  156.0110 O   0  0  0  0  0  0  0  0  0  0  0  0
  156.4206  139.2478  159.8350 H   0  0  0  0  0  0  0  0  0  0  0  0
  156.5205  137.9358  158.6599 H   0  0  0  0  0  0  0  0  0  0  0  0
  155.5875  137.7257  160.1529 H   0  0  0  0  0  0  0  0  0  0  0  0
  154.5545  137.3764  157.4086 H   0  0  0  0  0  0  0  0  0  0  0  0
  153.5586  137.2487  158.8508 H   0  0  0  0  0  0  0  0  0  0  0  0
  149.0302  139.5891  156.1454 H   0  0  0  0  0  0  0  0  0  0  0  0
  149.2435  139.7179  157.8757 H   0  0  0  0  0  0  0  0  0  0  0  0
  149.7054  141.8327  155.7492 H   0  0  0  0  0  0  0  0  0  0  0  0
  148.8507  141.9820  157.2773 H   0  0  0  0  0  0  0  0  0  0  0  0
  151.8129  141.6605  157.1413 H   0  0  0  0  0  0  0  0  0  0  0  0
  152.9264  143.8274  158.0557 H   0  0  0  0  0  0  0  0  0  0  0  0
  152.4672  141.3623  159.5462 H   0  0  0  0  0  0  0  0  0  0  0  0
  154.0025  142.0681  159.1002 H   0  0  0  0  0  0  0  0  0  0  0  0
  153.1383  141.8679  161.7392 H   0  0  0  0  0  0  0  0  0  0  0  0
  154.2840  143.0755  161.1684 H   0  0  0  0  0  0  0  0  0  0  0  0
  151.2981  143.4153  161.5520 H   0  0  0  0  0  0  0  0  0  0  0  0
  152.5821  144.4842  162.1143 H   0  0  0  0  0  0  0  0  0  0  0  0
  153.0439  145.2431  159.8662 H   0  0  0  0  0  0  0  0  0  0  0  0
  151.2924  145.1541  159.8682 H   0  0  0  0  0  0  0  0  0  0  0  0
  1  2  1  0  0  0  0
  1 20  1  0  0  0  0
  1 21  1  0  0  0  0
  1 22  1  0  0  0  0
  2  3  1  0  0  0  0
  3  4  1  0  0  0  0
  3 23  1  0  0  0  0
  3 24  1  0  0  0  0
  4 19  1  0  0  0  0
  4  5  2  0  0  0  0
  5  6  1  0  0  0  0
  6  7  1  0  0  0  0
  6 17  1  0  0  0  0
  7  8  1  0  0  0  0
  7 25  1  0  0  0  0
  7 26  1  0  0  0  0
  8  9  1  0  0  0  0
  8 27  1  0  0  0  0
  8 28  1  0  0  0  0
  9 10  1  0  0  0  0
  9 29  1  0  0  0  0
 10 11  2  0  0  0  0
 10 12  1  0  0  0  0
 12 16  1  0  0  0  0
 12 13  1  0  0  0  0
 12 30  1  0  0  0  0
 13 14  1  0  0  0  0
 13 31  1  0  0  0  0
 13 32  1  0  0  0  0
 14 15  1  0  0  0  0
 14 33  1  0  0  0  0
 14 34  1  0  0  0  0
 15 16  1  0  0  0  0
 15 35  1  0  0  0  0
 15 36  1  0  0  0  0
 16 37  1  0  0  0  0
 16 38  1  0  0  0  0
 17 18  2  0  0  0  0
 17 19  1  0  0  0  0
M  END
> <s_m_source_file>
AV-unprocessed.smi

> <i_m_source_file_index>
3035

> <i_lp_mmshare_version>
43012

> <i_f3d_flags>
0

> <s_epik_input>
W0NIM11PW0NIMl1jMW5uKGMoPU8pbzEpW0NIMl1bQ0gyXVtOSF1DKD1PKVtDSF0yW0NIMl1bQ0gyXVtDSDJdW0NIMl0y

> <s_epik_cmdline>
J2VwaWtfcHl0aG9uJywgJy1waCcsICc3LjAnLCAnLXRuJywgJzgnLCAnLW1hJywgJzIwMCcsICctbWV0YWxfYmluZGluZycsICctaW1hZScsICc8aW5maWxlLm1hZT4nLCAnLW9tYWUnLCAnPG91dGZpbGUubWFlPic=

> <r_lp_tautomer_probability>
1

> <r_epik_Ionization_Penalty>
6.81406e-08

> <r_epik_Ionization_Penalty_Charging>
1.21446e-09

> <r_epik_Ionization_Penalty_Neutral>
6.69261e-08

> <r_epik_State_Penalty>
-0

> <r_epik_Charging_Adjusted_Penalty>
1.21446e-09

> <i_epik_Tot_Q>
0

> <i_epik_Tot_abs_Q>
0

> <r_epik_Metal_State_Penalty>
-0

> <b_epik_Metal_Only>
0

> <s_lp_Force_Field>
OPLS_2005

> <r_lp_Energy>
26.4396

> <b_lp_Chiralities_Consistent>
1

> <s_lp_Variant>
AV-unprocessed.smi:3035-1

> <Gold.Version>
5.8.1

> <Gold.Id.Protein>
6NUR|6NUR_protein|mol2

> <Gold.PLP.Fitness>
41.4504

> <Gold.PLP.PLP>
-34.0088

> <Gold.PLP.part.hbond>
-2.9560

> <Gold.PLP.part.metal>
0.0000

> <Gold.PLP.part.buried>
-4.0631

> <Gold.PLP.part.nonpolar>
-26.5363

> <Gold.PLP.part.repulsive>
0.3080

> <Gold.PLP.ligand.clash>
0.0000

> <Gold.PLP.ligand.torsion>
0.6312

> <Gold.PLP.Chemscore.Hbond>
2.8800

> <Gold.PLP.Chemscore.CHOScore>
0.0000

> <Gold.PLP.Chemscore.Metal>
0.0000

> <Gold.Chemscore.Hbonds>
donor molecule, donor type, donor heavy atom, donor atom, acceptor molecule, acceptor atom, score
      P1  H  7989  7998       L1    18  1.00
      P1  H  7997  8008       L1     2  0.99
      P1  H  7997  8009       L1    19  0.72

> <Gold.PLP.Chemscore.Internal.Correction>
0.0640

> <Gold.Rescore>
     Score         DG    S(hbond)    S(metal)    S(lipo)     H(rot)  DE(clash)    DE(int)     intcor
     14.28     -15.13       1.94        0.00      78.67       2.36       0.01       0.83       ----

> <Gold.Chemscore.Fitness>
14.2805

> <Gold.Chemscore.DG>
-15.1254

> <Gold.Chemscore.ZeroCoef>
-5.4800

> <Gold.Chemscore.Hbond>
1.9397

> <Gold.Chemscore.Metal>
0.0000

> <Gold.Chemscore.Lipo>
78.6742

> <Gold.Chemscore.Internal_Hbond>
0.0000

> <Gold.Chemscore.DEClash>
0.0143

> <Gold.Chemscore.DEInternal>
0.8307

> <Gold.Chemscore.Rot>
2.3587

> <Gold.Chemscore.Internal.Correction>
   9.000000E+99

> <Gold.Chemscore.Hbonds>
donor molecule, donor type, donor heavy atom, donor atom, acceptor molecule, acceptor atom, score
      P1  H  7989  7998       L1    18  0.98
      P1  H  7997  8008       L1     2  0.26
      P1  H  7997  8009       L1    19  0.12

> <Gold.Chemscore.Hbond.Weighted>
-6.4787

> <Gold.Chemscore.Metal.Weighted>
-0.0000

> <Gold.Chemscore.Lipo.Weighted>
-9.2049

> <Gold.Chemscore.Internal_Hbond.Weighted>
0.0000

> <Gold.Chemscore.DEClash.Weighted>
0.0143

> <Gold.Chemscore.DEInternal.Weighted>
0.8307

> <Gold.Chemscore.Rot.Weighted>
6.0382

> <Gold.Chemscore.Internal.Correction.Weighted>
   9.000000E+99

> <Gold.Protein.RotatedTorsions>
[ 6907 6896 6895 6894 ] final -140.38 input  -60.11 | X-H torsion
[ 7974 7965 7964 7962 ] final  -68.66 input  175.53 | X-H torsion
[ 8008 7997 7996 7995 ] final -139.58 input   59.86 | X-H torsion
[ 10167 10162 10161 10158 ] final   -5.25 input  -65.29 | X-H torsion
[ 10718 10713 10712 10709 ] final  -42.79 input   66.30 | X-H torsion
[ 10763 10752 10751 10750 ] final  178.87 input  -60.55 | X-H torsion
[ 11005 11000 10999 10996 ] final  145.17 input  -57.11 | X-H torsion

> <Gold.Protein.ActiveResidues>
 VAL166  LYS551  ARG553  GLY616  TRP617  ASP618  TYR619  PRO620  LYS621  CYS622 
 ASP623  PHE694  ASN695  SER759  ASP760  ASP761  ALA762  ILE779  LEU786  VAL792 
 PHE793  MET794  SER795  GLU796  ALA797  LYS798  CYS799  TRP800  GLU811  SER814 

> <Gold.Protein.RotatedAtoms>
  151.0599  133.5553  159.2634 H   0  0  0  0  0  0  0  0  0  0  0  0  # atno 6907 bound_to 6896
  151.2532  135.0628  159.9080 H   0  0  0  0  0  0  0  0  0  0  0  0  # atno 6908 bound_to 6896
  152.5396  134.0356  159.8098 H   0  0  0  0  0  0  0  0  0  0  0  0  # atno 6909 bound_to 6896
  145.7137  140.9067  143.0667 H   0  0  0  0  0  0  0  0  0  0  0  0  # atno 7974 bound_to 7965
  155.4472  140.0536  157.3004 H   0  0  0  0  0  0  0  0  0  0  0  0  # atno 8008 bound_to 7997
  154.4792  140.2074  155.9760 H   0  0  0  0  0  0  0  0  0  0  0  0  # atno 8009 bound_to 7997
  156.1180  140.3193  155.8172 H   0  0  0  0  0  0  0  0  0  0  0  0  # atno 8010 bound_to 7997
  140.6956  143.6329  150.8506 H   0  0  0  0  0  0  0  0  0  0  0  0  # atno 10167 bound_to 10162
  156.2559  130.4192  149.8597 H   0  0  0  0  0  0  0  0  0  0  0  0  # atno 10718 bound_to 10713
  154.5133  135.2790  155.1324 H   0  0  0  0  0  0  0  0  0  0  0  0  # atno 10763 bound_to 10752
  154.2911  135.6266  153.5389 H   0  0  0  0  0  0  0  0  0  0  0  0  # atno 10764 bound_to 10752
  152.9922  135.5674  154.5603 H   0  0  0  0  0  0  0  0  0  0  0  0  # atno 10765 bound_to 10752
  140.0690  134.9162  157.1314 H   0  0  0  0  0  0  0  0  0  0  0  0  # atno 11005 bound_to 11000
  144.6935  139.9109  143.7463 LP  0  0  0  0  0  0  0  0  0  0  0  0  # atno 17320 bound_to 7965
  146.0689  139.3678  143.0535 LP  0  0  0  0  0  0  0  0  0  0  0  0  # atno 17321 bound_to 7965
  140.0047  143.5706  152.2862 LP  0  0  0  0  0  0  0  0  0  0  0  0  # atno 17342 bound_to 10162
  139.6408  144.7654  151.2342 LP  0  0  0  0  0  0  0  0  0  0  0  0  # atno 17343 bound_to 10162
  156.6129  130.8594  151.3458 LP  0  0  0  0  0  0  0  0  0  0  0  0  # atno 17370 bound_to 10713
  157.7232  130.9587  150.1525 LP  0  0  0  0  0  0  0  0  0  0  0  0  # atno 17371 bound_to 10713
  140.3655  134.2447  155.7183 LP  0  0  0  0  0  0  0  0  0  0  0  0  # atno 17394 bound_to 11000
  141.2004  133.7987  157.0489 LP  0  0  0  0  0  0  0  0  0  0  0  0  # atno 17395 bound_to 11000

$$$$
