#       Name:                AV-unprocessed.smi:2001
#       Creating user name   scv26
#       Creation time:       Fri Mar 27 10:32:46 2020


#       File generated by GOLD software.
#

@<TRIPOS>MOLECULE
AV-unprocessed.smi:2001
    60    61     1
SMALL
NO_CHARGES


@<TRIPOS>ATOM
      1 ****        -6.4936  -3.5080   0.3922 C.3            1 S1                 0.0000
      2 ****        -5.9990  -2.8247  -0.7464 O.3            1 S1                 0.0000
      3 ****        -5.5100  -1.5317  -0.4330 C.3            1 S1                 0.0000
      4 ****        -5.0182  -0.8589  -1.7238 C.3            1 S1                 0.0000
      5 ****        -4.4650   0.4734  -1.4602 N.am           1 S1                 0.0000
      6 ****        -3.0840   0.5014  -1.3558 N.2            1 S1                 0.0000
      7 ****        -2.4727   1.6167  -1.1172 C.2            1 S1                 0.0000
      8 ****        -0.9896   1.6920  -1.0040 C.2            1 S1                 0.0000
      9 ****        -0.4093   2.7495  -0.7521 O.2            1 S1                 0.0000
     10 ****        -0.3366   0.5321  -1.1980 N.am           1 S1                 0.0000
     11 ****         1.1106   0.3685  -1.1513 C.3            1 S1                 0.0000
     12 ****         1.6114   0.2409   0.2991 C.3            1 S1                 0.0000
     13 ****         3.0452  -0.0091   0.4327 N.3            1 S1                 0.0000
     14 ****         3.3872  -0.3720   1.8021 C.3            1 S1                 0.0000
     15 ****         4.8864  -0.6841   1.9569 C.3            1 S1                 0.0000
     16 ****         5.2644  -0.9906   3.4099 C.3            1 S1                 0.0000
     17 ****         5.6497   0.4417   1.5278 O.3            1 S1                 0.0000
     18 ****         5.3650   0.9023   0.2058 C.3            1 S1                 0.0000
     19 ****         5.9572  -0.0312  -0.8635 C.3            1 S1                 0.0000
     20 ****         3.8515   1.1433   0.0340 C.3            1 S1                 0.0000
     21 ****        -3.2181   2.8532  -0.9517 C.2            1 S1                 0.0000
     22 ****        -4.5644   2.8100  -1.0565 C.2            1 S1                 0.0000
     23 ****        -5.2805   1.5626  -1.3265 C.2            1 S1                 0.0000
     24 ****        -6.5057   1.4971  -1.4219 O.2            1 S1                 0.0000
     25 ****        -6.8523  -4.4950   0.1003 H              1 S1                 0.0000
     26 ****        -7.3265  -2.9683   0.8449 H              1 S1                 0.0000
     27 ****        -5.7132  -3.6415   1.1426 H              1 S1                 0.0000
     28 ****        -6.3011  -0.9381   0.0277 H              1 S1                 0.0000
     29 ****        -4.6927  -1.6073   0.2860 H              1 S1                 0.0000
     30 ****        -4.2615  -1.4893  -2.1945 H              1 S1                 0.0000
     31 ****        -5.8334  -0.7954  -2.4468 H              1 S1                 0.0000
     32 ****        -0.8841  -0.2925  -1.3988 H              1 S1                 0.0000
     33 ****         1.3687  -0.5301  -1.7122 H              1 S1                 0.0000
     34 ****         1.5841   1.2040  -1.6677 H              1 S1                 0.0000
     35 ****         1.3414   1.1342   0.8648 H              1 S1                 0.0000
     36 ****         1.0665  -0.5826   0.7631 H              1 S1                 0.0000
     37 ****         3.1099   0.4380   2.4790 H              1 S1                 0.0000
     38 ****         2.8079  -1.2444   2.1075 H              1 S1                 0.0000
     39 ****         5.1430  -1.5501   1.3460 H              1 S1                 0.0000
     40 ****         4.7130  -1.8532   3.7845 H              1 S1                 0.0000
     41 ****         5.0465  -0.1441   4.0616 H              1 S1                 0.0000
     42 ****         6.3282  -1.2131   3.4971 H              1 S1                 0.0000
     43 ****         5.8699   1.8631   0.1022 H              1 S1                 0.0000
     44 ****         5.8320   0.3929  -1.8600 H              1 S1                 0.0000
     45 ****         5.4784  -1.0103  -0.8646 H              1 S1                 0.0000
     46 ****         7.0246  -0.1810  -0.7006 H              1 S1                 0.0000
     47 ****         3.6544   1.4104  -1.0034 H              1 S1                 0.0000
     48 ****         3.5639   2.0088   0.6331 H              1 S1                 0.0000
     49 ****        -2.7159   3.7886  -0.7520 H              1 S1                 0.0000
     50 ****        -5.1312   3.7218  -0.9377 H              1 S1                 0.0000
     51 ****        -6.7389  -2.7349  -1.4132 LP             1 S1                 0.0000
     52 ****        -5.2550  -3.3613  -1.1444 LP             1 S1                 0.0000
     53 ****        -2.5583  -0.3422  -1.4651 LP             1 S1                 0.0000
     54 ****        -0.9358   3.5889  -0.6174 LP             1 S1                 0.0000
     55 ****         0.5880   2.7682  -0.6824 LP             1 S1                 0.0000
     56 ****         3.2535  -0.7690  -0.1830 LP             1 S1                 0.0000
     57 ****         6.6173   0.1922   1.5667 LP             1 S1                 0.0000
     58 ****         5.4738   1.1945   2.1621 LP             1 S1                 0.0000
     59 ****        -6.9467   0.6185  -1.6051 LP             1 S1                 0.0000
     60 ****        -7.0603   2.3225  -1.3162 LP             1 S1                 0.0000
@<TRIPOS>BOND
    1    1    2 1     
    2    1   25 1     
    3    1   26 1     
    4    1   27 1     
    5    2    3 1     
    6    3    4 1     
    7    3   28 1     
    8    3   29 1     
    9    4    5 1     
   10    4   30 1     
   11    4   31 1     
   12    5   23 am    
   13    5    6 1     
   14    6    7 2     
   15    7    8 1     
   16    7   21 1     
   17    8    9 2     
   18    8   10 am    
   19   10   11 1     
   20   10   32 1     
   21   11   12 1     
   22   11   33 1     
   23   11   34 1     
   24   12   13 1     
   25   12   35 1     
   26   12   36 1     
   27   13   20 1     
   28   13   14 1     
   29   14   15 1     
   30   14   37 1     
   31   14   38 1     
   32   15   16 1     
   33   15   17 1     
   34   15   39 1     
   35   16   40 1     
   36   16   41 1     
   37   16   42 1     
   38   17   18 1     
   39   18   19 1     
   40   18   20 1     
   41   18   43 1     
   42   19   44 1     
   43   19   45 1     
   44   19   46 1     
   45   20   47 1     
   46   20   48 1     
   47   21   22 2     
   48   21   49 1     
   49   22   23 1     
   50   22   50 1     
   51   23   24 2     
   52    2   51 1     
   53    2   52 1     
   54    6   53 1     
   55    9   54 1     
   56    9   55 1     
   57   13   56 1     
   58   17   57 1     
   59   17   58 1     
   60   24   59 1     
   61   24   60 1     
@<TRIPOS>SUBSTRUCTURE
      1 S1             1
@<TRIPOS>SET
LONE_PAIRS      STATIC     ATOMS    <user>   **** ""
10 51 52 53 54 55 56 57 58 59 60
DONOR_HYDROGENS      STATIC     ATOMS    <user>   **** ""
1 32
ATOM$BLUE        STATIC     ATOMS    COLORGROUP SYSTEM
10 51 52 53 54 55 56 57 58 59 60
ATOM$RED        STATIC     ATOMS    COLORGROUP SYSTEM
1 32
