AV-unprocessed.smi:820|AV-procd|sdf|3836|dock8
  -GOLD-   22720 1283D 1   1.00000     0.00000
 Structure written by MMmdl.
 32 33  0  0  0  0  0  0  0  0  1 V2000
  145.4530  132.1259  149.9907 C   0  0  0  0  0  0  0  0  0  0  0  0
  145.8220  132.3089  151.4654 C   0  0  0  0  0  0  0  0  0  0  0  0
  147.3781  133.2240  151.6516 S   0  0  0  0  0  0  0  0  0  0  0  0
  147.5934  133.5945  153.3674 C   0  0  0  0  0  0  0  0  0  0  0  0
  148.6913  133.1195  154.1150 C   0  0  0  0  0  0  0  0  0  0  0  0
  148.7707  133.4699  155.4768 C   0  0  0  0  0  0  0  0  0  0  0  0
  147.7573  134.2861  156.0358 C   0  0  0  0  0  0  0  0  0  0  0  0
  147.7121  134.6904  157.3976 N   0  0  0  0  0  0  0  0  0  0  0  0
  148.4832  134.2909  158.4274 C   0  0  0  0  0  0  0  0  0  0  0  0
  149.4093  133.4860  158.3216 O   0  0  0  0  0  0  0  0  0  0  0  0
  148.0953  134.9502  159.6688 C   0  0  0  0  0  0  0  0  0  0  0  0
  148.2417  136.2905  159.7849 C   0  0  0  0  0  0  0  0  0  0  0  0
  147.8689  137.0050  160.8958 O   0  0  0  0  0  0  0  0  0  0  0  0
  147.0763  136.2799  161.8284 C   0  0  0  0  0  0  0  0  0  0  0  0
  147.6095  134.8483  161.9828 C   0  0  0  0  0  0  0  0  0  0  0  0
  147.6283  134.1912  160.7200 O   0  0  0  0  0  0  0  0  0  0  0  0
  146.6996  134.6910  155.1939 C   0  0  0  0  0  0  0  0  0  0  0  0
  146.6137  134.3621  153.8876 N   0  0  0  0  0  0  0  0  0  0  0  0
  144.5155  131.5786  149.8892 H   0  0  0  0  0  0  0  0  0  0  0  0
  146.2243  131.5679  149.4594 H   0  0  0  0  0  0  0  0  0  0  0  0
  145.3329  133.0887  149.4931 H   0  0  0  0  0  0  0  0  0  0  0  0
  145.0285  132.8496  151.9819 H   0  0  0  0  0  0  0  0  0  0  0  0
  145.9210  131.3352  151.9458 H   0  0  0  0  0  0  0  0  0  0  0  0
  149.4573  132.4995  153.6757 H   0  0  0  0  0  0  0  0  0  0  0  0
  149.5951  133.0948  156.0624 H   0  0  0  0  0  0  0  0  0  0  0  0
  147.0429  135.4160  157.6119 H   0  0  0  0  0  0  0  0  0  0  0  0
  148.6247  136.9382  159.0089 H   0  0  0  0  0  0  0  0  0  0  0  0
  147.0890  136.7980  162.7874 H   0  0  0  0  0  0  0  0  0  0  0  0
  146.0411  136.2650  161.4846 H   0  0  0  0  0  0  0  0  0  0  0  0
  148.6183  134.8585  162.3984 H   0  0  0  0  0  0  0  0  0  0  0  0
  146.9841  134.2800  162.6712 H   0  0  0  0  0  0  0  0  0  0  0  0
  145.8966  135.3026  155.5789 H   0  0  0  0  0  0  0  0  0  0  0  0
  1  2  1  0  0  0  0
  1 19  1  0  0  0  0
  1 20  1  0  0  0  0
  1 21  1  0  0  0  0
  2  3  1  0  0  0  0
  2 22  1  0  0  0  0
  2 23  1  0  0  0  0
  3  4  1  0  0  0  0
  4 18  1  0  0  0  0
  4  5  2  0  0  0  0
  5  6  1  0  0  0  0
  5 24  1  0  0  0  0
  6  7  2  0  0  0  0
  6 25  1  0  0  0  0
  7  8  1  0  0  0  0
  7 17  1  0  0  0  0
  8  9  1  0  0  0  0
  8 26  1  0  0  0  0
  9 10  2  0  0  0  0
  9 11  1  0  0  0  0
 11 16  1  0  0  0  0
 11 12  2  0  0  0  0
 12 13  1  0  0  0  0
 12 27  1  0  0  0  0
 13 14  1  0  0  0  0
 14 15  1  0  0  0  0
 14 28  1  0  0  0  0
 14 29  1  0  0  0  0
 15 16  1  0  0  0  0
 15 30  1  0  0  0  0
 15 31  1  0  0  0  0
 17 18  2  0  0  0  0
 17 32  1  0  0  0  0
M  END
> <s_m_source_file>
AV-unprocessed.smi

> <i_m_source_file_index>
820

> <i_lp_mmshare_version>
43012

> <i_f3d_flags>
0

> <s_epik_input>
W0NIM11bQ0gyXVNjMVtjSF1bY0hdYyhbY0hdbjEpW05IXUMoPU8pQzI9W0NIXU9bQ0gyXVtDSDJdTzI=

> <s_epik_cmdline>
J2VwaWtfcHl0aG9uJywgJy1waCcsICc3LjAnLCAnLXRuJywgJzgnLCAnLW1hJywgJzIwMCcsICctbWV0YWxfYmluZGluZycsICctaW1hZScsICc8aW5maWxlLm1hZT4nLCAnLW9tYWUnLCAnPG91dGZpbGUubWFlPic=

> <r_lp_tautomer_probability>
1

> <r_epik_Ionization_Penalty>
8.32294e-05

> <r_epik_Ionization_Penalty_Charging>
0

> <r_epik_Ionization_Penalty_Neutral>
8.32294e-05

> <r_epik_State_Penalty>
-0

> <r_epik_Charging_Adjusted_Penalty>
0

> <i_epik_Tot_Q>
0

> <i_epik_Tot_abs_Q>
0

> <r_epik_Metal_State_Penalty>
0.0397586

> <b_epik_Metal_Only>
0

> <s_lp_Force_Field>
OPLS_2005

> <r_lp_Energy>
6.19244

> <b_lp_Chiralities_Consistent>
1

> <s_lp_Variant>
AV-unprocessed.smi:820-1

> <Gold.Version>
5.8.1

> <Gold.Id.Protein>
6NUR|6NUR_protein|mol2

> <Gold.PLP.Fitness>
32.2781

> <Gold.PLP.PLP>
-26.2601

> <Gold.PLP.part.hbond>
-3.0000

> <Gold.PLP.part.metal>
0.0000

> <Gold.PLP.part.buried>
-3.1928

> <Gold.PLP.part.nonpolar>
-19.9741

> <Gold.PLP.part.repulsive>
0.0987

> <Gold.PLP.ligand.clash>
0.0000

> <Gold.PLP.ligand.torsion>
1.2529

> <Gold.PLP.Chemscore.Hbond>
2.8400

> <Gold.PLP.Chemscore.CHOScore>
0.0000

> <Gold.PLP.Chemscore.Metal>
0.0000

> <Gold.Chemscore.Hbonds>
donor molecule, donor type, donor heavy atom, donor atom, acceptor molecule, acceptor atom, score
      P1  H  6896  6908       L1    10  1.00
      P1  H  6931  6943       L1    13  0.98
      P1  H  6934  6947       L1    13  0.65

> <Gold.PLP.Chemscore.Internal.Correction>
0.0038

> <Gold.Rescore>
     Score         DG    S(hbond)    S(metal)    S(lipo)     H(rot)  DE(clash)    DE(int)     intcor
     16.28     -18.87       2.50        0.00      68.04       1.14       0.01       2.58       ----

> <Gold.Chemscore.Fitness>
16.2849

> <Gold.Chemscore.DG>
-18.8666

> <Gold.Chemscore.ZeroCoef>
-5.4800

> <Gold.Chemscore.Hbond>
2.5006

> <Gold.Chemscore.Metal>
0.0000

> <Gold.Chemscore.Lipo>
68.0376

> <Gold.Chemscore.Internal_Hbond>
0.0000

> <Gold.Chemscore.DEClash>
0.0063

> <Gold.Chemscore.DEInternal>
2.5755

> <Gold.Chemscore.Rot>
1.1429

> <Gold.Chemscore.Internal.Correction>
   9.000000E+99

> <Gold.Chemscore.Hbonds>
donor molecule, donor type, donor heavy atom, donor atom, acceptor molecule, acceptor atom, score
      P1  H  6896  6908       L1    10  0.82
      P1  H  6931  6943       L1    13  0.63
      P1  H  6934  6947       L1    13  0.37

> <Gold.Chemscore.Hbond.Weighted>
-8.3521

> <Gold.Chemscore.Metal.Weighted>
-0.0000

> <Gold.Chemscore.Lipo.Weighted>
-7.9604

> <Gold.Chemscore.Internal_Hbond.Weighted>
0.0000

> <Gold.Chemscore.DEClash.Weighted>
0.0063

> <Gold.Chemscore.DEInternal.Weighted>
2.5755

> <Gold.Chemscore.Rot.Weighted>
2.9259

> <Gold.Chemscore.Internal.Correction.Weighted>
   9.000000E+99

> <Gold.Protein.RotatedTorsions>
[ 6907 6896 6895 6894 ] final  128.43 input  -60.11 | X-H torsion
[ 7974 7965 7964 7962 ] final  154.46 input  175.53 | X-H torsion
[ 8008 7997 7996 7995 ] final  -63.85 input   59.86 | X-H torsion
[ 10167 10162 10161 10158 ] final  110.25 input  -65.29 | X-H torsion
[ 10718 10713 10712 10709 ] final -133.46 input   66.30 | X-H torsion
[ 10763 10752 10751 10750 ] final  -76.19 input  -60.55 | X-H torsion
[ 11005 11000 10999 10996 ] final  -79.48 input  -57.11 | X-H torsion

> <Gold.Protein.ActiveResidues>
 VAL166  LYS551  ARG553  GLY616  TRP617  ASP618  TYR619  PRO620  LYS621  CYS622 
 ASP623  PHE694  ASN695  SER759  ASP760  ASP761  ALA762  ILE779  LEU786  VAL792 
 PHE793  MET794  SER795  GLU796  ALA797  LYS798  CYS799  TRP800  GLU811  SER814 

> <Gold.Protein.RotatedAtoms>
  152.3719  133.6431  159.6093 H   0  0  0  0  0  0  0  0  0  0  0  0  # atno 6907 bound_to 6896
  150.7675  133.9255  159.3420 H   0  0  0  0  0  0  0  0  0  0  0  0  # atno 6908 bound_to 6896
  151.7076  135.0920  160.0313 H   0  0  0  0  0  0  0  0  0  0  0  0  # atno 6909 bound_to 6896
  144.8087  139.6937  143.6151 H   0  0  0  0  0  0  0  0  0  0  0  0  # atno 7974 bound_to 7965
  154.4578  140.0966  156.6807 H   0  0  0  0  0  0  0  0  0  0  0  0  # atno 8008 bound_to 7997
  155.5086  140.3475  155.4366 H   0  0  0  0  0  0  0  0  0  0  0  0  # atno 8009 bound_to 7997
  156.0811  140.1373  156.9699 H   0  0  0  0  0  0  0  0  0  0  0  0  # atno 8010 bound_to 7997
  139.6702  144.7125  151.1701 H   0  0  0  0  0  0  0  0  0  0  0  0  # atno 10167 bound_to 10162
  156.2452  130.7120  151.0997 H   0  0  0  0  0  0  0  0  0  0  0  0  # atno 10718 bound_to 10713
  154.4966  135.5806  153.6499 H   0  0  0  0  0  0  0  0  0  0  0  0  # atno 10763 bound_to 10752
  152.9871  135.6125  154.3057 H   0  0  0  0  0  0  0  0  0  0  0  0  # atno 10764 bound_to 10752
  154.2961  135.2847  155.2612 H   0  0  0  0  0  0  0  0  0  0  0  0  # atno 10765 bound_to 10752
  141.1667  133.7108  156.8129 H   0  0  0  0  0  0  0  0  0  0  0  0  # atno 11005 bound_to 11000
  146.2383  139.5949  142.9509 LP  0  0  0  0  0  0  0  0  0  0  0  0  # atno 17320 bound_to 7965
  145.5376  141.0423  143.2349 LP  0  0  0  0  0  0  0  0  0  0  0  0  # atno 17321 bound_to 7965
  140.7615  143.5855  150.8850 LP  0  0  0  0  0  0  0  0  0  0  0  0  # atno 17342 bound_to 10162
  139.9520  143.6261  152.3026 LP  0  0  0  0  0  0  0  0  0  0  0  0  # atno 17343 bound_to 10162
  157.7192  131.0692  150.6206 LP  0  0  0  0  0  0  0  0  0  0  0  0  # atno 17370 bound_to 10713
  156.6282  130.4424  149.5797 LP  0  0  0  0  0  0  0  0  0  0  0  0  # atno 17371 bound_to 10713
  140.2175  134.8782  157.3341 LP  0  0  0  0  0  0  0  0  0  0  0  0  # atno 17394 bound_to 11000
  140.2023  134.4240  155.7656 LP  0  0  0  0  0  0  0  0  0  0  0  0  # atno 17395 bound_to 11000

$$$$
