AV-unprocessed.smi:1355|AV-procd|sdf|5536|dock3
  -GOLD-   22720 5123D 1   1.00000     0.00000
 Structure written by MMmdl.
 32 33  0  0  0  0  0  0  0  0  1 V2000
  150.2656  139.1029  154.4586 C   0  0  0  0  0  0  0  0  0  0  0  0
  150.5757  140.4517  154.7715 O   0  0  0  0  0  0  0  0  0  0  0  0
  151.3882  140.6087  155.9261 C   0  0  0  0  0  0  0  0  0  0  0  0
  150.5747  141.1016  157.1350 C   0  0  0  0  0  0  0  0  0  0  0  0
  151.4303  141.3642  158.2816 N   0  0  0  0  0  0  0  0  0  0  0  0
  152.2891  140.5185  158.9075 C   0  0  0  0  0  0  0  0  0  0  0  0
  152.4718  139.0907  158.4690 C   0  0  2  0  0  0  0  0  0  0  0  0
  152.0932  138.0982  159.5766 C   0  0  0  0  0  0  0  0  0  0  0  0
  153.7999  138.8156  158.0706 O   0  0  0  0  0  0  0  0  0  0  0  0
  152.9362  141.0304  159.9574 N   0  0  0  0  0  0  0  0  0  0  0  0
  152.4737  142.3304  160.0008 C   0  0  0  0  0  0  0  0  0  0  0  0
  152.7903  143.3895  160.8814 C   0  0  0  0  0  0  0  0  0  0  0  0
  152.1820  144.6523  160.7264 C   0  0  0  0  0  0  0  0  0  0  0  0
  151.2505  144.8737  159.6914 C   0  0  0  0  0  0  0  0  0  0  0  0
  150.9204  143.8316  158.8038 C   0  0  0  0  0  0  0  0  0  0  0  0
  151.5305  142.5728  158.9631 C   0  0  0  0  0  0  0  0  0  0  0  0
  149.5993  139.0766  153.5965 H   0  0  0  0  0  0  0  0  0  0  0  0
  149.7578  138.6104  155.2887 H   0  0  0  0  0  0  0  0  0  0  0  0
  151.1566  138.5298  154.2030 H   0  0  0  0  0  0  0  0  0  0  0  0
  151.8134  139.6309  156.1539 H   0  0  0  0  0  0  0  0  0  0  0  0
  152.2313  141.2707  155.7208 H   0  0  0  0  0  0  0  0  0  0  0  0
  150.0389  142.0193  156.8940 H   0  0  0  0  0  0  0  0  0  0  0  0
  149.8140  140.3714  157.4100 H   0  0  0  0  0  0  0  0  0  0  0  0
  151.8524  138.9032  157.5925 H   0  0  0  0  0  0  0  0  0  0  0  0
  151.0558  138.2298  159.8847 H   0  0  0  0  0  0  0  0  0  0  0  0
  152.7201  138.2309  160.4590 H   0  0  0  0  0  0  0  0  0  0  0  0
  152.2073  137.0682  159.2375 H   0  0  0  0  0  0  0  0  0  0  0  0
  153.9392  137.8824  158.1214 H   0  0  0  0  0  0  0  0  0  0  0  0
  153.5031  143.2301  161.6769 H   0  0  0  0  0  0  0  0  0  0  0  0
  152.4309  145.4550  161.4051 H   0  0  0  0  0  0  0  0  0  0  0  0
  150.7895  145.8443  159.5796 H   0  0  0  0  0  0  0  0  0  0  0  0
  150.2074  143.9986  158.0102 H   0  0  0  0  0  0  0  0  0  0  0  0
  1  2  1  0  0  0  0
  1 17  1  0  0  0  0
  1 18  1  0  0  0  0
  1 19  1  0  0  0  0
  2  3  1  0  0  0  0
  3  4  1  0  0  0  0
  3 20  1  0  0  0  0
  3 21  1  0  0  0  0
  4  5  1  0  0  0  0
  4 22  1  0  0  0  0
  4 23  1  0  0  0  0
  5 16  1  0  0  0  0
  5  6  1  0  0  0  0
  6  7  1  0  0  0  0
  6 10  2  0  0  0  0
  7  8  1  0  0  0  0
  7  9  1  0  0  0  0
  7 24  1  0  0  0  0
  8 25  1  0  0  0  0
  8 26  1  0  0  0  0
  8 27  1  0  0  0  0
  9 28  1  0  0  0  0
 10 11  1  0  0  0  0
 11 16  2  0  0  0  0
 11 12  1  0  0  0  0
 12 13  2  0  0  0  0
 12 29  1  0  0  0  0
 13 14  1  0  0  0  0
 13 30  1  0  0  0  0
 14 15  2  0  0  0  0
 14 31  1  0  0  0  0
 15 16  1  0  0  0  0
 15 32  1  0  0  0  0
M  END
> <s_m_source_file>
AV-unprocessed.smi

> <i_m_source_file_index>
1355

> <i_lp_mmshare_version>
43012

> <i_f3d_flags>
0

> <s_epik_input>
W0NIM11PW0NIMl1bQ0gyXW4oYyhuMSlbQ0BIXShbQ0gzXSlbT0hdKWMoYzEyKVtjSF1bY0hdW2NIXVtjSF0y

> <s_epik_cmdline>
J2VwaWtfcHl0aG9uJywgJy1waCcsICc3LjAnLCAnLXRuJywgJzgnLCAnLW1hJywgJzIwMCcsICctbWV0YWxfYmluZGluZycsICctaW1hZScsICc8aW5maWxlLm1hZT4nLCAnLW9tYWUnLCAnPG91dGZpbGUubWFlPic=

> <r_epik_Ionization_Penalty>
0.055138

> <r_epik_Ionization_Penalty_Charging>
0

> <r_epik_Ionization_Penalty_Neutral>
0.055138

> <r_epik_State_Penalty>
0.0474756

> <r_epik_Charging_Adjusted_Penalty>
0.0474756

> <i_epik_Tot_Q>
0

> <i_epik_Tot_abs_Q>
0

> <r_epik_Metal_State_Penalty>
4.94275e-05

> <b_epik_Metal_Only>
0

> <s_lp_Force_Field>
OPLS_2005

> <r_lp_Energy>
9.14497

> <b_lp_Chiralities_Consistent>
1

> <s_lp_Variant>
AV-unprocessed.smi:1355-1

> <Gold.Version>
5.8.1

> <Gold.Id.Protein>
6NUR|6NUR_protein|mol2

> <Gold.PLP.Fitness>
42.1487

> <Gold.PLP.PLP>
-36.8122

> <Gold.PLP.part.hbond>
-2.0000

> <Gold.PLP.part.metal>
0.0000

> <Gold.PLP.part.buried>
-5.5634

> <Gold.PLP.part.nonpolar>
-28.3498

> <Gold.PLP.part.repulsive>
0.0928

> <Gold.PLP.ligand.clash>
0.0000

> <Gold.PLP.ligand.torsion>
0.3358

> <Gold.PLP.Chemscore.Hbond>
2.0000

> <Gold.PLP.Chemscore.CHOScore>
0.0000

> <Gold.PLP.Chemscore.Metal>
0.0000

> <Gold.Chemscore.Hbonds>
donor molecule, donor type, donor heavy atom, donor atom, acceptor molecule, acceptor atom, score
      P1  H  7989  7998       L1     2  1.00
      P1  H  7997  8009       L1     9  1.00

> <Gold.PLP.Chemscore.Internal.Correction>
0.0081

> <Gold.Rescore>
     Score         DG    S(hbond)    S(metal)    S(lipo)     H(rot)  DE(clash)    DE(int)     intcor
     17.16     -17.56       1.92        0.00      93.09       2.04       0.02       0.38       ----

> <Gold.Chemscore.Fitness>
17.1571

> <Gold.Chemscore.DG>
-17.5580

> <Gold.Chemscore.ZeroCoef>
-5.4800

> <Gold.Chemscore.Hbond>
1.9179

> <Gold.Chemscore.Metal>
0.0000

> <Gold.Chemscore.Lipo>
93.0939

> <Gold.Chemscore.Internal_Hbond>
0.0000

> <Gold.Chemscore.DEClash>
0.0189

> <Gold.Chemscore.DEInternal>
0.3820

> <Gold.Chemscore.Rot>
2.0390

> <Gold.Chemscore.Internal.Correction>
   9.000000E+99

> <Gold.Chemscore.Hbonds>
donor molecule, donor type, donor heavy atom, donor atom, acceptor molecule, acceptor atom, score
      P1  H  7989  7998       L1     2  0.13
      P1  H  7997  8009       L1     9  0.89

> <Gold.Chemscore.Hbond.Weighted>
-6.4058

> <Gold.Chemscore.Metal.Weighted>
-0.0000

> <Gold.Chemscore.Lipo.Weighted>
-10.8920

> <Gold.Chemscore.Internal_Hbond.Weighted>
0.0000

> <Gold.Chemscore.DEClash.Weighted>
0.0189

> <Gold.Chemscore.DEInternal.Weighted>
0.3820

> <Gold.Chemscore.Rot.Weighted>
5.2199

> <Gold.Chemscore.Internal.Correction.Weighted>
   9.000000E+99

> <Gold.Protein.RotatedTorsions>
[ 6907 6896 6895 6894 ] final  139.67 input  -60.11 | X-H torsion
[ 7974 7965 7964 7962 ] final   -0.61 input  175.53 | X-H torsion
[ 8008 7997 7996 7995 ] final  161.93 input   59.86 | X-H torsion
[ 10167 10162 10161 10158 ] final  -92.44 input  -65.29 | X-H torsion
[ 10718 10713 10712 10709 ] final -139.22 input   66.30 | X-H torsion
[ 10763 10752 10751 10750 ] final  167.38 input  -60.55 | X-H torsion
[ 11005 11000 10999 10996 ] final   38.17 input  -57.11 | X-H torsion

> <Gold.Protein.ActiveResidues>
 VAL166  LYS551  ARG553  GLY616  TRP617  ASP618  TYR619  PRO620  LYS621  CYS622 
 ASP623  PHE694  ASN695  SER759  ASP760  ASP761  ALA762  ILE779  LEU786  VAL792 
 PHE793  MET794  SER795  GLU796  ALA797  LYS798  CYS799  TRP800  GLU811  SER814 

> <Gold.Protein.RotatedAtoms>
  152.2522  133.5224  159.5331 H   0  0  0  0  0  0  0  0  0  0  0  0  # atno 6907 bound_to 6896
  150.7097  134.0945  159.3952 H   0  0  0  0  0  0  0  0  0  0  0  0  # atno 6908 bound_to 6896
  151.8864  135.0433  160.0544 H   0  0  0  0  0  0  0  0  0  0  0  0  # atno 6909 bound_to 6896
  146.2425  140.1296  142.8338 H   0  0  0  0  0  0  0  0  0  0  0  0  # atno 7974 bound_to 7965
  156.2068  140.1764  156.7782 H   0  0  0  0  0  0  0  0  0  0  0  0  # atno 8008 bound_to 7997
  154.5666  140.0690  156.8931 H   0  0  0  0  0  0  0  0  0  0  0  0  # atno 8009 bound_to 7997
  155.2749  140.3345  155.4265 H   0  0  0  0  0  0  0  0  0  0  0  0  # atno 8010 bound_to 7997
  140.3348  143.2975  151.9902 H   0  0  0  0  0  0  0  0  0  0  0  0  # atno 10167 bound_to 10162
  156.3083  130.7467  151.1537 H   0  0  0  0  0  0  0  0  0  0  0  0  # atno 10718 bound_to 10713
  154.3530  135.2753  155.2362 H   0  0  0  0  0  0  0  0  0  0  0  0  # atno 10763 bound_to 10752
  154.4583  135.5913  153.6242 H   0  0  0  0  0  0  0  0  0  0  0  0  # atno 10764 bound_to 10752
  152.9848  135.6059  154.3742 H   0  0  0  0  0  0  0  0  0  0  0  0  # atno 10765 bound_to 10752
  140.2153  134.3706  155.8030 H   0  0  0  0  0  0  0  0  0  0  0  0  # atno 11005 bound_to 11000
  145.0337  140.8891  143.5094 LP  0  0  0  0  0  0  0  0  0  0  0  0  # atno 17320 bound_to 7965
  145.1365  139.2599  143.5512 LP  0  0  0  0  0  0  0  0  0  0  0  0  # atno 17321 bound_to 7965
  139.4850  144.6205  151.7263 LP  0  0  0  0  0  0  0  0  0  0  0  0  # atno 17342 bound_to 10162
  140.5364  144.0649  150.6072 LP  0  0  0  0  0  0  0  0  0  0  0  0  # atno 17343 bound_to 10162
  157.7385  131.0540  150.5292 LP  0  0  0  0  0  0  0  0  0  0  0  0  # atno 17370 bound_to 10713
  156.5428  130.4212  149.6145 LP  0  0  0  0  0  0  0  0  0  0  0  0  # atno 17371 bound_to 10713
  141.2225  133.7164  156.8485 LP  0  0  0  0  0  0  0  0  0  0  0  0  # atno 17394 bound_to 11000
  140.1908  134.8967  157.3057 LP  0  0  0  0  0  0  0  0  0  0  0  0  # atno 17395 bound_to 11000

$$$$
