AV-unprocessed.smi:852|AV-procd|sdf|3952|dock9
  -GOLD-   22720 1423D 1   1.00000     0.00000
 Structure written by MMmdl.
 30 31  0  0  0  0  0  0  0  0  1 V2000
  152.9156  144.7603  158.0457 C   0  0  0  0  0  0  0  0  0  0  0  0
  152.0698  143.5448  158.4732 C   0  0  2  0  0  0  0  0  0  0  0  0
  152.9553  142.5255  159.0748 C   0  0  0  0  0  0  0  0  0  0  0  0
  153.6483  141.7270  159.5463 N   0  0  0  0  0  0  0  0  0  0  0  0
  151.3798  143.0009  157.3021 N   0  0  0  0  0  0  0  0  0  0  0  0
  150.5066  141.9786  157.2667 C   0  0  0  0  0  0  0  0  0  0  0  0
  150.1978  141.3122  158.2533 O   0  0  0  0  0  0  0  0  0  0  0  0
  149.8895  141.6507  155.9043 C   0  0  0  0  0  0  0  0  0  0  0  0
  150.2289  140.3066  155.4695 N   0  0  0  0  0  0  0  0  0  0  0  0
  149.9140  139.6517  154.3471 C   0  0  0  0  0  0  0  0  0  0  0  0
  150.3873  138.4132  154.2937 N   0  0  0  0  0  0  0  0  0  0  0  0
  151.0283  138.3797  155.4981 C   0  0  0  0  0  0  0  0  0  0  0  0
  151.7380  137.1943  155.9475 C   0  0  0  0  0  0  0  0  0  0  0  0
  152.3033  136.2502  156.3058 N   0  0  0  0  0  0  0  0  0  0  0  0
  150.9716  139.4799  156.2456 N   0  0  0  0  0  0  0  0  0  0  0  0
  151.0469  144.0057  159.5094 C   0  0  0  0  0  0  0  0  0  0  0  0
  150.3337  145.3366  159.4161 C   0  0  0  0  0  0  0  0  0  0  0  0
  151.3407  145.0925  160.5191 C   0  0  0  0  0  0  0  0  0  0  0  0
  153.3973  145.2236  158.9075 H   0  0  0  0  0  0  0  0  0  0  0  0
  152.3025  145.5224  157.5629 H   0  0  0  0  0  0  0  0  0  0  0  0
  153.7065  144.4816  157.3490 H   0  0  0  0  0  0  0  0  0  0  0  0
  151.5638  143.4737  156.4293 H   0  0  0  0  0  0  0  0  0  0  0  0
  148.8043  141.7414  155.9641 H   0  0  0  0  0  0  0  0  0  0  0  0
  150.2319  142.3639  155.1527 H   0  0  0  0  0  0  0  0  0  0  0  0
  149.3209  140.0878  153.5566 H   0  0  0  0  0  0  0  0  0  0  0  0
  150.4351  143.1870  159.8847 H   0  0  0  0  0  0  0  0  0  0  0  0
  150.6171  146.0215  158.6195 H   0  0  0  0  0  0  0  0  0  0  0  0
  149.2820  145.3613  159.6940 H   0  0  0  0  0  0  0  0  0  0  0  0
  150.9572  144.9529  161.5275 H   0  0  0  0  0  0  0  0  0  0  0  0
  152.2934  145.6139  160.4556 H   0  0  0  0  0  0  0  0  0  0  0  0
  1  2  1  0  0  0  0
  1 19  1  0  0  0  0
  1 20  1  0  0  0  0
  1 21  1  0  0  0  0
  2  3  1  0  0  0  0
  2  5  1  0  0  0  0
  2 16  1  0  0  0  0
  3  4  3  0  0  0  0
  5  6  1  0  0  0  0
  5 22  1  0  0  0  0
  6  7  2  0  0  0  0
  6  8  1  0  0  0  0
  8  9  1  0  0  0  0
  8 23  1  0  0  0  0
  8 24  1  0  0  0  0
  9 15  1  0  0  0  0
  9 10  1  0  0  0  0
 10 11  2  0  0  0  0
 10 25  1  0  0  0  0
 11 12  1  0  0  0  0
 12 13  1  0  0  0  0
 12 15  2  0  0  0  0
 13 14  3  0  0  0  0
 16 18  1  0  0  0  0
 16 17  1  0  0  0  0
 16 26  1  0  0  0  0
 17 18  1  0  0  0  0
 17 27  1  0  0  0  0
 17 28  1  0  0  0  0
 18 29  1  0  0  0  0
 18 30  1  0  0  0  0
M  END
> <s_m_source_file>
AV-unprocessed.smi

> <i_m_source_file_index>
852

> <i_lp_mmshare_version>
43012

> <i_f3d_flags>
0

> <s_epik_input>
W0NIMl0xW0NIMl1bQ0hdMVtDQF0oW0NIM10pKEMjTilbTkhdQyg9TylbQ0gyXW4yW2NIXW5jKG4yKUMjTg==

> <s_epik_cmdline>
J2VwaWtfcHl0aG9uJywgJy1waCcsICc3LjAnLCAnLXRuJywgJzgnLCAnLW1hJywgJzIwMCcsICctbWV0YWxfYmluZGluZycsICctaW1hZScsICc8aW5maWxlLm1hZT4nLCAnLW9tYWUnLCAnPG91dGZpbGUubWFlPic=

> <r_lp_tautomer_probability>
1

> <r_epik_Ionization_Penalty>
2.64294e-06

> <r_epik_Ionization_Penalty_Charging>
0

> <r_epik_Ionization_Penalty_Neutral>
2.64294e-06

> <r_epik_State_Penalty>
-0

> <r_epik_Charging_Adjusted_Penalty>
0

> <i_epik_Tot_Q>
0

> <i_epik_Tot_abs_Q>
0

> <r_epik_Metal_State_Penalty>
-0

> <b_epik_Metal_Only>
0

> <s_lp_Force_Field>
OPLS_2005

> <r_lp_Energy>
16.3367

> <b_lp_Chiralities_Consistent>
1

> <s_lp_Variant>
AV-unprocessed.smi:852-2

> <Gold.Version>
5.8.1

> <Gold.Id.Protein>
6NUR|6NUR_protein|mol2

> <Gold.PLP.Fitness>
38.7878

> <Gold.PLP.PLP>
-32.8145

> <Gold.PLP.part.hbond>
-1.0000

> <Gold.PLP.part.metal>
0.0000

> <Gold.PLP.part.buried>
-3.3055

> <Gold.PLP.part.nonpolar>
-28.7038

> <Gold.PLP.part.repulsive>
0.2584

> <Gold.PLP.ligand.clash>
0.0000

> <Gold.PLP.ligand.torsion>
0.7700

> <Gold.PLP.Chemscore.Hbond>
1.0000

> <Gold.PLP.Chemscore.CHOScore>
1.0000

> <Gold.PLP.Chemscore.Metal>
0.0000

> <Gold.Chemscore.Hbonds>
donor molecule, donor type, donor heavy atom, donor atom, acceptor molecule, acceptor atom, score
      P1  H 10752 10765       L1    14  1.00
      L1  C    10    25       P1  7957  1.00

> <Gold.PLP.Chemscore.Internal.Correction>
1.5134

> <Gold.Rescore>
     Score         DG    S(hbond)    S(metal)    S(lipo)     H(rot)  DE(clash)    DE(int)     intcor
      7.82     -10.03       0.99        0.00      64.27       2.46       0.02       2.20       ----

> <Gold.Chemscore.Fitness>
7.8164

> <Gold.Chemscore.DG>
-10.0325

> <Gold.Chemscore.ZeroCoef>
-5.4800

> <Gold.Chemscore.Hbond>
0.9948

> <Gold.Chemscore.Metal>
0.0000

> <Gold.Chemscore.Lipo>
64.2734

> <Gold.Chemscore.Internal_Hbond>
0.0000

> <Gold.Chemscore.DEClash>
0.0162

> <Gold.Chemscore.DEInternal>
2.1999

> <Gold.Chemscore.Rot>
2.4571

> <Gold.Chemscore.Internal.Correction>
   9.000000E+99

> <Gold.Chemscore.Hbonds>
donor molecule, donor type, donor heavy atom, donor atom, acceptor molecule, acceptor atom, score
      P1  H 10752 10765       L1    14  0.88

> <Gold.Chemscore.Hbond.Weighted>
-3.3226

> <Gold.Chemscore.Metal.Weighted>
-0.0000

> <Gold.Chemscore.Lipo.Weighted>
-7.5200

> <Gold.Chemscore.Internal_Hbond.Weighted>
0.0000

> <Gold.Chemscore.DEClash.Weighted>
0.0162

> <Gold.Chemscore.DEInternal.Weighted>
2.1999

> <Gold.Chemscore.Rot.Weighted>
6.2901

> <Gold.Chemscore.Internal.Correction.Weighted>
   9.000000E+99

> <Gold.Protein.RotatedTorsions>
[ 6907 6896 6895 6894 ] final -162.79 input  -60.11 | X-H torsion
[ 7974 7965 7964 7962 ] final   50.30 input  175.53 | X-H torsion
[ 8008 7997 7996 7995 ] final  -52.68 input   59.86 | X-H torsion
[ 10167 10162 10161 10158 ] final  137.04 input  -65.29 | X-H torsion
[ 10718 10713 10712 10709 ] final -170.64 input   66.30 | X-H torsion
[ 10763 10752 10751 10750 ] final -147.00 input  -60.55 | X-H torsion
[ 11005 11000 10999 10996 ] final    7.86 input  -57.11 | X-H torsion

> <Gold.Protein.ActiveResidues>
 VAL166  LYS551  ARG553  GLY616  TRP617  ASP618  TYR619  PRO620  LYS621  CYS622 
 ASP623  PHE694  ASN695  SER759  ASP760  ASP761  ALA762  ILE779  LEU786  VAL792 
 PHE793  MET794  SER795  GLU796  ALA797  LYS798  CYS799  TRP800  GLU811  SER814 

> <Gold.Protein.RotatedAtoms>
  151.3859  133.3805  159.2715 H   0  0  0  0  0  0  0  0  0  0  0  0  # atno 6907 bound_to 6896
  150.9542  134.8939  159.7701 H   0  0  0  0  0  0  0  0  0  0  0  0  # atno 6908 bound_to 6896
  152.5124  134.3816  159.9405 H   0  0  0  0  0  0  0  0  0  0  0  0  # atno 6909 bound_to 6896
  146.0025  139.4455  143.0006 H   0  0  0  0  0  0  0  0  0  0  0  0  # atno 7974 bound_to 7965
  154.4113  140.1218  156.5031 H   0  0  0  0  0  0  0  0  0  0  0  0  # atno 8008 bound_to 7997
  155.6875  140.3495  155.4860 H   0  0  0  0  0  0  0  0  0  0  0  0  # atno 8009 bound_to 7997
  155.9498  140.1102  157.0976 H   0  0  0  0  0  0  0  0  0  0  0  0  # atno 8010 bound_to 7997
  139.5158  144.6432  151.5513 H   0  0  0  0  0  0  0  0  0  0  0  0  # atno 10167 bound_to 10162
  156.7292  130.9300  151.3103 H   0  0  0  0  0  0  0  0  0  0  0  0  # atno 10718 bound_to 10713
  154.8308  135.3371  154.6750 H   0  0  0  0  0  0  0  0  0  0  0  0  # atno 10763 bound_to 10752
  153.7370  135.6948  153.4980 H   0  0  0  0  0  0  0  0  0  0  0  0  # atno 10764 bound_to 10752
  153.2271  135.4429  155.0506 H   0  0  0  0  0  0  0  0  0  0  0  0  # atno 10765 bound_to 10752
  140.5435  134.0352  155.7912 H   0  0  0  0  0  0  0  0  0  0  0  0  # atno 11005 bound_to 11000
  145.7465  140.9988  143.1273 LP  0  0  0  0  0  0  0  0  0  0  0  0  # atno 17320 bound_to 7965
  144.6924  139.9162  143.7466 LP  0  0  0  0  0  0  0  0  0  0  0  0  # atno 17321 bound_to 7965
  140.6206  143.9265  150.6523 LP  0  0  0  0  0  0  0  0  0  0  0  0  # atno 17342 bound_to 10162
  140.2537  143.3574  152.1383 LP  0  0  0  0  0  0  0  0  0  0  0  0  # atno 17343 bound_to 10162
  157.6866  130.9191  150.0402 LP  0  0  0  0  0  0  0  0  0  0  0  0  # atno 17370 bound_to 10713
  156.1540  130.3643  149.9395 LP  0  0  0  0  0  0  0  0  0  0  0  0  # atno 17371 bound_to 10713
  141.1213  133.9456  157.2723 LP  0  0  0  0  0  0  0  0  0  0  0  0  # atno 17394 bound_to 11000
  139.9492  135.0178  156.8942 LP  0  0  0  0  0  0  0  0  0  0  0  0  # atno 17395 bound_to 11000

$$$$
