AV-unprocessed.smi:598|AV-procd|sdf|3022|dock9
  -GOLD-   2262023533D 1   1.00000     0.00000
 Structure written by MMmdl.
 43 44  0  0  0  0  0  0  0  0  3 V2000
  151.8685  145.6875  159.8408 C   0  0  0  0  0  0  0  0  0  0  0  0
  152.3838  144.2580  159.6038 C   0  0  1  0  0  0  0  0  0  0  0  0
  152.5387  143.4805  160.9267 C   0  0  0  0  0  0  0  0  0  0  0  0
  153.1465  142.0884  160.6946 C   0  0  0  0  0  0  0  0  0  0  0  0
  152.3392  141.2868  159.6627 C   0  0  0  0  0  0  0  0  0  0  0  0
  152.1951  142.0652  158.3406 C   0  0  1  0  0  0  0  0  0  0  0  0
  151.4553  141.2607  157.3706 N   0  0  0  0  0  0  0  0  0  0  0  0
  151.8892  140.1190  156.8153 C   0  0  0  0  0  0  0  0  0  0  0  0
  152.9704  139.5993  157.0945 O   0  0  0  0  0  0  0  0  0  0  0  0
  150.9447  139.4626  155.7990 C   0  0  0  0  0  0  0  0  0  0  0  0
  150.5191  138.1111  156.2000 N   0  0  0  0  0  0  0  0  0  0  0  0
  149.7143  138.0055  157.3519 C   0  0  0  0  0  0  0  0  0  0  0  0
  149.2735  136.8176  157.8105 C   0  0  0  0  0  0  0  0  0  0  0  0
  148.4520  136.7269  158.9979 N   0  3  0  0  0  0  0  0  0  0  0  0
  148.0962  137.7645  159.5477 O   0  0  0  0  0  0  0  0  0  0  0  0
  148.1364  135.6186  159.4209 O   0  5  0  0  0  0  0  0  0  0  0  0
  149.6551  135.6272  157.0751 C   0  0  0  0  0  0  0  0  0  0  0  0
  150.4268  135.7214  155.9744 C   0  0  0  0  0  0  0  0  0  0  0  0
  150.9064  137.0151  155.4778 C   0  0  0  0  0  0  0  0  0  0  0  0
  151.6134  137.1080  154.4739 O   0  0  0  0  0  0  0  0  0  0  0  0
  151.5498  143.4613  158.5648 C   0  0  1  0  0  0  0  0  0  0  0  0
  150.0424  143.3882  158.9040 C   0  0  0  0  0  0  0  0  0  0  0  0
  150.9104  145.6920  160.3606 H   0  0  0  0  0  0  0  0  0  0  0  0
  151.7447  146.2234  158.8994 H   0  0  0  0  0  0  0  0  0  0  0  0
  152.5702  146.2563  160.4514 H   0  0  0  0  0  0  0  0  0  0  0  0
  153.3846  144.3661  159.1822 H   0  0  0  0  0  0  0  0  0  0  0  0
  153.1749  144.0399  161.6134 H   0  0  0  0  0  0  0  0  0  0  0  0
  151.5719  143.3821  161.4211 H   0  0  0  0  0  0  0  0  0  0  0  0
  154.1753  142.1942  160.3478 H   0  0  0  0  0  0  0  0  0  0  0  0
  153.1944  141.5411  161.6364 H   0  0  0  0  0  0  0  0  0  0  0  0
  152.8333  140.3316  159.4805 H   0  0  0  0  0  0  0  0  0  0  0  0
  151.3566  141.0485  160.0716 H   0  0  0  0  0  0  0  0  0  0  0  0
  153.2023  142.2157  157.9467 H   0  0  0  0  0  0  0  0  0  0  0  0
  150.5530  141.6121  157.0845 H   0  0  0  0  0  0  0  0  0  0  0  0
  150.0821  140.1171  155.6675 H   0  0  0  0  0  0  0  0  0  0  0  0
  151.4269  139.4251  154.8201 H   0  0  0  0  0  0  0  0  0  0  0  0
  149.4922  138.9478  157.8320 H   0  0  0  0  0  0  0  0  0  0  0  0
  149.3266  134.6516  157.4020 H   0  0  0  0  0  0  0  0  0  0  0  0
  150.7008  134.8221  155.4425 H   0  0  0  0  0  0  0  0  0  0  0  0
  151.6210  144.0040  157.6210 H   0  0  0  0  0  0  0  0  0  0  0  0
  149.8586  142.8818  159.8508 H   0  0  0  0  0  0  0  0  0  0  0  0
  149.4833  142.8572  158.1336 H   0  0  0  0  0  0  0  0  0  0  0  0
  149.5992  144.3811  158.9700 H   0  0  0  0  0  0  0  0  0  0  0  0
  1  2  1  0  0  0  0
  1 23  1  0  0  0  0
  1 24  1  0  0  0  0
  1 25  1  0  0  0  0
  2 21  1  0  0  0  0
  2  3  1  0  0  0  0
  2 26  1  0  0  0  0
  3  4  1  0  0  0  0
  3 27  1  0  0  0  0
  3 28  1  0  0  0  0
  4  5  1  0  0  0  0
  4 29  1  0  0  0  0
  4 30  1  0  0  0  0
  5  6  1  0  0  0  0
  5 31  1  0  0  0  0
  5 32  1  0  0  0  0
  6  7  1  0  0  0  0
  6 21  1  0  0  0  0
  6 33  1  0  0  0  0
  7  8  1  0  0  0  0
  7 34  1  0  0  0  0
  8  9  2  0  0  0  0
  8 10  1  0  0  0  0
 10 11  1  0  0  0  0
 10 35  1  0  0  0  0
 10 36  1  0  0  0  0
 11 19  1  0  0  0  0
 11 12  1  0  0  0  0
 12 13  2  0  0  0  0
 12 37  1  0  0  0  0
 13 14  1  0  0  0  0
 13 17  1  0  0  0  0
 14 15  2  0  0  0  0
 14 16  1  0  0  0  0
 17 18  2  0  0  0  0
 17 38  1  0  0  0  0
 18 19  1  0  0  0  0
 18 39  1  0  0  0  0
 19 20  2  0  0  0  0
 21 22  1  0  0  0  0
 21 40  1  0  0  0  0
 22 41  1  0  0  0  0
 22 42  1  0  0  0  0
 22 43  1  0  0  0  0
M  CHG  1  14   1
M  CHG  1  16  -1
M  END
> <s_m_source_file>
AV-unprocessed.smi

> <i_m_source_file_index>
598

> <i_lp_mmshare_version>
43012

> <i_f3d_flags>
0

> <s_epik_input>
W0NIM11bQ0BASF0xW0NIMl1bQ0gyXVtDSDJdW0NASF0oW0NASF0xW0NIM10pW05IXUMoPU8pW0NIMl1uMltjSF1jKFtOK10oPU8pW08tXSlbY0hdW2NIXWMyPU8=

> <s_epik_cmdline>
J2VwaWtfcHl0aG9uJywgJy1waCcsICc3LjAnLCAnLXRuJywgJzgnLCAnLW1hJywgJzIwMCcsICctbWV0YWxfYmluZGluZycsICctaW1hZScsICc8aW5maWxlLm1hZT4nLCAnLW9tYWUnLCAnPG91dGZpbGUubWFlPic=

> <r_lp_tautomer_probability>
1

> <r_epik_Ionization_Penalty>
1.91291e-08

> <r_epik_Ionization_Penalty_Charging>
8.21931e-11

> <r_epik_Ionization_Penalty_Neutral>
1.90469e-08

> <r_epik_State_Penalty>
-0

> <r_epik_Charging_Adjusted_Penalty>
8.21931e-11

> <i_epik_Tot_Q>
0

> <i_epik_Tot_abs_Q>
2

> <r_epik_Metal_State_Penalty>
-0

> <b_epik_Metal_Only>
0

> <s_lp_Force_Field>
OPLS_2005

> <r_lp_Energy>
25.1906

> <b_lp_Chiralities_Consistent>
1

> <s_lp_Variant>
AV-unprocessed.smi:598-2

> <Gold.Version>
5.8.1

> <Gold.Id.Protein>
6NUR|6NUR_protein|mol2

> <Gold.PLP.Fitness>
45.7354

> <Gold.PLP.PLP>
-38.7317

> <Gold.PLP.part.hbond>
-3.6100

> <Gold.PLP.part.metal>
0.0000

> <Gold.PLP.part.buried>
-5.4407

> <Gold.PLP.part.nonpolar>
-29.8385

> <Gold.PLP.part.repulsive>
0.2406

> <Gold.PLP.ligand.clash>
0.0000

> <Gold.PLP.ligand.torsion>
0.1273

> <Gold.PLP.Chemscore.Hbond>
2.4142

> <Gold.PLP.Chemscore.CHOScore>
0.0000

> <Gold.PLP.Chemscore.Metal>
0.0000

> <Gold.Chemscore.Hbonds>
donor molecule, donor type, donor heavy atom, donor atom, acceptor molecule, acceptor atom, score
      P1  H  6934  6947       L1    15  0.42
      P1  H  7997  8008       L1     9  1.00
      P1  H 10752 10765       L1    20  1.00

> <Gold.PLP.Chemscore.Internal.Correction>
0.0158

> <Gold.Rescore>
     Score         DG    S(hbond)    S(metal)    S(lipo)     H(rot)  DE(clash)    DE(int)     intcor
     21.11     -21.39       2.41        0.00     100.79       1.54       0.01       0.28       ----

> <Gold.Chemscore.Fitness>
21.1050

> <Gold.Chemscore.DG>
-21.3924

> <Gold.Chemscore.ZeroCoef>
-5.4800

> <Gold.Chemscore.Hbond>
2.4135

> <Gold.Chemscore.Metal>
0.0000

> <Gold.Chemscore.Lipo>
100.7862

> <Gold.Chemscore.Internal_Hbond>
0.0000

> <Gold.Chemscore.DEClash>
0.0057

> <Gold.Chemscore.DEInternal>
0.2817

> <Gold.Chemscore.Rot>
1.5393

> <Gold.Chemscore.Internal.Correction>
   9.000000E+99

> <Gold.Chemscore.Hbonds>
donor molecule, donor type, donor heavy atom, donor atom, acceptor molecule, acceptor atom, score
      P1  H  6934  6947       L1    15  0.40
      P1  H  7997  8008       L1     9  0.96
      P1  H 10752 10765       L1    20  0.91

> <Gold.Chemscore.Hbond.Weighted>
-8.0612

> <Gold.Chemscore.Metal.Weighted>
-0.0000

> <Gold.Chemscore.Lipo.Weighted>
-11.7920

> <Gold.Chemscore.Internal_Hbond.Weighted>
0.0000

> <Gold.Chemscore.DEClash.Weighted>
0.0057

> <Gold.Chemscore.DEInternal.Weighted>
0.2817

> <Gold.Chemscore.Rot.Weighted>
3.9407

> <Gold.Chemscore.Internal.Correction.Weighted>
   9.000000E+99

> <Gold.Protein.RotatedTorsions>
[ 6907 6896 6895 6894 ] final -158.24 input  -60.11 | X-H torsion
[ 7974 7965 7964 7962 ] final  -95.00 input  175.53 | X-H torsion
[ 8008 7997 7996 7995 ] final  -58.26 input   59.86 | X-H torsion
[ 10167 10162 10161 10158 ] final -152.51 input  -65.29 | X-H torsion
[ 10718 10713 10712 10709 ] final -126.78 input   66.30 | X-H torsion
[ 10763 10752 10751 10750 ] final  151.66 input  -60.55 | X-H torsion
[ 11005 11000 10999 10996 ] final  -55.51 input  -57.11 | X-H torsion

> <Gold.Protein.ActiveResidues>
 VAL166  LYS551  ARG553  GLY616  TRP617  ASP618  TYR619  PRO620  LYS621  CYS622 
 ASP623  PHE694  ASN695  SER759  ASP760  ASP761  ALA762  ILE779  LEU786  VAL792 
 PHE793  MET794  SER795  GLU796  ALA797  LYS798  CYS799  TRP800  GLU811  SER814 

> <Gold.Protein.RotatedAtoms>
  151.3151  133.4064  159.2649 H   0  0  0  0  0  0  0  0  0  0  0  0  # atno 6907 bound_to 6896
  151.0081  134.9376  159.8002 H   0  0  0  0  0  0  0  0  0  0  0  0  # atno 6908 bound_to 6896
  152.5293  134.3116  159.9168 H   0  0  0  0  0  0  0  0  0  0  0  0  # atno 6909 bound_to 6896
  145.3658  140.9498  143.2475 H   0  0  0  0  0  0  0  0  0  0  0  0  # atno 7974 bound_to 7965
  154.4301  140.1088  156.5929 H   0  0  0  0  0  0  0  0  0  0  0  0  # atno 8008 bound_to 7997
  155.5993  140.3493  155.4570 H   0  0  0  0  0  0  0  0  0  0  0  0  # atno 8009 bound_to 7997
  156.0186  140.1234  157.0370 H   0  0  0  0  0  0  0  0  0  0  0  0  # atno 8010 bound_to 7997
  139.7175  143.9010  152.2491 H   0  0  0  0  0  0  0  0  0  0  0  0  # atno 10167 bound_to 10162
  156.1796  130.6723  151.0287 H   0  0  0  0  0  0  0  0  0  0  0  0  # atno 10718 bound_to 10713
  154.1073  135.2841  155.3238 H   0  0  0  0  0  0  0  0  0  0  0  0  # atno 10763 bound_to 10752
  154.6514  135.5367  153.7909 H   0  0  0  0  0  0  0  0  0  0  0  0  # atno 10764 bound_to 10752
  153.0357  135.6511  154.1234 H   0  0  0  0  0  0  0  0  0  0  0  0  # atno 10765 bound_to 10752
  141.1077  133.6612  156.4481 H   0  0  0  0  0  0  0  0  0  0  0  0  # atno 11005 bound_to 11000
  144.8612  139.5174  143.6811 LP  0  0  0  0  0  0  0  0  0  0  0  0  # atno 17320 bound_to 7965
  146.2907  139.7131  142.9163 LP  0  0  0  0  0  0  0  0  0  0  0  0  # atno 17321 bound_to 7965
  139.8896  144.6973  150.8785 LP  0  0  0  0  0  0  0  0  0  0  0  0  # atno 17342 bound_to 10162
  140.7747  143.3596  151.1853 LP  0  0  0  0  0  0  0  0  0  0  0  0  # atno 17343 bound_to 10162
  157.6859  131.0825  150.7243 LP  0  0  0  0  0  0  0  0  0  0  0  0  # atno 17370 bound_to 10713
  156.7301  130.4707  149.5502 LP  0  0  0  0  0  0  0  0  0  0  0  0  # atno 17371 bound_to 10713
  140.4858  134.6622  157.5190 LP  0  0  0  0  0  0  0  0  0  0  0  0  # atno 17394 bound_to 11000
  139.9955  134.6917  155.9616 LP  0  0  0  0  0  0  0  0  0  0  0  0  # atno 17395 bound_to 11000

$$$$
