AV-unprocessed.smi:639|AV-procd|sdf|3145|dock2
  -GOLD-   22720 0 73D 1   1.00000     0.00000
 Structure written by MMmdl.
 24 25  0  0  0  0  0  0  0  0  1 V2000
  151.7409  145.2331  159.1432 C   0  0  0  0  0  0  0  0  0  0  0  0
  151.8801  143.8288  158.8221 N   0  0  0  0  0  0  0  0  0  0  0  0
  151.0313  143.0267  158.0920 C   0  0  0  0  0  0  0  0  0  0  0  0
  151.5739  141.7710  158.0525 C   0  0  0  0  0  0  0  0  0  0  0  0
  151.0322  140.5286  157.3729 C   0  0  2  0  0  0  0  0  0  0  0  0
  150.7059  140.7700  155.8874 C   0  0  0  0  0  0  0  0  0  0  0  0
  149.8852  139.9638  158.0686 N   0  0  0  0  0  0  0  0  0  0  0  0
  150.1395  138.7598  158.5993 C   0  0  0  0  0  0  0  0  0  0  0  0
  149.3538  138.0775  159.2525 O   0  0  0  0  0  0  0  0  0  0  0  0
  151.3960  138.4299  158.2854 N   0  0  0  0  0  0  0  0  0  0  0  0
  152.0025  139.3690  157.5611 C   0  0  0  0  0  0  0  0  0  0  0  0
  153.1473  139.3275  157.1127 O   0  0  0  0  0  0  0  0  0  0  0  0
  152.7762  141.9190  158.8063 C   0  0  0  0  0  0  0  0  0  0  0  0
  152.9547  143.1466  159.2653 N   0  0  0  0  0  0  0  0  0  0  0  0
  151.0564  145.7095  158.4407 H   0  0  0  0  0  0  0  0  0  0  0  0
  152.7099  145.7299  159.0822 H   0  0  0  0  0  0  0  0  0  0  0  0
  151.3458  145.3403  160.1537 H   0  0  0  0  0  0  0  0  0  0  0  0
  150.1186  143.4108  157.6607 H   0  0  0  0  0  0  0  0  0  0  0  0
  151.5832  141.1078  155.3345 H   0  0  0  0  0  0  0  0  0  0  0  0
  149.9339  141.5321  155.7765 H   0  0  0  0  0  0  0  0  0  0  0  0
  150.3431  139.8626  155.4024 H   0  0  0  0  0  0  0  0  0  0  0  0
  149.0032  140.4481  158.1523 H   0  0  0  0  0  0  0  0  0  0  0  0
  151.8328  137.5612  158.5570 H   0  0  0  0  0  0  0  0  0  0  0  0
  153.5231  141.1722  159.0321 H   0  0  0  0  0  0  0  0  0  0  0  0
  1  2  1  0  0  0  0
  1 15  1  0  0  0  0
  1 16  1  0  0  0  0
  1 17  1  0  0  0  0
  2 14  1  0  0  0  0
  2  3  1  0  0  0  0
  3  4  2  0  0  0  0
  3 18  1  0  0  0  0
  4  5  1  0  0  0  0
  4 13  1  0  0  0  0
  5 11  1  0  0  0  0
  5  6  1  0  0  0  0
  5  7  1  0  0  0  0
  6 19  1  0  0  0  0
  6 20  1  0  0  0  0
  6 21  1  0  0  0  0
  7  8  1  0  0  0  0
  7 22  1  0  0  0  0
  8  9  2  0  0  0  0
  8 10  1  0  0  0  0
 10 11  1  0  0  0  0
 10 23  1  0  0  0  0
 11 12  2  0  0  0  0
 13 14  2  0  0  0  0
 13 24  1  0  0  0  0
M  END
> <s_m_source_file>
AV-unprocessed.smi

> <i_m_source_file_index>
639

> <i_lp_mmshare_version>
43012

> <i_f3d_flags>
0

> <s_epik_input>
W0NIM11uMVtjSF1jKFtjSF1uMSlbQ0BAXTIoW0NIM10pW05IXUMoPU8pW05IXUMyPU8=

> <s_epik_cmdline>
J2VwaWtfcHl0aG9uJywgJy1waCcsICc3LjAnLCAnLXRuJywgJzgnLCAnLW1hJywgJzIwMCcsICctbWV0YWxfYmluZGluZycsICctaW1hZScsICc8aW5maWxlLm1hZT4nLCAnLW9tYWUnLCAnPG91dGZpbGUubWFlPic=

> <r_lp_tautomer_probability>
1

> <r_epik_Ionization_Penalty>
0.0282779

> <r_epik_Ionization_Penalty_Charging>
0

> <r_epik_Ionization_Penalty_Neutral>
0.0282779

> <r_epik_State_Penalty>
0.022996

> <r_epik_Charging_Adjusted_Penalty>
0.022996

> <i_epik_Tot_Q>
0

> <i_epik_Tot_abs_Q>
0

> <r_epik_Metal_State_Penalty>
0.428533

> <b_epik_Metal_Only>
0

> <s_lp_Force_Field>
OPLS_2005

> <r_lp_Energy>
13.4697

> <b_lp_Chiralities_Consistent>
1

> <s_lp_Variant>
AV-unprocessed.smi:639-2

> <Gold.Version>
5.8.1

> <Gold.Id.Protein>
6NUR|6NUR_protein|mol2

> <Gold.PLP.Fitness>
31.2842

> <Gold.PLP.PLP>
-25.5554

> <Gold.PLP.part.hbond>
-2.2100

> <Gold.PLP.part.metal>
0.0000

> <Gold.PLP.part.buried>
-3.3038

> <Gold.PLP.part.nonpolar>
-20.2960

> <Gold.PLP.part.repulsive>
0.1969

> <Gold.PLP.ligand.clash>
0.0000

> <Gold.PLP.ligand.torsion>
0.1990

> <Gold.PLP.Chemscore.Hbond>
1.0000

> <Gold.PLP.Chemscore.CHOScore>
1.0000

> <Gold.PLP.Chemscore.Metal>
0.0000

> <Gold.Chemscore.Hbonds>
donor molecule, donor type, donor heavy atom, donor atom, acceptor molecule, acceptor atom, score
      P1  H  7997  8009       L1    12  0.96
      L1  C     3    18       P1  8028  0.64

> <Gold.PLP.Chemscore.Internal.Correction>
0.1268

> <Gold.Rescore>
     Score         DG    S(hbond)    S(metal)    S(lipo)     H(rot)  DE(clash)    DE(int)     intcor
     12.39     -12.51       1.00        0.00      53.45       1.00       0.00       0.12       ----

> <Gold.Chemscore.Fitness>
12.3920

> <Gold.Chemscore.DG>
-12.5120

> <Gold.Chemscore.ZeroCoef>
-5.4800

> <Gold.Chemscore.Hbond>
0.9995

> <Gold.Chemscore.Metal>
0.0000

> <Gold.Chemscore.Lipo>
53.4493

> <Gold.Chemscore.Internal_Hbond>
0.0000

> <Gold.Chemscore.DEClash>
0.0019

> <Gold.Chemscore.DEInternal>
0.1180

> <Gold.Chemscore.Rot>
1.0000

> <Gold.Chemscore.Internal.Correction>
   9.000000E+99

> <Gold.Chemscore.Hbonds>
donor molecule, donor type, donor heavy atom, donor atom, acceptor molecule, acceptor atom, score
      P1  H  7997  8009       L1    12  0.90

> <Gold.Chemscore.Hbond.Weighted>
-3.3384

> <Gold.Chemscore.Metal.Weighted>
-0.0000

> <Gold.Chemscore.Lipo.Weighted>
-6.2536

> <Gold.Chemscore.Internal_Hbond.Weighted>
0.0000

> <Gold.Chemscore.DEClash.Weighted>
0.0019

> <Gold.Chemscore.DEInternal.Weighted>
0.1180

> <Gold.Chemscore.Rot.Weighted>
2.5600

> <Gold.Chemscore.Internal.Correction.Weighted>
   9.000000E+99

> <Gold.Protein.RotatedTorsions>
[ 6907 6896 6895 6894 ] final  -57.49 input  -60.11 | X-H torsion
[ 7974 7965 7964 7962 ] final  101.09 input  175.53 | X-H torsion
[ 8008 7997 7996 7995 ] final  178.84 input   59.86 | X-H torsion
[ 10167 10162 10161 10158 ] final  -65.35 input  -65.29 | X-H torsion
[ 10718 10713 10712 10709 ] final -124.46 input   66.30 | X-H torsion
[ 10763 10752 10751 10750 ] final  -50.87 input  -60.55 | X-H torsion
[ 11005 11000 10999 10996 ] final  155.98 input  -57.11 | X-H torsion

> <Gold.Protein.ActiveResidues>
 VAL166  LYS551  ARG553  GLY616  TRP617  ASP618  TYR619  PRO620  LYS621  CYS622 
 ASP623  PHE694  ASN695  SER759  ASP760  ASP761  ALA762  ILE779  LEU786  VAL792 
 PHE793  MET794  SER795  GLU796  ALA797  LYS798  CYS799  TRP800  GLU811  SER814 

> <Gold.Protein.RotatedAtoms>
  150.8082  134.7220  159.6662 H   0  0  0  0  0  0  0  0  0  0  0  0  # atno 6907 bound_to 6896
  152.4201  134.5967  159.9998 H   0  0  0  0  0  0  0  0  0  0  0  0  # atno 6908 bound_to 6896
  151.6184  133.3304  159.3119 H   0  0  0  0  0  0  0  0  0  0  0  0  # atno 6909 bound_to 6896
  145.3769  139.2387  143.3425 H   0  0  0  0  0  0  0  0  0  0  0  0  # atno 7974 bound_to 7965
  156.0502  140.1323  157.0059 H   0  0  0  0  0  0  0  0  0  0  0  0  # atno 8008 bound_to 7997
  154.4431  140.1012  156.6435 H   0  0  0  0  0  0  0  0  0  0  0  0  # atno 8009 bound_to 7997
  155.5535  140.3463  155.4476 H   0  0  0  0  0  0  0  0  0  0  0  0  # atno 8010 bound_to 7997
  140.5736  143.2320  151.6488 H   0  0  0  0  0  0  0  0  0  0  0  0  # atno 10167 bound_to 10162
  156.1590  130.6588  151.0023 H   0  0  0  0  0  0  0  0  0  0  0  0  # atno 10718 bound_to 10713
  154.1174  135.6540  153.4896 H   0  0  0  0  0  0  0  0  0  0  0  0  # atno 10763 bound_to 10752
  153.0236  135.5262  154.7131 H   0  0  0  0  0  0  0  0  0  0  0  0  # atno 10764 bound_to 10752
  154.6329  135.2978  155.0165 H   0  0  0  0  0  0  0  0  0  0  0  0  # atno 10765 bound_to 10752
  140.1632  134.8595  157.2600 H   0  0  0  0  0  0  0  0  0  0  0  0  # atno 11005 bound_to 11000
  146.2860  140.4429  142.8758 LP  0  0  0  0  0  0  0  0  0  0  0  0  # atno 17320 bound_to 7965
  144.8536  140.7037  143.6152 LP  0  0  0  0  0  0  0  0  0  0  0  0  # atno 17321 bound_to 7965
  139.5131  144.3455  152.0700 LP  0  0  0  0  0  0  0  0  0  0  0  0  # atno 17342 bound_to 10162
  140.2596  144.4081  150.6190 LP  0  0  0  0  0  0  0  0  0  0  0  0  # atno 17343 bound_to 10162
  157.6718  131.0860  150.7594 LP  0  0  0  0  0  0  0  0  0  0  0  0  # atno 17370 bound_to 10713
  156.7658  130.4813  149.5428 LP  0  0  0  0  0  0  0  0  0  0  0  0  # atno 17371 bound_to 10713
  140.2464  134.3734  155.7459 LP  0  0  0  0  0  0  0  0  0  0  0  0  # atno 17394 bound_to 11000
  141.2211  133.7293  156.8869 LP  0  0  0  0  0  0  0  0  0  0  0  0  # atno 17395 bound_to 11000

$$$$
