AV-unprocessed.smi:1956|AV-procd|sdf|7902|dock10
  -GOLD-   2272010 63D 1   1.00000     0.00000
 Structure written by MMmdl.
 46 47  0  0  0  0  0  0  0  0  2 V2000
  151.2547  141.1323  158.3411 C   0  0  0  0  0  0  0  0  0  0  0  0
  151.3318  141.1377  156.9198 O   0  0  0  0  0  0  0  0  0  0  0  0
  150.5568  140.2369  156.2186 C   0  0  0  0  0  0  0  0  0  0  0  0
  149.4974  139.5938  156.8882 C   0  0  0  0  0  0  0  0  0  0  0  0
  148.7004  138.6736  156.1806 C   0  0  0  0  0  0  0  0  0  0  0  0
  148.9900  138.4226  154.8169 C   0  0  0  0  0  0  0  0  0  0  0  0
  148.2701  137.5263  153.9783 N   0  0  0  0  0  0  0  0  0  0  0  0
  146.9556  137.2456  153.9517 C   0  0  0  0  0  0  0  0  0  0  0  0
  146.0999  137.7334  154.6890 O   0  0  0  0  0  0  0  0  0  0  0  0
  146.6732  136.3441  153.0003 N   0  0  0  0  0  0  0  0  0  0  0  0
  145.3420  135.8192  152.7178 C   0  0  0  0  0  0  0  0  0  0  0  0
  144.9862  135.9500  151.2238 C   0  0  0  0  0  0  0  0  0  0  0  0
  145.1073  134.6601  150.4992 N   0  3  1  0  0  0  0  0  0  0  0  0
  146.3682  133.9458  150.8277 C   0  0  0  0  0  0  0  0  0  0  0  0
  146.5460  132.7000  149.9455 C   0  0  0  0  0  0  0  0  0  0  0  0
  145.3348  131.7641  150.0627 C   0  0  0  0  0  0  0  0  0  0  0  0
  144.0190  132.5144  149.7850 C   0  0  2  0  0  0  0  0  0  0  0  0
  143.8147  132.8294  148.2927 C   0  0  0  0  0  0  0  0  0  0  0  0
  143.9204  133.7775  150.6653 C   0  0  0  0  0  0  0  0  0  0  0  0
  150.0717  139.1215  154.2410 C   0  0  0  0  0  0  0  0  0  0  0  0
  150.8394  140.0042  154.9134 N   0  0  0  0  0  0  0  0  0  0  0  0
  151.9231  141.8945  158.7413 H   0  0  0  0  0  0  0  0  0  0  0  0
  151.5637  140.1710  158.7547 H   0  0  0  0  0  0  0  0  0  0  0  0
  150.2457  141.3629  158.6862 H   0  0  0  0  0  0  0  0  0  0  0  0
  149.2981  139.8033  157.9289 H   0  0  0  0  0  0  0  0  0  0  0  0
  147.8905  138.1921  156.7037 H   0  0  0  0  0  0  0  0  0  0  0  0
  148.8376  137.0228  153.3121 H   0  0  0  0  0  0  0  0  0  0  0  0
  147.4339  135.9889  152.4391 H   0  0  0  0  0  0  0  0  0  0  0  0
  145.3347  134.7760  153.0310 H   0  0  0  0  0  0  0  0  0  0  0  0
  144.6013  136.3326  153.3334 H   0  0  0  0  0  0  0  0  0  0  0  0
  143.9565  136.3017  151.1469 H   0  0  0  0  0  0  0  0  0  0  0  0
  145.6052  136.7076  150.7405 H   0  0  0  0  0  0  0  0  0  0  0  0
  147.2208  134.6093  150.6783 H   0  0  0  0  0  0  0  0  0  0  0  0
  146.3651  133.6652  151.8822 H   0  0  0  0  0  0  0  0  0  0  0  0
  146.6867  133.0010  148.9068 H   0  0  0  0  0  0  0  0  0  0  0  0
  147.4534  132.1685  150.2335 H   0  0  0  0  0  0  0  0  0  0  0  0
  145.4440  130.9160  149.3857 H   0  0  0  0  0  0  0  0  0  0  0  0
  145.3038  131.3473  151.0703 H   0  0  0  0  0  0  0  0  0  0  0  0
  143.2016  131.8517  150.0724 H   0  0  0  0  0  0  0  0  0  0  0  0
  144.5731  133.5136  147.9119 H   0  0  0  0  0  0  0  0  0  0  0  0
  142.8415  133.2902  148.1208 H   0  0  0  0  0  0  0  0  0  0  0  0
  143.8562  131.9208  147.6913 H   0  0  0  0  0  0  0  0  0  0  0  0
  143.8371  133.4895  151.7147 H   0  0  0  0  0  0  0  0  0  0  0  0
  143.0039  134.3127  150.4202 H   0  0  0  0  0  0  0  0  0  0  0  0
  150.3321  138.9685  153.2039 H   0  0  0  0  0  0  0  0  0  0  0  0
  145.1665  134.8926  149.5179 H   0  0  0  0  0  0  0  0  0  0  0  0
  1  2  1  0  0  0  0
  1 22  1  0  0  0  0
  1 23  1  0  0  0  0
  1 24  1  0  0  0  0
  2  3  1  0  0  0  0
  3 21  1  0  0  0  0
  3  4  2  0  0  0  0
  4  5  1  0  0  0  0
  4 25  1  0  0  0  0
  5  6  2  0  0  0  0
  5 26  1  0  0  0  0
  6  7  1  0  0  0  0
  6 20  1  0  0  0  0
  7  8  1  0  0  0  0
  7 27  1  0  0  0  0
  8  9  2  0  0  0  0
  8 10  1  0  0  0  0
 10 11  1  0  0  0  0
 10 28  1  0  0  0  0
 11 12  1  0  0  0  0
 11 29  1  0  0  0  0
 11 30  1  0  0  0  0
 12 13  1  0  0  0  0
 12 31  1  0  0  0  0
 12 32  1  0  0  0  0
 13 19  1  0  0  0  0
 13 14  1  0  0  0  0
 13 46  1  0  0  0  0
 14 15  1  0  0  0  0
 14 33  1  0  0  0  0
 14 34  1  0  0  0  0
 15 16  1  0  0  0  0
 15 35  1  0  0  0  0
 15 36  1  0  0  0  0
 16 17  1  0  0  0  0
 16 37  1  0  0  0  0
 16 38  1  0  0  0  0
 17 18  1  0  0  0  0
 17 19  1  0  0  0  0
 17 39  1  0  0  0  0
 18 40  1  0  0  0  0
 18 41  1  0  0  0  0
 18 42  1  0  0  0  0
 19 43  1  0  0  0  0
 19 44  1  0  0  0  0
 20 21  2  0  0  0  0
 20 45  1  0  0  0  0
M  CHG  1  13   1
M  END
> <s_m_source_file>
AV-unprocessed.smi

> <i_m_source_file_index>
1956

> <i_lp_mmshare_version>
43012

> <i_f3d_flags>
0

> <s_epik_input>
W0NIM11PYzFbY0hdW2NIXWMoW2NIXW4xKVtOSF1DKD1PKVtOSF1bQ0gyXVtDSDJdTjJbQ0gyXVtDSDJdW0NIMl1bQ0BASF0oW0NIM10pW0NIMl0y

> <s_epik_cmdline>
J2VwaWtfcHl0aG9uJywgJy1waCcsICc3LjAnLCAnLXRuJywgJzgnLCAnLW1hJywgJzIwMCcsICctbWV0YWxfYmluZGluZycsICctaW1hZScsICc8aW5maWxlLm1hZT4nLCAnLW9tYWUnLCAnPG91dGZpbGUubWFlPic=

> <r_lp_tautomer_probability>
1

> <r_epik_Ionization_Penalty>
0.00179545

> <r_epik_Ionization_Penalty_Charging>
0.00171832

> <r_epik_Ionization_Penalty_Neutral>
7.7124e-05

> <r_epik_State_Penalty>
0.0011618

> <r_epik_Charging_Adjusted_Penalty>
0.00288012

> <i_epik_Tot_Q>
1

> <i_epik_Tot_abs_Q>
1

> <r_epik_Metal_State_Penalty>
-0

> <b_epik_Metal_Only>
0

> <s_lp_Force_Field>
OPLS_2005

> <r_lp_Energy>
22.555

> <b_lp_Chiralities_Consistent>
1

> <s_lp_Variant>
AV-unprocessed.smi:1956-3

> <Gold.Version>
5.8.1

> <Gold.Id.Protein>
6NUR|6NUR_protein|mol2

> <Gold.PLP.Fitness>
45.6511

> <Gold.PLP.PLP>
-33.3011

> <Gold.PLP.part.hbond>
-3.8485

> <Gold.PLP.part.metal>
0.0000

> <Gold.PLP.part.buried>
-0.0243

> <Gold.PLP.part.nonpolar>
-28.4238

> <Gold.PLP.part.repulsive>
0.2594

> <Gold.PLP.ligand.clash>
0.0000

> <Gold.PLP.ligand.torsion>
0.9480

> <Gold.PLP.Chemscore.Hbond>
3.7398

> <Gold.PLP.Chemscore.CHOScore>
0.9977

> <Gold.PLP.Chemscore.Metal>
0.0000

> <Gold.Chemscore.Hbonds>
donor molecule, donor type, donor heavy atom, donor atom, acceptor molecule, acceptor atom, score
      L1  H     7    27       P1  7948  0.99
      L1  H    10    28       P1  7948  0.96
      L1  H    13    46       P1  7921  0.78
      P1  H  7989  7998       L1    21  1.00
      L1  C    20    45       P1  7957  1.00

> <Gold.PLP.Chemscore.Internal.Correction>
0.0335

> <Gold.Rescore>
     Score         DG    S(hbond)    S(metal)    S(lipo)     H(rot)  DE(clash)    DE(int)     intcor
     21.25     -22.50       3.16        0.00      92.66       1.71       0.41       0.85       ----

> <Gold.Chemscore.Fitness>
21.2487

> <Gold.Chemscore.DG>
-22.5046

> <Gold.Chemscore.ZeroCoef>
-5.4800

> <Gold.Chemscore.Hbond>
3.1624

> <Gold.Chemscore.Metal>
0.0000

> <Gold.Chemscore.Lipo>
92.6630

> <Gold.Chemscore.Internal_Hbond>
0.0000

> <Gold.Chemscore.DEClash>
0.4061

> <Gold.Chemscore.DEInternal>
0.8498

> <Gold.Chemscore.Rot>
1.7107

> <Gold.Chemscore.Internal.Correction>
   9.000000E+99

> <Gold.Chemscore.Hbonds>
donor molecule, donor type, donor heavy atom, donor atom, acceptor molecule, acceptor atom, score
      L1  H     7    27       P1  7948  0.94
      L1  H    10    28       P1  7948  0.92
      L1  H    13    46       P1  7921  0.74
      P1  H  7989  7998       L1    21  0.26

> <Gold.Chemscore.Hbond.Weighted>
-10.5624

> <Gold.Chemscore.Metal.Weighted>
-0.0000

> <Gold.Chemscore.Lipo.Weighted>
-10.8416

> <Gold.Chemscore.Internal_Hbond.Weighted>
0.0000

> <Gold.Chemscore.DEClash.Weighted>
0.4061

> <Gold.Chemscore.DEInternal.Weighted>
0.8498

> <Gold.Chemscore.Rot.Weighted>
4.3794

> <Gold.Chemscore.Internal.Correction.Weighted>
   9.000000E+99

> <Gold.Protein.RotatedTorsions>
[ 6907 6896 6895 6894 ] final  170.85 input  -60.11 | X-H torsion
[ 7974 7965 7964 7962 ] final  -14.07 input  175.53 | X-H torsion
[ 8008 7997 7996 7995 ] final   58.01 input   59.86 | X-H torsion
[ 10167 10162 10161 10158 ] final  127.31 input  -65.29 | X-H torsion
[ 10718 10713 10712 10709 ] final  156.78 input   66.30 | X-H torsion
[ 10763 10752 10751 10750 ] final   92.88 input  -60.55 | X-H torsion
[ 11005 11000 10999 10996 ] final   55.56 input  -57.11 | X-H torsion

> <Gold.Protein.ActiveResidues>
 VAL166  LYS551  ARG553  GLY616  TRP617  ASP618  TYR619  PRO620  LYS621  CYS622 
 ASP623  PHE694  ASN695  SER759  ASP760  ASP761  ALA762  ILE779  LEU786  VAL792 
 PHE793  MET794  SER795  GLU796  ALA797  LYS798  CYS799  TRP800  GLU811  SER814 

> <Gold.Protein.RotatedAtoms>
  151.8095  133.3380  159.3550 H   0  0  0  0  0  0  0  0  0  0  0  0  # atno 6907 bound_to 6896
  150.7331  134.5677  159.5884 H   0  0  0  0  0  0  0  0  0  0  0  0  # atno 6908 bound_to 6896
  152.3085  134.7527  160.0393 H   0  0  0  0  0  0  0  0  0  0  0  0  # atno 6909 bound_to 6896
  146.2089  140.3295  142.8397 H   0  0  0  0  0  0  0  0  0  0  0  0  # atno 7974 bound_to 7965
  155.5430  140.3484  155.4451 H   0  0  0  0  0  0  0  0  0  0  0  0  # atno 8008 bound_to 7997
  156.0637  140.1346  156.9937 H   0  0  0  0  0  0  0  0  0  0  0  0  # atno 8009 bound_to 7997
  154.4492  140.0980  156.6540 H   0  0  0  0  0  0  0  0  0  0  0  0  # atno 8010 bound_to 7997
  139.5585  144.6865  151.4112 H   0  0  0  0  0  0  0  0  0  0  0  0  # atno 10167 bound_to 10162
  157.2003  131.0675  151.2029 H   0  0  0  0  0  0  0  0  0  0  0  0  # atno 10718 bound_to 10713
  153.2241  135.4345  155.0522 H   0  0  0  0  0  0  0  0  0  0  0  0  # atno 10763 bound_to 10752
  154.8264  135.3363  154.6884 H   0  0  0  0  0  0  0  0  0  0  0  0  # atno 10764 bound_to 10752
  153.7314  135.7010  153.5044 H   0  0  0  0  0  0  0  0  0  0  0  0  # atno 10765 bound_to 10752
  140.0597  134.5619  155.9166 H   0  0  0  0  0  0  0  0  0  0  0  0  # atno 11005 bound_to 11000
  144.8863  140.7465  143.5955 LP  0  0  0  0  0  0  0  0  0  0  0  0  # atno 17320 bound_to 7965
  145.3216  139.1786  143.4585 LP  0  0  0  0  0  0  0  0  0  0  0  0  # atno 17321 bound_to 7965
  140.6861  143.7970  150.7188 LP  0  0  0  0  0  0  0  0  0  0  0  0  # atno 17342 bound_to 10162
  140.1438  143.4418  152.2176 LP  0  0  0  0  0  0  0  0  0  0  0  0  # atno 17343 bound_to 10162
  157.3773  130.7213  149.6606 LP  0  0  0  0  0  0  0  0  0  0  0  0  # atno 17370 bound_to 10713
  155.9701  130.4182  150.4316 LP  0  0  0  0  0  0  0  0  0  0  0  0  # atno 17371 bound_to 10713
  141.1968  133.6593  156.5708 LP  0  0  0  0  0  0  0  0  0  0  0  0  # atno 17394 bound_to 11000
  140.3789  134.7541  157.4648 LP  0  0  0  0  0  0  0  0  0  0  0  0  # atno 17395 bound_to 11000

$$$$
