AV-unprocessed.smi:454|AV-procd|sdf|2612|dock3
  -GOLD-   2262023 13D 1   1.00000     0.00000
 Structure written by MMmdl.
 43 44  0  0  0  0  0  0  0  0  1 V2000
  146.9922  132.9911  152.3321 C   0  0  0  0  0  0  0  0  0  0  0  0
  148.1510  132.5236  152.9998 O   0  0  0  0  0  0  0  0  0  0  0  0
  148.3184  133.1169  154.2770 C   0  0  0  0  0  0  0  0  0  0  0  0
  149.6504  132.6537  154.8756 C   0  0  0  0  0  0  0  0  0  0  0  0
  149.9885  133.4080  156.0742 N   0  0  0  0  0  0  0  0  0  0  0  0
  150.3956  134.7457  155.9838 C   0  0  0  0  0  0  0  0  0  0  0  0
  150.1331  135.4512  154.7893 C   0  0  0  0  0  0  0  0  0  0  0  0
  150.5448  136.7944  154.6878 C   0  0  0  0  0  0  0  0  0  0  0  0
  151.2110  137.3731  155.7845 C   0  0  0  0  0  0  0  0  0  0  0  0
  151.7653  139.0710  155.7173 S   0  0  0  0  0  0  0  0  0  0  0  0
  153.2333  139.0819  155.8185 O   0  0  0  0  0  0  0  0  0  0  0  0
  151.1032  139.7283  154.5796 O   0  0  0  0  0  0  0  0  0  0  0  0
  151.1244  139.7626  157.1795 N   0  0  0  0  0  0  0  0  0  0  0  0
  150.3448  141.0117  157.1101 C   0  0  0  0  0  0  0  0  0  0  0  0
  151.1984  142.2328  157.5037 C   0  0  0  0  0  0  0  0  0  0  0  0
  151.7930  142.0389  158.8233 N   0  0  0  0  0  0  0  0  0  0  0  0
  152.5721  143.2161  159.1798 C   0  0  0  0  0  0  0  0  0  0  0  0
  152.6692  140.8707  158.7917 C   0  0  0  0  0  0  0  0  0  0  0  0
  151.8671  139.6019  158.4427 C   0  0  0  0  0  0  0  0  0  0  0  0
  151.4205  136.5989  156.9423 C   0  0  0  0  0  0  0  0  0  0  0  0
  151.0286  135.3105  157.0409 N   0  0  0  0  0  0  0  0  0  0  0  0
  146.9074  132.5035  151.3610 H   0  0  0  0  0  0  0  0  0  0  0  0
  147.0407  134.0681  152.1647 H   0  0  0  0  0  0  0  0  0  0  0  0
  146.0902  132.7653  152.9022 H   0  0  0  0  0  0  0  0  0  0  0  0
  148.3273  134.2029  154.1720 H   0  0  0  0  0  0  0  0  0  0  0  0
  147.4887  132.8598  154.9380 H   0  0  0  0  0  0  0  0  0  0  0  0
  149.6095  131.5881  155.1042 H   0  0  0  0  0  0  0  0  0  0  0  0
  150.4440  132.7966  154.1414 H   0  0  0  0  0  0  0  0  0  0  0  0
  150.1033  132.9078  156.9439 H   0  0  0  0  0  0  0  0  0  0  0  0
  149.6264  134.9746  153.9630 H   0  0  0  0  0  0  0  0  0  0  0  0
  150.3624  137.3578  153.7846 H   0  0  0  0  0  0  0  0  0  0  0  0
  149.9279  141.1456  156.1123 H   0  0  0  0  0  0  0  0  0  0  0  0
  149.4958  140.9259  157.7894 H   0  0  0  0  0  0  0  0  0  0  0  0
  151.9797  142.4092  156.7646 H   0  0  0  0  0  0  0  0  0  0  0  0
  150.5698  143.1242  157.5166 H   0  0  0  0  0  0  0  0  0  0  0  0
  153.0187  143.0943  160.1673 H   0  0  0  0  0  0  0  0  0  0  0  0
  151.9361  144.1014  159.2107 H   0  0  0  0  0  0  0  0  0  0  0  0
  153.3739  143.3965  158.4620 H   0  0  0  0  0  0  0  0  0  0  0  0
  153.4730  141.0275  158.0725 H   0  0  0  0  0  0  0  0  0  0  0  0
  153.1399  140.7435  159.7672 H   0  0  0  0  0  0  0  0  0  0  0  0
  151.1519  139.3918  159.2387 H   0  0  0  0  0  0  0  0  0  0  0  0
  152.5290  138.7382  158.3879 H   0  0  0  0  0  0  0  0  0  0  0  0
  151.9260  137.0114  157.8029 H   0  0  0  0  0  0  0  0  0  0  0  0
  1  2  1  0  0  0  0
  1 22  1  0  0  0  0
  1 23  1  0  0  0  0
  1 24  1  0  0  0  0
  2  3  1  0  0  0  0
  3  4  1  0  0  0  0
  3 25  1  0  0  0  0
  3 26  1  0  0  0  0
  4  5  1  0  0  0  0
  4 27  1  0  0  0  0
  4 28  1  0  0  0  0
  5  6  1  0  0  0  0
  5 29  1  0  0  0  0
  6 21  1  0  0  0  0
  6  7  2  0  0  0  0
  7  8  1  0  0  0  0
  7 30  1  0  0  0  0
  8  9  2  0  0  0  0
  8 31  1  0  0  0  0
  9 10  1  0  0  0  0
  9 20  1  0  0  0  0
 10 11  2  0  0  0  0
 10 12  2  0  0  0  0
 10 13  1  0  0  0  0
 13 19  1  0  0  0  0
 13 14  1  0  0  0  0
 14 15  1  0  0  0  0
 14 32  1  0  0  0  0
 14 33  1  0  0  0  0
 15 16  1  0  0  0  0
 15 34  1  0  0  0  0
 15 35  1  0  0  0  0
 16 17  1  0  0  0  0
 16 18  1  0  0  0  0
 17 36  1  0  0  0  0
 17 37  1  0  0  0  0
 17 38  1  0  0  0  0
 18 19  1  0  0  0  0
 18 39  1  0  0  0  0
 18 40  1  0  0  0  0
 19 41  1  0  0  0  0
 19 42  1  0  0  0  0
 20 21  2  0  0  0  0
 20 43  1  0  0  0  0
M  END
> <s_m_source_file>
AV-unprocessed.smi

> <i_m_source_file_index>
454

> <i_lp_mmshare_version>
43012

> <i_f3d_flags>
0

> <s_epik_input>
W0NIM11PW0NIMl1bQ0gyXVtOSF1jMVtjSF1bY0hdYyhbY0hdbjEpUyg9TykoPU8pTjJbQ0gyXVtDSDJdTihbQ0gzXSlbQ0gyXVtDSDJdMg==

> <s_epik_cmdline>
J2VwaWtfcHl0aG9uJywgJy1waCcsICc3LjAnLCAnLXRuJywgJzgnLCAnLW1hJywgJzIwMCcsICctbWV0YWxfYmluZGluZycsICctaW1hZScsICc8aW5maWxlLm1hZT4nLCAnLW9tYWUnLCAnPG91dGZpbGUubWFlPic=

> <r_lp_tautomer_probability>
1

> <r_epik_Ionization_Penalty>
0.0786276

> <r_epik_Ionization_Penalty_Charging>
0

> <r_epik_Ionization_Penalty_Neutral>
0.0786276

> <r_epik_State_Penalty>
0.0691961

> <r_epik_Charging_Adjusted_Penalty>
0.0691961

> <i_epik_Tot_Q>
0

> <i_epik_Tot_abs_Q>
0

> <r_epik_Metal_State_Penalty>
0.0691754

> <b_epik_Metal_Only>
0

> <s_lp_Force_Field>
OPLS_2005

> <r_lp_Energy>
0.101834

> <b_lp_Chiralities_Consistent>
1

> <s_lp_Variant>
AV-unprocessed.smi:454-1

> <Gold.Version>
5.8.1

> <Gold.Id.Protein>
6NUR|6NUR_protein|mol2

> <Gold.PLP.Fitness>
40.2057

> <Gold.PLP.PLP>
-34.7389

> <Gold.PLP.part.hbond>
-2.5660

> <Gold.PLP.part.metal>
0.0000

> <Gold.PLP.part.buried>
-7.2464

> <Gold.PLP.part.nonpolar>
-26.4353

> <Gold.PLP.part.repulsive>
0.3287

> <Gold.PLP.ligand.clash>
0.0000

> <Gold.PLP.ligand.torsion>
2.3163

> <Gold.PLP.Chemscore.Hbond>
1.9920

> <Gold.PLP.Chemscore.CHOScore>
0.0000

> <Gold.PLP.Chemscore.Metal>
0.0000

> <Gold.Chemscore.Hbonds>
donor molecule, donor type, donor heavy atom, donor atom, acceptor molecule, acceptor atom, score
      P1  H  7989  7998       L1    12  1.00
      P1  H  7997  8008       L1    11  1.00

> <Gold.PLP.Chemscore.Internal.Correction>
4.1235

> <Gold.Rescore>
     Score         DG    S(hbond)    S(metal)    S(lipo)     H(rot)  DE(clash)    DE(int)     intcor
     14.71     -17.19       1.91        0.00      76.24       1.40       0.01       2.46       ----

> <Gold.Chemscore.Fitness>
14.7120

> <Gold.Chemscore.DG>
-17.1913

> <Gold.Chemscore.ZeroCoef>
-5.4800

> <Gold.Chemscore.Hbond>
1.9065

> <Gold.Chemscore.Metal>
0.0000

> <Gold.Chemscore.Lipo>
76.2399

> <Gold.Chemscore.Internal_Hbond>
0.0000

> <Gold.Chemscore.DEClash>
0.0150

> <Gold.Chemscore.DEInternal>
2.4644

> <Gold.Chemscore.Rot>
1.3970

> <Gold.Chemscore.Internal.Correction>
   9.000000E+99

> <Gold.Chemscore.Hbonds>
donor molecule, donor type, donor heavy atom, donor atom, acceptor molecule, acceptor atom, score
      P1  H  7989  7998       L1    12  1.00
      P1  H  7997  8008       L1    11  0.95

> <Gold.Chemscore.Hbond.Weighted>
-6.3677

> <Gold.Chemscore.Metal.Weighted>
-0.0000

> <Gold.Chemscore.Lipo.Weighted>
-8.9201

> <Gold.Chemscore.Internal_Hbond.Weighted>
0.0000

> <Gold.Chemscore.DEClash.Weighted>
0.0150

> <Gold.Chemscore.DEInternal.Weighted>
2.4644

> <Gold.Chemscore.Rot.Weighted>
3.5764

> <Gold.Chemscore.Internal.Correction.Weighted>
   9.000000E+99

> <Gold.Protein.RotatedTorsions>
[ 6907 6896 6895 6894 ] final  150.15 input  -60.11 | X-H torsion
[ 7974 7965 7964 7962 ] final  -86.75 input  175.53 | X-H torsion
[ 8008 7997 7996 7995 ] final  -47.64 input   59.86 | X-H torsion
[ 10167 10162 10161 10158 ] final  158.49 input  -65.29 | X-H torsion
[ 10718 10713 10712 10709 ] final  -71.75 input   66.30 | X-H torsion
[ 10763 10752 10751 10750 ] final  -46.06 input  -60.55 | X-H torsion
[ 11005 11000 10999 10996 ] final  156.53 input  -57.11 | X-H torsion

> <Gold.Protein.ActiveResidues>
 VAL166  LYS551  ARG553  GLY616  TRP617  ASP618  TYR619  PRO620  LYS621  CYS622 
 ASP623  PHE694  ASN695  SER759  ASP760  ASP761  ALA762  ILE779  LEU786  VAL792 
 PHE793  MET794  SER795  GLU796  ALA797  LYS798  CYS799  TRP800  GLU811  SER814 

> <Gold.Protein.RotatedAtoms>
  152.1183  133.4339  159.4663 H   0  0  0  0  0  0  0  0  0  0  0  0  # atno 6907 bound_to 6896
  150.6870  134.2565  159.4541 H   0  0  0  0  0  0  0  0  0  0  0  0  # atno 6908 bound_to 6896
  152.0440  134.9694  160.0625 H   0  0  0  0  0  0  0  0  0  0  0  0  # atno 6909 bound_to 6896
  145.4757  140.9558  143.1892 H   0  0  0  0  0  0  0  0  0  0  0  0  # atno 7974 bound_to 7965
  154.4019  140.1341  156.4209 H   0  0  0  0  0  0  0  0  0  0  0  0  # atno 8008 bound_to 7997
  155.7644  140.3485  155.5194 H   0  0  0  0  0  0  0  0  0  0  0  0  # atno 8009 bound_to 7997
  155.8828  140.0990  157.1464 H   0  0  0  0  0  0  0  0  0  0  0  0  # atno 8010 bound_to 7997
  139.4827  144.4819  151.8432 H   0  0  0  0  0  0  0  0  0  0  0  0  # atno 10167 bound_to 10162
  156.0349  130.4358  150.2491 H   0  0  0  0  0  0  0  0  0  0  0  0  # atno 10718 bound_to 10713
  154.0388  135.6647  153.4788 H   0  0  0  0  0  0  0  0  0  0  0  0  # atno 10763 bound_to 10752
  153.0510  135.5084  154.7862 H   0  0  0  0  0  0  0  0  0  0  0  0  # atno 10764 bound_to 10752
  154.6832  135.3048  154.9550 H   0  0  0  0  0  0  0  0  0  0  0  0  # atno 10765 bound_to 10752
  140.1684  134.8560  157.2660 H   0  0  0  0  0  0  0  0  0  0  0  0  # atno 11005 bound_to 11000
  144.7919  139.6312  143.7110 LP  0  0  0  0  0  0  0  0  0  0  0  0  # atno 17320 bound_to 7965
  146.2371  139.5926  142.9517 LP  0  0  0  0  0  0  0  0  0  0  0  0  # atno 17321 bound_to 7965
  140.4296  144.2134  150.5888 LP  0  0  0  0  0  0  0  0  0  0  0  0  # atno 17342 bound_to 10162
  140.4793  143.2385  151.8978 LP  0  0  0  0  0  0  0  0  0  0  0  0  # atno 17343 bound_to 10162
  157.0591  131.0084  151.3228 LP  0  0  0  0  0  0  0  0  0  0  0  0  # atno 17370 bound_to 10713
  157.5084  130.7923  149.7679 LP  0  0  0  0  0  0  0  0  0  0  0  0  # atno 17371 bound_to 10713
  140.2406  134.3800  155.7482 LP  0  0  0  0  0  0  0  0  0  0  0  0  # atno 17394 bound_to 11000
  141.2215  133.7263  156.8783 LP  0  0  0  0  0  0  0  0  0  0  0  0  # atno 17395 bound_to 11000

$$$$
