#       Name:                AV-unprocessed.smi:3126
#       Creating user name   scv26
#       Creation time:       Fri Mar 27 17:29:13 2020


#       File generated by GOLD software.
#

@<TRIPOS>MOLECULE
AV-unprocessed.smi:3126
    43    44     1
SMALL
NO_CHARGES


@<TRIPOS>ATOM
      1 ****        -1.5943  -4.8235  -1.6973 C.3            1 S1                 0.0000
      2 ****        -2.1854  -3.4120  -1.8170 C.3            1 S1                 0.0000
      3 ****        -1.5842  -2.3913  -0.8294 C.3            1 S1                 0.0000
      4 ****        -1.9512  -2.7040   0.6371 C.3            1 S1                 0.0000
      5 ****        -1.3706  -1.6615   1.6046 C.3            1 S1                 0.0000
      6 ****        -1.8195  -0.2406   1.2302 C.3            1 S1                 0.0000
      7 ****        -1.4668   0.1112  -0.2308 C.3            1 S1                 0.0000
      8 ****        -0.0088   0.2782  -0.4362 N.4            1 S1                 1.0000
      9 ****         0.5696   1.5255   0.1050 C.3            1 S1                 0.0000
     10 ****         2.0591   1.6369  -0.2446 C.3            1 S1                 0.0000
     11 ****         2.6728   2.9151   0.2913 C.ar           1 S1                 0.0000
     12 ****         3.2608   2.9557   1.5726 C.ar           1 S1                 0.0000
     13 ****         3.8086   4.1699   2.0291 C.ar           1 S1                 0.0000
     14 ****         3.7457   5.2949   1.1826 C.ar           1 S1                 0.0000
     15 ****         3.1853   5.2673  -0.0458 N.ar           1 S1                 0.0000
     16 ****         2.6632   4.0992  -0.4765 C.ar           1 S1                 0.0000
     17 ****        -2.0266  -0.9561  -1.1924 C.3            1 S1                 0.0000
     18 ****        -2.0025  -5.4772  -2.4684 H              1 S1                 0.0000
     19 ****        -1.8229  -5.2779  -0.7336 H              1 S1                 0.0000
     20 ****        -0.5107  -4.8093  -1.8163 H              1 S1                 0.0000
     21 ****        -2.0154  -3.0635  -2.8364 H              1 S1                 0.0000
     22 ****        -3.2679  -3.4579  -1.6925 H              1 S1                 0.0000
     23 ****        -0.4985  -2.4405  -0.9248 H              1 S1                 0.0000
     24 ****        -3.0361  -2.7366   0.7467 H              1 S1                 0.0000
     25 ****        -1.5841  -3.6899   0.9213 H              1 S1                 0.0000
     26 ****        -1.6838  -1.8906   2.6237 H              1 S1                 0.0000
     27 ****        -0.2816  -1.7208   1.5985 H              1 S1                 0.0000
     28 ****        -2.9008  -0.1718   1.3569 H              1 S1                 0.0000
     29 ****        -1.3973   0.4832   1.9267 H              1 S1                 0.0000
     30 ****        -1.9399   1.0607  -0.4852 H              1 S1                 0.0000
     31 ****         0.4695  -0.5146  -0.0326 H              1 S1                 0.0000
     32 ****         0.0291   2.3803  -0.3041 H              1 S1                 0.0000
     33 ****         0.4463   1.5527   1.1875 H              1 S1                 0.0000
     34 ****         2.6051   0.7833   0.1599 H              1 S1                 0.0000
     35 ****         2.1950   1.6056  -1.3267 H              1 S1                 0.0000
     36 ****         3.2895   2.0748   2.1970 H              1 S1                 0.0000
     37 ****         4.2657   4.2389   3.0052 H              1 S1                 0.0000
     38 ****         4.1550   6.2419   1.5017 H              1 S1                 0.0000
     39 ****         2.2198   4.1115  -1.4613 H              1 S1                 0.0000
     40 ****        -1.7320  -0.7195  -2.2158 H              1 S1                 0.0000
     41 ****        -3.1165  -0.9064  -1.1765 H              1 S1                 0.0000
     42 ****         0.1592   0.2787  -1.4321 H              1 S1                 0.0000
     43 ****         3.1579   6.0866  -0.6186 LP             1 S1                 0.0000
@<TRIPOS>BOND
    1    1    2 1     
    2    1   18 1     
    3    1   19 1     
    4    1   20 1     
    5    2    3 1     
    6    2   21 1     
    7    2   22 1     
    8    3   17 1     
    9    3    4 1     
   10    3   23 1     
   11    4    5 1     
   12    4   24 1     
   13    4   25 1     
   14    5    6 1     
   15    5   26 1     
   16    5   27 1     
   17    6    7 1     
   18    6   28 1     
   19    6   29 1     
   20    7    8 1     
   21    7   17 1     
   22    7   30 1     
   23    8    9 1     
   24    8   31 1     
   25    8   42 1     
   26    9   10 1     
   27    9   32 1     
   28    9   33 1     
   29   10   11 1     
   30   10   34 1     
   31   10   35 1     
   32   11   16 ar    
   33   11   12 ar    
   34   12   13 ar    
   35   12   36 1     
   36   13   14 ar    
   37   13   37 1     
   38   14   15 ar    
   39   14   38 1     
   40   15   16 ar    
   41   16   39 1     
   42   17   40 1     
   43   17   41 1     
   44   15   43 1     
@<TRIPOS>SUBSTRUCTURE
      1 S1             1
@<TRIPOS>SET
LONE_PAIRS      STATIC     ATOMS    <user>   **** ""
1 43
DONOR_HYDROGENS      STATIC     ATOMS    <user>   **** ""
2 31 42
ATOM$BLUE        STATIC     ATOMS    COLORGROUP SYSTEM
1 43
ATOM$RED        STATIC     ATOMS    COLORGROUP SYSTEM
2 31 42
