AV-unprocessed.smi:2267|AV-procd|sdf|9149|dock4
  -GOLD-   2272012353D 1   1.00000     0.00000
 Structure written by MMmdl.
 41 42  0  0  0  0  0  0  0  0  1 V2000
  151.7566  145.2654  159.6419 C   0  0  0  0  0  0  0  0  0  0  0  0
  151.9586  143.7804  159.4221 C   0  0  0  0  0  0  0  0  0  0  0  0
  152.8103  143.0451  160.2706 C   0  0  0  0  0  0  0  0  0  0  0  0
  152.9933  141.6665  160.0582 C   0  0  0  0  0  0  0  0  0  0  0  0
  152.3262  141.0222  158.9992 C   0  0  0  0  0  0  0  0  0  0  0  0
  151.4707  141.7423  158.1404 C   0  0  0  0  0  0  0  0  0  0  0  0
  150.8577  141.0321  157.1303 O   0  0  0  0  0  0  0  0  0  0  0  0
  149.6343  141.5279  156.6027 C   0  0  0  0  0  0  0  0  0  0  0  0
  149.4409  140.9674  155.1833 C   0  0  1  0  0  0  0  0  0  0  0  0
  149.2162  142.0701  154.3266 O   0  0  0  0  0  0  0  0  0  0  0  0
  150.6998  140.2249  154.6801 C   0  0  0  0  0  0  0  0  0  0  0  0
  150.7757  138.8471  155.1953 N   0  0  0  0  0  0  0  0  0  0  0  0
  149.7687  137.9662  154.7679 C   0  0  0  0  0  0  0  0  0  0  0  0
  149.7355  136.7330  155.1545 N   0  0  0  0  0  0  0  0  0  0  0  0
  150.7169  136.2482  156.0238 C   0  0  0  0  0  0  0  0  0  0  0  0
  150.5831  134.7869  156.4147 C   0  0  0  0  0  0  0  0  0  0  0  0
  151.7161  137.0516  156.4805 C   0  0  0  0  0  0  0  0  0  0  0  0
  152.8098  136.5798  157.4307 C   0  0  0  0  0  0  0  0  0  0  0  0
  151.7658  138.4585  156.0502 C   0  0  0  0  0  0  0  0  0  0  0  0
  152.6367  139.2436  156.4302 O   0  0  0  0  0  0  0  0  0  0  0  0
  151.2931  143.1320  158.3611 C   0  0  0  0  0  0  0  0  0  0  0  0
  152.1514  145.5809  160.6081 H   0  0  0  0  0  0  0  0  0  0  0  0
  150.6953  145.5139  159.6129 H   0  0  0  0  0  0  0  0  0  0  0  0
  152.2644  145.8335  158.8622 H   0  0  0  0  0  0  0  0  0  0  0  0
  153.3251  143.5339  161.0848 H   0  0  0  0  0  0  0  0  0  0  0  0
  153.6457  141.1020  160.7078 H   0  0  0  0  0  0  0  0  0  0  0  0
  152.4726  139.9632  158.8438 H   0  0  0  0  0  0  0  0  0  0  0  0
  148.7854  141.2727  157.2398 H   0  0  0  0  0  0  0  0  0  0  0  0
  149.7029  142.6161  156.5587 H   0  0  0  0  0  0  0  0  0  0  0  0
  148.5754  140.3035  155.1703 H   0  0  0  0  0  0  0  0  0  0  0  0
  148.9810  142.8181  154.8539 H   0  0  0  0  0  0  0  0  0  0  0  0
  150.7565  140.2609  153.5899 H   0  0  0  0  0  0  0  0  0  0  0  0
  151.5942  140.7576  155.0084 H   0  0  0  0  0  0  0  0  0  0  0  0
  149.0232  138.3950  154.0961 H   0  0  0  0  0  0  0  0  0  0  0  0
  151.4702  134.2274  156.1161 H   0  0  0  0  0  0  0  0  0  0  0  0
  149.7197  134.3250  155.9340 H   0  0  0  0  0  0  0  0  0  0  0  0
  150.4554  134.6909  157.4933 H   0  0  0  0  0  0  0  0  0  0  0  0
  152.7811  137.1599  158.3535 H   0  0  0  0  0  0  0  0  0  0  0  0
  153.7902  136.7179  156.9738 H   0  0  0  0  0  0  0  0  0  0  0  0
  152.7204  135.5291  157.7014 H   0  0  0  0  0  0  0  0  0  0  0  0
  150.6497  143.7233  157.7275 H   0  0  0  0  0  0  0  0  0  0  0  0
  1  2  1  0  0  0  0
  1 22  1  0  0  0  0
  1 23  1  0  0  0  0
  1 24  1  0  0  0  0
  2 21  1  0  0  0  0
  2  3  2  0  0  0  0
  3  4  1  0  0  0  0
  3 25  1  0  0  0  0
  4  5  2  0  0  0  0
  4 26  1  0  0  0  0
  5  6  1  0  0  0  0
  5 27  1  0  0  0  0
  6  7  1  0  0  0  0
  6 21  2  0  0  0  0
  7  8  1  0  0  0  0
  8  9  1  0  0  0  0
  8 28  1  0  0  0  0
  8 29  1  0  0  0  0
  9 10  1  0  0  0  0
  9 11  1  0  0  0  0
  9 30  1  0  0  0  0
 10 31  1  0  0  0  0
 11 12  1  0  0  0  0
 11 32  1  0  0  0  0
 11 33  1  0  0  0  0
 12 19  1  0  0  0  0
 12 13  1  0  0  0  0
 13 14  2  0  0  0  0
 13 34  1  0  0  0  0
 14 15  1  0  0  0  0
 15 16  1  0  0  0  0
 15 17  2  0  0  0  0
 16 35  1  0  0  0  0
 16 36  1  0  0  0  0
 16 37  1  0  0  0  0
 17 18  1  0  0  0  0
 17 19  1  0  0  0  0
 18 38  1  0  0  0  0
 18 39  1  0  0  0  0
 18 40  1  0  0  0  0
 19 20  2  0  0  0  0
 21 41  1  0  0  0  0
M  END
> <s_m_source_file>
AV-unprocessed.smi

> <i_m_source_file_index>
2267

> <i_lp_mmshare_version>
43012

> <i_f3d_flags>
0

> <s_epik_input>
W0NIM11jMVtjSF1bY0hdW2NIXWMoW2NIXTEpT1tDSDJdW0NASF0oW09IXSlbQ0gyXW4yW2NIXW5jKFtDSDNdKWMoW0NIM10pYzI9Tw==

> <s_epik_cmdline>
J2VwaWtfcHl0aG9uJywgJy1waCcsICc3LjAnLCAnLXRuJywgJzgnLCAnLW1hJywgJzIwMCcsICctbWV0YWxfYmluZGluZycsICctaW1hZScsICc8aW5maWxlLm1hZT4nLCAnLW9tYWUnLCAnPG91dGZpbGUubWFlPic=

> <r_lp_tautomer_probability>
1

> <r_epik_Ionization_Penalty>
3.72236e-05

> <r_epik_Ionization_Penalty_Charging>
8.38864e-08

> <r_epik_Ionization_Penalty_Neutral>
3.71397e-05

> <r_epik_State_Penalty>
-0

> <r_epik_Charging_Adjusted_Penalty>
8.38864e-08

> <i_epik_Tot_Q>
0

> <i_epik_Tot_abs_Q>
0

> <r_epik_Metal_State_Penalty>
-0

> <b_epik_Metal_Only>
0

> <s_lp_Force_Field>
OPLS_2005

> <r_lp_Energy>
23.9214

> <b_lp_Chiralities_Consistent>
1

> <s_lp_Variant>
AV-unprocessed.smi:2267-2

> <Gold.Version>
5.8.1

> <Gold.Id.Protein>
6NUR|6NUR_protein|mol2

> <Gold.PLP.Fitness>
44.5603

> <Gold.PLP.PLP>
-40.3765

> <Gold.PLP.part.hbond>
-3.3614

> <Gold.PLP.part.metal>
0.0000

> <Gold.PLP.part.buried>
-1.2700

> <Gold.PLP.part.nonpolar>
-36.2662

> <Gold.PLP.part.repulsive>
0.1705

> <Gold.PLP.ligand.clash>
0.0000

> <Gold.PLP.ligand.torsion>
1.4084

> <Gold.PLP.Chemscore.Hbond>
2.3172

> <Gold.PLP.Chemscore.CHOScore>
0.0000

> <Gold.PLP.Chemscore.Metal>
0.0000

> <Gold.Chemscore.Hbonds>
donor molecule, donor type, donor heavy atom, donor atom, acceptor molecule, acceptor atom, score
      L1  H    10    31       P1  8028  0.94
      P1  H  7997  8009       L1    20  1.00
      P1  H  8011  8017       L1    10  0.28

> <Gold.PLP.Chemscore.Internal.Correction>
0.0490

> <Gold.Rescore>
     Score         DG    S(hbond)    S(metal)    S(lipo)     H(rot)  DE(clash)    DE(int)     intcor
     14.77     -19.86       2.12        0.00     113.86       2.35       1.32       3.77       ----

> <Gold.Chemscore.Fitness>
14.7746

> <Gold.Chemscore.DG>
-19.8560

> <Gold.Chemscore.ZeroCoef>
-5.4800

> <Gold.Chemscore.Hbond>
2.1160

> <Gold.Chemscore.Metal>
0.0000

> <Gold.Chemscore.Lipo>
113.8640

> <Gold.Chemscore.Internal_Hbond>
0.0000

> <Gold.Chemscore.DEClash>
1.3155

> <Gold.Chemscore.DEInternal>
3.7659

> <Gold.Chemscore.Rot>
2.3490

> <Gold.Chemscore.Internal.Correction>
   9.000000E+99

> <Gold.Chemscore.Hbonds>
donor molecule, donor type, donor heavy atom, donor atom, acceptor molecule, acceptor atom, score
      L1  H    10    31       P1  8028  0.90
      P1  H  7997  8009       L1    20  0.99
      P1  H  8011  8017       L1    10  0.26

> <Gold.Chemscore.Hbond.Weighted>
-7.0674

> <Gold.Chemscore.Metal.Weighted>
-0.0000

> <Gold.Chemscore.Lipo.Weighted>
-13.3221

> <Gold.Chemscore.Internal_Hbond.Weighted>
0.0000

> <Gold.Chemscore.DEClash.Weighted>
1.3155

> <Gold.Chemscore.DEInternal.Weighted>
3.7659

> <Gold.Chemscore.Rot.Weighted>
6.0136

> <Gold.Chemscore.Internal.Correction.Weighted>
   9.000000E+99

> <Gold.Protein.RotatedTorsions>
[ 6907 6896 6895 6894 ] final -173.86 input  -60.11 | X-H torsion
[ 7974 7965 7964 7962 ] final  107.04 input  175.53 | X-H torsion
[ 8008 7997 7996 7995 ] final -179.63 input   59.86 | X-H torsion
[ 10167 10162 10161 10158 ] final   93.43 input  -65.29 | X-H torsion
[ 10718 10713 10712 10709 ] final -105.24 input   66.30 | X-H torsion
[ 10763 10752 10751 10750 ] final  -32.01 input  -60.55 | X-H torsion
[ 11005 11000 10999 10996 ] final  158.76 input  -57.11 | X-H torsion

> <Gold.Protein.ActiveResidues>
 VAL166  LYS551  ARG553  GLY616  TRP617  ASP618  TYR619  PRO620  LYS621  CYS622 
 ASP623  PHE694  ASN695  SER759  ASP760  ASP761  ALA762  ILE779  LEU786  VAL792 
 PHE793  MET794  SER795  GLU796  ALA797  LYS798  CYS799  TRP800  GLU811  SER814 

> <Gold.Protein.RotatedAtoms>
  151.5631  133.3400  159.2974 H   0  0  0  0  0  0  0  0  0  0  0  0  # atno 6907 bound_to 6896
  150.8411  134.7706  159.6944 H   0  0  0  0  0  0  0  0  0  0  0  0  # atno 6908 bound_to 6896
  152.4478  134.5464  159.9906 H   0  0  0  0  0  0  0  0  0  0  0  0  # atno 6909 bound_to 6896
  145.2988  139.2576  143.3825 H   0  0  0  0  0  0  0  0  0  0  0  0  # atno 7974 bound_to 7965
  156.0328  140.1286  157.0240 H   0  0  0  0  0  0  0  0  0  0  0  0  # atno 8008 bound_to 7997
  154.4357  140.1046  156.6194 H   0  0  0  0  0  0  0  0  0  0  0  0  # atno 8009 bound_to 7997
  155.5782  140.3467  155.4535 H   0  0  0  0  0  0  0  0  0  0  0  0  # atno 8010 bound_to 7997
  139.8180  144.6744  150.9555 H   0  0  0  0  0  0  0  0  0  0  0  0  # atno 10167 bound_to 10162
  156.0338  130.5554  150.7511 H   0  0  0  0  0  0  0  0  0  0  0  0  # atno 10718 bound_to 10713
  153.8068  135.6885  153.4847 H   0  0  0  0  0  0  0  0  0  0  0  0  # atno 10763 bound_to 10752
  153.1654  135.4563  154.9828 H   0  0  0  0  0  0  0  0  0  0  0  0  # atno 10764 bound_to 10752
  154.7984  135.3328  154.7552 H   0  0  0  0  0  0  0  0  0  0  0  0  # atno 10765 bound_to 10752
  140.1897  134.8416  157.2897 H   0  0  0  0  0  0  0  0  0  0  0  0  # atno 11005 bound_to 11000
  146.3159  140.3497  142.8655 LP  0  0  0  0  0  0  0  0  0  0  0  0  # atno 17320 bound_to 7965
  144.9111  140.7758  143.5807 LP  0  0  0  0  0  0  0  0  0  0  0  0  # atno 17321 bound_to 7965
  140.7815  143.4119  151.0979 LP  0  0  0  0  0  0  0  0  0  0  0  0  # atno 17342 bound_to 10162
  139.7781  143.8395  152.3133 LP  0  0  0  0  0  0  0  0  0  0  0  0  # atno 17343 bound_to 10162
  157.5055  131.0922  151.0262 LP  0  0  0  0  0  0  0  0  0  0  0  0  # atno 17370 bound_to 10713
  157.0631  130.5833  149.5389 LP  0  0  0  0  0  0  0  0  0  0  0  0  # atno 17371 bound_to 10713
  140.2174  134.4065  155.7582 LP  0  0  0  0  0  0  0  0  0  0  0  0  # atno 17394 bound_to 11000
  141.2226  133.7148  156.8436 LP  0  0  0  0  0  0  0  0  0  0  0  0  # atno 17395 bound_to 11000

$$$$
