AV-unprocessed.smi:704|AV-procd|sdf|3444|dock7
  -GOLD-   22720 0433D 1   1.00000     0.00000
 Structure written by MMmdl.
 38 39  0  0  0  0  0  0  0  0  1 V2000
  151.7744  138.3294  154.3626 C   0  0  0  0  0  0  0  0  0  0  0  0
  150.4304  138.3333  153.8939 O   0  0  0  0  0  0  0  0  0  0  0  0
  149.6630  139.4638  154.1003 C   0  0  0  0  0  0  0  0  0  0  0  0
  150.2273  140.5190  154.7402 N   0  0  0  0  0  0  0  0  0  0  0  0
  149.4784  141.6220  154.9445 C   0  0  0  0  0  0  0  0  0  0  0  0
  148.1378  141.7305  154.5318 C   0  0  0  0  0  0  0  0  0  0  0  0
  147.5504  140.6377  153.8682 C   0  0  0  0  0  0  0  0  0  0  0  0
  148.3280  139.4781  153.6335 C   0  0  0  0  0  0  0  0  0  0  0  0
  147.8249  138.3122  152.9941 N   0  0  0  0  0  0  0  0  0  0  0  0
  146.5459  137.9780  152.7554 C   0  0  0  0  0  0  0  0  0  0  0  0
  145.5653  138.6683  153.0334 O   0  0  0  0  0  0  0  0  0  0  0  0
  146.4634  136.7921  152.1365 N   0  0  0  0  0  0  0  0  0  0  0  0
  145.2180  136.1556  151.7042 C   0  0  2  0  0  0  0  0  0  0  0  0
  144.2869  135.8816  152.9005 C   0  0  0  0  0  0  0  0  0  0  0  0
  143.6688  134.4954  152.6749 C   0  0  0  0  0  0  0  0  0  0  0  0
  144.0754  134.0778  151.2589 C   0  0  0  0  0  0  0  0  0  0  0  0
  145.4007  134.7994  150.9722 C   0  0  2  0  0  0  0  0  0  0  0  0
  146.6045  133.9561  151.4465 C   0  0  0  0  0  0  0  0  0  0  0  0
  147.0173  132.9812  150.6325 N   0  0  0  0  0  0  0  0  0  0  0  0
  147.1583  134.1826  152.5212 O   0  0  0  0  0  0  0  0  0  0  0  0
  152.2401  137.3765  154.1122 H   0  0  0  0  0  0  0  0  0  0  0  0
  151.8183  138.4446  155.4465 H   0  0  0  0  0  0  0  0  0  0  0  0
  152.3639  139.1185  153.8935 H   0  0  0  0  0  0  0  0  0  0  0  0
  149.9605  142.4405  155.4583 H   0  0  0  0  0  0  0  0  0  0  0  0
  147.5712  142.6292  154.7252 H   0  0  0  0  0  0  0  0  0  0  0  0
  146.5161  140.7037  153.5679 H   0  0  0  0  0  0  0  0  0  0  0  0
  148.5255  137.6916  152.6155 H   0  0  0  0  0  0  0  0  0  0  0  0
  147.3204  136.2980  151.9351 H   0  0  0  0  0  0  0  0  0  0  0  0
  144.6950  136.8356  151.0285 H   0  0  0  0  0  0  0  0  0  0  0  0
  144.8306  135.8897  153.8466 H   0  0  0  0  0  0  0  0  0  0  0  0
  143.5167  136.6506  152.9678 H   0  0  0  0  0  0  0  0  0  0  0  0
  144.0744  133.7895  153.4005 H   0  0  0  0  0  0  0  0  0  0  0  0
  142.5857  134.5013  152.8004 H   0  0  0  0  0  0  0  0  0  0  0  0
  144.1421  132.9936  151.1566 H   0  0  0  0  0  0  0  0  0  0  0  0
  143.3213  134.4192  150.5484 H   0  0  0  0  0  0  0  0  0  0  0  0
  145.5052  134.9709  149.8994 H   0  0  0  0  0  0  0  0  0  0  0  0
  147.7974  132.3980  150.8989 H   0  0  0  0  0  0  0  0  0  0  0  0
  146.5433  132.8277  149.7542 H   0  0  0  0  0  0  0  0  0  0  0  0
  1  2  1  0  0  0  0
  1 21  1  0  0  0  0
  1 22  1  0  0  0  0
  1 23  1  0  0  0  0
  2  3  1  0  0  0  0
  3  8  1  0  0  0  0
  3  4  2  0  0  0  0
  4  5  1  0  0  0  0
  5  6  2  0  0  0  0
  5 24  1  0  0  0  0
  6  7  1  0  0  0  0
  6 25  1  0  0  0  0
  7  8  2  0  0  0  0
  7 26  1  0  0  0  0
  8  9  1  0  0  0  0
  9 10  1  0  0  0  0
  9 27  1  0  0  0  0
 10 11  2  0  0  0  0
 10 12  1  0  0  0  0
 12 13  1  0  0  0  0
 12 28  1  0  0  0  0
 13 17  1  0  0  0  0
 13 14  1  0  0  0  0
 13 29  1  0  0  0  0
 14 15  1  0  0  0  0
 14 30  1  0  0  0  0
 14 31  1  0  0  0  0
 15 16  1  0  0  0  0
 15 32  1  0  0  0  0
 15 33  1  0  0  0  0
 16 17  1  0  0  0  0
 16 34  1  0  0  0  0
 16 35  1  0  0  0  0
 17 18  1  0  0  0  0
 17 36  1  0  0  0  0
 18 19  1  0  0  0  0
 18 20  2  0  0  0  0
 19 37  1  0  0  0  0
 19 38  1  0  0  0  0
M  END
> <s_m_source_file>
AV-unprocessed.smi

> <i_m_source_file_index>
704

> <i_lp_mmshare_version>
43012

> <i_f3d_flags>
0

> <s_epik_input>
W0NIM11PYzFuW2NIXVtjSF1bY0hdYzFbTkhdQyg9TylbTkhdW0NAQEhdMltDSDJdW0NIMl1bQ0gyXVtDQEhdMkMoPU8pW05IMl0=

> <s_epik_cmdline>
J2VwaWtfcHl0aG9uJywgJy1waCcsICc3LjAnLCAnLXRuJywgJzgnLCAnLW1hJywgJzIwMCcsICctbWV0YWxfYmluZGluZycsICctaW1hZScsICc8aW5maWxlLm1hZT4nLCAnLW9tYWUnLCAnPG91dGZpbGUubWFlPic=

> <r_lp_tautomer_probability>
1

> <r_epik_Ionization_Penalty>
9.09123e-05

> <r_epik_Ionization_Penalty_Charging>
0

> <r_epik_Ionization_Penalty_Neutral>
9.09123e-05

> <r_epik_State_Penalty>
-0

> <r_epik_Charging_Adjusted_Penalty>
0

> <i_epik_Tot_Q>
0

> <i_epik_Tot_abs_Q>
0

> <r_epik_Metal_State_Penalty>
-0

> <b_epik_Metal_Only>
0

> <s_lp_Force_Field>
OPLS_2005

> <r_lp_Energy>
16.4905

> <b_lp_Chiralities_Consistent>
1

> <s_lp_Variant>
AV-unprocessed.smi:704-3

> <Gold.Version>
5.8.1

> <Gold.Id.Protein>
6NUR|6NUR_protein|mol2

> <Gold.PLP.Fitness>
43.8951

> <Gold.PLP.PLP>
-31.4793

> <Gold.PLP.part.hbond>
-4.5186

> <Gold.PLP.part.metal>
0.0000

> <Gold.PLP.part.buried>
-1.4023

> <Gold.PLP.part.nonpolar>
-31.2615

> <Gold.PLP.part.repulsive>
5.2371

> <Gold.PLP.ligand.clash>
0.0000

> <Gold.PLP.ligand.torsion>
0.5879

> <Gold.PLP.Chemscore.Hbond>
3.5280

> <Gold.PLP.Chemscore.CHOScore>
0.9953

> <Gold.PLP.Chemscore.Metal>
0.0000

> <Gold.Chemscore.Hbonds>
donor molecule, donor type, donor heavy atom, donor atom, acceptor molecule, acceptor atom, score
      L1  H     9    27       P1  7948  1.00
      L1  H    12    28       P1  7948  1.00
      L1  H    19    37       P1 10747  0.86
      P1  H  7989  7998       L1     4  0.85
      L1  C     5    24       P1  8028  0.84

> <Gold.PLP.Chemscore.Internal.Correction>
0.0218

> <Gold.Rescore>
     Score         DG    S(hbond)    S(metal)    S(lipo)     H(rot)  DE(clash)    DE(int)     intcor
      9.33     -16.18       2.60        0.00      58.17       1.86       2.25       4.60       ----

> <Gold.Chemscore.Fitness>
9.3266

> <Gold.Chemscore.DG>
-16.1810

> <Gold.Chemscore.ZeroCoef>
-5.4800

> <Gold.Chemscore.Hbond>
2.5956

> <Gold.Chemscore.Metal>
0.0000

> <Gold.Chemscore.Lipo>
58.1684

> <Gold.Chemscore.Internal_Hbond>
0.0000

> <Gold.Chemscore.DEClash>
2.2510

> <Gold.Chemscore.DEInternal>
4.6035

> <Gold.Chemscore.Rot>
1.8648

> <Gold.Chemscore.Internal.Correction>
   9.000000E+99

> <Gold.Chemscore.Hbonds>
donor molecule, donor type, donor heavy atom, donor atom, acceptor molecule, acceptor atom, score
      L1  H     9    27       P1  7948  0.96
      L1  H    12    28       P1  7948  0.95
      L1  H    19    37       P1 10747  0.78
      P1  H  7989  7998       L1     4  0.12

> <Gold.Chemscore.Hbond.Weighted>
-8.6693

> <Gold.Chemscore.Metal.Weighted>
-0.0000

> <Gold.Chemscore.Lipo.Weighted>
-6.8057

> <Gold.Chemscore.Internal_Hbond.Weighted>
0.0000

> <Gold.Chemscore.DEClash.Weighted>
2.2510

> <Gold.Chemscore.DEInternal.Weighted>
4.6035

> <Gold.Chemscore.Rot.Weighted>
4.7739

> <Gold.Chemscore.Internal.Correction.Weighted>
   9.000000E+99

> <Gold.Protein.RotatedTorsions>
[ 6907 6896 6895 6894 ] final    0.13 input  -60.11 | X-H torsion
[ 7974 7965 7964 7962 ] final -112.89 input  175.53 | X-H torsion
[ 8008 7997 7996 7995 ] final  -65.27 input   59.86 | X-H torsion
[ 10167 10162 10161 10158 ] final -157.83 input  -65.29 | X-H torsion
[ 10718 10713 10712 10709 ] final   14.43 input   66.30 | X-H torsion
[ 10763 10752 10751 10750 ] final   71.20 input  -60.55 | X-H torsion
[ 11005 11000 10999 10996 ] final  154.08 input  -57.11 | X-H torsion

> <Gold.Protein.ActiveResidues>
 VAL166  LYS551  ARG553  GLY616  TRP617  ASP618  TYR619  PRO620  LYS621  CYS622 
 ASP623  PHE694  ASN695  SER759  ASP760  ASP761  ALA762  ILE779  LEU786  VAL792 
 PHE793  MET794  SER795  GLU796  ALA797  LYS798  CYS799  TRP800  GLU811  SER814 

> <Gold.Protein.RotatedAtoms>
  151.5714  135.1062  159.9995 H   0  0  0  0  0  0  0  0  0  0  0  0  # atno 6907 bound_to 6896
  152.4399  133.7425  159.6659 H   0  0  0  0  0  0  0  0  0  0  0  0  # atno 6908 bound_to 6896
  150.8303  133.8034  159.3125 H   0  0  0  0  0  0  0  0  0  0  0  0  # atno 6909 bound_to 6896
  145.1385  140.8765  143.3716 H   0  0  0  0  0  0  0  0  0  0  0  0  # atno 7974 bound_to 7965
  154.4662  140.0936  156.7025 H   0  0  0  0  0  0  0  0  0  0  0  0  # atno 8008 bound_to 7997
  155.4852  140.3469  155.4328 H   0  0  0  0  0  0  0  0  0  0  0  0  # atno 8009 bound_to 7997
  156.0959  140.1409  156.9519 H   0  0  0  0  0  0  0  0  0  0  0  0  # atno 8010 bound_to 7997
  139.6740  143.9696  152.2300 H   0  0  0  0  0  0  0  0  0  0  0  0  # atno 10167 bound_to 10162
  157.0390  130.6223  149.5748 H   0  0  0  0  0  0  0  0  0  0  0  0  # atno 10718 bound_to 10713
  153.0385  135.5146  154.7556 H   0  0  0  0  0  0  0  0  0  0  0  0  # atno 10763 bound_to 10752
  154.6513  135.2925  154.9985 H   0  0  0  0  0  0  0  0  0  0  0  0  # atno 10764 bound_to 10752
  154.0868  135.6656  153.4899 H   0  0  0  0  0  0  0  0  0  0  0  0  # atno 10765 bound_to 10752
  140.1456  134.8709  157.2388 H   0  0  0  0  0  0  0  0  0  0  0  0  # atno 11005 bound_to 11000
  145.0558  139.3145  143.5905 LP  0  0  0  0  0  0  0  0  0  0  0  0  # atno 17320 bound_to 7965
  146.3507  139.9982  142.8679 LP  0  0  0  0  0  0  0  0  0  0  0  0  # atno 17321 bound_to 7965
  139.9468  144.6646  150.8211 LP  0  0  0  0  0  0  0  0  0  0  0  0  # atno 17342 bound_to 10162
  140.7628  143.3208  151.2626 LP  0  0  0  0  0  0  0  0  0  0  0  0  # atno 17343 bound_to 10162
  156.0044  130.5129  150.7779 LP  0  0  0  0  0  0  0  0  0  0  0  0  # atno 17370 bound_to 10713
  157.5119  131.0926  151.0187 LP  0  0  0  0  0  0  0  0  0  0  0  0  # atno 17371 bound_to 10713
  140.2668  134.3507  155.7387 LP  0  0  0  0  0  0  0  0  0  0  0  0  # atno 17394 bound_to 11000
  141.2192  133.7400  156.9162 LP  0  0  0  0  0  0  0  0  0  0  0  0  # atno 17395 bound_to 11000

$$$$
