#       Name:                AV-unprocessed.smi:910
#       Creating user name   scv26
#       Creation time:       Fri Mar 27 02:02:09 2020


#       File generated by GOLD software.
#

@<TRIPOS>MOLECULE
AV-unprocessed.smi:910
    53    54     1
SMALL
NO_CHARGES


@<TRIPOS>ATOM
      1 ****        -4.8771   1.7902   1.1903 C.3            1 S1                 0.0000
      2 ****        -3.5091   1.1720   1.3765 C.2            1 S1                 0.0000
      3 ****        -3.3472  -0.1304   1.7641 N.pl3          1 S1                 0.0000
      4 ****        -1.9884  -0.3900   1.8502 C.2            1 S1                 0.0000
      5 ****        -1.4097  -1.5021   2.1822 N.2            1 S1                 0.0000
      6 ****        -0.0256  -1.5297   2.2053 C.2            1 S1                 0.0000
      7 ****         0.7380  -0.6137   2.5275 O.2            1 S1                 0.0000
      8 ****         0.4302  -2.7041   1.7421 N.am           1 S1                 0.0000
      9 ****         1.8309  -3.0195   1.4770 C.3            1 S1                 0.0000
     10 ****         2.1899  -2.7117   0.0166 C.3            1 S1                 0.0000
     11 ****         2.0270  -1.3189  -0.2049 O.3            1 S1                 0.0000
     12 ****         2.2106  -0.8790  -1.5448 C.3            1 S1                 0.0000
     13 ****         0.9814  -1.2224  -2.4166 C.3            1 S1                 0.0000
     14 ****        -0.2824  -0.4976  -1.9256 C.3            1 S1                 0.0000
     15 ****        -0.0622   1.0209  -1.8763 C.3            1 S1                 0.0000
     16 ****         1.1629   1.3809  -1.0204 C.3            1 S1                 0.0000
     17 ****         2.4311   0.6503  -1.5095 C.3            1 S1                 0.0000
     18 ****         3.6667   1.0373  -0.6820 C.3            1 S1                 0.0000
     19 ****        -1.3466   0.7761   1.4992 O.3            1 S1                 0.0000
     20 ****        -2.3006   1.7070   1.2228 C.2            1 S1                 0.0000
     21 ****        -1.8665   3.0978   0.8189 C.3            1 S1                 0.0000
     22 ****        -5.0030   2.6371   1.8653 H              1 S1                 0.0000
     23 ****        -5.6656   1.0655   1.3957 H              1 S1                 0.0000
     24 ****        -4.9940   2.1451   0.1661 H              1 S1                 0.0000
     25 ****        -4.1166  -0.7578   1.9484 H              1 S1                 0.0000
     26 ****        -0.2499  -3.4067   1.4907 H              1 S1                 0.0000
     27 ****         2.4941  -2.4818   2.1565 H              1 S1                 0.0000
     28 ****         1.9818  -4.0808   1.6750 H              1 S1                 0.0000
     29 ****         3.2230  -2.9968  -0.1856 H              1 S1                 0.0000
     30 ****         1.5537  -3.3005  -0.6433 H              1 S1                 0.0000
     31 ****         3.1002  -1.3537  -1.9620 H              1 S1                 0.0000
     32 ****         1.1831  -0.9271  -3.4471 H              1 S1                 0.0000
     33 ****         0.8048  -2.2964  -2.4502 H              1 S1                 0.0000
     34 ****        -1.1228  -0.7292  -2.5803 H              1 S1                 0.0000
     35 ****        -0.5544  -0.8621  -0.9344 H              1 S1                 0.0000
     36 ****         0.0762   1.4018  -2.8887 H              1 S1                 0.0000
     37 ****        -0.9519   1.5112  -1.4822 H              1 S1                 0.0000
     38 ****         1.3196   2.4597  -1.0466 H              1 S1                 0.0000
     39 ****         0.9665   1.1261   0.0220 H              1 S1                 0.0000
     40 ****         2.6220   0.9763  -2.5330 H              1 S1                 0.0000
     41 ****         3.5444   0.7695   0.3681 H              1 S1                 0.0000
     42 ****         3.8485   2.1112  -0.7298 H              1 S1                 0.0000
     43 ****         4.5607   0.5350  -1.0523 H              1 S1                 0.0000
     44 ****        -2.3482   3.3885  -0.1148 H              1 S1                 0.0000
     45 ****        -0.7861   3.1362   0.6773 H              1 S1                 0.0000
     46 ****        -2.1399   3.8176   1.5904 H              1 S1                 0.0000
     47 ****        -1.9459  -2.3137   2.4141 LP             1 S1                 0.0000
     48 ****         0.3666   0.2699   2.8125 LP             1 S1                 0.0000
     49 ****         1.7276  -0.7559   2.5034 LP             1 S1                 0.0000
     50 ****         2.6892  -0.8375   0.3694 LP             1 S1                 0.0000
     51 ****         1.0998  -1.0702   0.0753 LP             1 S1                 0.0000
     52 ****        -0.7774   0.6217   0.6917 LP             1 S1                 0.0000
     53 ****        -0.7733   1.0903   2.2560 LP             1 S1                 0.0000
@<TRIPOS>BOND
    1    1   22 1     
    2    1   23 1     
    3    1   24 1     
    4    1    2 1     
    5    2    3 1     
    6    2   20 2     
    7    3   25 1     
    8    3    4 1     
    9    4   19 1     
   10    4    5 2     
   11    5    6 1     
   12    6    8 am    
   13    6    7 2     
   14    8    9 1     
   15    8   26 1     
   16    9   10 1     
   17    9   27 1     
   18    9   28 1     
   19   10   11 1     
   20   10   29 1     
   21   10   30 1     
   22   11   12 1     
   23   12   17 1     
   24   12   13 1     
   25   12   31 1     
   26   13   14 1     
   27   13   32 1     
   28   13   33 1     
   29   14   15 1     
   30   14   34 1     
   31   14   35 1     
   32   15   16 1     
   33   15   36 1     
   34   15   37 1     
   35   16   17 1     
   36   16   38 1     
   37   16   39 1     
   38   17   18 1     
   39   17   40 1     
   40   18   41 1     
   41   18   42 1     
   42   18   43 1     
   43   19   20 1     
   44   20   21 1     
   45   21   44 1     
   46   21   45 1     
   47   21   46 1     
   48    5   47 1     
   49    7   48 1     
   50    7   49 1     
   51   11   50 1     
   52   11   51 1     
   53   19   52 1     
   54   19   53 1     
@<TRIPOS>SUBSTRUCTURE
      1 S1             1
@<TRIPOS>SET
LONE_PAIRS      STATIC     ATOMS    <user>   **** ""
7 47 48 49 50 51 52 53
DONOR_HYDROGENS      STATIC     ATOMS    <user>   **** ""
2 25 26
ATOM$BLUE        STATIC     ATOMS    COLORGROUP SYSTEM
7 47 48 49 50 51 52 53
ATOM$RED        STATIC     ATOMS    COLORGROUP SYSTEM
2 25 26
