#       Name:                AV-unprocessed.smi:662
#       Creating user name   scv26
#       Creation time:       Fri Mar 27 00:19:27 2020


#       File generated by GOLD software.
#

@<TRIPOS>MOLECULE
AV-unprocessed.smi:662
    37    38     1
SMALL
NO_CHARGES


@<TRIPOS>ATOM
      1 ****        -0.7284   0.8365   1.7841 O.2            1 S1                 0.0000
      2 ****        -1.0862   1.1147   0.6388 C.2            1 S1                 0.0000
      3 ****        -0.9953   0.2562  -0.3883 N.am           1 S1                 0.0000
      4 ****        -0.4609  -1.0978  -0.3035 C.3            1 S1                 0.0000
      5 ****         1.0761  -1.1000  -0.2638 C.3            1 S1                 0.0000
      6 ****         1.6426  -2.4785  -0.2079 C.2            1 S1                 0.0000
      7 ****         1.9486  -3.1950  -1.2926 N.2            1 S1                 0.0000
      8 ****         2.4353  -4.4693  -0.9808 C.2            1 S1                 0.0000
      9 ****         2.8444  -5.4019  -2.0838 C.3            1 S1                 0.0000
     10 ****         3.2363  -6.5838  -1.6074 F              1 S1                 0.0000
     11 ****         1.8352  -5.6234  -2.9258 F              1 S1                 0.0000
     12 ****         3.8570  -4.8968  -2.7876 F              1 S1                 0.0000
     13 ****         2.4786  -4.7108   0.3710 C.2            1 S1                 0.0000
     14 ****         1.9103  -3.3491   1.2970 S.3            1 S1                 0.0000
     15 ****        -1.6679   2.4975   0.3213 C.3            1 S1                 0.0000
     16 ****        -0.5985   3.6021   0.3079 C.3            1 S1                 0.0000
     17 ****        -1.1831   4.6973   1.1916 C.3            1 S1                 0.0000
     18 ****        -2.6701   4.3574   1.2664 C.3            1 S1                 0.0000
     19 ****        -2.6821   2.9048   1.3022 N.3            1 S1                 0.0000
     20 ****        -1.3155   0.5651  -1.2946 H              1 S1                 0.0000
     21 ****        -0.8678  -1.6043   0.5735 H              1 S1                 0.0000
     22 ****        -0.8108  -1.6542  -1.1736 H              1 S1                 0.0000
     23 ****         1.4756  -0.5917  -1.1426 H              1 S1                 0.0000
     24 ****         1.4359  -0.5480   0.6051 H              1 S1                 0.0000
     25 ****         2.8082  -5.6063   0.8768 H              1 S1                 0.0000
     26 ****        -2.1481   2.4712  -0.6589 H              1 S1                 0.0000
     27 ****         0.3726   3.2761   0.6848 H              1 S1                 0.0000
     28 ****        -0.4487   3.9659  -0.7093 H              1 S1                 0.0000
     29 ****        -0.7417   4.6443   2.1879 H              1 S1                 0.0000
     30 ****        -1.0000   5.6975   0.7979 H              1 S1                 0.0000
     31 ****        -3.1592   4.7866   2.1412 H              1 S1                 0.0000
     32 ****        -3.1925   4.7051   0.3737 H              1 S1                 0.0000
     33 ****        -3.5986   2.5318   1.1002 H              1 S1                 0.0000
     34 ****        -0.3484  -0.0667   1.9837 LP             1 S1                 0.0000
     35 ****        -0.8180   1.5138   2.5143 LP             1 S1                 0.0000
     36 ****         1.8413  -2.8569  -2.2276 LP             1 S1                 0.0000
     37 ****        -2.4697   2.5455   2.2109 LP             1 S1                 0.0000
@<TRIPOS>BOND
    1    1    2 2     
    2    2    3 am    
    3    2   15 1     
    4    3    4 1     
    5    3   20 1     
    6    4    5 1     
    7    4   21 1     
    8    4   22 1     
    9    5    6 1     
   10    5   23 1     
   11    5   24 1     
   12    6   14 1     
   13    6    7 2     
   14    7    8 1     
   15    8    9 1     
   16    8   13 2     
   17    9   10 1     
   18    9   11 1     
   19    9   12 1     
   20   13   14 1     
   21   13   25 1     
   22   15   19 1     
   23   15   16 1     
   24   15   26 1     
   25   16   17 1     
   26   16   27 1     
   27   16   28 1     
   28   17   18 1     
   29   17   29 1     
   30   17   30 1     
   31   18   19 1     
   32   18   31 1     
   33   18   32 1     
   34   19   33 1     
   35    1   34 1     
   36    1   35 1     
   37    7   36 1     
   38   19   37 1     
@<TRIPOS>SUBSTRUCTURE
      1 S1             1
@<TRIPOS>SET
LONE_PAIRS      STATIC     ATOMS    <user>   **** ""
4 34 35 36 37
DONOR_HYDROGENS      STATIC     ATOMS    <user>   **** ""
2 20 33
ATOM$BLUE        STATIC     ATOMS    COLORGROUP SYSTEM
4 34 35 36 37
ATOM$RED        STATIC     ATOMS    COLORGROUP SYSTEM
2 20 33
