AV-unprocessed.smi:109|AV-procd|sdf|1054|dock10
  -GOLD-   2262018113D 1   1.00000     0.00000
 Structure written by MMmdl.
 58 61  0  0  0  0  0  0  0  0  1 V2000
  150.4132  139.8622  154.0819 O   0  0  0  0  0  0  0  0  0  0  0  0
  151.2010  138.9982  154.8720 C   0  0  0  0  0  0  0  0  0  0  0  0
  151.7275  139.7519  156.1034 C   0  0  0  0  0  0  0  0  0  0  0  0
  150.6202  140.1707  157.0953 C   0  0  1  0  0  0  0  0  0  0  0  0
  150.2547  139.0606  157.9772 N   0  0  0  0  0  0  0  0  0  0  0  0
  149.0652  138.4249  157.8884 C   0  0  0  0  0  0  0  0  0  0  0  0
  148.2269  138.6252  156.8384 N   0  0  0  0  0  0  0  0  0  0  0  0
  147.0578  137.9809  156.7827 C   0  0  0  0  0  0  0  0  0  0  0  0
  146.5432  137.1106  157.6538 N   0  0  0  0  0  0  0  0  0  0  0  0
  147.3805  136.9054  158.7115 C   0  0  0  0  0  0  0  0  0  0  0  0
  148.6496  137.5203  158.8992 C   0  0  0  0  0  0  0  0  0  0  0  0
  149.2174  137.0754  160.0860 N   0  0  0  0  0  0  0  0  0  0  0  0
  148.3295  136.2491  160.5703 C   0  0  0  0  0  0  0  0  0  0  0  0
  147.1952  136.0860  159.8063 N   0  0  0  0  0  0  0  0  0  0  0  0
  146.0147  135.2204  160.1017 C   0  0  1  0  0  0  0  0  0  0  0  0
  146.4483  133.8990  160.1430 O   0  0  0  0  0  0  0  0  0  0  0  0
  145.6658  133.1923  161.0941 C   0  0  1  0  0  0  0  0  0  0  0  0
  146.3493  131.8766  161.5072 C   0  0  0  0  0  0  0  0  0  0  0  0
  145.3853  130.9506  161.9609 O   0  0  0  0  0  0  0  0  0  0  0  0
  145.4734  134.2238  162.2165 C   0  0  1  0  0  0  0  0  0  0  0  0
  146.5644  134.2151  163.1183 O   0  0  0  0  0  0  0  0  0  0  0  0
  145.4037  135.5573  161.4737 C   0  0  2  0  0  0  0  0  0  0  0  0
  144.0525  135.9521  161.3438 O   0  0  0  0  0  0  0  0  0  0  0  0
  151.0076  141.4225  157.9224 C   0  0  0  0  0  0  0  0  0  0  0  0
  151.2004  142.7034  157.0756 C   0  0  0  0  0  0  0  0  0  0  0  0
  151.5531  143.9160  157.9531 C   0  0  0  0  0  0  0  0  0  0  0  0
  152.7927  143.6400  158.8175 C   0  0  0  0  0  0  0  0  0  0  0  0
  152.5992  142.3787  159.6722 C   0  0  0  0  0  0  0  0  0  0  0  0
  152.2541  141.1626  158.7979 C   0  0  0  0  0  0  0  0  0  0  0  0
  145.3310  135.3720  159.2649 H   0  0  0  0  0  0  0  0  0  0  0  0
  144.6888  132.9855  160.6518 H   0  0  0  0  0  0  0  0  0  0  0  0
  144.5714  134.0167  162.7944 H   0  0  0  0  0  0  0  0  0  0  0  0
  145.9633  136.3473  161.9784 H   0  0  0  0  0  0  0  0  0  0  0  0
  149.6153  140.0530  154.5511 H   0  0  0  0  0  0  0  0  0  0  0  0
  150.5963  138.1424  155.1733 H   0  0  0  0  0  0  0  0  0  0  0  0
  152.0231  138.6220  154.2631 H   0  0  0  0  0  0  0  0  0  0  0  0
  152.4748  139.1403  156.6101 H   0  0  0  0  0  0  0  0  0  0  0  0
  152.2492  140.6453  155.7578 H   0  0  0  0  0  0  0  0  0  0  0  0
  149.7608  140.4742  156.4980 H   0  0  0  0  0  0  0  0  0  0  0  0
  150.9457  138.8194  158.6730 H   0  0  0  0  0  0  0  0  0  0  0  0
  146.4475  138.1939  155.9175 H   0  0  0  0  0  0  0  0  0  0  0  0
  148.4799  135.7312  161.5064 H   0  0  0  0  0  0  0  0  0  0  0  0
  146.9240  131.4510  160.6839 H   0  0  0  0  0  0  0  0  0  0  0  0
  147.0412  132.0554  162.3307 H   0  0  0  0  0  0  0  0  0  0  0  0
  144.7753  131.4033  162.5231 H   0  0  0  0  0  0  0  0  0  0  0  0
  146.7989  133.3155  163.2940 H   0  0  0  0  0  0  0  0  0  0  0  0
  143.9698  136.4888  160.5701 H   0  0  0  0  0  0  0  0  0  0  0  0
  150.1825  141.6140  158.6102 H   0  0  0  0  0  0  0  0  0  0  0  0
  151.9926  142.5542  156.3411 H   0  0  0  0  0  0  0  0  0  0  0  0
  150.2949  142.9275  156.5118 H   0  0  0  0  0  0  0  0  0  0  0  0
  151.7264  144.7906  157.3253 H   0  0  0  0  0  0  0  0  0  0  0  0
  150.7065  144.1606  158.5958 H   0  0  0  0  0  0  0  0  0  0  0  0
  153.6666  143.5168  158.1763 H   0  0  0  0  0  0  0  0  0  0  0  0
  152.9976  144.4970  159.4594 H   0  0  0  0  0  0  0  0  0  0  0  0
  153.5033  142.1776  160.2475 H   0  0  0  0  0  0  0  0  0  0  0  0
  151.8019  142.5464  160.3973 H   0  0  0  0  0  0  0  0  0  0  0  0
  152.0876  140.2937  159.4355 H   0  0  0  0  0  0  0  0  0  0  0  0
  153.1112  140.9206  158.1680 H   0  0  0  0  0  0  0  0  0  0  0  0
  1  2  1  0  0  0  0
  1 34  1  0  0  0  0
  2  3  1  0  0  0  0
  2 35  1  0  0  0  0
  2 36  1  0  0  0  0
  3  4  1  0  0  0  0
  3 37  1  0  0  0  0
  3 38  1  0  0  0  0
  4  5  1  0  0  0  0
  4 24  1  0  0  0  0
  4 39  1  0  0  0  0
  5  6  1  0  0  0  0
  5 40  1  0  0  0  0
  6 11  1  0  0  0  0
  6  7  2  0  0  0  0
  7  8  1  0  0  0  0
  8  9  2  0  0  0  0
  8 41  1  0  0  0  0
  9 10  1  0  0  0  0
 10 14  1  0  0  0  0
 10 11  2  0  0  0  0
 11 12  1  0  0  0  0
 12 13  2  0  0  0  0
 13 14  1  0  0  0  0
 13 42  1  0  0  0  0
 14 15  1  0  0  0  0
 15 30  1  0  0  0  0
 15 22  1  0  0  0  0
 15 16  1  0  0  0  0
 16 17  1  0  0  0  0
 17 31  1  0  0  0  0
 17 18  1  0  0  0  0
 17 20  1  0  0  0  0
 18 19  1  0  0  0  0
 18 43  1  0  0  0  0
 18 44  1  0  0  0  0
 19 45  1  0  0  0  0
 20 32  1  0  0  0  0
 20 21  1  0  0  0  0
 20 22  1  0  0  0  0
 21 46  1  0  0  0  0
 22 33  1  0  0  0  0
 22 23  1  0  0  0  0
 23 47  1  0  0  0  0
 24 29  1  0  0  0  0
 24 25  1  0  0  0  0
 24 48  1  0  0  0  0
 25 26  1  0  0  0  0
 25 49  1  0  0  0  0
 25 50  1  0  0  0  0
 26 27  1  0  0  0  0
 26 51  1  0  0  0  0
 26 52  1  0  0  0  0
 27 28  1  0  0  0  0
 27 53  1  0  0  0  0
 27 54  1  0  0  0  0
 28 29  1  0  0  0  0
 28 55  1  0  0  0  0
 28 56  1  0  0  0  0
 29 57  1  0  0  0  0
 29 58  1  0  0  0  0
M  END
> <s_m_source_file>
AV-unprocessed.smi

> <i_m_source_file_index>
109

> <i_lp_mmshare_version>
43012

> <i_f3d_flags>
0

> <s_epik_input>
W0NIMl0xW0NIMl1bQ0gyXVtDSDJdW0NIMl1bQ0hdMVtDQEhdKFtDSDJdW0NIMl1bT0hdKVtOSF1jKG5bY0hdbjIpYyhjMjMpbltjSF1uM1tDQEBIXTRPW0NASF0oW0NIMl1bT0hdKVtDQEBIXShbT0hdKVtDQEhdNFtPSF0=

> <s_epik_cmdline>
J2VwaWtfcHl0aG9uJywgJy1waCcsICc3LjAnLCAnLXRuJywgJzgnLCAnLW1hJywgJzIwMCcsICctbWV0YWxfYmluZGluZycsICctaW1hZScsICc8aW5maWxlLm1hZT4nLCAnLW9tYWUnLCAnPG91dGZpbGUubWFlPic=

> <r_lp_tautomer_probability>
1

> <r_epik_Ionization_Penalty>
0.000793976

> <r_epik_Ionization_Penalty_Charging>
0

> <r_epik_Ionization_Penalty_Neutral>
0.000793976

> <r_epik_State_Penalty>
-0

> <r_epik_Charging_Adjusted_Penalty>
0

> <i_epik_Tot_Q>
0

> <i_epik_Tot_abs_Q>
0

> <r_epik_Metal_State_Penalty>
-0

> <b_epik_Metal_Only>
0

> <s_epik_Chemistry_Notes>
This compound contains an acetal/aminal-like group ( X-CH(R)-Y where X, Y are N, S, or O) that may be acid/base labile, releasing an aldehyde.

> <s_lp_Force_Field>
OPLS_2005

> <r_lp_Energy>
50.1139

> <b_lp_Chiralities_Consistent>
1

> <s_lp_Variant>
AV-unprocessed.smi:109-24

> <Gold.Version>
5.8.1

> <Gold.Id.Protein>
6NUR|6NUR_protein|mol2

> <Gold.PLP.Fitness>
46.0153

> <Gold.PLP.PLP>
-43.5401

> <Gold.PLP.part.hbond>
-4.7157

> <Gold.PLP.part.metal>
0.0000

> <Gold.PLP.part.buried>
-7.8217

> <Gold.PLP.part.nonpolar>
-32.0924

> <Gold.PLP.part.repulsive>
0.1115

> <Gold.PLP.ligand.clash>
0.0000

> <Gold.PLP.ligand.torsion>
0.7158

> <Gold.PLP.Chemscore.Hbond>
1.1995

> <Gold.PLP.Chemscore.CHOScore>
0.0000

> <Gold.PLP.Chemscore.Metal>
0.0000

> <Gold.Chemscore.Hbonds>
donor molecule, donor type, donor heavy atom, donor atom, acceptor molecule, acceptor atom, score
      P1  H  6931  6943       L1    12  0.17
      P1  H  7989  7998       L1     1  1.00

> <Gold.PLP.Chemscore.Internal.Correction>
0.3083

> <Gold.Rescore>
     Score         DG    S(hbond)    S(metal)    S(lipo)     H(rot)  DE(clash)    DE(int)     intcor
      5.89      -6.68       0.99        0.00     101.74       5.47       0.05       0.75       ----

> <Gold.Chemscore.Fitness>
5.8859

> <Gold.Chemscore.DG>
-6.6822

> <Gold.Chemscore.ZeroCoef>
-5.4800

> <Gold.Chemscore.Hbond>
0.9856

> <Gold.Chemscore.Metal>
0.0000

> <Gold.Chemscore.Lipo>
101.7413

> <Gold.Chemscore.Internal_Hbond>
0.0000

> <Gold.Chemscore.DEClash>
0.0456

> <Gold.Chemscore.DEInternal>
0.7507

> <Gold.Chemscore.Rot>
5.4662

> <Gold.Chemscore.Internal.Correction>
   9.000000E+99

> <Gold.Chemscore.Hbonds>
donor molecule, donor type, donor heavy atom, donor atom, acceptor molecule, acceptor atom, score
      P1  H  6931  6943       L1    12  0.01
      P1  H  7989  7998       L1     1  0.25

> <Gold.Chemscore.Hbond.Weighted>
-3.2919

> <Gold.Chemscore.Metal.Weighted>
-0.0000

> <Gold.Chemscore.Lipo.Weighted>
-11.9037

> <Gold.Chemscore.Internal_Hbond.Weighted>
0.0000

> <Gold.Chemscore.DEClash.Weighted>
0.0456

> <Gold.Chemscore.DEInternal.Weighted>
0.7507

> <Gold.Chemscore.Rot.Weighted>
13.9935

> <Gold.Chemscore.Internal.Correction.Weighted>
   9.000000E+99

> <Gold.Protein.RotatedTorsions>
[ 6907 6896 6895 6894 ] final   32.79 input  -60.11 | X-H torsion
[ 7974 7965 7964 7962 ] final  126.64 input  175.53 | X-H torsion
[ 8008 7997 7996 7995 ] final -177.18 input   59.86 | X-H torsion
[ 10167 10162 10161 10158 ] final  154.37 input  -65.29 | X-H torsion
[ 10718 10713 10712 10709 ] final    2.29 input   66.30 | X-H torsion
[ 10763 10752 10751 10750 ] final   71.64 input  -60.55 | X-H torsion
[ 11005 11000 10999 10996 ] final  -34.02 input  -57.11 | X-H torsion

> <Gold.Protein.ActiveResidues>
 VAL166  LYS551  ARG553  GLY616  TRP617  ASP618  TYR619  PRO620  LYS621  CYS622 
 ASP623  PHE694  ASN695  SER759  ASP760  ASP761  ALA762  ILE779  LEU786  VAL792 
 PHE793  MET794  SER795  GLU796  ALA797  LYS798  CYS799  TRP800  GLU811  SER814 

> <Gold.Protein.RotatedAtoms>
  152.0794  134.9481  160.0573 H   0  0  0  0  0  0  0  0  0  0  0  0  # atno 6907 bound_to 6896
  152.0776  133.4132  159.4495 H   0  0  0  0  0  0  0  0  0  0  0  0  # atno 6908 bound_to 6896
  150.6836  134.2940  159.4722 H   0  0  0  0  0  0  0  0  0  0  0  0  # atno 6909 bound_to 6896
  145.0594  139.3817  143.5013 H   0  0  0  0  0  0  0  0  0  0  0  0  # atno 7974 bound_to 7965
  156.0039  140.1226  157.0521 H   0  0  0  0  0  0  0  0  0  0  0  0  # atno 8008 bound_to 7997
  154.4252  140.1101  156.5804 H   0  0  0  0  0  0  0  0  0  0  0  0  # atno 8009 bound_to 7997
  155.6174  140.3472  155.4643 H   0  0  0  0  0  0  0  0  0  0  0  0  # atno 8010 bound_to 7997
  139.4823  144.5192  151.7902 H   0  0  0  0  0  0  0  0  0  0  0  0  # atno 10167 bound_to 10162
  156.8609  130.5586  149.5663 H   0  0  0  0  0  0  0  0  0  0  0  0  # atno 10718 bound_to 10713
  153.0411  135.5129  154.7624 H   0  0  0  0  0  0  0  0  0  0  0  0  # atno 10763 bound_to 10752
  154.6561  135.2932  154.9928 H   0  0  0  0  0  0  0  0  0  0  0  0  # atno 10764 bound_to 10752
  154.0796  135.6666  153.4888 H   0  0  0  0  0  0  0  0  0  0  0  0  # atno 10765 bound_to 10752
  140.9682  133.7124  156.1480 H   0  0  0  0  0  0  0  0  0  0  0  0  # atno 11005 bound_to 11000
  146.3523  140.0285  142.8652 LP  0  0  0  0  0  0  0  0  0  0  0  0  # atno 17320 bound_to 7965
  145.1427  140.9580  143.4479 LP  0  0  0  0  0  0  0  0  0  0  0  0  # atno 17321 bound_to 7965
  140.4704  144.1594  150.5917 LP  0  0  0  0  0  0  0  0  0  0  0  0  # atno 17342 bound_to 10162
  140.4388  143.2535  151.9500 LP  0  0  0  0  0  0  0  0  0  0  0  0  # atno 17343 bound_to 10162
  156.0777  130.5795  150.9505 LP  0  0  0  0  0  0  0  0  0  0  0  0  # atno 17370 bound_to 10713
  157.6251  131.0926  150.8549 LP  0  0  0  0  0  0  0  0  0  0  0  0  # atno 17371 bound_to 10713
  140.7367  134.4194  157.5559 LP  0  0  0  0  0  0  0  0  0  0  0  0  # atno 17394 bound_to 11000
  139.8902  134.8810  156.2380 LP  0  0  0  0  0  0  0  0  0  0  0  0  # atno 17395 bound_to 11000

$$$$
