AV-unprocessed.smi:2159|AV-procd|sdf|8793|dock2
  -GOLD-   2272011573D 1   1.00000     0.00000
 Structure written by MMmdl.
 47 49  0  0  0  0  0  0  0  0  1 V2000
  153.7640  135.9912  160.2576 O   0  0  0  0  0  0  0  0  0  0  0  0
  153.7731  136.9672  161.0078 C   0  0  0  0  0  0  0  0  0  0  0  0
  153.2256  138.3111  160.5247 C   0  0  0  0  0  0  0  0  0  0  0  0
  154.2037  139.4667  160.8143 C   0  0  0  0  0  0  0  0  0  0  0  0
  153.6013  140.7660  160.5101 N   0  0  0  0  0  0  0  0  0  0  0  0
  152.9826  141.0634  159.3516 C   0  0  0  0  0  0  0  0  0  0  0  0
  152.9149  140.3629  158.3421 O   0  0  0  0  0  0  0  0  0  0  0  0
  152.2705  142.3994  159.5028 C   0  0  2  0  0  0  0  0  0  0  0  0
  152.1409  143.3989  158.3524 C   0  0  0  0  0  0  0  0  0  0  0  0
  151.3453  144.6135  158.9006 C   0  0  0  0  0  0  0  0  0  0  0  0
  151.8999  145.1833  160.2400 C   0  0  0  0  0  0  0  0  0  0  0  0
  152.1973  144.1007  161.3118 C   0  0  0  0  0  0  0  0  0  0  0  0
  153.0571  143.0331  160.6336 C   0  0  1  0  0  0  0  0  0  0  0  0
  153.5694  141.8034  161.3681 C   0  0  0  0  0  0  0  0  0  0  0  0
  153.9432  141.8116  162.5407 O   0  0  0  0  0  0  0  0  0  0  0  0
  154.2741  136.9395  162.2535 N   0  0  0  0  0  0  0  0  0  0  0  0
  154.9709  135.8073  162.8603 C   0  0  0  0  0  0  0  0  0  0  0  0
  154.3367  135.3728  164.1980 C   0  0  0  0  0  0  0  0  0  0  0  0
  153.9500  133.9033  164.2496 C   0  0  0  0  0  0  0  0  0  0  0  0
  153.3273  133.3658  165.3957 C   0  0  0  0  0  0  0  0  0  0  0  0
  152.9404  132.0118  165.3758 C   0  0  0  0  0  0  0  0  0  0  0  0
  153.1907  131.2509  164.2175 C   0  0  0  0  0  0  0  0  0  0  0  0
  153.8220  131.8798  163.1260 C   0  0  0  0  0  0  0  0  0  0  0  0
  154.1963  133.1770  163.1347 N   0  0  0  0  0  0  0  0  0  0  0  0
  153.0194  138.2486  159.4557 H   0  0  0  0  0  0  0  0  0  0  0  0
  152.2709  138.5040  161.0172 H   0  0  0  0  0  0  0  0  0  0  0  0
  154.5118  139.4479  161.8615 H   0  0  0  0  0  0  0  0  0  0  0  0
  155.1216  139.3364  160.2376 H   0  0  0  0  0  0  0  0  0  0  0  0
  151.2633  142.1466  159.8425 H   0  0  0  0  0  0  0  0  0  0  0  0
  153.1234  143.7101  157.9951 H   0  0  0  0  0  0  0  0  0  0  0  0
  151.6182  142.9515  157.5063 H   0  0  0  0  0  0  0  0  0  0  0  0
  151.3122  145.4028  158.1490 H   0  0  0  0  0  0  0  0  0  0  0  0
  150.3101  144.3083  159.0586 H   0  0  0  0  0  0  0  0  0  0  0  0
  152.8224  145.7257  160.0287 H   0  0  0  0  0  0  0  0  0  0  0  0
  151.2058  145.9213  160.6427 H   0  0  0  0  0  0  0  0  0  0  0  0
  152.7199  144.5393  162.1625 H   0  0  0  0  0  0  0  0  0  0  0  0
  151.2704  143.6694  161.6923 H   0  0  0  0  0  0  0  0  0  0  0  0
  153.9516  143.5219  160.2405 H   0  0  0  0  0  0  0  0  0  0  0  0
  154.2362  137.7912  162.7946 H   0  0  0  0  0  0  0  0  0  0  0  0
  154.9504  134.9738  162.1581 H   0  0  0  0  0  0  0  0  0  0  0  0
  156.0247  136.0445  163.0148 H   0  0  0  0  0  0  0  0  0  0  0  0
  155.0311  135.5818  165.0133 H   0  0  0  0  0  0  0  0  0  0  0  0
  153.4519  135.9783  164.3977 H   0  0  0  0  0  0  0  0  0  0  0  0
  153.1365  133.9794  166.2641 H   0  0  0  0  0  0  0  0  0  0  0  0
  152.4556  131.5664  166.2319 H   0  0  0  0  0  0  0  0  0  0  0  0
  152.9046  130.2111  164.1658 H   0  0  0  0  0  0  0  0  0  0  0  0
  154.0269  131.3288  162.2202 H   0  0  0  0  0  0  0  0  0  0  0  0
  1  2  2  0  0  0  0
  2  3  1  0  0  0  0
  2 16  1  0  0  0  0
  3  4  1  0  0  0  0
  3 25  1  0  0  0  0
  3 26  1  0  0  0  0
  4  5  1  0  0  0  0
  4 27  1  0  0  0  0
  4 28  1  0  0  0  0
  5 14  1  0  0  0  0
  5  6  1  0  0  0  0
  6  7  2  0  0  0  0
  6  8  1  0  0  0  0
  8 13  1  0  0  0  0
  8  9  1  0  0  0  0
  8 29  1  0  0  0  0
  9 10  1  0  0  0  0
  9 30  1  0  0  0  0
  9 31  1  0  0  0  0
 10 11  1  0  0  0  0
 10 32  1  0  0  0  0
 10 33  1  0  0  0  0
 11 12  1  0  0  0  0
 11 34  1  0  0  0  0
 11 35  1  0  0  0  0
 12 13  1  0  0  0  0
 12 36  1  0  0  0  0
 12 37  1  0  0  0  0
 13 14  1  0  0  0  0
 13 38  1  0  0  0  0
 14 15  2  0  0  0  0
 16 17  1  0  0  0  0
 16 39  1  0  0  0  0
 17 18  1  0  0  0  0
 17 40  1  0  0  0  0
 17 41  1  0  0  0  0
 18 19  1  0  0  0  0
 18 42  1  0  0  0  0
 18 43  1  0  0  0  0
 19 24  1  0  0  0  0
 19 20  2  0  0  0  0
 20 21  1  0  0  0  0
 20 44  1  0  0  0  0
 21 22  2  0  0  0  0
 21 45  1  0  0  0  0
 22 23  1  0  0  0  0
 22 46  1  0  0  0  0
 23 24  2  0  0  0  0
 23 47  1  0  0  0  0
M  END
> <s_m_source_file>
AV-unprocessed.smi

> <i_m_source_file_index>
2159

> <i_lp_mmshare_version>
43012

> <i_f3d_flags>
0

> <s_epik_input>
bjFbY0hdW2NIXVtjSF1bY0hdYzFbQ0gyXVtDSDJdW05IXUMoPU8pW0NIMl1bQ0gyXU4oQzI9TylDKD1PKVtDQEhdKFtDQEBIXTIzKVtDSDJdW0NIMl1bQ0gyXVtDSDJdMw==

> <s_epik_cmdline>
J2VwaWtfcHl0aG9uJywgJy1waCcsICc3LjAnLCAnLXRuJywgJzgnLCAnLW1hJywgJzIwMCcsICctbWV0YWxfYmluZGluZycsICctaW1hZScsICc8aW5maWxlLm1hZT4nLCAnLW9tYWUnLCAnPG91dGZpbGUubWFlPic=

> <r_lp_tautomer_probability>
1

> <r_epik_Ionization_Penalty>
0.026624

> <r_epik_Ionization_Penalty_Charging>
0

> <r_epik_Ionization_Penalty_Neutral>
0.026624

> <r_epik_State_Penalty>
0.0217444

> <r_epik_Charging_Adjusted_Penalty>
0.0217444

> <i_epik_Tot_Q>
0

> <i_epik_Tot_abs_Q>
0

> <r_epik_Metal_State_Penalty>
0.0208054

> <b_epik_Metal_Only>
0

> <s_lp_Force_Field>
OPLS_2005

> <r_lp_Energy>
32.1072

> <b_lp_Chiralities_Consistent>
1

> <s_lp_Variant>
AV-unprocessed.smi:2159-3

> <Gold.Version>
5.8.1

> <Gold.Id.Protein>
6NUR|6NUR_protein|mol2

> <Gold.PLP.Fitness>
60.4724

> <Gold.PLP.PLP>
-55.8789

> <Gold.PLP.part.hbond>
-2.8572

> <Gold.PLP.part.metal>
0.0000

> <Gold.PLP.part.buried>
-6.4058

> <Gold.PLP.part.nonpolar>
-46.7021

> <Gold.PLP.part.repulsive>
0.0353

> <Gold.PLP.ligand.clash>
0.0000

> <Gold.PLP.ligand.torsion>
0.6002

> <Gold.PLP.Chemscore.Hbond>
1.9120

> <Gold.PLP.Chemscore.CHOScore>
0.0000

> <Gold.PLP.Chemscore.Metal>
0.0000

> <Gold.Chemscore.Hbonds>
donor molecule, donor type, donor heavy atom, donor atom, acceptor molecule, acceptor atom, score
      P1  H  6896  6907       L1     1  1.00
      P1  H  7997  8009       L1     7  0.63

> <Gold.PLP.Chemscore.Internal.Correction>
0.0578

> <Gold.Rescore>
     Score         DG    S(hbond)    S(metal)    S(lipo)     H(rot)  DE(clash)    DE(int)     intcor
     21.74     -23.55       1.89        0.00     143.64       1.97       0.45       1.37       ----

> <Gold.Chemscore.Fitness>
21.7354

> <Gold.Chemscore.DG>
-23.5540

> <Gold.Chemscore.ZeroCoef>
-5.4800

> <Gold.Chemscore.Hbond>
1.8900

> <Gold.Chemscore.Metal>
0.0000

> <Gold.Chemscore.Lipo>
143.6377

> <Gold.Chemscore.Internal_Hbond>
0.0000

> <Gold.Chemscore.DEClash>
0.4482

> <Gold.Chemscore.DEInternal>
1.3703

> <Gold.Chemscore.Rot>
1.9704

> <Gold.Chemscore.Internal.Correction>
   9.000000E+99

> <Gold.Chemscore.Hbonds>
donor molecule, donor type, donor heavy atom, donor atom, acceptor molecule, acceptor atom, score
      P1  H  6896  6907       L1     1  1.00
      P1  H  7997  8009       L1     7  0.61

> <Gold.Chemscore.Hbond.Weighted>
-6.3126

> <Gold.Chemscore.Metal.Weighted>
-0.0000

> <Gold.Chemscore.Lipo.Weighted>
-16.8056

> <Gold.Chemscore.Internal_Hbond.Weighted>
0.0000

> <Gold.Chemscore.DEClash.Weighted>
0.4482

> <Gold.Chemscore.DEInternal.Weighted>
1.3703

> <Gold.Chemscore.Rot.Weighted>
5.0443

> <Gold.Chemscore.Internal.Correction.Weighted>
   9.000000E+99

> <Gold.Protein.RotatedTorsions>
[ 6907 6896 6895 6894 ] final   46.73 input  -60.11 | X-H torsion
[ 7974 7965 7964 7962 ] final  116.77 input  175.53 | X-H torsion
[ 8008 7997 7996 7995 ] final  153.95 input   59.86 | X-H torsion
[ 10167 10162 10161 10158 ] final   16.50 input  -65.29 | X-H torsion
[ 10718 10713 10712 10709 ] final  -66.70 input   66.30 | X-H torsion
[ 10763 10752 10751 10750 ] final -121.74 input  -60.55 | X-H torsion
[ 11005 11000 10999 10996 ] final  -62.32 input  -57.11 | X-H torsion

> <Gold.Protein.ActiveResidues>
 VAL166  LYS551  ARG553  GLY616  TRP617  ASP618  TYR619  PRO620  LYS621  CYS622 
 ASP623  PHE694  ASN695  SER759  ASP760  ASP761  ALA762  ILE779  LEU786  VAL792 
 PHE793  MET794  SER795  GLU796  ALA797  LYS798  CYS799  TRP800  GLU811  SER814 

> <Gold.Protein.RotatedAtoms>
  152.2598  134.8046  160.0432 H   0  0  0  0  0  0  0  0  0  0  0  0  # atno 6907 bound_to 6896
  151.8697  133.3468  159.3739 H   0  0  0  0  0  0  0  0  0  0  0  0  # atno 6908 bound_to 6896
  150.7112  134.5052  159.5625 H   0  0  0  0  0  0  0  0  0  0  0  0  # atno 6909 bound_to 6896
  145.1756  139.3078  143.4445 H   0  0  0  0  0  0  0  0  0  0  0  0  # atno 7974 bound_to 7965
  156.2556  140.1980  156.6569 H   0  0  0  0  0  0  0  0  0  0  0  0  # atno 8008 bound_to 7997
  154.6494  140.0574  156.9963 H   0  0  0  0  0  0  0  0  0  0  0  0  # atno 8009 bound_to 7997
  155.1442  140.3245  155.4448 H   0  0  0  0  0  0  0  0  0  0  0  0  # atno 8010 bound_to 7997
  140.5793  143.9012  150.6776 H   0  0  0  0  0  0  0  0  0  0  0  0  # atno 10167 bound_to 10162
  156.0598  130.4266  150.1747 H   0  0  0  0  0  0  0  0  0  0  0  0  # atno 10718 bound_to 10713
  154.8675  135.4157  154.2669 H   0  0  0  0  0  0  0  0  0  0  0  0  # atno 10763 bound_to 10752
  153.3587  135.7002  153.6735 H   0  0  0  0  0  0  0  0  0  0  0  0  # atno 10764 bound_to 10752
  153.5645  135.3603  155.2785 H   0  0  0  0  0  0  0  0  0  0  0  0  # atno 10765 bound_to 10752
  141.1355  133.6639  156.5510 H   0  0  0  0  0  0  0  0  0  0  0  0  # atno 11005 bound_to 11000
  146.3461  140.1917  142.8589 LP  0  0  0  0  0  0  0  0  0  0  0  0  # atno 17320 bound_to 7965
  145.0189  140.8777  143.5179 LP  0  0  0  0  0  0  0  0  0  0  0  0  # atno 17321 bound_to 7965
  140.2507  143.3595  152.1408 LP  0  0  0  0  0  0  0  0  0  0  0  0  # atno 17342 bound_to 10162
  139.5160  144.6971  151.5598 LP  0  0  0  0  0  0  0  0  0  0  0  0  # atno 17343 bound_to 10162
  156.9817  130.9866  151.3436 LP  0  0  0  0  0  0  0  0  0  0  0  0  # atno 17370 bound_to 10713
  157.5597  130.8237  149.8250 LP  0  0  0  0  0  0  0  0  0  0  0  0  # atno 17371 bound_to 10713
  140.4064  134.7311  157.4810 LP  0  0  0  0  0  0  0  0  0  0  0  0  # atno 17394 bound_to 11000
  140.0459  134.6200  155.8922 LP  0  0  0  0  0  0  0  0  0  0  0  0  # atno 17395 bound_to 11000

$$$$
