AV-unprocessed.smi:2774|AV-procd|sdf|10680|dock9
  -GOLD-   2272015123D 1   1.00000     0.00000
 Structure written by MMmdl.
 35 36  0  0  0  0  0  0  0  0  2 V2000
  149.6144  141.2866  153.7433 O   0  0  0  0  0  0  0  0  0  0  0  0
  149.4225  140.4844  154.8920 C   0  0  2  0  0  0  0  0  0  0  0  0
  149.3543  141.3997  156.1269 C   0  0  0  0  0  0  0  0  0  0  0  0
  150.4622  142.3796  156.1360 N   0  3  0  0  0  0  0  0  0  0  0  0
  150.9110  142.8126  157.4778 C   0  0  2  0  0  0  0  0  0  0  0  0
  151.7631  144.0899  157.3433 C   0  0  0  0  0  0  0  0  0  0  0  0
  152.2003  144.6631  158.7017 C   0  0  0  0  0  0  0  0  0  0  0  0
  153.0668  143.6805  159.5008 C   0  0  0  0  0  0  0  0  0  0  0  0
  152.1519  142.1623  159.8783 S   0  0  0  0  0  0  0  0  0  0  0  0
  151.6966  141.6904  158.1874 C   0  0  0  0  0  0  0  0  0  0  0  0
  150.5228  139.4451  155.0365 C   0  0  0  0  0  0  0  0  0  0  0  0
  151.4664  139.5249  156.0836 C   0  0  0  0  0  0  0  0  0  0  0  0
  152.4598  138.5295  156.1731 C   0  0  0  0  0  0  0  0  0  0  0  0
  152.5559  137.4989  155.3065 N   0  0  0  0  0  0  0  0  0  0  0  0
  151.6513  137.4273  154.3067 C   0  0  0  0  0  0  0  0  0  0  0  0
  150.6189  138.3702  154.1282 C   0  0  0  0  0  0  0  0  0  0  0  0
  149.3337  140.7961  152.9851 H   0  0  0  0  0  0  0  0  0  0  0  0
  148.4691  139.9668  154.7738 H   0  0  0  0  0  0  0  0  0  0  0  0
  148.4101  141.9462  156.1238 H   0  0  0  0  0  0  0  0  0  0  0  0
  149.3720  140.8009  157.0376 H   0  0  0  0  0  0  0  0  0  0  0  0
  151.2497  141.9916  155.6359 H   0  0  0  0  0  0  0  0  0  0  0  0
  150.0255  143.0586  158.0663 H   0  0  0  0  0  0  0  0  0  0  0  0
  152.6449  143.8870  156.7336 H   0  0  0  0  0  0  0  0  0  0  0  0
  151.1934  144.8520  156.8097 H   0  0  0  0  0  0  0  0  0  0  0  0
  152.7607  145.5843  158.5394 H   0  0  0  0  0  0  0  0  0  0  0  0
  151.3225  144.9398  159.2868 H   0  0  0  0  0  0  0  0  0  0  0  0
  153.9675  143.4241  158.9420 H   0  0  0  0  0  0  0  0  0  0  0  0
  153.3900  144.1362  160.4371 H   0  0  0  0  0  0  0  0  0  0  0  0
  151.1091  140.7752  158.2516 H   0  0  0  0  0  0  0  0  0  0  0  0
  152.6035  141.4467  157.6325 H   0  0  0  0  0  0  0  0  0  0  0  0
  151.4328  140.3282  156.8050 H   0  0  0  0  0  0  0  0  0  0  0  0
  153.1960  138.5618  156.9627 H   0  0  0  0  0  0  0  0  0  0  0  0
  151.7520  136.5926  153.6289 H   0  0  0  0  0  0  0  0  0  0  0  0
  149.9211  138.2644  153.3106 H   0  0  0  0  0  0  0  0  0  0  0  0
  150.1413  143.1980  155.6387 H   0  0  0  0  0  0  0  0  0  0  0  0
  1  2  1  0  0  0  0
  1 17  1  0  0  0  0
  2  3  1  0  0  0  0
  2 11  1  0  0  0  0
  2 18  1  0  0  0  0
  3  4  1  0  0  0  0
  3 19  1  0  0  0  0
  3 20  1  0  0  0  0
  4  5  1  0  0  0  0
  4 21  1  0  0  0  0
  4 35  1  0  0  0  0
  5 10  1  0  0  0  0
  5  6  1  0  0  0  0
  5 22  1  0  0  0  0
  6  7  1  0  0  0  0
  6 23  1  0  0  0  0
  6 24  1  0  0  0  0
  7  8  1  0  0  0  0
  7 25  1  0  0  0  0
  7 26  1  0  0  0  0
  8  9  1  0  0  0  0
  8 27  1  0  0  0  0
  8 28  1  0  0  0  0
  9 10  1  0  0  0  0
 10 29  1  0  0  0  0
 10 30  1  0  0  0  0
 11 16  1  0  0  0  0
 11 12  2  0  0  0  0
 12 13  1  0  0  0  0
 12 31  1  0  0  0  0
 13 14  2  0  0  0  0
 13 32  1  0  0  0  0
 14 15  1  0  0  0  0
 15 16  2  0  0  0  0
 15 33  1  0  0  0  0
 16 34  1  0  0  0  0
M  CHG  1   4   1
M  END
> <s_m_source_file>
AV-unprocessed.smi

> <i_m_source_file_index>
2774

> <i_lp_mmshare_version>
43012

> <i_f3d_flags>
0

> <s_epik_input>
W2NIXTFbY0hdbltjSF1bY0hdYzFbQ0BIXShbT0hdKVtDSDJdW05IXVtDQEBIXTJbQ0gyXVtDSDJdW0NIMl1TW0NIMl0y

> <s_epik_cmdline>
J2VwaWtfcHl0aG9uJywgJy1waCcsICc3LjAnLCAnLXRuJywgJzgnLCAnLW1hJywgJzIwMCcsICctbWV0YWxfYmluZGluZycsICctaW1hZScsICc8aW5maWxlLm1hZT4nLCAnLW9tYWUnLCAnPG91dGZpbGUubWFlPic=

> <r_epik_Ionization_Penalty>
0.0205977

> <r_epik_Ionization_Penalty_Charging>
0.0185619

> <r_epik_Ionization_Penalty_Neutral>
0.00203589

> <r_epik_State_Penalty>
0.0147768

> <r_epik_Charging_Adjusted_Penalty>
0.0333386

> <i_epik_Tot_Q>
1

> <i_epik_Tot_abs_Q>
1

> <r_epik_Metal_State_Penalty>
0.0152254

> <b_epik_Metal_Only>
0

> <s_lp_Force_Field>
OPLS_2005

> <r_lp_Energy>
9.96587

> <b_lp_Chiralities_Consistent>
1

> <s_lp_Variant>
AV-unprocessed.smi:2774-1

> <Gold.Version>
5.8.1

> <Gold.Id.Protein>
6NUR|6NUR_protein|mol2

> <Gold.PLP.Fitness>
52.0737

> <Gold.PLP.PLP>
-40.4091

> <Gold.PLP.part.hbond>
-5.0000

> <Gold.PLP.part.metal>
0.0000

> <Gold.PLP.part.buried>
-1.6141

> <Gold.PLP.part.nonpolar>
-34.3878

> <Gold.PLP.part.repulsive>
0.1524

> <Gold.PLP.ligand.clash>
0.0000

> <Gold.PLP.ligand.torsion>
0.5497

> <Gold.PLP.Chemscore.Hbond>
3.2507

> <Gold.PLP.Chemscore.CHOScore>
1.0000

> <Gold.PLP.Chemscore.Metal>
0.0000

> <Gold.Chemscore.Hbonds>
donor molecule, donor type, donor heavy atom, donor atom, acceptor molecule, acceptor atom, score
      L1  H     1    17       P1  7957  1.00
      L1  H     4    35       P1  8028  1.86
      P1  H  7989  7998       L1     1  0.15
      P1  H 10752 10764       L1    14  0.25
      L1  C    15    33       P1  7949  1.00

> <Gold.PLP.Chemscore.Internal.Correction>
0.0118

> <Gold.Rescore>
     Score         DG    S(hbond)    S(metal)    S(lipo)     H(rot)  DE(clash)    DE(int)     intcor
     20.10     -21.13       2.19        0.00     114.32       1.97       0.42       0.61       ----

> <Gold.Chemscore.Fitness>
20.1021

> <Gold.Chemscore.DG>
-21.1348

> <Gold.Chemscore.ZeroCoef>
-5.4800

> <Gold.Chemscore.Hbond>
2.1914

> <Gold.Chemscore.Metal>
0.0000

> <Gold.Chemscore.Lipo>
114.3179

> <Gold.Chemscore.Internal_Hbond>
0.0000

> <Gold.Chemscore.DEClash>
0.4182

> <Gold.Chemscore.DEInternal>
0.6144

> <Gold.Chemscore.Rot>
1.9686

> <Gold.Chemscore.Internal.Correction>
   9.000000E+99

> <Gold.Chemscore.Hbonds>
donor molecule, donor type, donor heavy atom, donor atom, acceptor molecule, acceptor atom, score
      L1  H     1    17       P1  7957  0.93
      L1  H     4    35       P1  8028  0.88
      P1  H 10752 10764       L1    14  0.01

> <Gold.Chemscore.Hbond.Weighted>
-7.3192

> <Gold.Chemscore.Metal.Weighted>
-0.0000

> <Gold.Chemscore.Lipo.Weighted>
-13.3752

> <Gold.Chemscore.Internal_Hbond.Weighted>
0.0000

> <Gold.Chemscore.DEClash.Weighted>
0.4182

> <Gold.Chemscore.DEInternal.Weighted>
0.6144

> <Gold.Chemscore.Rot.Weighted>
5.0396

> <Gold.Chemscore.Internal.Correction.Weighted>
   9.000000E+99

> <Gold.Protein.RotatedTorsions>
[ 6907 6896 6895 6894 ] final -111.86 input  -60.11 | X-H torsion
[ 7974 7965 7964 7962 ] final  143.78 input  175.53 | X-H torsion
[ 8008 7997 7996 7995 ] final  -44.04 input   59.86 | X-H torsion
[ 10167 10162 10161 10158 ] final  -31.25 input  -65.29 | X-H torsion
[ 10718 10713 10712 10709 ] final -108.14 input   66.30 | X-H torsion
[ 10763 10752 10751 10750 ] final  -34.40 input  -60.55 | X-H torsion
[ 11005 11000 10999 10996 ] final   80.88 input  -57.11 | X-H torsion

> <Gold.Protein.ActiveResidues>
 VAL166  LYS551  ARG553  GLY616  TRP617  ASP618  TYR619  PRO620  LYS621  CYS622 
 ASP623  PHE694  ASN695  SER759  ASP760  ASP761  ALA762  ILE779  LEU786  VAL792 
 PHE793  MET794  SER795  GLU796  ALA797  LYS798  CYS799  TRP800  GLU811  SER814 

> <Gold.Protein.RotatedAtoms>
  150.7719  133.9174  159.3387 H   0  0  0  0  0  0  0  0  0  0  0  0  # atno 6907 bound_to 6896
  151.7058  135.0920  160.0268 H   0  0  0  0  0  0  0  0  0  0  0  0  # atno 6908 bound_to 6896
  152.3740  133.6418  159.6144 H   0  0  0  0  0  0  0  0  0  0  0  0  # atno 6909 bound_to 6896
  144.8891  139.5585  143.5807 H   0  0  0  0  0  0  0  0  0  0  0  0  # atno 7974 bound_to 7965
  154.3997  140.1432  156.3618 H   0  0  0  0  0  0  0  0  0  0  0  0  # atno 8008 bound_to 7997
  155.8174  140.3470  155.5473 H   0  0  0  0  0  0  0  0  0  0  0  0  # atno 8009 bound_to 7997
  155.8323  140.0914  157.1775 H   0  0  0  0  0  0  0  0  0  0  0  0  # atno 8010 bound_to 7997
  140.7238  143.3785  151.1645 H   0  0  0  0  0  0  0  0  0  0  0  0  # atno 10167 bound_to 10162
  156.0471  130.5698  150.7919 H   0  0  0  0  0  0  0  0  0  0  0  0  # atno 10718 bound_to 10713
  153.8461  135.6853  153.4797 H   0  0  0  0  0  0  0  0  0  0  0  0  # atno 10763 bound_to 10752
  153.1425  135.4651  154.9515 H   0  0  0  0  0  0  0  0  0  0  0  0  # atno 10764 bound_to 10752
  154.7823  135.3273  154.7909 H   0  0  0  0  0  0  0  0  0  0  0  0  # atno 10765 bound_to 10752
  139.9118  134.7954  156.1967 H   0  0  0  0  0  0  0  0  0  0  0  0  # atno 11005 bound_to 11000
  146.3043  139.7527  142.9068 LP  0  0  0  0  0  0  0  0  0  0  0  0  # atno 17320 bound_to 7965
  145.3815  141.0359  143.3175 LP  0  0  0  0  0  0  0  0  0  0  0  0  # atno 17321 bound_to 7965
  139.7369  143.8984  152.3038 LP  0  0  0  0  0  0  0  0  0  0  0  0  # atno 17342 bound_to 10162
  139.8792  144.7027  150.8897 LP  0  0  0  0  0  0  0  0  0  0  0  0  # atno 17343 bound_to 10162
  157.5357  131.0938  150.9895 LP  0  0  0  0  0  0  0  0  0  0  0  0  # atno 17370 bound_to 10713
  157.0190  130.5666  149.5329 LP  0  0  0  0  0  0  0  0  0  0  0  0  # atno 17371 bound_to 10713
  141.0550  133.6870  156.1843 LP  0  0  0  0  0  0  0  0  0  0  0  0  # atno 17394 bound_to 11000
  140.6751  134.4826  157.5588 LP  0  0  0  0  0  0  0  0  0  0  0  0  # atno 17395 bound_to 11000

$$$$
