AV-unprocessed.smi:1047|AV-procd|sdf|4568|dock2
  -GOLD-   22720 3 23D 1   1.00000     0.00000
 Structure written by MMmdl.
 56 58  0  0  0  0  0  0  0  0  2 V2000
  143.8096  145.5091  156.9793 C   0  0  0  0  0  0  0  0  0  0  0  0
  143.9171  145.2166  158.4828 C   0  0  0  0  0  0  0  0  0  0  0  0
  145.2451  144.8069  158.9366 N   0  0  0  0  0  0  0  0  0  0  0  0
  145.2835  144.5198  160.3686 C   0  0  0  0  0  0  0  0  0  0  0  0
  146.6784  144.0576  160.8234 C   0  0  0  0  0  0  0  0  0  0  0  0
  147.0852  142.9305  160.0540 O   0  0  0  0  0  0  0  0  0  0  0  0
  147.1191  143.1957  158.6540 C   0  0  1  0  0  0  0  0  0  0  0  0
  147.5843  141.9227  157.9347 C   0  0  0  0  0  0  0  0  0  0  0  0
  147.6629  142.1366  156.4760 N   0  3  0  0  0  0  0  0  0  0  0  0
  148.1683  140.9705  155.7248 C   0  0  0  0  0  0  0  0  0  0  0  0
  149.4030  141.3316  154.8745 C   0  0  2  0  0  0  0  0  0  0  0  0
  149.0229  141.4139  153.5153 O   0  0  0  0  0  0  0  0  0  0  0  0
  150.5411  140.2959  154.9693 C   0  0  0  0  0  0  0  0  0  0  0  0
  151.0784  140.1731  156.3124 N   0  0  0  0  0  0  0  0  0  0  0  0
  151.3774  139.0319  156.9619 C   0  0  0  0  0  0  0  0  0  0  0  0
  151.8683  139.1431  158.1927 N   0  0  0  0  0  0  0  0  0  0  0  0
  151.8833  140.5163  158.3650 C   0  0  0  0  0  0  0  0  0  0  0  0
  152.2981  141.2982  159.4652 C   0  0  0  0  0  0  0  0  0  0  0  0
  152.2307  142.7089  159.4184 C   0  0  0  0  0  0  0  0  0  0  0  0
  152.6900  143.5104  160.6238 C   0  0  0  0  0  0  0  0  0  0  0  0
  151.7409  143.3589  158.2571 C   0  0  0  0  0  0  0  0  0  0  0  0
  151.6604  144.8735  158.1845 C   0  0  0  0  0  0  0  0  0  0  0  0
  151.3201  142.5930  157.1500 C   0  0  0  0  0  0  0  0  0  0  0  0
  151.3932  141.1898  157.2081 C   0  0  0  0  0  0  0  0  0  0  0  0
  145.7107  143.6339  158.2052 C   0  0  0  0  0  0  0  0  0  0  0  0
  142.7736  145.7025  156.7006 H   0  0  0  0  0  0  0  0  0  0  0  0
  144.1580  144.6615  156.3882 H   0  0  0  0  0  0  0  0  0  0  0  0
  144.3901  146.3850  156.6907 H   0  0  0  0  0  0  0  0  0  0  0  0
  143.5827  146.0880  159.0479 H   0  0  0  0  0  0  0  0  0  0  0  0
  143.2066  144.4211  158.7109 H   0  0  0  0  0  0  0  0  0  0  0  0
  145.0072  145.4057  160.9398 H   0  0  0  0  0  0  0  0  0  0  0  0
  144.5505  143.7491  160.6119 H   0  0  0  0  0  0  0  0  0  0  0  0
  147.4068  144.8627  160.7135 H   0  0  0  0  0  0  0  0  0  0  0  0
  146.6616  143.7826  161.8780 H   0  0  0  0  0  0  0  0  0  0  0  0
  147.8279  144.0018  158.4545 H   0  0  0  0  0  0  0  0  0  0  0  0
  148.5563  141.6062  158.3155 H   0  0  0  0  0  0  0  0  0  0  0  0
  146.8818  141.1113  158.1293 H   0  0  0  0  0  0  0  0  0  0  0  0
  146.7398  142.3628  156.1345 H   0  0  0  0  0  0  0  0  0  0  0  0
  148.4235  140.1993  156.4517 H   0  0  0  0  0  0  0  0  0  0  0  0
  147.3767  140.5636  155.0936 H   0  0  0  0  0  0  0  0  0  0  0  0
  149.7867  142.3064  155.1795 H   0  0  0  0  0  0  0  0  0  0  0  0
  149.1854  140.5816  153.0992 H   0  0  0  0  0  0  0  0  0  0  0  0
  150.1948  139.3147  154.6416 H   0  0  0  0  0  0  0  0  0  0  0  0
  151.3590  140.5734  154.3026 H   0  0  0  0  0  0  0  0  0  0  0  0
  151.2305  138.0647  156.5034 H   0  0  0  0  0  0  0  0  0  0  0  0
  152.6718  140.8030  160.3496 H   0  0  0  0  0  0  0  0  0  0  0  0
  151.8839  144.1457  160.9915 H   0  0  0  0  0  0  0  0  0  0  0  0
  153.5382  144.1428  160.3605 H   0  0  0  0  0  0  0  0  0  0  0  0
  152.9998  142.8584  161.4413 H   0  0  0  0  0  0  0  0  0  0  0  0
  151.2973  145.2068  157.2118 H   0  0  0  0  0  0  0  0  0  0  0  0
  152.6429  145.3179  158.3446 H   0  0  0  0  0  0  0  0  0  0  0  0
  150.9790  145.2557  158.9449 H   0  0  0  0  0  0  0  0  0  0  0  0
  150.9454  143.0761  156.2599 H   0  0  0  0  0  0  0  0  0  0  0  0
  145.0103  142.8091  158.3461 H   0  0  0  0  0  0  0  0  0  0  0  0
  145.7250  143.8505  157.1362 H   0  0  0  0  0  0  0  0  0  0  0  0
  148.2741  142.9219  156.3023 H   0  0  0  0  0  0  0  0  0  0  0  0
  1  2  1  0  0  0  0
  1 26  1  0  0  0  0
  1 27  1  0  0  0  0
  1 28  1  0  0  0  0
  2  3  1  0  0  0  0
  2 29  1  0  0  0  0
  2 30  1  0  0  0  0
  3 25  1  0  0  0  0
  3  4  1  0  0  0  0
  4  5  1  0  0  0  0
  4 31  1  0  0  0  0
  4 32  1  0  0  0  0
  5  6  1  0  0  0  0
  5 33  1  0  0  0  0
  5 34  1  0  0  0  0
  6  7  1  0  0  0  0
  7  8  1  0  0  0  0
  7 25  1  0  0  0  0
  7 35  1  0  0  0  0
  8  9  1  0  0  0  0
  8 36  1  0  0  0  0
  8 37  1  0  0  0  0
  9 10  1  0  0  0  0
  9 38  1  0  0  0  0
  9 56  1  0  0  0  0
 10 11  1  0  0  0  0
 10 39  1  0  0  0  0
 10 40  1  0  0  0  0
 11 12  1  0  0  0  0
 11 13  1  0  0  0  0
 11 41  1  0  0  0  0
 12 42  1  0  0  0  0
 13 14  1  0  0  0  0
 13 43  1  0  0  0  0
 13 44  1  0  0  0  0
 14 24  1  0  0  0  0
 14 15  1  0  0  0  0
 15 16  2  0  0  0  0
 15 45  1  0  0  0  0
 16 17  1  0  0  0  0
 17 24  2  0  0  0  0
 17 18  1  0  0  0  0
 18 19  2  0  0  0  0
 18 46  1  0  0  0  0
 19 20  1  0  0  0  0
 19 21  1  0  0  0  0
 20 47  1  0  0  0  0
 20 48  1  0  0  0  0
 20 49  1  0  0  0  0
 21 22  1  0  0  0  0
 21 23  2  0  0  0  0
 22 50  1  0  0  0  0
 22 51  1  0  0  0  0
 22 52  1  0  0  0  0
 23 24  1  0  0  0  0
 23 53  1  0  0  0  0
 25 54  1  0  0  0  0
 25 55  1  0  0  0  0
M  CHG  1   9   1
M  END
> <s_m_source_file>
AV-unprocessed.smi

> <i_m_source_file_index>
1047

> <i_lp_mmshare_version>
43012

> <i_f3d_flags>
0

> <s_epik_input>
W0NIM11bQ0gyXU4xW0NIMl1bQ0gyXU9bQ0BIXShbQ0gyXTEpW0NIMl1bTkhdW0NIMl1bQ0BIXShbT0hdKVtDSDJdbihbY0hdbjIpYyhjMjMpW2NIXWMoW0NIM10pYyhbY0hdMylbQ0gzXQ==

> <s_epik_cmdline>
J2VwaWtfcHl0aG9uJywgJy1waCcsICc3LjAnLCAnLXRuJywgJzgnLCAnLW1hJywgJzIwMCcsICctbWV0YWxfYmluZGluZycsICctaW1hZScsICc8aW5maWxlLm1hZT4nLCAnLW9tYWUnLCAnPG91dGZpbGUubWFlPic=

> <r_epik_Ionization_Penalty>
0.692425

> <r_epik_Ionization_Penalty_Charging>
0.0243549

> <r_epik_Ionization_Penalty_Neutral>
0.66807

> <r_epik_State_Penalty>
0.592789

> <r_epik_Charging_Adjusted_Penalty>
0.617144

> <i_epik_Tot_Q>
1

> <i_epik_Tot_abs_Q>
1

> <r_epik_Metal_State_Penalty>
0.508021

> <b_epik_Metal_Only>
0

> <s_lp_Force_Field>
OPLS_2005

> <r_lp_Energy>
31.7658

> <b_lp_Chiralities_Consistent>
1

> <s_lp_Variant>
AV-unprocessed.smi:1047-9

> <Gold.Version>
5.8.1

> <Gold.Id.Protein>
6NUR|6NUR_protein|mol2

> <Gold.PLP.Fitness>
57.0826

> <Gold.PLP.PLP>
-45.6843

> <Gold.PLP.part.hbond>
-5.9126

> <Gold.PLP.part.metal>
0.0000

> <Gold.PLP.part.buried>
-3.9316

> <Gold.PLP.part.nonpolar>
-35.7167

> <Gold.PLP.part.repulsive>
0.1584

> <Gold.PLP.ligand.clash>
0.0000

> <Gold.PLP.ligand.torsion>
1.2326

> <Gold.PLP.Chemscore.Hbond>
4.5571

> <Gold.PLP.Chemscore.CHOScore>
0.0000

> <Gold.PLP.Chemscore.Metal>
0.0000

> <Gold.Chemscore.Hbonds>
donor molecule, donor type, donor heavy atom, donor atom, acceptor molecule, acceptor atom, score
      L1  H     9    56       P1  8028  2.00
      L1  H    12    42       P1  7957  0.62
      P1  H  6933  6944       L1     6  0.59
      P1  H  6934  6946       L1     6  0.54
      P1  H  8011  8017       L1    12  0.78

> <Gold.PLP.Chemscore.Internal.Correction>
0.1921

> <Gold.Rescore>
     Score         DG    S(hbond)    S(metal)    S(lipo)     H(rot)  DE(clash)    DE(int)     intcor
     17.78     -20.93       2.49        0.00     118.01       2.60       1.87       1.28       ----

> <Gold.Chemscore.Fitness>
17.7794

> <Gold.Chemscore.DG>
-20.9309

> <Gold.Chemscore.ZeroCoef>
-5.4800

> <Gold.Chemscore.Hbond>
2.4887

> <Gold.Chemscore.Metal>
0.0000

> <Gold.Chemscore.Lipo>
118.0090

> <Gold.Chemscore.Internal_Hbond>
0.0000

> <Gold.Chemscore.DEClash>
1.8701

> <Gold.Chemscore.DEInternal>
1.2815

> <Gold.Chemscore.Rot>
2.6049

> <Gold.Chemscore.Internal.Correction>
   9.000000E+99

> <Gold.Chemscore.Hbonds>
donor molecule, donor type, donor heavy atom, donor atom, acceptor molecule, acceptor atom, score
      L1  H     9    56       P1  8028  0.75
      L1  H    12    42       P1  7957  0.59
      P1  H  6933  6944       L1     6  0.06
      P1  H  6934  6946       L1     6  0.52
      P1  H  8011  8017       L1    12  0.15

> <Gold.Chemscore.Hbond.Weighted>
-8.3123

> <Gold.Chemscore.Metal.Weighted>
-0.0000

> <Gold.Chemscore.Lipo.Weighted>
-13.8071

> <Gold.Chemscore.Internal_Hbond.Weighted>
0.0000

> <Gold.Chemscore.DEClash.Weighted>
1.8701

> <Gold.Chemscore.DEInternal.Weighted>
1.2815

> <Gold.Chemscore.Rot.Weighted>
6.6685

> <Gold.Chemscore.Internal.Correction.Weighted>
   9.000000E+99

> <Gold.Protein.RotatedTorsions>
[ 6907 6896 6895 6894 ] final  -81.21 input  -60.11 | X-H torsion
[ 7974 7965 7964 7962 ] final  172.48 input  175.53 | X-H torsion
[ 8008 7997 7996 7995 ] final    4.86 input   59.86 | X-H torsion
[ 10167 10162 10161 10158 ] final -144.70 input  -65.29 | X-H torsion
[ 10718 10713 10712 10709 ] final   57.65 input   66.30 | X-H torsion
[ 10763 10752 10751 10750 ] final   20.80 input  -60.55 | X-H torsion
[ 11005 11000 10999 10996 ] final  167.19 input  -57.11 | X-H torsion

> <Gold.Protein.ActiveResidues>
 VAL166  LYS551  ARG553  GLY616  TRP617  ASP618  TYR619  PRO620  LYS621  CYS622 
 ASP623  PHE694  ASN695  SER759  ASP760  ASP761  ALA762  ILE779  LEU786  VAL792 
 PHE793  MET794  SER795  GLU796  ALA797  LYS798  CYS799  TRP800  GLU811  SER814 

> <Gold.Protein.RotatedAtoms>
  150.6916  134.3851  159.5051 H   0  0  0  0  0  0  0  0  0  0  0  0  # atno 6907 bound_to 6896
  152.1648  134.8880  160.0548 H   0  0  0  0  0  0  0  0  0  0  0  0  # atno 6908 bound_to 6896
  151.9928  133.3762  159.4188 H   0  0  0  0  0  0  0  0  0  0  0  0  # atno 6909 bound_to 6896
  144.7267  139.9504  143.6432 H   0  0  0  0  0  0  0  0  0  0  0  0  # atno 7974 bound_to 7965
  154.7212  140.2712  155.6540 H   0  0  0  0  0  0  0  0  0  0  0  0  # atno 8008 bound_to 7997
  156.2824  140.2734  156.1808 H   0  0  0  0  0  0  0  0  0  0  0  0  # atno 8009 bound_to 7997
  155.0505  140.0371  157.2532 H   0  0  0  0  0  0  0  0  0  0  0  0  # atno 8010 bound_to 7997
  139.7874  143.8014  152.2646 H   0  0  0  0  0  0  0  0  0  0  0  0  # atno 10167 bound_to 10162
  157.5532  130.8781  149.8995 H   0  0  0  0  0  0  0  0  0  0  0  0  # atno 10718 bound_to 10713
  153.1047  135.6681  153.9608 H   0  0  0  0  0  0  0  0  0  0  0  0  # atno 10763 bound_to 10752
  153.9169  135.3019  155.3449 H   0  0  0  0  0  0  0  0  0  0  0  0  # atno 10764 bound_to 10752
  154.7468  135.5053  153.9294 H   0  0  0  0  0  0  0  0  0  0  0  0  # atno 10765 bound_to 10752
  140.2742  134.7802  157.3702 H   0  0  0  0  0  0  0  0  0  0  0  0  # atno 11005 bound_to 11000
  146.0715  139.3704  143.0520 LP  0  0  0  0  0  0  0  0  0  0  0  0  # atno 17320 bound_to 7965
  145.7961  140.9792  143.1023 LP  0  0  0  0  0  0  0  0  0  0  0  0  # atno 17321 bound_to 7965
  139.8095  144.7341  150.9716 LP  0  0  0  0  0  0  0  0  0  0  0  0  # atno 17342 bound_to 10162
  140.7820  143.4264  151.0761 LP  0  0  0  0  0  0  0  0  0  0  0  0  # atno 17343 bound_to 10162
  156.0595  130.3702  150.1014 LP  0  0  0  0  0  0  0  0  0  0  0  0  # atno 17370 bound_to 10713
  156.9185  130.9675  151.3552 LP  0  0  0  0  0  0  0  0  0  0  0  0  # atno 17371 bound_to 10713
  140.1344  134.5053  155.8080 LP  0  0  0  0  0  0  0  0  0  0  0  0  # atno 17394 bound_to 11000
  141.2173  133.6802  156.7098 LP  0  0  0  0  0  0  0  0  0  0  0  0  # atno 17395 bound_to 11000

$$$$
