#       Name:                AV-unprocessed.smi:275
#       Creating user name   scv26
#       Creation time:       Thu Mar 26 21:31:09 2020


#       File generated by GOLD software.
#

@<TRIPOS>MOLECULE
AV-unprocessed.smi:275
    73    77     1
SMALL
NO_CHARGES


@<TRIPOS>ATOM
      1 ****        -2.9927  -2.5440  -1.4208 C.3            1 S1                 0.0000
      2 ****        -3.8891  -1.3963  -0.9331 C.3            1 S1                 0.0000
      3 ****        -4.9215  -1.0406  -2.0263 C.3            1 S1                 0.0000
      4 ****        -3.0436  -0.2203  -0.3769 C.3            1 S1                 0.0000
      5 ****        -2.6893   0.7281  -1.4353 N.3            1 S1                 0.0000
      6 ****        -1.3110   1.1094  -1.5405 C.ar           1 S1                 0.0000
      7 ****        -1.0149   2.3944  -1.8781 N.ar           1 S1                 0.0000
      8 ****         0.2461   2.8141  -2.0059 C.ar           1 S1                 0.0000
      9 ****         1.3720   2.1188  -1.8584 N.ar           1 S1                 0.0000
     10 ****         1.1025   0.8201  -1.5502 C.ar           1 S1                 0.0000
     11 ****        -0.1889   0.2386  -1.3811 C.ar           1 S1                 0.0000
     12 ****        -0.0468  -1.1135  -1.0876 N.2            1 S1                 0.0000
     13 ****         1.2414  -1.3140  -1.0663 C.2            1 S1                 0.0000
     14 ****         2.0070  -0.2034  -1.3282 N.pl3          1 S1                 0.0000
     15 ****         3.4580  -0.1446  -1.3703 C.3            1 S1                 0.0000
     16 ****         4.1142  -0.1986   0.0326 C.3            1 S1                 0.0000
     17 ****         3.6465   0.9888   0.9128 C.3            1 S1                 0.0000
     18 ****         3.8596   0.7394   2.2862 O.3            1 S1                 0.0000
     19 ****         5.6602  -0.2631  -0.1052 C.3            1 S1                 0.0000
     20 ****         6.1758  -1.4724  -0.8816 C.3            1 S1                 0.0000
     21 ****         7.5461  -1.7769  -0.2691 C.3            1 S1                 0.0000
     22 ****         7.7258  -0.8255   0.7702 O.3            1 S1                 0.0000
     23 ****         6.4454  -0.3984   1.2006 C.3            1 S1                 0.0000
     24 ****        -3.6060   1.7430  -0.9193 C.3            1 S1                 0.0000
     25 ****        -3.6436   0.9764   0.4097 C.3            1 S1                 0.0000
     26 ****        -2.7343   1.5709   1.5078 C.3            1 S1                 0.0000
     27 ****        -2.6526   0.6956   2.7695 C.3            1 S1                 0.0000
     28 ****        -4.0432   0.4701   3.3729 C.3            1 S1                 0.0000
     29 ****        -5.0147  -0.0768   2.3210 C.3            1 S1                 0.0000
     30 ****        -5.0321   0.8076   1.0607 C.3            1 S1                 0.0000
     31 ****        -2.3962  -2.2410  -2.2818 H              1 S1                 0.0000
     32 ****        -3.5861  -3.4093  -1.7170 H              1 S1                 0.0000
     33 ****        -2.3089  -2.8709  -0.6371 H              1 S1                 0.0000
     34 ****        -4.4589  -1.8096  -0.1021 H              1 S1                 0.0000
     35 ****        -4.4372  -0.6953  -2.9401 H              1 S1                 0.0000
     36 ****        -5.6215  -0.2700  -1.7124 H              1 S1                 0.0000
     37 ****        -5.5157  -1.9156  -2.2908 H              1 S1                 0.0000
     38 ****        -2.1802  -0.5859   0.1762 H              1 S1                 0.0000
     39 ****         0.3687   3.8552  -2.2657 H              1 S1                 0.0000
     40 ****         1.6709  -2.2828  -0.8564 H              1 S1                 0.0000
     41 ****         3.7920  -0.9771  -1.9891 H              1 S1                 0.0000
     42 ****         3.7598   0.7641  -1.8925 H              1 S1                 0.0000
     43 ****         3.7769  -1.1204   0.5100 H              1 S1                 0.0000
     44 ****         4.1517   1.9104   0.6227 H              1 S1                 0.0000
     45 ****         2.5787   1.1716   0.8056 H              1 S1                 0.0000
     46 ****         3.5419   1.4808   2.7787 H              1 S1                 0.0000
     47 ****         6.0110   0.6385  -0.6098 H              1 S1                 0.0000
     48 ****         5.5183  -2.3327  -0.7496 H              1 S1                 0.0000
     49 ****         6.2433  -1.2674  -1.9505 H              1 S1                 0.0000
     50 ****         7.5670  -2.7846   0.1481 H              1 S1                 0.0000
     51 ****         8.3517  -1.6946  -0.9990 H              1 S1                 0.0000
     52 ****         6.5178   0.5392   1.7522 H              1 S1                 0.0000
     53 ****         6.0071  -1.1550   1.8537 H              1 S1                 0.0000
     54 ****        -3.2255   2.7603  -0.8281 H              1 S1                 0.0000
     55 ****        -4.5574   1.7325  -1.4508 H              1 S1                 0.0000
     56 ****        -1.7234   1.7234   1.1297 H              1 S1                 0.0000
     57 ****        -3.0889   2.5646   1.7853 H              1 S1                 0.0000
     58 ****        -2.1977  -0.2648   2.5247 H              1 S1                 0.0000
     59 ****        -2.0012   1.1658   3.5066 H              1 S1                 0.0000
     60 ****        -3.9808  -0.2137   4.2198 H              1 S1                 0.0000
     61 ****        -4.4257   1.4137   3.7638 H              1 S1                 0.0000
     62 ****        -4.7272  -1.0948   2.0596 H              1 S1                 0.0000
     63 ****        -6.0178  -0.1408   2.7436 H              1 S1                 0.0000
     64 ****        -5.4328   1.7869   1.3257 H              1 S1                 0.0000
     65 ****        -5.7504   0.3935   0.3572 H              1 S1                 0.0000
     66 ****        -2.7767   0.4314  -2.3863 LP             1 S1                 0.0000
     67 ****        -1.7615   3.0410  -2.0345 LP             1 S1                 0.0000
     68 ****         2.2913   2.4989  -1.9602 LP             1 S1                 0.0000
     69 ****        -0.7719  -1.7834  -0.9282 LP             1 S1                 0.0000
     70 ****         4.8366   0.6137   2.4585 LP             1 S1                 0.0000
     71 ****         3.3641  -0.0849   2.5602 LP             1 S1                 0.0000
     72 ****         8.2468  -0.0436   0.4279 LP             1 S1                 0.0000
     73 ****         8.2174  -1.2454   1.5331 LP             1 S1                 0.0000
@<TRIPOS>BOND
    1    1    2 1     
    2    1   31 1     
    3    1   32 1     
    4    1   33 1     
    5    2    3 1     
    6    2    4 1     
    7    2   34 1     
    8    3   35 1     
    9    3   36 1     
   10    3   37 1     
   11    4   25 1     
   12    4    5 1     
   13    4   38 1     
   14    5    6 1     
   15    5   24 1     
   16    6   11 ar    
   17    6    7 ar    
   18    7    8 ar    
   19    8    9 ar    
   20    8   39 1     
   21    9   10 ar    
   22   10   14 1     
   23   10   11 ar    
   24   11   12 1     
   25   12   13 2     
   26   13   14 1     
   27   13   40 1     
   28   14   15 1     
   29   15   16 1     
   30   15   41 1     
   31   15   42 1     
   32   16   17 1     
   33   16   19 1     
   34   16   43 1     
   35   17   18 1     
   36   17   44 1     
   37   17   45 1     
   38   18   46 1     
   39   19   23 1     
   40   19   20 1     
   41   19   47 1     
   42   20   21 1     
   43   20   48 1     
   44   20   49 1     
   45   21   22 1     
   46   21   50 1     
   47   21   51 1     
   48   22   23 1     
   49   23   52 1     
   50   23   53 1     
   51   24   25 1     
   52   24   54 1     
   53   24   55 1     
   54   25   30 1     
   55   25   26 1     
   56   26   27 1     
   57   26   56 1     
   58   26   57 1     
   59   27   28 1     
   60   27   58 1     
   61   27   59 1     
   62   28   29 1     
   63   28   60 1     
   64   28   61 1     
   65   29   30 1     
   66   29   62 1     
   67   29   63 1     
   68   30   64 1     
   69   30   65 1     
   70    5   66 1     
   71    7   67 1     
   72    9   68 1     
   73   12   69 1     
   74   18   70 1     
   75   18   71 1     
   76   22   72 1     
   77   22   73 1     
@<TRIPOS>SUBSTRUCTURE
      1 S1             1
@<TRIPOS>SET
LONE_PAIRS      STATIC     ATOMS    <user>   **** ""
8 66 67 68 69 70 71 72 73
DONOR_HYDROGENS      STATIC     ATOMS    <user>   **** ""
1 46
ATOM$BLUE        STATIC     ATOMS    COLORGROUP SYSTEM
8 66 67 68 69 70 71 72 73
ATOM$RED        STATIC     ATOMS    COLORGROUP SYSTEM
1 46
