AV-unprocessed.smi:44|AV-procd|sdf|398|dock3
  -GOLD-   2262016253D 1   1.00000     0.00000
 Structure written by MMmdl.
 29 31  0  0  0  0  0  0  0  0  1 V2000
  151.5422  142.7913  157.1829 O   0  0  0  0  0  0  0  0  0  0  0  0
  150.9605  142.0376  156.4055 C   0  0  0  0  0  0  0  0  0  0  0  0
  149.9059  142.4128  155.6409 N   0  0  0  0  0  0  0  0  0  0  0  0
  149.2302  141.5479  154.7430 C   0  0  0  0  0  0  0  0  0  0  0  0
  149.5336  140.2917  154.5389 N   0  0  0  0  0  0  0  0  0  0  0  0
  150.6059  139.8844  155.3067 C   0  0  0  0  0  0  0  0  0  0  0  0
  151.3351  140.6186  156.2027 C   0  0  0  0  0  0  0  0  0  0  0  0
  152.3396  139.8550  156.7833 N   0  0  0  0  0  0  0  0  0  0  0  0
  152.1669  138.6709  156.1991 C   0  0  0  0  0  0  0  0  0  0  0  0
  151.1535  138.6056  155.3108 N   0  0  0  0  0  0  0  0  0  0  0  0
  150.7023  137.4315  154.4971 C   0  0  2  0  0  0  0  0  0  0  0  0
  149.2668  137.0662  154.8771 C   0  0  0  0  0  0  0  0  0  0  0  0
  149.4983  136.0917  156.0100 C   0  0  0  0  0  0  0  0  0  0  0  0
  150.7308  135.3383  155.5104 C   0  0  2  0  0  0  0  0  0  0  0  0
  151.5472  134.6851  156.6359 C   0  0  0  0  0  0  0  0  0  0  0  0
  150.8261  133.6086  157.1949 O   0  0  0  0  0  0  0  0  0  0  0  0
  151.5014  136.3327  154.8323 O   0  0  0  0  0  0  0  0  0  0  0  0
  149.5877  143.3674  155.7223 H   0  0  0  0  0  0  0  0  0  0  0  0
  150.8338  137.7409  153.4598 H   0  0  0  0  0  0  0  0  0  0  0  0
  150.4080  134.5913  154.7828 H   0  0  0  0  0  0  0  0  0  0  0  0
  148.4076  142.0375  154.2200 H   0  0  0  0  0  0  0  0  0  0  0  0
  152.7995  137.8274  156.4291 H   0  0  0  0  0  0  0  0  0  0  0  0
  148.6742  137.9396  155.1517 H   0  0  0  0  0  0  0  0  0  0  0  0
  148.7947  136.5682  154.0293 H   0  0  0  0  0  0  0  0  0  0  0  0
  149.7179  136.6301  156.9333 H   0  0  0  0  0  0  0  0  0  0  0  0
  148.6450  135.4375  156.1907 H   0  0  0  0  0  0  0  0  0  0  0  0
  152.5208  134.3466  156.2825 H   0  0  0  0  0  0  0  0  0  0  0  0
  151.7265  135.4061  157.4341 H   0  0  0  0  0  0  0  0  0  0  0  0
  149.9298  133.6613  156.9003 H   0  0  0  0  0  0  0  0  0  0  0  0
  1  2  2  0  0  0  0
  2  7  1  0  0  0  0
  2  3  1  0  0  0  0
  3 18  1  0  0  0  0
  3  4  1  0  0  0  0
  4  5  2  0  0  0  0
  4 21  1  0  0  0  0
  5  6  1  0  0  0  0
  6 10  1  0  0  0  0
  6  7  2  0  0  0  0
  7  8  1  0  0  0  0
  8  9  2  0  0  0  0
  9 10  1  0  0  0  0
  9 22  1  0  0  0  0
 10 11  1  0  0  0  0
 11 19  1  0  0  0  0
 11 17  1  0  0  0  0
 11 12  1  0  0  0  0
 12 13  1  0  0  0  0
 12 23  1  0  0  0  0
 12 24  1  0  0  0  0
 13 14  1  0  0  0  0
 13 25  1  0  0  0  0
 13 26  1  0  0  0  0
 14 20  1  0  0  0  0
 14 15  1  0  0  0  0
 14 17  1  0  0  0  0
 15 16  1  0  0  0  0
 15 27  1  0  0  0  0
 15 28  1  0  0  0  0
 16 29  1  0  0  0  0
M  END
> <s_m_source_file>
AV-unprocessed.smi

> <i_m_source_file_index>
44

> <i_lp_mmshare_version>
43012

> <i_f3d_flags>
0

> <s_epik_input>
bjFbY0hdW25IXWMoPU8pYyhjMTIpbltjSF1uMltDQEhdM1tDSDJdW0NIMl1bQ0BIXShPMylbQ0gyXVtPSF0=

> <s_epik_cmdline>
J2VwaWtfcHl0aG9uJywgJy1waCcsICc3LjAnLCAnLXRuJywgJzgnLCAnLW1hJywgJzIwMCcsICctbWV0YWxfYmluZGluZycsICctaW1hZScsICc8aW5maWxlLm1hZT4nLCAnLW9tYWUnLCAnPG91dGZpbGUubWFlPic=

> <r_lp_tautomer_probability>
0.85571

> <r_epik_Ionization_Penalty>
0.00801444

> <r_epik_Ionization_Penalty_Charging>
0.00794574

> <r_epik_Ionization_Penalty_Neutral>
6.87072e-05

> <r_epik_State_Penalty>
0.0826172

> <r_epik_Charging_Adjusted_Penalty>
0.090563

> <i_epik_Tot_Q>
0

> <i_epik_Tot_abs_Q>
0

> <r_epik_Metal_State_Penalty>
0.440697

> <b_epik_Metal_Only>
0

> <s_epik_Chemistry_Notes>
This compound contains an acetal/aminal-like group ( X-CH(R)-Y where X, Y are N, S, or O) that may be acid/base labile, releasing an aldehyde.

> <s_lp_Force_Field>
OPLS_2005

> <r_lp_Energy>
40.4283

> <b_lp_Chiralities_Consistent>
1

> <s_lp_Variant>
AV-unprocessed.smi:44-4

> <Gold.Version>
5.8.1

> <Gold.Id.Protein>
6NUR|6NUR_protein|mol2

> <Gold.PLP.Fitness>
34.8137

> <Gold.PLP.PLP>
-23.7430

> <Gold.PLP.part.hbond>
-4.0778

> <Gold.PLP.part.metal>
0.0000

> <Gold.PLP.part.buried>
-1.4034

> <Gold.PLP.part.nonpolar>
-20.0519

> <Gold.PLP.part.repulsive>
0.5052

> <Gold.PLP.ligand.clash>
0.0000

> <Gold.PLP.ligand.torsion>
0.0405

> <Gold.PLP.Chemscore.Hbond>
3.7113

> <Gold.PLP.Chemscore.CHOScore>
0.0000

> <Gold.PLP.Chemscore.Metal>
0.0000

> <Gold.Chemscore.Hbonds>
donor molecule, donor type, donor heavy atom, donor atom, acceptor molecule, acceptor atom, score
      L1  H     3    18       P1  8028  0.98
      P1  H  6896  6907       L1    16  0.72
      P1  H  7997  8008       L1     8  0.98
      P1  H 10752 10763       L1    17  1.00

> <Gold.PLP.Chemscore.Internal.Correction>
0.0179

> <Gold.Rescore>
     Score         DG    S(hbond)    S(metal)    S(lipo)     H(rot)  DE(clash)    DE(int)     intcor
     12.21     -14.01       3.57        0.00      20.82       2.27       1.75       0.05       ----

> <Gold.Chemscore.Fitness>
12.2066

> <Gold.Chemscore.DG>
-14.0078

> <Gold.Chemscore.ZeroCoef>
-5.4800

> <Gold.Chemscore.Hbond>
3.5654

> <Gold.Chemscore.Metal>
0.0000

> <Gold.Chemscore.Lipo>
20.8203

> <Gold.Chemscore.Internal_Hbond>
0.0000

> <Gold.Chemscore.DEClash>
1.7538

> <Gold.Chemscore.DEInternal>
0.0475

> <Gold.Chemscore.Rot>
2.2720

> <Gold.Chemscore.Internal.Correction>
   9.000000E+99

> <Gold.Chemscore.Hbonds>
donor molecule, donor type, donor heavy atom, donor atom, acceptor molecule, acceptor atom, score
      L1  H     3    18       P1  8028  0.92
      P1  H  6896  6907       L1    16  0.49
      P1  H  7997  8008       L1     8  0.23
      P1  H 10752 10763       L1    17  0.50

> <Gold.Chemscore.Hbond.Weighted>
-11.9083

> <Gold.Chemscore.Metal.Weighted>
-0.0000

> <Gold.Chemscore.Lipo.Weighted>
-2.4360

> <Gold.Chemscore.Internal_Hbond.Weighted>
0.0000

> <Gold.Chemscore.DEClash.Weighted>
1.7538

> <Gold.Chemscore.DEInternal.Weighted>
0.0475

> <Gold.Chemscore.Rot.Weighted>
5.8164

> <Gold.Chemscore.Internal.Correction.Weighted>
   9.000000E+99

> <Gold.Protein.RotatedTorsions>
[ 6907 6896 6895 6894 ] final -144.88 input  -60.11 | X-H torsion
[ 7974 7965 7964 7962 ] final   11.81 input  175.53 | X-H torsion
[ 8008 7997 7996 7995 ] final  -49.52 input   59.86 | X-H torsion
[ 10167 10162 10161 10158 ] final  122.84 input  -65.29 | X-H torsion
[ 10718 10713 10712 10709 ] final  -61.99 input   66.30 | X-H torsion
[ 10763 10752 10751 10750 ] final   53.81 input  -60.55 | X-H torsion
[ 11005 11000 10999 10996 ] final    4.19 input  -57.11 | X-H torsion

> <Gold.Protein.ActiveResidues>
 VAL166  LYS551  ARG553  GLY616  TRP617  ASP618  TYR619  PRO620  LYS621  CYS622 
 ASP623  PHE694  ASN695  SER759  ASP760  ASP761  ALA762  ILE779  LEU786  VAL792 
 PHE793  MET794  SER795  GLU796  ALA797  LYS798  CYS799  TRP800  GLU811  SER814 

> <Gold.Protein.RotatedAtoms>
  151.1201  133.5110  159.2602 H   0  0  0  0  0  0  0  0  0  0  0  0  # atno 6907 bound_to 6896
  151.1871  135.0386  159.8827 H   0  0  0  0  0  0  0  0  0  0  0  0  # atno 6908 bound_to 6896
  152.5455  134.1045  159.8385 H   0  0  0  0  0  0  0  0  0  0  0  0  # atno 6909 bound_to 6896
  146.2364  139.9430  142.8480 H   0  0  0  0  0  0  0  0  0  0  0  0  # atno 7974 bound_to 7965
  154.4045  140.1295  156.4515 H   0  0  0  0  0  0  0  0  0  0  0  0  # atno 8008 bound_to 7997
  155.7361  140.3490  155.5062 H   0  0  0  0  0  0  0  0  0  0  0  0  # atno 8009 bound_to 7997
  155.9082  140.1031  157.1289 H   0  0  0  0  0  0  0  0  0  0  0  0  # atno 8010 bound_to 7997
  139.5834  144.6996  151.3469 H   0  0  0  0  0  0  0  0  0  0  0  0  # atno 10167 bound_to 10162
  156.0885  130.4204  150.1071 H   0  0  0  0  0  0  0  0  0  0  0  0  # atno 10718 bound_to 10713
  152.9798  135.5766  154.4801 H   0  0  0  0  0  0  0  0  0  0  0  0  # atno 10763 bound_to 10752
  154.4351  135.2774  155.1888 H   0  0  0  0  0  0  0  0  0  0  0  0  # atno 10764 bound_to 10752
  154.3579  135.6195  153.5729 H   0  0  0  0  0  0  0  0  0  0  0  0  # atno 10765 bound_to 10752
  140.5847  133.9980  155.8063 H   0  0  0  0  0  0  0  0  0  0  0  0  # atno 11005 bound_to 11000
  145.1934  140.9822  143.4197 LP  0  0  0  0  0  0  0  0  0  0  0  0  # atno 17320 bound_to 7965
  144.9837  139.3758  143.6249 LP  0  0  0  0  0  0  0  0  0  0  0  0  # atno 17321 bound_to 7965
  140.7110  143.7391  150.7566 LP  0  0  0  0  0  0  0  0  0  0  0  0  # atno 17342 bound_to 10162
  140.0930  143.4860  152.2468 LP  0  0  0  0  0  0  0  0  0  0  0  0  # atno 17343 bound_to 10162
  156.9087  130.9644  151.3566 LP  0  0  0  0  0  0  0  0  0  0  0  0  # atno 17370 bound_to 10713
  157.6027  130.8524  149.8827 LP  0  0  0  0  0  0  0  0  0  0  0  0  # atno 17371 bound_to 10713
  141.0973  133.9823  157.3138 LP  0  0  0  0  0  0  0  0  0  0  0  0  # atno 17394 bound_to 11000
  139.9301  135.0200  156.8370 LP  0  0  0  0  0  0  0  0  0  0  0  0  # atno 17395 bound_to 11000

$$$$
