#       Name:                AV-unprocessed.smi:2198
#       Creating user name   scv26
#       Creation time:       Fri Mar 27 12:13:57 2020


#       File generated by GOLD software.
#

@<TRIPOS>MOLECULE
AV-unprocessed.smi:2198
    48    49     1
SMALL
NO_CHARGES


@<TRIPOS>ATOM
      1 ****        -6.5143  -1.7051  -0.3528 C.3            1 S1                 0.0000
      2 ****        -5.0030  -1.7148  -0.4411 C.2            1 S1                 0.0000
      3 ****        -4.3879  -0.6370  -0.7480 N.2            1 S1                 0.0000
      4 ****        -2.9854  -0.6415  -0.8352 C.2            1 S1                 0.0000
      5 ****        -2.3428   0.6823  -1.2116 C.3            1 S1                 0.0000
      6 ****        -2.2664  -1.7755  -0.5937 C.2            1 S1                 0.0000
      7 ****        -0.7419  -1.8348  -0.6829 C.3            1 S1                 0.0000
      8 ****         0.0066  -1.3133   0.5446 C.2            1 S1                 0.0000
      9 ****        -0.1385  -1.8639   1.6357 O.2            1 S1                 0.0000
     10 ****         0.8027  -0.2501   0.3532 N.am           1 S1                 0.0000
     11 ****         1.6005   0.4117   1.3835 C.3            1 S1                 0.0000
     12 ****         2.9221  -0.3420   1.6428 C.3            1 S1                 0.0000
     13 ****         3.8988  -0.2183   0.4614 C.3            1 S1                 0.0000
     14 ****         4.1619   1.2534   0.1069 C.3            1 S1                 0.0000
     15 ****         2.8523   2.0075  -0.1928 C.3            1 S1                 0.0000
     16 ****         3.1207   3.4787  -0.5404 C.3            1 S1                 0.0000
     17 ****         1.8692   1.8783   0.9904 C.3            1 S1                 0.0000
     18 ****        -3.0135  -2.9949  -0.2348 C.2            1 S1                 0.0000
     19 ****        -2.4151  -4.0420   0.0086 O.2            1 S1                 0.0000
     20 ****        -4.3736  -2.9114  -0.1823 N.pl3          1 S1                -1.0000
     21 ****        -6.9034  -0.6868  -0.3895 H              1 S1                 0.0000
     22 ****        -6.8447  -2.1617   0.5809 H              1 S1                 0.0000
     23 ****        -6.9429  -2.2667  -1.1831 H              1 S1                 0.0000
     24 ****        -1.7500   0.5788  -2.1205 H              1 S1                 0.0000
     25 ****        -1.6952   1.0354  -0.4093 H              1 S1                 0.0000
     26 ****        -3.0968   1.4493  -1.3922 H              1 S1                 0.0000
     27 ****        -0.4045  -2.8531  -0.8780 H              1 S1                 0.0000
     28 ****        -0.4252  -1.2742  -1.5628 H              1 S1                 0.0000
     29 ****         0.8576   0.1345  -0.5787 H              1 S1                 0.0000
     30 ****         1.0185   0.4183   2.3069 H              1 S1                 0.0000
     31 ****         3.3942   0.0659   2.5374 H              1 S1                 0.0000
     32 ****         2.7278  -1.3933   1.8587 H              1 S1                 0.0000
     33 ****         4.8385  -0.7144   0.7054 H              1 S1                 0.0000
     34 ****         3.4941  -0.7381  -0.4078 H              1 S1                 0.0000
     35 ****         4.6854   1.7370   0.9329 H              1 S1                 0.0000
     36 ****         4.8288   1.3069  -0.7544 H              1 S1                 0.0000
     37 ****         2.3932   1.5465  -1.0685 H              1 S1                 0.0000
     38 ****         3.5877   4.0047   0.2929 H              1 S1                 0.0000
     39 ****         2.1951   3.9996  -0.7863 H              1 S1                 0.0000
     40 ****         3.7842   3.5637  -1.4015 H              1 S1                 0.0000
     41 ****         0.9278   2.3758   0.7527 H              1 S1                 0.0000
     42 ****         2.2780   2.4050   1.8540 H              1 S1                 0.0000
     43 ****        -4.9009   0.2030  -0.9247 LP             1 S1                 0.0000
     44 ****        -0.7465  -2.6533   1.7205 LP             1 S1                 0.0000
     45 ****         0.3515  -1.5218   2.4375 LP             1 S1                 0.0000
     46 ****        -1.4165  -4.0693  -0.0364 LP             1 S1                 0.0000
     47 ****        -2.9274  -4.8658   0.2514 LP             1 S1                 0.0000
     48 ****        -4.9149  -3.7211   0.0446 LP             1 S1                 0.0000
@<TRIPOS>BOND
    1    1    2 1     
    2    1   21 1     
    3    1   22 1     
    4    1   23 1     
    5    2   20 1     
    6    2    3 2     
    7    3    4 1     
    8    4    5 1     
    9    4    6 2     
   10    5   24 1     
   11    5   25 1     
   12    5   26 1     
   13    6    7 1     
   14    6   18 1     
   15    7    8 1     
   16    7   27 1     
   17    7   28 1     
   18    8    9 2     
   19    8   10 am    
   20   10   11 1     
   21   10   29 1     
   22   11   17 1     
   23   11   12 1     
   24   11   30 1     
   25   12   13 1     
   26   12   31 1     
   27   12   32 1     
   28   13   14 1     
   29   13   33 1     
   30   13   34 1     
   31   14   15 1     
   32   14   35 1     
   33   14   36 1     
   34   15   16 1     
   35   15   17 1     
   36   15   37 1     
   37   16   38 1     
   38   16   39 1     
   39   16   40 1     
   40   17   41 1     
   41   17   42 1     
   42   18   19 2     
   43   18   20 1     
   44    3   43 1     
   45    9   44 1     
   46    9   45 1     
   47   19   46 1     
   48   19   47 1     
   49   20   48 1     
@<TRIPOS>SUBSTRUCTURE
      1 S1             1
@<TRIPOS>SET
LONE_PAIRS      STATIC     ATOMS    <user>   **** ""
6 43 44 45 46 47 48
DONOR_HYDROGENS      STATIC     ATOMS    <user>   **** ""
1 29
ATOM$BLUE        STATIC     ATOMS    COLORGROUP SYSTEM
6 43 44 45 46 47 48
ATOM$RED        STATIC     ATOMS    COLORGROUP SYSTEM
1 29
