AV-unprocessed.smi:1665|AV-procd|sdf|6669|dock9
  -GOLD-   22720 7383D 1   1.00000     0.00000
 Structure written by MMmdl.
 37 38  0  0  0  0  0  0  0  0  1 V2000
  149.7038  139.9904  154.6099 C   0  0  0  0  0  0  0  0  0  0  0  0
  148.5899  140.9621  155.0307 C   0  0  2  0  0  0  0  0  0  0  0  0
  147.9619  141.6596  153.8091 C   0  0  0  0  0  0  0  0  0  0  0  0
  146.7823  142.4327  154.1568 N   0  0  0  0  0  0  0  0  0  0  0  0
  145.9535  143.1528  153.3228 C   0  0  0  0  0  0  0  0  0  0  0  0
  144.9806  143.7111  154.1012 C   0  0  0  0  0  0  0  0  0  0  0  0
  145.3030  143.2685  155.4146 C   0  0  0  0  0  0  0  0  0  0  0  0
  146.3799  142.5010  155.4443 N   0  0  0  0  0  0  0  0  0  0  0  0
  149.1142  141.9591  155.9614 N   0  0  0  0  0  0  0  0  0  0  0  0
  149.8051  141.6913  157.0790 C   0  0  0  0  0  0  0  0  0  0  0  0
  150.1375  140.5545  157.4148 O   0  0  0  0  0  0  0  0  0  0  0  0
  150.1638  142.8911  157.9611 C   0  0  0  0  0  0  0  0  0  0  0  0
  151.6678  142.9705  158.3029 C   0  0  0  0  0  0  0  0  0  0  0  0
  151.9238  143.3347  159.6987 N   0  0  0  0  0  0  0  0  0  0  0  0
  152.8237  142.5207  160.5042 C   0  0  0  0  0  0  0  0  0  0  0  0
  152.6141  142.9175  161.9663 C   0  0  0  0  0  0  0  0  0  0  0  0
  151.9947  144.6118  161.9806 S   0  0  0  0  0  0  0  0  0  0  0  0
  151.4409  144.5015  160.2753 C   0  0  0  0  0  0  0  0  0  0  0  0
  150.7428  145.3687  159.7533 O   0  0  0  0  0  0  0  0  0  0  0  0
  149.3203  139.2261  153.9336 H   0  0  0  0  0  0  0  0  0  0  0  0
  150.1313  139.4778  155.4722 H   0  0  0  0  0  0  0  0  0  0  0  0
  150.5131  140.5123  154.0979 H   0  0  0  0  0  0  0  0  0  0  0  0
  147.8069  140.3880  155.5302 H   0  0  0  0  0  0  0  0  0  0  0  0
  148.6884  142.3134  153.3232 H   0  0  0  0  0  0  0  0  0  0  0  0
  147.6671  140.9179  153.0657 H   0  0  0  0  0  0  0  0  0  0  0  0
  146.1232  143.2063  152.2575 H   0  0  0  0  0  0  0  0  0  0  0  0
  144.1610  144.3375  153.7819 H   0  0  0  0  0  0  0  0  0  0  0  0
  144.7860  143.4751  156.3401 H   0  0  0  0  0  0  0  0  0  0  0  0
  148.8843  142.9235  155.7682 H   0  0  0  0  0  0  0  0  0  0  0  0
  149.8626  143.7986  157.4372 H   0  0  0  0  0  0  0  0  0  0  0  0
  149.5755  142.8629  158.8795 H   0  0  0  0  0  0  0  0  0  0  0  0
  152.1482  142.0163  158.0812 H   0  0  0  0  0  0  0  0  0  0  0  0
  152.1510  143.7011  157.6525 H   0  0  0  0  0  0  0  0  0  0  0  0
  152.6459  141.4552  160.3554 H   0  0  0  0  0  0  0  0  0  0  0  0
  153.8484  142.7327  160.1964 H   0  0  0  0  0  0  0  0  0  0  0  0
  151.8539  142.2793  162.4180 H   0  0  0  0  0  0  0  0  0  0  0  0
  153.5249  142.8222  162.5574 H   0  0  0  0  0  0  0  0  0  0  0  0
  1  2  1  0  0  0  0
  1 20  1  0  0  0  0
  1 21  1  0  0  0  0
  1 22  1  0  0  0  0
  2  3  1  0  0  0  0
  2  9  1  0  0  0  0
  2 23  1  0  0  0  0
  3  4  1  0  0  0  0
  3 24  1  0  0  0  0
  3 25  1  0  0  0  0
  4  8  1  0  0  0  0
  4  5  1  0  0  0  0
  5  6  2  0  0  0  0
  5 26  1  0  0  0  0
  6  7  1  0  0  0  0
  6 27  1  0  0  0  0
  7  8  2  0  0  0  0
  7 28  1  0  0  0  0
  9 10  1  0  0  0  0
  9 29  1  0  0  0  0
 10 11  2  0  0  0  0
 10 12  1  0  0  0  0
 12 13  1  0  0  0  0
 12 30  1  0  0  0  0
 12 31  1  0  0  0  0
 13 14  1  0  0  0  0
 13 32  1  0  0  0  0
 13 33  1  0  0  0  0
 14 18  1  0  0  0  0
 14 15  1  0  0  0  0
 15 16  1  0  0  0  0
 15 34  1  0  0  0  0
 15 35  1  0  0  0  0
 16 17  1  0  0  0  0
 16 36  1  0  0  0  0
 16 37  1  0  0  0  0
 17 18  1  0  0  0  0
 18 19  2  0  0  0  0
M  END
> <s_m_source_file>
AV-unprocessed.smi

> <i_m_source_file_index>
1665

> <i_lp_mmshare_version>
43012

> <i_f3d_flags>
0

> <s_epik_input>
bjFbY0hdW2NIXVtjSF1uMVtDSDJdW0NAQEhdKFtDSDNdKVtOSF1DKD1PKVtDSDJdW0NIMl1OMltDSDJdW0NIMl1TQzI9Tw==

> <s_epik_cmdline>
J2VwaWtfcHl0aG9uJywgJy1waCcsICc3LjAnLCAnLXRuJywgJzgnLCAnLW1hJywgJzIwMCcsICctbWV0YWxfYmluZGluZycsICctaW1hZScsICc8aW5maWxlLm1hZT4nLCAnLW9tYWUnLCAnPG91dGZpbGUubWFlPic=

> <r_lp_tautomer_probability>
1

> <r_epik_Ionization_Penalty>
0.000300775

> <r_epik_Ionization_Penalty_Charging>
0

> <r_epik_Ionization_Penalty_Neutral>
0.000300775

> <r_epik_State_Penalty>
-0

> <r_epik_Charging_Adjusted_Penalty>
0

> <i_epik_Tot_Q>
0

> <i_epik_Tot_abs_Q>
0

> <r_epik_Metal_State_Penalty>
-0

> <b_epik_Metal_Only>
0

> <s_lp_Force_Field>
OPLS_2005

> <r_lp_Energy>
0.465271

> <b_lp_Chiralities_Consistent>
1

> <s_lp_Variant>
AV-unprocessed.smi:1665-1

> <Gold.Version>
5.8.1

> <Gold.Id.Protein>
6NUR|6NUR_protein|mol2

> <Gold.PLP.Fitness>
48.0403

> <Gold.PLP.PLP>
-45.8741

> <Gold.PLP.part.hbond>
-1.0000

> <Gold.PLP.part.metal>
0.0000

> <Gold.PLP.part.buried>
-6.4241

> <Gold.PLP.part.nonpolar>
-37.2491

> <Gold.PLP.part.repulsive>
0.3791

> <Gold.PLP.ligand.clash>
0.0000

> <Gold.PLP.ligand.torsion>
0.4602

> <Gold.PLP.Chemscore.Hbond>
1.0000

> <Gold.PLP.Chemscore.CHOScore>
0.0000

> <Gold.PLP.Chemscore.Metal>
0.0000

> <Gold.Chemscore.Hbonds>
donor molecule, donor type, donor heavy atom, donor atom, acceptor molecule, acceptor atom, score
      L1  H     9    29       P1  8028  1.00

> <Gold.PLP.Chemscore.Internal.Correction>
0.0866

> <Gold.Rescore>
     Score         DG    S(hbond)    S(metal)    S(lipo)     H(rot)  DE(clash)    DE(int)     intcor
     11.00     -13.13       0.98        0.00      85.57       2.20       0.50       1.63       ----

> <Gold.Chemscore.Fitness>
10.9984

> <Gold.Chemscore.DG>
-13.1304

> <Gold.Chemscore.ZeroCoef>
-5.4800

> <Gold.Chemscore.Hbond>
0.9812

> <Gold.Chemscore.Metal>
0.0000

> <Gold.Chemscore.Lipo>
85.5705

> <Gold.Chemscore.Internal_Hbond>
0.0000

> <Gold.Chemscore.DEClash>
0.5003

> <Gold.Chemscore.DEInternal>
1.6316

> <Gold.Chemscore.Rot>
2.2026

> <Gold.Chemscore.Internal.Correction>
   9.000000E+99

> <Gold.Chemscore.Hbonds>
donor molecule, donor type, donor heavy atom, donor atom, acceptor molecule, acceptor atom, score
      L1  H     9    29       P1  8028  1.00

> <Gold.Chemscore.Hbond.Weighted>
-3.2773

> <Gold.Chemscore.Metal.Weighted>
-0.0000

> <Gold.Chemscore.Lipo.Weighted>
-10.0117

> <Gold.Chemscore.Internal_Hbond.Weighted>
0.0000

> <Gold.Chemscore.DEClash.Weighted>
0.5003

> <Gold.Chemscore.DEInternal.Weighted>
1.6316

> <Gold.Chemscore.Rot.Weighted>
5.6387

> <Gold.Chemscore.Internal.Correction.Weighted>
   9.000000E+99

> <Gold.Protein.RotatedTorsions>
[ 6907 6896 6895 6894 ] final   -1.49 input  -60.11 | X-H torsion
[ 7974 7965 7964 7962 ] final   58.80 input  175.53 | X-H torsion
[ 8008 7997 7996 7995 ] final -117.86 input   59.86 | X-H torsion
[ 10167 10162 10161 10158 ] final -139.46 input  -65.29 | X-H torsion
[ 10718 10713 10712 10709 ] final  -47.46 input   66.30 | X-H torsion
[ 10763 10752 10751 10750 ] final  120.93 input  -60.55 | X-H torsion
[ 11005 11000 10999 10996 ] final   97.29 input  -57.11 | X-H torsion

> <Gold.Protein.ActiveResidues>
 VAL166  LYS551  ARG553  GLY616  TRP617  ASP618  TYR619  PRO620  LYS621  CYS622 
 ASP623  PHE694  ASN695  SER759  ASP760  ASP761  ALA762  ILE779  LEU786  VAL792 
 PHE793  MET794  SER795  GLU796  ALA797  LYS798  CYS799  TRP800  GLU811  SER814 

> <Gold.Protein.RotatedAtoms>
  151.5453  135.1068  159.9936 H   0  0  0  0  0  0  0  0  0  0  0  0  # atno 6907 bound_to 6896
  152.4517  133.7637  159.6771 H   0  0  0  0  0  0  0  0  0  0  0  0  # atno 6908 bound_to 6896
  150.8447  133.7814  159.3072 H   0  0  0  0  0  0  0  0  0  0  0  0  # atno 6909 bound_to 6896
  145.9142  139.3678  143.0517 H   0  0  0  0  0  0  0  0  0  0  0  0  # atno 7974 bound_to 7965
  155.0904  140.0395  157.2667 H   0  0  0  0  0  0  0  0  0  0  0  0  # atno 8008 bound_to 7997
  154.6836  140.2638  155.6858 H   0  0  0  0  0  0  0  0  0  0  0  0  # atno 8009 bound_to 7997
  156.2704  140.2773  156.1389 H   0  0  0  0  0  0  0  0  0  0  0  0  # atno 8010 bound_to 7997
  139.8377  143.7363  152.2664 H   0  0  0  0  0  0  0  0  0  0  0  0  # atno 10167 bound_to 10162
  156.2082  130.4159  149.9149 H   0  0  0  0  0  0  0  0  0  0  0  0  # atno 10718 bound_to 10713
  153.6062  135.3439  155.2963 H   0  0  0  0  0  0  0  0  0  0  0  0  # atno 10763 bound_to 10752
  154.8627  135.4239  154.2359 H   0  0  0  0  0  0  0  0  0  0  0  0  # atno 10764 bound_to 10752
  153.3199  135.7037  153.7112 H   0  0  0  0  0  0  0  0  0  0  0  0  # atno 10765 bound_to 10752
  139.8777  134.8993  156.4285 H   0  0  0  0  0  0  0  0  0  0  0  0  # atno 11005 bound_to 11000
  145.8633  140.9463  143.0689 LP  0  0  0  0  0  0  0  0  0  0  0  0  # atno 17320 bound_to 7965
  144.6746  140.0559  143.7477 LP  0  0  0  0  0  0  0  0  0  0  0  0  # atno 17321 bound_to 7965
  139.7590  144.7512  151.0392 LP  0  0  0  0  0  0  0  0  0  0  0  0  # atno 17342 bound_to 10162
  140.7801  143.4772  151.0066 LP  0  0  0  0  0  0  0  0  0  0  0  0  # atno 17343 bound_to 10162
  156.6836  130.8868  151.3579 LP  0  0  0  0  0  0  0  0  0  0  0  0  # atno 17370 bound_to 10713
  157.7024  130.9348  150.0826 LP  0  0  0  0  0  0  0  0  0  0  0  0  # atno 17371 bound_to 10713
  140.9084  133.7729  155.9762 LP  0  0  0  0  0  0  0  0  0  0  0  0  # atno 17394 bound_to 11000
  140.8574  134.2882  157.5249 LP  0  0  0  0  0  0  0  0  0  0  0  0  # atno 17395 bound_to 11000

$$$$
