AV-unprocessed.smi:2745|AV-procd|sdf|10570|dock4
  -GOLD-   2272015 23D 1   1.00000     0.00000
 Structure written by MMmdl.
 19 19  0  0  0  0  0  0  0  0  2 V2000
  143.4105  133.6986  148.0219 N   0  3  0  0  0  0  0  0  0  0  0  0
  144.0219  132.5469  148.7062 C   0  0  0  0  0  0  0  0  0  0  0  0
  143.6474  132.5157  150.1947 C   0  0  0  0  0  0  0  0  0  0  0  0
  144.7313  133.0787  151.0632 C   0  0  0  0  0  0  0  0  0  0  0  0
  144.6393  134.1668  151.8970 C   0  0  0  0  0  0  0  0  0  0  0  0
  146.1380  134.4784  152.7313 S   0  0  0  0  0  0  0  0  0  0  0  0
  146.8399  133.0993  151.8996 C   0  0  0  0  0  0  0  0  0  0  0  0
  148.1544  132.7193  152.1065 N   0  0  0  0  0  0  0  0  0  0  0  0
  145.9949  132.4785  151.0752 N   0  0  0  0  0  0  0  0  0  0  0  0
  142.8421  134.2163  148.6770 H   0  0  0  0  0  0  0  0  0  0  0  0
  142.8317  133.3709  147.2617 H   0  0  0  0  0  0  0  0  0  0  0  0
  143.6938  131.6314  148.2130 H   0  0  0  0  0  0  0  0  0  0  0  0
  145.1043  132.6067  148.5878 H   0  0  0  0  0  0  0  0  0  0  0  0
  142.7235  133.0747  150.3501 H   0  0  0  0  0  0  0  0  0  0  0  0
  143.4291  131.4894  150.4933 H   0  0  0  0  0  0  0  0  0  0  0  0
  143.7845  134.8031  152.0718 H   0  0  0  0  0  0  0  0  0  0  0  0
  148.7543  133.2233  152.7435 H   0  0  0  0  0  0  0  0  0  0  0  0
  148.5337  131.8840  151.6840 H   0  0  0  0  0  0  0  0  0  0  0  0
  144.1357  134.3000  147.6578 H   0  0  0  0  0  0  0  0  0  0  0  0
  1  2  1  0  0  0  0
  1 10  1  0  0  0  0
  1 11  1  0  0  0  0
  1 19  1  0  0  0  0
  2  3  1  0  0  0  0
  2 12  1  0  0  0  0
  2 13  1  0  0  0  0
  3  4  1  0  0  0  0
  3 14  1  0  0  0  0
  3 15  1  0  0  0  0
  4  9  1  0  0  0  0
  4  5  2  0  0  0  0
  5  6  1  0  0  0  0
  5 16  1  0  0  0  0
  6  7  1  0  0  0  0
  7  8  1  0  0  0  0
  7  9  2  0  0  0  0
  8 17  1  0  0  0  0
  8 18  1  0  0  0  0
M  CHG  1   1   1
M  END
> <s_m_source_file>
AV-unprocessed.smi

> <i_m_source_file_index>
2745

> <i_lp_mmshare_version>
43012

> <i_f3d_flags>
0

> <s_epik_input>
W05IMl1bQ0gyXVtDSDJdYzFbY0hdc2MobjEpW05IMl0=

> <s_epik_cmdline>
J2VwaWtfcHl0aG9uJywgJy1waCcsICc3LjAnLCAnLXRuJywgJzgnLCAnLW1hJywgJzIwMCcsICctbWV0YWxfYmluZGluZycsICctaW1hZScsICc8aW5maWxlLm1hZT4nLCAnLW9tYWUnLCAnPG91dGZpbGUubWFlPic=

> <r_lp_tautomer_probability>
1

> <r_epik_Ionization_Penalty>
0.00283573

> <r_epik_Ionization_Penalty_Charging>
0.00199846

> <r_epik_Ionization_Penalty_Neutral>
0.000837263

> <r_epik_State_Penalty>
-0

> <r_epik_Charging_Adjusted_Penalty>
0.00199846

> <i_epik_Tot_Q>
1

> <i_epik_Tot_abs_Q>
1

> <r_epik_Metal_State_Penalty>
-0

> <b_epik_Metal_Only>
0

> <s_lp_Force_Field>
OPLS_2005

> <r_lp_Energy>
-1.00424

> <b_lp_Chiralities_Consistent>
1

> <s_lp_Variant>
AV-unprocessed.smi:2745-1

> <Gold.Version>
5.8.1

> <Gold.Id.Protein>
6NUR|6NUR_protein|mol2

> <Gold.PLP.Fitness>
34.2465

> <Gold.PLP.PLP>
-19.8200

> <Gold.PLP.part.hbond>
-4.0000

> <Gold.PLP.part.metal>
0.0000

> <Gold.PLP.part.buried>
-4.2537

> <Gold.PLP.part.nonpolar>
-12.9062

> <Gold.PLP.part.repulsive>
0.3422

> <Gold.PLP.ligand.clash>
0.0000

> <Gold.PLP.ligand.torsion>
0.2748

> <Gold.PLP.Chemscore.Hbond>
4.9920

> <Gold.PLP.Chemscore.CHOScore>
0.0000

> <Gold.PLP.Chemscore.Metal>
0.0000

> <Gold.Chemscore.Hbonds>
donor molecule, donor type, donor heavy atom, donor atom, acceptor molecule, acceptor atom, score
      L1  H     1    10       P1 10186  1.86
      L1  H     1    11       P1 10195  1.00
      L1  H     1    19       P1  7921  0.97
      L1  H     8    18       P1 10747  1.00

> <Gold.PLP.Chemscore.Internal.Correction>
0.0001

> <Gold.Rescore>
     Score         DG    S(hbond)    S(metal)    S(lipo)     H(rot)  DE(clash)    DE(int)     intcor
     18.79     -19.09       3.83        0.00      39.50       1.49       0.00       0.30       ----

> <Gold.Chemscore.Fitness>
18.7921

> <Gold.Chemscore.DG>
-19.0941

> <Gold.Chemscore.ZeroCoef>
-5.4800

> <Gold.Chemscore.Hbond>
3.8311

> <Gold.Chemscore.Metal>
0.0000

> <Gold.Chemscore.Lipo>
39.5047

> <Gold.Chemscore.Internal_Hbond>
0.0000

> <Gold.Chemscore.DEClash>
0.0048

> <Gold.Chemscore.DEInternal>
0.2972

> <Gold.Chemscore.Rot>
1.4859

> <Gold.Chemscore.Internal.Correction>
   9.000000E+99

> <Gold.Chemscore.Hbonds>
donor molecule, donor type, donor heavy atom, donor atom, acceptor molecule, acceptor atom, score
      L1  H     1    10       P1 10186  0.84
      L1  H     1    11       P1 10195  0.94
      L1  H     1    19       P1  7921  0.86
      L1  H     8    18       P1 10747  0.98

> <Gold.Chemscore.Hbond.Weighted>
-12.7960

> <Gold.Chemscore.Metal.Weighted>
-0.0000

> <Gold.Chemscore.Lipo.Weighted>
-4.6221

> <Gold.Chemscore.Internal_Hbond.Weighted>
0.0000

> <Gold.Chemscore.DEClash.Weighted>
0.0048

> <Gold.Chemscore.DEInternal.Weighted>
0.2972

> <Gold.Chemscore.Rot.Weighted>
3.8039

> <Gold.Chemscore.Internal.Correction.Weighted>
   9.000000E+99

> <Gold.Protein.RotatedTorsions>
[ 6907 6896 6895 6894 ] final   21.68 input  -60.11 | X-H torsion
[ 7974 7965 7964 7962 ] final  -70.89 input  175.53 | X-H torsion
[ 8008 7997 7996 7995 ] final  115.38 input   59.86 | X-H torsion
[ 10167 10162 10161 10158 ] final -140.64 input  -65.29 | X-H torsion
[ 10718 10713 10712 10709 ] final  -71.06 input   66.30 | X-H torsion
[ 10763 10752 10751 10750 ] final   93.53 input  -60.55 | X-H torsion
[ 11005 11000 10999 10996 ] final   62.84 input  -57.11 | X-H torsion

> <Gold.Protein.ActiveResidues>
 VAL166  LYS551  ARG553  GLY616  TRP617  ASP618  TYR619  PRO620  LYS621  CYS622 
 ASP623  PHE694  ASN695  SER759  ASP760  ASP761  ALA762  ILE779  LEU786  VAL792 
 PHE793  MET794  SER795  GLU796  ALA797  LYS798  CYS799  TRP800  GLU811  SER814 

> <Gold.Protein.RotatedAtoms>
  151.9156  135.0320  160.0517 H   0  0  0  0  0  0  0  0  0  0  0  0  # atno 6907 bound_to 6896
  152.2243  133.5003  159.5188 H   0  0  0  0  0  0  0  0  0  0  0  0  # atno 6908 bound_to 6896
  150.7008  134.1218  159.4080 H   0  0  0  0  0  0  0  0  0  0  0  0  # atno 6909 bound_to 6896
  145.6852  140.9173  143.0811 H   0  0  0  0  0  0  0  0  0  0  0  0  # atno 7974 bound_to 7965
  156.2378  140.2940  156.0360 H   0  0  0  0  0  0  0  0  0  0  0  0  # atno 8008 bound_to 7997
  155.2041  140.0410  157.2939 H   0  0  0  0  0  0  0  0  0  0  0  0  # atno 8009 bound_to 7997
  154.6111  140.2452  155.7675 H   0  0  0  0  0  0  0  0  0  0  0  0  # atno 8010 bound_to 7997
  139.8262  143.7508  152.2666 H   0  0  0  0  0  0  0  0  0  0  0  0  # atno 10167 bound_to 10162
  156.0379  130.4344  150.2388 H   0  0  0  0  0  0  0  0  0  0  0  0  # atno 10718 bound_to 10713
  153.2314  135.4322  155.0599 H   0  0  0  0  0  0  0  0  0  0  0  0  # atno 10763 bound_to 10752
  154.8298  135.3380  154.6782 H   0  0  0  0  0  0  0  0  0  0  0  0  # atno 10764 bound_to 10752
  153.7209  135.7017  153.5069 H   0  0  0  0  0  0  0  0  0  0  0  0  # atno 10765 bound_to 10752
  140.0065  134.6361  155.9847 H   0  0  0  0  0  0  0  0  0  0  0  0  # atno 11005 bound_to 11000
  144.7013  139.8749  143.7443 LP  0  0  0  0  0  0  0  0  0  0  0  0  # atno 17320 bound_to 7965
  146.0930  139.3921  143.0394 LP  0  0  0  0  0  0  0  0  0  0  0  0  # atno 17321 bound_to 7965
  139.7701  144.7479  151.0236 LP  0  0  0  0  0  0  0  0  0  0  0  0  # atno 17342 bound_to 10162
  140.7810  143.4654  151.0219 LP  0  0  0  0  0  0  0  0  0  0  0  0  # atno 17343 bound_to 10162
  157.0486  131.0056  151.3261 LP  0  0  0  0  0  0  0  0  0  0  0  0  # atno 17370 bound_to 10713
  157.5157  130.7966  149.7753 LP  0  0  0  0  0  0  0  0  0  0  0  0  # atno 17371 bound_to 10713
  141.1680  133.6537  156.4550 LP  0  0  0  0  0  0  0  0  0  0  0  0  # atno 17394 bound_to 11000
  140.4632  134.6822  157.5095 LP  0  0  0  0  0  0  0  0  0  0  0  0  # atno 17395 bound_to 11000

$$$$
