AV-unprocessed.smi:3050|AV-procd|sdf|11631|dock7
  -GOLD-   2272017 23D 1   1.00000     0.00000
 Structure written by MMmdl.
 45 46  0  0  0  0  0  0  0  0  1 V2000
  152.4146  139.4911  155.6694 C   0  0  0  0  0  0  0  0  0  0  0  0
  151.0202  140.0278  155.3224 C   0  0  0  0  0  0  0  0  0  0  0  0
  150.6201  141.2461  156.1759 C   0  0  2  0  0  0  0  0  0  0  0  0
  151.4061  141.2210  157.3670 O   0  0  0  0  0  0  0  0  0  0  0  0
  151.3553  142.3854  158.1864 C   0  0  0  0  0  0  0  0  0  0  0  0
  151.7584  143.6165  157.3772 C   0  0  0  0  0  0  0  0  0  0  0  0
  152.1963  144.6405  158.4281 C   0  0  0  0  0  0  0  0  0  0  0  0
  152.6767  143.8260  159.6397 C   0  0  0  0  0  0  0  0  0  0  0  0
  152.3960  142.3549  159.3091 C   0  0  0  0  0  0  0  0  0  0  0  0
  149.1209  141.2222  156.5167 C   0  0  0  0  0  0  0  0  0  0  0  0
  148.5424  140.1516  156.7035 O   0  0  0  0  0  0  0  0  0  0  0  0
  148.5112  142.4143  156.6085 N   0  0  0  0  0  0  0  0  0  0  0  0
  147.1031  142.6162  156.9277 C   0  0  0  0  0  0  0  0  0  0  0  0
  146.1860  142.1107  155.8025 C   0  0  0  0  0  0  0  0  0  0  0  0
  145.8085  143.2191  154.8608 C   0  0  0  0  0  0  0  0  0  0  0  0
  144.8532  144.2545  155.0697 C   0  0  0  0  0  0  0  0  0  0  0  0
  144.7526  145.0772  154.0385 N   0  0  0  0  0  0  0  0  0  0  0  0
  145.6363  144.5982  153.1391 N   0  0  0  0  0  0  0  0  0  0  0  0
  145.7929  145.2690  151.8664 C   0  0  0  0  0  0  0  0  0  0  0  0
  146.2887  143.4784  153.6081 C   0  0  0  0  0  0  0  0  0  0  0  0
  152.6698  138.6387  155.0396 H   0  0  0  0  0  0  0  0  0  0  0  0
  152.4647  139.1626  156.7078 H   0  0  0  0  0  0  0  0  0  0  0  0
  153.1786  140.2547  155.5218 H   0  0  0  0  0  0  0  0  0  0  0  0
  151.0054  140.2979  154.2655 H   0  0  0  0  0  0  0  0  0  0  0  0
  150.2876  139.2287  155.4451 H   0  0  0  0  0  0  0  0  0  0  0  0
  150.8489  142.1528  155.6117 H   0  0  0  0  0  0  0  0  0  0  0  0
  150.3592  142.5542  158.6002 H   0  0  0  0  0  0  0  0  0  0  0  0
  152.6048  143.3732  156.7332 H   0  0  0  0  0  0  0  0  0  0  0  0
  150.9524  143.9830  156.7406 H   0  0  0  0  0  0  0  0  0  0  0  0
  152.9706  145.3058  158.0451 H   0  0  0  0  0  0  0  0  0  0  0  0
  151.3468  145.2601  158.7177 H   0  0  0  0  0  0  0  0  0  0  0  0
  153.7372  143.9852  159.8383 H   0  0  0  0  0  0  0  0  0  0  0  0
  152.1291  144.1287  160.5332 H   0  0  0  0  0  0  0  0  0  0  0  0
  152.0637  141.7906  160.1793 H   0  0  0  0  0  0  0  0  0  0  0  0
  153.3109  141.8860  158.9445 H   0  0  0  0  0  0  0  0  0  0  0  0
  149.0650  143.2423  156.4442 H   0  0  0  0  0  0  0  0  0  0  0  0
  146.8893  142.0764  157.8506 H   0  0  0  0  0  0  0  0  0  0  0  0
  146.9129  143.6712  157.1332 H   0  0  0  0  0  0  0  0  0  0  0  0
  146.6864  141.3100  155.2569 H   0  0  0  0  0  0  0  0  0  0  0  0
  145.2939  141.6597  156.2386 H   0  0  0  0  0  0  0  0  0  0  0  0
  144.2327  144.4297  155.9362 H   0  0  0  0  0  0  0  0  0  0  0  0
  146.4721  144.7042  151.2271 H   0  0  0  0  0  0  0  0  0  0  0  0
  146.2015  146.2675  152.0242 H   0  0  0  0  0  0  0  0  0  0  0  0
  144.8258  145.3511  151.3695 H   0  0  0  0  0  0  0  0  0  0  0  0
  147.0320  142.9627  153.0181 H   0  0  0  0  0  0  0  0  0  0  0  0
  1  2  1  0  0  0  0
  1 21  1  0  0  0  0
  1 22  1  0  0  0  0
  1 23  1  0  0  0  0
  2  3  1  0  0  0  0
  2 24  1  0  0  0  0
  2 25  1  0  0  0  0
  3  4  1  0  0  0  0
  3 10  1  0  0  0  0
  3 26  1  0  0  0  0
  4  5  1  0  0  0  0
  5  9  1  0  0  0  0
  5  6  1  0  0  0  0
  5 27  1  0  0  0  0
  6  7  1  0  0  0  0
  6 28  1  0  0  0  0
  6 29  1  0  0  0  0
  7  8  1  0  0  0  0
  7 30  1  0  0  0  0
  7 31  1  0  0  0  0
  8  9  1  0  0  0  0
  8 32  1  0  0  0  0
  8 33  1  0  0  0  0
  9 34  1  0  0  0  0
  9 35  1  0  0  0  0
 10 11  2  0  0  0  0
 10 12  1  0  0  0  0
 12 13  1  0  0  0  0
 12 36  1  0  0  0  0
 13 14  1  0  0  0  0
 13 37  1  0  0  0  0
 13 38  1  0  0  0  0
 14 15  1  0  0  0  0
 14 39  1  0  0  0  0
 14 40  1  0  0  0  0
 15 20  2  0  0  0  0
 15 16  1  0  0  0  0
 16 17  2  0  0  0  0
 16 41  1  0  0  0  0
 17 18  1  0  0  0  0
 18 19  1  0  0  0  0
 18 20  1  0  0  0  0
 19 42  1  0  0  0  0
 19 43  1  0  0  0  0
 19 44  1  0  0  0  0
 20 45  1  0  0  0  0
M  END
> <s_m_source_file>
AV-unprocessed.smi

> <i_m_source_file_index>
3050

> <i_lp_mmshare_version>
43012

> <i_f3d_flags>
0

> <s_epik_input>
W0NIMl0xW0NIMl1bQ0gyXVtDSDJdW0NIXTFPW0NAQEhdKFtDSDJdW0NIM10pQyg9TylbTkhdW0NIMl1bQ0gyXWMyW2NIXW5uKFtDSDNdKVtjSF0y

> <s_epik_cmdline>
J2VwaWtfcHl0aG9uJywgJy1waCcsICc3LjAnLCAnLXRuJywgJzgnLCAnLW1hJywgJzIwMCcsICctbWV0YWxfYmluZGluZycsICctaW1hZScsICc8aW5maWxlLm1hZT4nLCAnLW9tYWUnLCAnPG91dGZpbGUubWFlPic=

> <r_lp_tautomer_probability>
1

> <r_epik_Ionization_Penalty>
0.000440265

> <r_epik_Ionization_Penalty_Charging>
0

> <r_epik_Ionization_Penalty_Neutral>
0.000440265

> <r_epik_State_Penalty>
-0

> <r_epik_Charging_Adjusted_Penalty>
0

> <i_epik_Tot_Q>
0

> <i_epik_Tot_abs_Q>
0

> <r_epik_Metal_State_Penalty>
-0

> <b_epik_Metal_Only>
0

> <s_lp_Force_Field>
OPLS_2005

> <r_lp_Energy>
20.5357

> <b_lp_Chiralities_Consistent>
1

> <s_lp_Variant>
AV-unprocessed.smi:3050-1

> <Gold.Version>
5.8.1

> <Gold.Id.Protein>
6NUR|6NUR_protein|mol2

> <Gold.PLP.Fitness>
44.0487

> <Gold.PLP.PLP>
-44.7445

> <Gold.PLP.part.hbond>
-1.0000

> <Gold.PLP.part.metal>
0.0000

> <Gold.PLP.part.buried>
-2.9328

> <Gold.PLP.part.nonpolar>
-39.9062

> <Gold.PLP.part.repulsive>
0.1517

> <Gold.PLP.ligand.clash>
0.0000

> <Gold.PLP.ligand.torsion>
1.7915

> <Gold.PLP.Chemscore.Hbond>
0.9120

> <Gold.PLP.Chemscore.CHOScore>
0.0000

> <Gold.PLP.Chemscore.Metal>
0.0000

> <Gold.Chemscore.Hbonds>
donor molecule, donor type, donor heavy atom, donor atom, acceptor molecule, acceptor atom, score
      L1  H    12    36       P1  8028  0.75

> <Gold.PLP.Chemscore.Internal.Correction>
0.1511

> <Gold.Rescore>
     Score         DG    S(hbond)    S(metal)    S(lipo)     H(rot)  DE(clash)    DE(int)     intcor
     13.70     -16.82       0.90        0.00     111.29       1.83       1.31       1.81       ----

> <Gold.Chemscore.Fitness>
13.7019

> <Gold.Chemscore.DG>
-16.8167

> <Gold.Chemscore.ZeroCoef>
-5.4800

> <Gold.Chemscore.Hbond>
0.8972

> <Gold.Chemscore.Metal>
0.0000

> <Gold.Chemscore.Lipo>
111.2922

> <Gold.Chemscore.Internal_Hbond>
0.0000

> <Gold.Chemscore.DEClash>
1.3097

> <Gold.Chemscore.DEInternal>
1.8050

> <Gold.Chemscore.Rot>
1.8286

> <Gold.Chemscore.Internal.Correction>
   9.000000E+99

> <Gold.Chemscore.Hbonds>
donor molecule, donor type, donor heavy atom, donor atom, acceptor molecule, acceptor atom, score
      L1  H    12    36       P1  8028  0.73

> <Gold.Chemscore.Hbond.Weighted>
-2.9966

> <Gold.Chemscore.Metal.Weighted>
-0.0000

> <Gold.Chemscore.Lipo.Weighted>
-13.0212

> <Gold.Chemscore.Internal_Hbond.Weighted>
0.0000

> <Gold.Chemscore.DEClash.Weighted>
1.3097

> <Gold.Chemscore.DEInternal.Weighted>
1.8050

> <Gold.Chemscore.Rot.Weighted>
4.6811

> <Gold.Chemscore.Internal.Correction.Weighted>
   9.000000E+99

> <Gold.Protein.RotatedTorsions>
[ 6907 6896 6895 6894 ] final  -10.46 input  -60.11 | X-H torsion
[ 7974 7965 7964 7962 ] final  126.63 input  175.53 | X-H torsion
[ 8008 7997 7996 7995 ] final  142.03 input   59.86 | X-H torsion
[ 10167 10162 10161 10158 ] final   65.28 input  -65.29 | X-H torsion
[ 10718 10713 10712 10709 ] final   93.99 input   66.30 | X-H torsion
[ 10763 10752 10751 10750 ] final   95.49 input  -60.55 | X-H torsion
[ 11005 11000 10999 10996 ] final -127.39 input  -57.11 | X-H torsion

> <Gold.Protein.ActiveResidues>
 VAL166  LYS551  ARG553  GLY616  TRP617  ASP618  TYR619  PRO620  LYS621  CYS622 
 ASP623  PHE694  ASN695  SER759  ASP760  ASP761  ALA762  ILE779  LEU786  VAL792 
 PHE793  MET794  SER795  GLU796  ALA797  LYS798  CYS799  TRP800  GLU811  SER814 

> <Gold.Protein.RotatedAtoms>
  151.4016  135.0972  159.9557 H   0  0  0  0  0  0  0  0  0  0  0  0  # atno 6907 bound_to 6896
  152.5048  133.8883  159.7391 H   0  0  0  0  0  0  0  0  0  0  0  0  # atno 6908 bound_to 6896
  150.9358  133.6657  159.2829 H   0  0  0  0  0  0  0  0  0  0  0  0  # atno 6909 bound_to 6896
  145.0596  139.3816  143.5012 H   0  0  0  0  0  0  0  0  0  0  0  0  # atno 7974 bound_to 7965
  156.2956  140.2299  156.4662 H   0  0  0  0  0  0  0  0  0  0  0  0  # atno 8008 bound_to 7997
  154.7975  140.0450  157.1269 H   0  0  0  0  0  0  0  0  0  0  0  0  # atno 8009 bound_to 7997
  154.9572  140.3049  155.5051 H   0  0  0  0  0  0  0  0  0  0  0  0  # atno 8010 bound_to 7997
  140.1131  144.4800  150.6966 H   0  0  0  0  0  0  0  0  0  0  0  0  # atno 10167 bound_to 10162
  157.6951  131.0497  150.4119 H   0  0  0  0  0  0  0  0  0  0  0  0  # atno 10718 bound_to 10713
  153.2538  135.4252  155.0824 H   0  0  0  0  0  0  0  0  0  0  0  0  # atno 10763 bound_to 10752
  154.8392  135.3432  154.6475 H   0  0  0  0  0  0  0  0  0  0  0  0  # atno 10764 bound_to 10752
  153.6896  135.7034  153.5151 H   0  0  0  0  0  0  0  0  0  0  0  0  # atno 10765 bound_to 10752
  140.9603  134.0945  157.3975 H   0  0  0  0  0  0  0  0  0  0  0  0  # atno 11005 bound_to 11000
  146.3523  140.0288  142.8652 LP  0  0  0  0  0  0  0  0  0  0  0  0  # atno 17320 bound_to 7965
  145.1425  140.9579  143.4480 LP  0  0  0  0  0  0  0  0  0  0  0  0  # atno 17321 bound_to 7965
  140.6915  143.2378  151.5119 LP  0  0  0  0  0  0  0  0  0  0  0  0  # atno 17342 bound_to 10162
  139.5609  144.2160  152.1689 LP  0  0  0  0  0  0  0  0  0  0  0  0  # atno 17343 bound_to 10162
  156.4502  130.4010  149.6641 LP  0  0  0  0  0  0  0  0  0  0  0  0  # atno 17370 bound_to 10713
  156.3793  130.7571  151.2562 LP  0  0  0  0  0  0  0  0  0  0  0  0  # atno 17371 bound_to 10713
  139.8876  135.0091  156.6570 LP  0  0  0  0  0  0  0  0  0  0  0  0  # atno 17394 bound_to 11000
  140.7476  133.8924  155.8323 LP  0  0  0  0  0  0  0  0  0  0  0  0  # atno 17395 bound_to 11000

$$$$
