AV-unprocessed.smi:2880|AV-procd|sdf|11054|dock6
  -GOLD-   2272015523D 1   1.00000     0.00000
 Structure written by MMmdl.
 47 48  0  0  0  0  0  0  0  0  1 V2000
  150.5733  140.3084  155.5157 C   0  0  0  0  0  0  0  0  0  0  0  0
  149.8990  139.0006  155.0567 C   0  0  0  0  0  0  0  0  0  0  0  0
  150.9084  138.2068  154.1935 C   0  0  0  0  0  0  0  0  0  0  0  0
  149.5282  138.1467  156.2847 C   0  0  0  0  0  0  0  0  0  0  0  0
  148.6729  139.3296  154.3172 N   0  0  0  0  0  0  0  0  0  0  0  0
  148.1762  140.5858  154.0119 C   0  0  0  0  0  0  0  0  0  0  0  0
  147.0118  140.4248  153.3168 C   0  0  0  0  0  0  0  0  0  0  0  0
  146.8697  139.0136  153.2445 C   0  0  0  0  0  0  0  0  0  0  0  0
  145.7611  138.4298  152.5804 N   0  0  0  0  0  0  0  0  0  0  0  0
  145.5078  137.1222  152.4012 C   0  0  0  0  0  0  0  0  0  0  0  0
  146.2058  136.2005  152.8257 O   0  0  0  0  0  0  0  0  0  0  0  0
  144.3878  136.9418  151.6851 N   0  0  0  0  0  0  0  0  0  0  0  0
  143.8330  135.6550  151.2668 C   0  0  1  0  0  0  0  0  0  0  0  0
  144.8533  134.9571  150.3454 C   0  0  0  0  0  0  0  0  0  0  0  0
  144.3564  133.5787  149.8887 C   0  0  0  0  0  0  0  0  0  0  0  0
  144.0187  132.6947  151.0955 C   0  0  0  0  0  0  0  0  0  0  0  0
  142.9925  133.3807  152.0095 C   0  0  0  0  0  0  0  0  0  0  0  0
  143.4733  134.7669  152.4914 C   0  0  2  0  0  0  0  0  0  0  0  0
  142.4091  135.3964  153.4204 C   0  0  0  0  0  0  0  0  0  0  0  0
  141.8897  134.4582  154.3407 O   0  0  0  0  0  0  0  0  0  0  0  0
  147.8550  138.3597  153.8412 N   0  0  0  0  0  0  0  0  0  0  0  0
  151.4953  140.1075  156.0622 H   0  0  0  0  0  0  0  0  0  0  0  0
  149.9270  140.8891  156.1745 H   0  0  0  0  0  0  0  0  0  0  0  0
  150.8278  140.9406  154.6641 H   0  0  0  0  0  0  0  0  0  0  0  0
  151.2135  138.7698  153.3106 H   0  0  0  0  0  0  0  0  0  0  0  0
  150.4914  137.2570  153.8558 H   0  0  0  0  0  0  0  0  0  0  0  0
  151.8135  137.9777  154.7573 H   0  0  0  0  0  0  0  0  0  0  0  0
  150.4140  137.8713  156.8579 H   0  0  0  0  0  0  0  0  0  0  0  0
  149.0294  137.2234  155.9873 H   0  0  0  0  0  0  0  0  0  0  0  0
  148.8578  138.6785  156.9606 H   0  0  0  0  0  0  0  0  0  0  0  0
  148.6895  141.4871  154.3121 H   0  0  0  0  0  0  0  0  0  0  0  0
  146.3665  141.1959  152.9234 H   0  0  0  0  0  0  0  0  0  0  0  0
  145.0989  139.0780  152.1803 H   0  0  0  0  0  0  0  0  0  0  0  0
  143.8890  137.7643  151.3794 H   0  0  0  0  0  0  0  0  0  0  0  0
  142.9207  135.8125  150.6882 H   0  0  0  0  0  0  0  0  0  0  0  0
  145.0547  135.5790  149.4721 H   0  0  0  0  0  0  0  0  0  0  0  0
  145.8043  134.8420  150.8678 H   0  0  0  0  0  0  0  0  0  0  0  0
  143.4728  133.6962  149.2599 H   0  0  0  0  0  0  0  0  0  0  0  0
  145.1137  133.0944  149.2719 H   0  0  0  0  0  0  0  0  0  0  0  0
  143.6313  131.7336  150.7560 H   0  0  0  0  0  0  0  0  0  0  0  0
  144.9269  132.4802  151.6601 H   0  0  0  0  0  0  0  0  0  0  0  0
  142.0462  133.4853  151.4769 H   0  0  0  0  0  0  0  0  0  0  0  0
  142.7926  132.7366  152.8666 H   0  0  0  0  0  0  0  0  0  0  0  0
  144.3787  134.6023  153.0784 H   0  0  0  0  0  0  0  0  0  0  0  0
  142.8204  136.2502  153.9599 H   0  0  0  0  0  0  0  0  0  0  0  0
  141.5657  135.7674  152.8374 H   0  0  0  0  0  0  0  0  0  0  0  0
  142.3564  133.6433  154.2335 H   0  0  0  0  0  0  0  0  0  0  0  0
  1  2  1  0  0  0  0
  1 22  1  0  0  0  0
  1 23  1  0  0  0  0
  1 24  1  0  0  0  0
  2  3  1  0  0  0  0
  2  4  1  0  0  0  0
  2  5  1  0  0  0  0
  3 25  1  0  0  0  0
  3 26  1  0  0  0  0
  3 27  1  0  0  0  0
  4 28  1  0  0  0  0
  4 29  1  0  0  0  0
  4 30  1  0  0  0  0
  5 21  1  0  0  0  0
  5  6  1  0  0  0  0
  6  7  2  0  0  0  0
  6 31  1  0  0  0  0
  7  8  1  0  0  0  0
  7 32  1  0  0  0  0
  8  9  1  0  0  0  0
  8 21  2  0  0  0  0
  9 10  1  0  0  0  0
  9 33  1  0  0  0  0
 10 11  2  0  0  0  0
 10 12  1  0  0  0  0
 12 13  1  0  0  0  0
 12 34  1  0  0  0  0
 13 18  1  0  0  0  0
 13 14  1  0  0  0  0
 13 35  1  0  0  0  0
 14 15  1  0  0  0  0
 14 36  1  0  0  0  0
 14 37  1  0  0  0  0
 15 16  1  0  0  0  0
 15 38  1  0  0  0  0
 15 39  1  0  0  0  0
 16 17  1  0  0  0  0
 16 40  1  0  0  0  0
 16 41  1  0  0  0  0
 17 18  1  0  0  0  0
 17 42  1  0  0  0  0
 17 43  1  0  0  0  0
 18 19  1  0  0  0  0
 18 44  1  0  0  0  0
 19 20  1  0  0  0  0
 19 45  1  0  0  0  0
 19 46  1  0  0  0  0
 20 47  1  0  0  0  0
M  END
> <s_m_source_file>
AV-unprocessed.smi

> <i_m_source_file_index>
2880

> <i_lp_mmshare_version>
43012

> <i_f3d_flags>
0

> <s_epik_input>
W0NIM11DKFtDSDNdKShbQ0gzXSluMVtjSF1bY0hdYyhuMSlbTkhdQyg9TylbTkhdW0NAQEhdMltDSDJdW0NIMl1bQ0gyXVtDSDJdW0NASF0yW0NIMl1bT0hd

> <s_epik_cmdline>
J2VwaWtfcHl0aG9uJywgJy1waCcsICc3LjAnLCAnLXRuJywgJzgnLCAnLW1hJywgJzIwMCcsICctbWV0YWxfYmluZGluZycsICctaW1hZScsICc8aW5maWxlLm1hZT4nLCAnLW9tYWUnLCAnPG91dGZpbGUubWFlPic=

> <r_lp_tautomer_probability>
1

> <r_epik_Ionization_Penalty>
3.89283e-05

> <r_epik_Ionization_Penalty_Charging>
0

> <r_epik_Ionization_Penalty_Neutral>
3.89283e-05

> <r_epik_State_Penalty>
-0

> <r_epik_Charging_Adjusted_Penalty>
0

> <i_epik_Tot_Q>
0

> <i_epik_Tot_abs_Q>
0

> <r_epik_Metal_State_Penalty>
-0

> <b_epik_Metal_Only>
0

> <s_lp_Force_Field>
OPLS_2005

> <r_lp_Energy>
21.9333

> <b_lp_Chiralities_Consistent>
1

> <s_lp_Variant>
AV-unprocessed.smi:2880-4

> <Gold.Version>
5.8.1

> <Gold.Id.Protein>
6NUR|6NUR_protein|mol2

> <Gold.PLP.Fitness>
46.5011

> <Gold.PLP.PLP>
-35.9435

> <Gold.PLP.part.hbond>
-4.0000

> <Gold.PLP.part.metal>
0.0000

> <Gold.PLP.part.buried>
-3.6496

> <Gold.PLP.part.nonpolar>
-31.2434

> <Gold.PLP.part.repulsive>
1.9677

> <Gold.PLP.ligand.clash>
0.0000

> <Gold.PLP.ligand.torsion>
0.1279

> <Gold.PLP.Chemscore.Hbond>
3.6000

> <Gold.PLP.Chemscore.CHOScore>
0.0000

> <Gold.PLP.Chemscore.Metal>
0.0000

> <Gold.Chemscore.Hbonds>
donor molecule, donor type, donor heavy atom, donor atom, acceptor molecule, acceptor atom, score
      L1  H     9    33       P1 10175  0.99
      L1  H    12    34       P1 10171  0.62
      L1  H    20    47       P1 10957  0.98
      P1  H 11000 11005       L1    20  0.98

> <Gold.PLP.Chemscore.Internal.Correction>
0.0133

> <Gold.Rescore>
     Score         DG    S(hbond)    S(metal)    S(lipo)     H(rot)  DE(clash)    DE(int)     intcor
     17.82     -20.01       3.11        0.00      78.45       1.97       0.11       2.07       ----

> <Gold.Chemscore.Fitness>
17.8236

> <Gold.Chemscore.DG>
-20.0121

> <Gold.Chemscore.ZeroCoef>
-5.4800

> <Gold.Chemscore.Hbond>
3.1108

> <Gold.Chemscore.Metal>
0.0000

> <Gold.Chemscore.Lipo>
78.4450

> <Gold.Chemscore.Internal_Hbond>
0.0000

> <Gold.Chemscore.DEClash>
0.1136

> <Gold.Chemscore.DEInternal>
2.0748

> <Gold.Chemscore.Rot>
1.9672

> <Gold.Chemscore.Internal.Correction>
   9.000000E+99

> <Gold.Chemscore.Hbonds>
donor molecule, donor type, donor heavy atom, donor atom, acceptor molecule, acceptor atom, score
      L1  H     9    33       P1 10175  0.90
      L1  H    12    34       P1 10171  0.64
      L1  H    20    47       P1 10957  0.92
      P1  H 11000 11005       L1    20  0.28

> <Gold.Chemscore.Hbond.Weighted>
-10.3901

> <Gold.Chemscore.Metal.Weighted>
-0.0000

> <Gold.Chemscore.Lipo.Weighted>
-9.1781

> <Gold.Chemscore.Internal_Hbond.Weighted>
0.0000

> <Gold.Chemscore.DEClash.Weighted>
0.1136

> <Gold.Chemscore.DEInternal.Weighted>
2.0748

> <Gold.Chemscore.Rot.Weighted>
5.0360

> <Gold.Chemscore.Internal.Correction.Weighted>
   9.000000E+99

> <Gold.Protein.RotatedTorsions>
[ 6907 6896 6895 6894 ] final  -30.85 input  -60.11 | X-H torsion
[ 7974 7965 7964 7962 ] final -137.36 input  175.53 | X-H torsion
[ 8008 7997 7996 7995 ] final  111.97 input   59.86 | X-H torsion
[ 10167 10162 10161 10158 ] final -147.43 input  -65.29 | X-H torsion
[ 10718 10713 10712 10709 ] final  -15.61 input   66.30 | X-H torsion
[ 10763 10752 10751 10750 ] final  153.23 input  -60.55 | X-H torsion
[ 11005 11000 10999 10996 ] final    1.69 input  -57.11 | X-H torsion

> <Gold.Protein.ActiveResidues>
 VAL166  LYS551  ARG553  GLY616  TRP617  ASP618  TYR619  PRO620  LYS621  CYS622 
 ASP623  PHE694  ASN695  SER759  ASP760  ASP761  ALA762  ILE779  LEU786  VAL792 
 PHE793  MET794  SER795  GLU796  ALA797  LYS798  CYS799  TRP800  GLU811  SER814 

> <Gold.Protein.RotatedAtoms>
  151.1000  134.9967  159.8443 H   0  0  0  0  0  0  0  0  0  0  0  0  # atno 6907 bound_to 6896
  152.5436  134.1962  159.8703 H   0  0  0  0  0  0  0  0  0  0  0  0  # atno 6908 bound_to 6896
  151.2004  133.4570  159.2629 H   0  0  0  0  0  0  0  0  0  0  0  0  # atno 6909 bound_to 6896
  144.8848  140.6559  143.5183 H   0  0  0  0  0  0  0  0  0  0  0  0  # atno 7974 bound_to 7965
  156.2160  140.3009  155.9841 H   0  0  0  0  0  0  0  0  0  0  0  0  # atno 8008 bound_to 7997
  155.2604  140.0429  157.3014 H   0  0  0  0  0  0  0  0  0  0  0  0  # atno 8009 bound_to 7997
  154.5769  140.2364  155.8118 H   0  0  0  0  0  0  0  0  0  0  0  0  # atno 8010 bound_to 7997
  139.7623  143.8359  152.2609 H   0  0  0  0  0  0  0  0  0  0  0  0  # atno 10167 bound_to 10162
  156.5992  130.4819  149.6246 H   0  0  0  0  0  0  0  0  0  0  0  0  # atno 10718 bound_to 10713
  154.1329  135.2825  155.3180 H   0  0  0  0  0  0  0  0  0  0  0  0  # atno 10763 bound_to 10752
  154.6343  135.5424  153.7719 H   0  0  0  0  0  0  0  0  0  0  0  0  # atno 10764 bound_to 10752
  153.0275  135.6470  154.1478 H   0  0  0  0  0  0  0  0  0  0  0  0  # atno 10765 bound_to 10752
  140.6126  133.9734  155.8185 H   0  0  0  0  0  0  0  0  0  0  0  0  # atno 11005 bound_to 11000
  145.3889  139.1621  143.4240 LP  0  0  0  0  0  0  0  0  0  0  0  0  # atno 17320 bound_to 7965
  146.3017  140.3976  142.8701 LP  0  0  0  0  0  0  0  0  0  0  0  0  # atno 17321 bound_to 7965
  139.8368  144.7228  150.9380 LP  0  0  0  0  0  0  0  0  0  0  0  0  # atno 17342 bound_to 10162
  140.7808  143.4019  151.1135 LP  0  0  0  0  0  0  0  0  0  0  0  0  # atno 17343 bound_to 10162
  156.2483  130.6892  151.1621 LP  0  0  0  0  0  0  0  0  0  0  0  0  # atno 17370 bound_to 10713
  157.7284  131.0632  150.5823 LP  0  0  0  0  0  0  0  0  0  0  0  0  # atno 17371 bound_to 10713
  141.0797  134.0081  157.3404 LP  0  0  0  0  0  0  0  0  0  0  0  0  # atno 17394 bound_to 11000
  139.9186  135.0199  156.7976 LP  0  0  0  0  0  0  0  0  0  0  0  0  # atno 17395 bound_to 11000

$$$$
