AV-unprocessed.smi:17|AV-procd|sdf|106|dock6
  -GOLD-   2262015263D 1   1.00000     0.00000
 Structure written by MMmdl.
 57 59  0  0  0  0  0  0  0  0  1 V2000
  146.2007  135.2087  162.7214 C   0  0  0  0  0  0  0  0  0  0  0  0
  147.7239  135.2732  162.5202 C   0  0  0  0  0  0  0  0  0  0  0  0
  148.1469  134.9633  161.1524 N   0  0  0  0  0  0  0  0  0  0  0  0
  147.9270  135.9457  160.2407 C   0  0  0  0  0  0  0  0  0  0  0  0
  146.6397  136.1988  159.8962 N   0  0  0  0  0  0  0  0  0  0  0  0
  146.3559  137.1407  158.9929 C   0  0  0  0  0  0  0  0  0  0  0  0
  147.1944  137.9321  158.3219 N   0  0  0  0  0  0  0  0  0  0  0  0
  148.4917  137.6817  158.6605 C   0  0  0  0  0  0  0  0  0  0  0  0
  148.9445  136.7091  159.5966 C   0  0  0  0  0  0  0  0  0  0  0  0
  150.3322  136.7371  159.6671 N   0  0  0  0  0  0  0  0  0  0  0  0
  150.6780  137.6709  158.8249 C   0  0  0  0  0  0  0  0  0  0  0  0
  149.6352  138.3040  158.1870 N   0  0  0  0  0  0  0  0  0  0  0  0
  149.7313  139.3762  157.2063 C   0  0  0  0  0  0  0  0  0  0  0  0
  151.1013  140.1086  157.1874 C   0  0  1  0  0  0  0  0  0  0  0  0
  151.4001  140.7575  155.8154 C   0  0  0  0  0  0  0  0  0  0  0  0
  151.2265  139.8281  154.7667 O   0  0  0  0  0  0  0  0  0  0  0  0
  151.2390  141.1422  158.3365 C   0  0  1  0  0  0  0  0  0  0  0  0
  152.6555  141.6364  158.5798 C   0  0  0  0  0  0  0  0  0  0  0  0
  152.4209  142.9103  159.3831 C   0  0  0  0  0  0  0  0  0  0  0  0
  151.1880  143.4391  158.9098 O   0  0  0  0  0  0  0  0  0  0  0  0
  150.5298  142.4788  158.0898 C   0  0  0  0  0  0  0  0  0  0  0  0
  147.9115  133.5850  160.6928 C   0  0  1  0  0  0  0  0  0  0  0  0
  148.2865  132.5252  161.7466 C   0  0  0  0  0  0  0  0  0  0  0  0
  146.4904  133.3444  160.1382 C   0  0  0  0  0  0  0  0  0  0  0  0
  146.3291  131.6711  159.3736 S   0  0  0  0  0  0  0  0  0  0  0  0
  144.6007  131.7095  158.7483 C   0  0  0  0  0  0  0  0  0  0  0  0
  147.2371  131.5813  158.2204 O   0  0  0  0  0  0  0  0  0  0  0  0
  146.4160  130.6641  160.4421 O   0  0  0  0  0  0  0  0  0  0  0  0
  145.9347  135.5212  163.7311 H   0  0  0  0  0  0  0  0  0  0  0  0
  145.8114  134.2002  162.5799 H   0  0  0  0  0  0  0  0  0  0  0  0
  145.6853  135.8697  162.0237 H   0  0  0  0  0  0  0  0  0  0  0  0
  148.0577  136.2828  162.7614 H   0  0  0  0  0  0  0  0  0  0  0  0
  148.2229  134.6157  163.2312 H   0  0  0  0  0  0  0  0  0  0  0  0
  145.3068  137.2788  158.7769 H   0  0  0  0  0  0  0  0  0  0  0  0
  151.7127  137.9250  158.6512 H   0  0  0  0  0  0  0  0  0  0  0  0
  149.5076  138.9596  156.2241 H   0  0  0  0  0  0  0  0  0  0  0  0
  148.9299  140.0889  157.4035 H   0  0  0  0  0  0  0  0  0  0  0  0
  151.8656  139.3476  157.3527 H   0  0  0  0  0  0  0  0  0  0  0  0
  150.7707  141.6302  155.6406 H   0  0  0  0  0  0  0  0  0  0  0  0
  152.4326  141.1006  155.7633 H   0  0  0  0  0  0  0  0  0  0  0  0
  150.7192  139.0997  155.0924 H   0  0  0  0  0  0  0  0  0  0  0  0
  150.8488  140.7206  159.2637 H   0  0  0  0  0  0  0  0  0  0  0  0
  153.2852  140.9237  159.1112 H   0  0  0  0  0  0  0  0  0  0  0  0
  153.1418  141.8781  157.6335 H   0  0  0  0  0  0  0  0  0  0  0  0
  152.3151  142.6772  160.4433 H   0  0  0  0  0  0  0  0  0  0  0  0
  153.2329  143.6290  159.2723 H   0  0  0  0  0  0  0  0  0  0  0  0
  150.6369  142.7882  157.0493 H   0  0  0  0  0  0  0  0  0  0  0  0
  149.4655  142.4370  158.3214 H   0  0  0  0  0  0  0  0  0  0  0  0
  148.5928  133.4245  159.8566 H   0  0  0  0  0  0  0  0  0  0  0  0
  148.2239  131.5213  161.3259 H   0  0  0  0  0  0  0  0  0  0  0  0
  147.6179  132.5573  162.6071 H   0  0  0  0  0  0  0  0  0  0  0  0
  149.3069  132.6597  162.1058 H   0  0  0  0  0  0  0  0  0  0  0  0
  145.7668  133.3819  160.9525 H   0  0  0  0  0  0  0  0  0  0  0  0
  146.1851  134.1007  159.4163 H   0  0  0  0  0  0  0  0  0  0  0  0
  144.3687  130.7583  158.2701 H   0  0  0  0  0  0  0  0  0  0  0  0
  144.4931  132.5153  158.0226 H   0  0  0  0  0  0  0  0  0  0  0  0
  143.9147  131.8727  159.5790 H   0  0  0  0  0  0  0  0  0  0  0  0
  1  2  1  0  0  0  0
  1 29  1  0  0  0  0
  1 30  1  0  0  0  0
  1 31  1  0  0  0  0
  2  3  1  0  0  0  0
  2 32  1  0  0  0  0
  2 33  1  0  0  0  0
  3  4  1  0  0  0  0
  3 22  1  0  0  0  0
  4  9  1  0  0  0  0
  4  5  2  0  0  0  0
  5  6  1  0  0  0  0
  6  7  2  0  0  0  0
  6 34  1  0  0  0  0
  7  8  1  0  0  0  0
  8 12  1  0  0  0  0
  8  9  2  0  0  0  0
  9 10  1  0  0  0  0
 10 11  2  0  0  0  0
 11 12  1  0  0  0  0
 11 35  1  0  0  0  0
 12 13  1  0  0  0  0
 13 14  1  0  0  0  0
 13 36  1  0  0  0  0
 13 37  1  0  0  0  0
 14 15  1  0  0  0  0
 14 17  1  0  0  0  0
 14 38  1  0  0  0  0
 15 16  1  0  0  0  0
 15 39  1  0  0  0  0
 15 40  1  0  0  0  0
 16 41  1  0  0  0  0
 17 21  1  0  0  0  0
 17 18  1  0  0  0  0
 17 42  1  0  0  0  0
 18 19  1  0  0  0  0
 18 43  1  0  0  0  0
 18 44  1  0  0  0  0
 19 20  1  0  0  0  0
 19 45  1  0  0  0  0
 19 46  1  0  0  0  0
 20 21  1  0  0  0  0
 21 47  1  0  0  0  0
 21 48  1  0  0  0  0
 22 23  1  0  0  0  0
 22 24  1  0  0  0  0
 22 49  1  0  0  0  0
 23 50  1  0  0  0  0
 23 51  1  0  0  0  0
 23 52  1  0  0  0  0
 24 25  1  0  0  0  0
 24 53  1  0  0  0  0
 24 54  1  0  0  0  0
 25 26  1  0  0  0  0
 25 27  2  0  0  0  0
 25 28  2  0  0  0  0
 26 55  1  0  0  0  0
 26 56  1  0  0  0  0
 26 57  1  0  0  0  0
M  END
> <s_m_source_file>
AV-unprocessed.smi

> <i_m_source_file_index>
17

> <i_lp_mmshare_version>
43012

> <i_f3d_flags>
0

> <s_epik_input>
W0NIM11TKD1PKSg9TylbQ0gyXVtDQEBIXShbQ0gzXSlOKFtDSDJdW0NIM10pYyhuW2NIXW4xKWMoYzEyKW5bY0hdbjJbQ0gyXVtDQEhdKFtDSDJdW09IXSlbQ0BASF0zW0NIMl1bQ0gyXU9bQ0gyXTM=

> <s_epik_cmdline>
J2VwaWtfcHl0aG9uJywgJy1waCcsICc3LjAnLCAnLXRuJywgJzgnLCAnLW1hJywgJzIwMCcsICctbWV0YWxfYmluZGluZycsICctaW1hZScsICc8aW5maWxlLm1hZT4nLCAnLW9tYWUnLCAnPG91dGZpbGUubWFlPic=

> <r_lp_tautomer_probability>
1

> <r_epik_Ionization_Penalty>
0.00119955

> <r_epik_Ionization_Penalty_Charging>
0

> <r_epik_Ionization_Penalty_Neutral>
0.00119955

> <r_epik_State_Penalty>
0.000665399

> <r_epik_Charging_Adjusted_Penalty>
0.000665399

> <i_epik_Tot_Q>
0

> <i_epik_Tot_abs_Q>
0

> <r_epik_Metal_State_Penalty>
-0

> <b_epik_Metal_Only>
0

> <s_lp_Force_Field>
OPLS_2005

> <r_lp_Energy>
32.9267

> <b_lp_Chiralities_Consistent>
1

> <s_lp_Variant>
AV-unprocessed.smi:17-8

> <Gold.Version>
5.8.1

> <Gold.Id.Protein>
6NUR|6NUR_protein|mol2

> <Gold.PLP.Fitness>
43.1789

> <Gold.PLP.PLP>
-38.2041

> <Gold.PLP.part.hbond>
-2.6414

> <Gold.PLP.part.metal>
0.0000

> <Gold.PLP.part.buried>
-7.1642

> <Gold.PLP.part.nonpolar>
-28.1667

> <Gold.PLP.part.repulsive>
0.0126

> <Gold.PLP.ligand.clash>
0.0000

> <Gold.PLP.ligand.torsion>
1.2046

> <Gold.PLP.Chemscore.Hbond>
2.0000

> <Gold.PLP.Chemscore.CHOScore>
0.0000

> <Gold.PLP.Chemscore.Metal>
0.0000

> <Gold.Chemscore.Hbonds>
donor molecule, donor type, donor heavy atom, donor atom, acceptor molecule, acceptor atom, score
      P1  H  6896  6908       L1    10  1.00
      P1  H  7989  7998       L1    16  0.85

> <Gold.PLP.Chemscore.Internal.Correction>
1.3840

> <Gold.Rescore>
     Score         DG    S(hbond)    S(metal)    S(lipo)     H(rot)  DE(clash)    DE(int)     intcor
      8.10     -12.03       1.93        0.00      83.89       3.79       0.01       3.92       ----

> <Gold.Chemscore.Fitness>
8.0957

> <Gold.Chemscore.DG>
-12.0306

> <Gold.Chemscore.ZeroCoef>
-5.4800

> <Gold.Chemscore.Hbond>
1.9270

> <Gold.Chemscore.Metal>
0.0000

> <Gold.Chemscore.Lipo>
83.8917

> <Gold.Chemscore.Internal_Hbond>
0.0000

> <Gold.Chemscore.DEClash>
0.0126

> <Gold.Chemscore.DEInternal>
3.9223

> <Gold.Chemscore.Rot>
3.7894

> <Gold.Chemscore.Internal.Correction>
   9.000000E+99

> <Gold.Chemscore.Hbonds>
donor molecule, donor type, donor heavy atom, donor atom, acceptor molecule, acceptor atom, score
      P1  H  6896  6908       L1    10  0.70
      P1  H  7989  7998       L1    16  0.15

> <Gold.Chemscore.Hbond.Weighted>
-6.4362

> <Gold.Chemscore.Metal.Weighted>
-0.0000

> <Gold.Chemscore.Lipo.Weighted>
-9.8153

> <Gold.Chemscore.Internal_Hbond.Weighted>
0.0000

> <Gold.Chemscore.DEClash.Weighted>
0.0126

> <Gold.Chemscore.DEInternal.Weighted>
3.9223

> <Gold.Chemscore.Rot.Weighted>
9.7010

> <Gold.Chemscore.Internal.Correction.Weighted>
   9.000000E+99

> <Gold.Protein.RotatedTorsions>
[ 6907 6896 6895 6894 ] final -159.34 input  -60.11 | X-H torsion
[ 7974 7965 7964 7962 ] final -174.71 input  175.53 | X-H torsion
[ 8008 7997 7996 7995 ] final -151.22 input   59.86 | X-H torsion
[ 10167 10162 10161 10158 ] final  -58.81 input  -65.29 | X-H torsion
[ 10718 10713 10712 10709 ] final    7.11 input   66.30 | X-H torsion
[ 10763 10752 10751 10750 ] final   20.48 input  -60.55 | X-H torsion
[ 11005 11000 10999 10996 ] final -118.84 input  -57.11 | X-H torsion

> <Gold.Protein.ActiveResidues>
 VAL166  LYS551  ARG553  GLY616  TRP617  ASP618  TYR619  PRO620  LYS621  CYS622 
 ASP623  PHE694  ASN695  SER759  ASP760  ASP761  ALA762  ILE779  LEU786  VAL792 
 PHE793  MET794  SER795  GLU796  ALA797  LYS798  CYS799  TRP800  GLU811  SER814 

> <Gold.Protein.RotatedAtoms>
  151.3321  133.3996  159.2663 H   0  0  0  0  0  0  0  0  0  0  0  0  # atno 6907 bound_to 6896
  150.9947  134.9274  159.7930 H   0  0  0  0  0  0  0  0  0  0  0  0  # atno 6908 bound_to 6896
  152.5258  134.3286  159.9227 H   0  0  0  0  0  0  0  0  0  0  0  0  # atno 6909 bound_to 6896
  144.7131  140.1430  143.6390 H   0  0  0  0  0  0  0  0  0  0  0  0  # atno 7974 bound_to 7965
  155.6359  140.0696  157.2634 H   0  0  0  0  0  0  0  0  0  0  0  0  # atno 8008 bound_to 7997
  154.4195  140.1759  156.1571 H   0  0  0  0  0  0  0  0  0  0  0  0  # atno 8009 bound_to 7997
  155.9895  140.3346  155.6742 H   0  0  0  0  0  0  0  0  0  0  0  0  # atno 8010 bound_to 7997
  140.6174  143.2407  151.5564 H   0  0  0  0  0  0  0  0  0  0  0  0  # atno 10167 bound_to 10162
  156.9321  130.5830  149.5650 H   0  0  0  0  0  0  0  0  0  0  0  0  # atno 10718 bound_to 10713
  153.1073  135.6688  153.9563 H   0  0  0  0  0  0  0  0  0  0  0  0  # atno 10763 bound_to 10752
  153.9116  135.3024  155.3450 H   0  0  0  0  0  0  0  0  0  0  0  0  # atno 10764 bound_to 10752
  154.7494  135.5042  153.9339 H   0  0  0  0  0  0  0  0  0  0  0  0  # atno 10765 bound_to 10752
  141.0257  134.0057  157.3217 H   0  0  0  0  0  0  0  0  0  0  0  0  # atno 11005 bound_to 11000
  145.9185  139.2530  143.1395 LP  0  0  0  0  0  0  0  0  0  0  0  0  # atno 17320 bound_to 7965
  145.9645  140.8810  143.0194 LP  0  0  0  0  0  0  0  0  0  0  0  0  # atno 17321 bound_to 7965
  139.5410  144.2648  152.1350 LP  0  0  0  0  0  0  0  0  0  0  0  0  # atno 17342 bound_to 10162
  140.1860  144.4798  150.6503 LP  0  0  0  0  0  0  0  0  0  0  0  0  # atno 17343 bound_to 10162
  156.0442  130.5521  150.8843 LP  0  0  0  0  0  0  0  0  0  0  0  0  # atno 17370 bound_to 10713
  157.5840  131.0946  150.9226 LP  0  0  0  0  0  0  0  0  0  0  0  0  # atno 17371 bound_to 10713
  139.9175  135.0198  156.7936 LP  0  0  0  0  0  0  0  0  0  0  0  0  # atno 17394 bound_to 11000
  140.6495  133.9745  155.7748 LP  0  0  0  0  0  0  0  0  0  0  0  0  # atno 17395 bound_to 11000

$$$$
