AV-unprocessed.smi:1779|AV-procd|sdf|7181|dock3
  -GOLD-   22720 8423D 1   1.00000     0.00000
 Structure written by MMmdl.
 47 48  0  0  0  0  0  0  0  0  2 V2000
  151.0200  142.1304  156.4960 C   0  0  0  0  0  0  0  0  0  0  0  0
  150.6826  140.9379  155.6505 C   0  0  0  0  0  0  0  0  0  0  0  0
  149.4507  140.6451  154.9961 C   0  0  0  0  0  0  0  0  0  0  0  0
  149.7128  139.4512  154.3815 C   0  0  0  0  0  0  0  0  0  0  0  0
  148.8978  138.6965  153.5978 N   0  0  0  0  0  0  0  0  0  0  0  0
  147.5545  138.6903  153.5465 C   0  0  0  0  0  0  0  0  0  0  0  0
  146.8094  139.3870  154.2357 O   0  0  0  0  0  0  0  0  0  0  0  0
  147.1086  137.8018  152.6470 N   0  0  0  0  0  0  0  0  0  0  0  0
  145.7057  137.5415  152.3391 C   0  0  0  0  0  0  0  0  0  0  0  0
  145.4425  136.0490  152.0573 C   0  0  2  0  0  0  0  0  0  0  0  0
  146.4401  135.3026  152.7249 O   0  0  0  0  0  0  0  0  0  0  0  0
  145.4753  135.6869  150.5564 C   0  0  0  0  0  0  0  0  0  0  0  0
  145.1123  134.2682  150.3070 N   0  3  0  0  0  0  0  0  0  0  0  0
  143.9374  133.8362  151.1082 C   0  0  0  0  0  0  0  0  0  0  0  0
  143.4960  132.4128  150.7266 C   0  0  0  0  0  0  0  0  0  0  0  0
  144.6544  131.4181  150.8770 C   0  0  0  0  0  0  0  0  0  0  0  0
  145.8657  131.9007  150.0689 C   0  0  0  0  0  0  0  0  0  0  0  0
  146.2583  133.3329  150.4680 C   0  0  0  0  0  0  0  0  0  0  0  0
  151.0101  139.0826  154.6596 N   0  0  0  0  0  0  0  0  0  0  0  0
  151.7466  137.9091  154.2324 C   0  0  0  0  0  0  0  0  0  0  0  0
  151.6051  140.0040  155.4472 N   0  0  0  0  0  0  0  0  0  0  0  0
  150.1960  142.8438  156.5185 H   0  0  0  0  0  0  0  0  0  0  0  0
  151.8974  142.6503  156.1102 H   0  0  0  0  0  0  0  0  0  0  0  0
  151.2312  141.8351  157.5241 H   0  0  0  0  0  0  0  0  0  0  0  0
  148.5425  141.2288  154.9884 H   0  0  0  0  0  0  0  0  0  0  0  0
  149.3707  138.0460  152.9877 H   0  0  0  0  0  0  0  0  0  0  0  0
  147.7918  137.2739  152.1234 H   0  0  0  0  0  0  0  0  0  0  0  0
  145.0477  137.9129  153.1270 H   0  0  0  0  0  0  0  0  0  0  0  0
  145.4708  138.1272  151.4494 H   0  0  0  0  0  0  0  0  0  0  0  0
  144.4837  135.7783  152.4986 H   0  0  0  0  0  0  0  0  0  0  0  0
  147.2873  135.5704  152.4016 H   0  0  0  0  0  0  0  0  0  0  0  0
  144.8004  136.3224  149.9830 H   0  0  0  0  0  0  0  0  0  0  0  0
  146.4774  135.8899  150.1750 H   0  0  0  0  0  0  0  0  0  0  0  0
  144.1818  133.8839  152.1708 H   0  0  0  0  0  0  0  0  0  0  0  0
  143.1054  134.5221  150.9424 H   0  0  0  0  0  0  0  0  0  0  0  0
  142.6561  132.1032  151.3494 H   0  0  0  0  0  0  0  0  0  0  0  0
  143.1374  132.4041  149.6964 H   0  0  0  0  0  0  0  0  0  0  0  0
  144.9257  131.3235  151.9293 H   0  0  0  0  0  0  0  0  0  0  0  0
  144.3475  130.4267  150.5425 H   0  0  0  0  0  0  0  0  0  0  0  0
  146.7088  131.2262  150.2223 H   0  0  0  0  0  0  0  0  0  0  0  0
  145.6333  131.8684  149.0034 H   0  0  0  0  0  0  0  0  0  0  0  0
  147.0995  133.6515  149.8537 H   0  0  0  0  0  0  0  0  0  0  0  0
  146.6018  133.3513  151.5037 H   0  0  0  0  0  0  0  0  0  0  0  0
  151.1703  137.0110  154.4571 H   0  0  0  0  0  0  0  0  0  0  0  0
  152.7064  137.8493  154.7478 H   0  0  0  0  0  0  0  0  0  0  0  0
  151.9235  137.9611  153.1578 H   0  0  0  0  0  0  0  0  0  0  0  0
  144.8247  134.2192  149.3397 H   0  0  0  0  0  0  0  0  0  0  0  0
  1  2  1  0  0  0  0
  1 22  1  0  0  0  0
  1 23  1  0  0  0  0
  1 24  1  0  0  0  0
  2 21  2  0  0  0  0
  2  3  1  0  0  0  0
  3  4  2  0  0  0  0
  3 25  1  0  0  0  0
  4  5  1  0  0  0  0
  4 19  1  0  0  0  0
  5  6  1  0  0  0  0
  5 26  1  0  0  0  0
  6  7  2  0  0  0  0
  6  8  1  0  0  0  0
  8  9  1  0  0  0  0
  8 27  1  0  0  0  0
  9 10  1  0  0  0  0
  9 28  1  0  0  0  0
  9 29  1  0  0  0  0
 10 11  1  0  0  0  0
 10 12  1  0  0  0  0
 10 30  1  0  0  0  0
 11 31  1  0  0  0  0
 12 13  1  0  0  0  0
 12 32  1  0  0  0  0
 12 33  1  0  0  0  0
 13 18  1  0  0  0  0
 13 14  1  0  0  0  0
 13 47  1  0  0  0  0
 14 15  1  0  0  0  0
 14 34  1  0  0  0  0
 14 35  1  0  0  0  0
 15 16  1  0  0  0  0
 15 36  1  0  0  0  0
 15 37  1  0  0  0  0
 16 17  1  0  0  0  0
 16 38  1  0  0  0  0
 16 39  1  0  0  0  0
 17 18  1  0  0  0  0
 17 40  1  0  0  0  0
 17 41  1  0  0  0  0
 18 42  1  0  0  0  0
 18 43  1  0  0  0  0
 19 20  1  0  0  0  0
 19 21  1  0  0  0  0
 20 44  1  0  0  0  0
 20 45  1  0  0  0  0
 20 46  1  0  0  0  0
M  CHG  1  13   1
M  END
> <s_m_source_file>
AV-unprocessed.smi

> <i_m_source_file_index>
1779

> <i_lp_mmshare_version>
43012

> <i_f3d_flags>
0

> <s_epik_input>
W0NIM11jMVtjSF1jKG4objEpW0NIM10pW05IXUMoPU8pW05IXVtDSDJdW0NASF0oW09IXSlbQ0gyXU4yW0NIMl1bQ0gyXVtDSDJdW0NIMl1bQ0gyXTI=

> <s_epik_cmdline>
J2VwaWtfcHl0aG9uJywgJy1waCcsICc3LjAnLCAnLXRuJywgJzgnLCAnLW1hJywgJzIwMCcsICctbWV0YWxfYmluZGluZycsICctaW1hZScsICc8aW5maWxlLm1hZT4nLCAnLW9tYWUnLCAnPG91dGZpbGUubWFlPic=

> <r_lp_tautomer_probability>
1

> <r_epik_Ionization_Penalty>
0.00528203

> <r_epik_Ionization_Penalty_Charging>
0.00519125

> <r_epik_Ionization_Penalty_Neutral>
9.07781e-05

> <r_epik_State_Penalty>
0.0037836

> <r_epik_Charging_Adjusted_Penalty>
0.00897485

> <i_epik_Tot_Q>
1

> <i_epik_Tot_abs_Q>
1

> <r_epik_Metal_State_Penalty>
-0

> <b_epik_Metal_Only>
0

> <s_lp_Force_Field>
OPLS_2005

> <r_lp_Energy>
18.32

> <b_lp_Chiralities_Consistent>
1

> <s_lp_Variant>
AV-unprocessed.smi:1779-1

> <Gold.Version>
5.8.1

> <Gold.Id.Protein>
6NUR|6NUR_protein|mol2

> <Gold.PLP.Fitness>
52.9914

> <Gold.PLP.PLP>
-46.0900

> <Gold.PLP.part.hbond>
-5.8093

> <Gold.PLP.part.metal>
0.0000

> <Gold.PLP.part.buried>
-4.0755

> <Gold.PLP.part.nonpolar>
-36.7338

> <Gold.PLP.part.repulsive>
0.3261

> <Gold.PLP.ligand.clash>
0.0000

> <Gold.PLP.ligand.torsion>
0.9421

> <Gold.PLP.Chemscore.Hbond>
2.9079

> <Gold.PLP.Chemscore.CHOScore>
0.0000

> <Gold.PLP.Chemscore.Metal>
0.0000

> <Gold.Chemscore.Hbonds>
donor molecule, donor type, donor heavy atom, donor atom, acceptor molecule, acceptor atom, score
      L1  H     5    26       P1  7948  0.60
      L1  H     8    27       P1  7948  1.00
      L1  H    11    31       P1  7948  1.00
      L1  H    13    47       P1  7921  0.24

> <Gold.PLP.Chemscore.Internal.Correction>
0.0619

> <Gold.Rescore>
     Score         DG    S(hbond)    S(metal)    S(lipo)     H(rot)  DE(clash)    DE(int)     intcor
     17.68     -21.77       3.31        0.00      96.44       2.36       1.07       3.03       ----

> <Gold.Chemscore.Fitness>
17.6788

> <Gold.Chemscore.DG>
-21.7720

> <Gold.Chemscore.ZeroCoef>
-5.4800

> <Gold.Chemscore.Hbond>
3.3060

> <Gold.Chemscore.Metal>
0.0000

> <Gold.Chemscore.Lipo>
96.4407

> <Gold.Chemscore.Internal_Hbond>
0.0000

> <Gold.Chemscore.DEClash>
1.0655

> <Gold.Chemscore.DEInternal>
3.0277

> <Gold.Chemscore.Rot>
2.3569

> <Gold.Chemscore.Internal.Correction>
   9.000000E+99

> <Gold.Chemscore.Hbonds>
donor molecule, donor type, donor heavy atom, donor atom, acceptor molecule, acceptor atom, score
      L1  H     5    26       P1  7948  0.56
      L1  H     8    27       P1  7948  0.96
      L1  H    11    31       P1  7948  1.00
      L1  H    13    47       P1  7921  0.24

> <Gold.Chemscore.Hbond.Weighted>
-11.0421

> <Gold.Chemscore.Metal.Weighted>
-0.0000

> <Gold.Chemscore.Lipo.Weighted>
-11.2836

> <Gold.Chemscore.Internal_Hbond.Weighted>
0.0000

> <Gold.Chemscore.DEClash.Weighted>
1.0655

> <Gold.Chemscore.DEInternal.Weighted>
3.0277

> <Gold.Chemscore.Rot.Weighted>
6.0337

> <Gold.Chemscore.Internal.Correction.Weighted>
   9.000000E+99

> <Gold.Protein.RotatedTorsions>
[ 6907 6896 6895 6894 ] final  -31.85 input  -60.11 | X-H torsion
[ 7974 7965 7964 7962 ] final -125.00 input  175.53 | X-H torsion
[ 8008 7997 7996 7995 ] final  123.42 input   59.86 | X-H torsion
[ 10167 10162 10161 10158 ] final -158.06 input  -65.29 | X-H torsion
[ 10718 10713 10712 10709 ] final -111.46 input   66.30 | X-H torsion
[ 10763 10752 10751 10750 ] final  152.91 input  -60.55 | X-H torsion
[ 11005 11000 10999 10996 ] final  124.18 input  -57.11 | X-H torsion

> <Gold.Protein.ActiveResidues>
 VAL166  LYS551  ARG553  GLY616  TRP617  ASP618  TYR619  PRO620  LYS621  CYS622 
 ASP623  PHE694  ASN695  SER759  ASP760  ASP761  ALA762  ILE779  LEU786  VAL792 
 PHE793  MET794  SER795  GLU796  ALA797  LYS798  CYS799  TRP800  GLU811  SER814 

> <Gold.Protein.RotatedAtoms>
  151.0866  134.9891  159.8381 H   0  0  0  0  0  0  0  0  0  0  0  0  # atno 6907 bound_to 6896
  152.5425  134.2117  159.8762 H   0  0  0  0  0  0  0  0  0  0  0  0  # atno 6908 bound_to 6896
  151.2150  133.4490  159.2632 H   0  0  0  0  0  0  0  0  0  0  0  0  # atno 6909 bound_to 6896
  145.0021  140.7830  143.4490 H   0  0  0  0  0  0  0  0  0  0  0  0  # atno 7974 bound_to 7965
  156.2765  140.2763  156.1625 H   0  0  0  0  0  0  0  0  0  0  0  0  # atno 8008 bound_to 7997
  155.0739  140.0387  157.2635 H   0  0  0  0  0  0  0  0  0  0  0  0  # atno 8009 bound_to 7997
  154.7018  140.2650  155.6718 H   0  0  0  0  0  0  0  0  0  0  0  0  # atno 8010 bound_to 7997
  139.6722  143.9726  152.2290 H   0  0  0  0  0  0  0  0  0  0  0  0  # atno 10167 bound_to 10162
  156.0649  130.5869  150.8377 H   0  0  0  0  0  0  0  0  0  0  0  0  # atno 10718 bound_to 10713
  154.1276  135.2828  155.3193 H   0  0  0  0  0  0  0  0  0  0  0  0  # atno 10763 bound_to 10752
  154.6378  135.5413  153.7758 H   0  0  0  0  0  0  0  0  0  0  0  0  # atno 10764 bound_to 10752
  153.0292  135.6479  154.1428 H   0  0  0  0  0  0  0  0  0  0  0  0  # atno 10765 bound_to 10752
  139.9346  134.9640  156.8370 H   0  0  0  0  0  0  0  0  0  0  0  0  # atno 11005 bound_to 11000
  145.2138  139.2191  143.5129 LP  0  0  0  0  0  0  0  0  0  0  0  0  # atno 17320 bound_to 7965
  146.3454  140.1982  142.8589 LP  0  0  0  0  0  0  0  0  0  0  0  0  # atno 17321 bound_to 7965
  139.9493  144.6631  150.8188 LP  0  0  0  0  0  0  0  0  0  0  0  0  # atno 17342 bound_to 10162
  140.7622  143.3193  151.2660 LP  0  0  0  0  0  0  0  0  0  0  0  0  # atno 17343 bound_to 10162
  157.5683  131.0946  150.9456 LP  0  0  0  0  0  0  0  0  0  0  0  0  # atno 17370 bound_to 10713
  156.9678  130.5479  149.5289 LP  0  0  0  0  0  0  0  0  0  0  0  0  # atno 17371 bound_to 10713
  140.6109  134.0084  155.7576 LP  0  0  0  0  0  0  0  0  0  0  0  0  # atno 17394 bound_to 11000
  141.0954  133.9852  157.3169 LP  0  0  0  0  0  0  0  0  0  0  0  0  # atno 17395 bound_to 11000

$$$$
