AV-unprocessed.smi:1762|AV-procd|sdf|7123|dock1
  -GOLD-   22720 8353D 1   1.00000     0.00000
 Structure written by MMmdl.
 52 53  0  0  0  0  0  0  0  0  3 V2000
  151.4166  145.2913  158.9717 C   0  0  0  0  0  0  0  0  0  0  0  0
  152.0383  143.8904  158.9804 C   0  0  2  0  0  0  0  0  0  0  0  0
  151.0424  142.8117  158.5135 C   0  0  0  0  0  0  0  0  0  0  0  0
  151.6434  141.4518  158.5980 N   0  3  2  0  0  0  0  0  0  0  0  0
  150.7606  140.3354  158.1169 C   0  0  2  0  0  0  0  0  0  0  0  0
  151.5832  139.0428  157.8914 C   0  0  0  0  0  0  0  0  0  0  0  0
  152.7774  139.1494  157.5905 O   0  0  0  0  0  0  0  0  0  0  0  0
  150.8240  137.9311  158.0909 N   0  5  0  0  0  0  0  0  0  0  0  0
  149.6637  137.8858  158.9788 C   0  0  0  0  0  0  0  0  0  0  0  0
  149.0675  136.4592  159.0141 C   0  0  0  0  0  0  0  0  0  0  0  0
  148.2752  136.1166  160.2746 C   0  0  0  0  0  0  0  0  0  0  0  0
  147.6355  134.8625  160.4021 C   0  0  0  0  0  0  0  0  0  0  0  0
  146.9143  134.5878  161.5795 C   0  0  0  0  0  0  0  0  0  0  0  0
  146.8487  135.5752  162.5804 C   0  0  0  0  0  0  0  0  0  0  0  0
  147.5083  136.7998  162.3566 C   0  0  0  0  0  0  0  0  0  0  0  0
  148.2030  137.0739  161.2319 N   0  0  0  0  0  0  0  0  0  0  0  0
  149.9012  140.6814  156.8522 C   0  0  0  0  0  0  0  0  0  0  0  0
  150.7322  141.2904  155.7062 C   0  0  0  0  0  0  0  0  0  0  0  0
  148.6694  141.5650  157.1400 C   0  0  0  0  0  0  0  0  0  0  0  0
  152.1571  141.2345  159.9813 C   0  0  0  0  0  0  0  0  0  0  0  0
  153.1283  142.3531  160.3973 C   0  0  2  0  0  0  0  0  0  0  0  0
  153.6236  142.1820  161.8377 C   0  0  0  0  0  0  0  0  0  0  0  0
  152.4579  143.6028  160.3069 O   0  0  0  0  0  0  0  0  0  0  0  0
  151.0866  145.5692  157.9704 H   0  0  0  0  0  0  0  0  0  0  0  0
  152.1375  146.0392  159.3027 H   0  0  0  0  0  0  0  0  0  0  0  0
  150.5533  145.3445  159.6354 H   0  0  0  0  0  0  0  0  0  0  0  0
  152.9083  143.8951  158.3212 H   0  0  0  0  0  0  0  0  0  0  0  0
  150.1334  142.8445  159.1162 H   0  0  0  0  0  0  0  0  0  0  0  0
  150.7621  143.0565  157.4910 H   0  0  0  0  0  0  0  0  0  0  0  0
  150.0465  140.1664  158.9270 H   0  0  0  0  0  0  0  0  0  0  0  0
  149.9031  138.1935  159.9979 H   0  0  0  0  0  0  0  0  0  0  0  0
  148.8915  138.5762  158.6379 H   0  0  0  0  0  0  0  0  0  0  0  0
  148.4072  136.3329  158.1552 H   0  0  0  0  0  0  0  0  0  0  0  0
  149.8622  135.7237  158.8821 H   0  0  0  0  0  0  0  0  0  0  0  0
  147.7100  134.1225  159.6188 H   0  0  0  0  0  0  0  0  0  0  0  0
  146.4223  133.6359  161.7127 H   0  0  0  0  0  0  0  0  0  0  0  0
  146.3055  135.3995  163.4969 H   0  0  0  0  0  0  0  0  0  0  0  0
  147.4754  137.5812  163.1012 H   0  0  0  0  0  0  0  0  0  0  0  0
  149.5352  139.7441  156.4358 H   0  0  0  0  0  0  0  0  0  0  0  0
  151.1041  142.2857  155.9524 H   0  0  0  0  0  0  0  0  0  0  0  0
  150.1368  141.3835  154.7977 H   0  0  0  0  0  0  0  0  0  0  0  0
  151.5916  140.6626  155.4699 H   0  0  0  0  0  0  0  0  0  0  0  0
  148.9559  142.5801  157.4143 H   0  0  0  0  0  0  0  0  0  0  0  0
  148.0569  141.1652  157.9475 H   0  0  0  0  0  0  0  0  0  0  0  0
  148.0335  141.6393  156.2574 H   0  0  0  0  0  0  0  0  0  0  0  0
  151.3163  141.1897  160.6757 H   0  0  0  0  0  0  0  0  0  0  0  0
  152.6816  140.2827  160.0638 H   0  0  0  0  0  0  0  0  0  0  0  0
  153.9936  142.3565  159.7319 H   0  0  0  0  0  0  0  0  0  0  0  0
  154.1557  141.2383  161.9607 H   0  0  0  0  0  0  0  0  0  0  0  0
  152.7936  142.1932  162.5448 H   0  0  0  0  0  0  0  0  0  0  0  0
  154.3066  142.9860  162.1131 H   0  0  0  0  0  0  0  0  0  0  0  0
  152.4470  141.4514  157.9860 H   0  0  0  0  0  0  0  0  0  0  0  0
  1  2  1  0  0  0  0
  1 24  1  0  0  0  0
  1 25  1  0  0  0  0
  1 26  1  0  0  0  0
  2 23  1  0  0  0  0
  2  3  1  0  0  0  0
  2 27  1  0  0  0  0
  3  4  1  0  0  0  0
  3 28  1  0  0  0  0
  3 29  1  0  0  0  0
  4  5  1  0  0  0  0
  4 20  1  0  0  0  0
  4 52  1  0  0  0  0
  5  6  1  0  0  0  0
  5 17  1  0  0  0  0
  5 30  1  0  0  0  0
  6  7  2  0  0  0  0
  6  8  1  0  0  0  0
  8  9  1  0  0  0  0
  9 10  1  0  0  0  0
  9 31  1  0  0  0  0
  9 32  1  0  0  0  0
 10 11  1  0  0  0  0
 10 33  1  0  0  0  0
 10 34  1  0  0  0  0
 11 16  1  0  0  0  0
 11 12  2  0  0  0  0
 12 13  1  0  0  0  0
 12 35  1  0  0  0  0
 13 14  2  0  0  0  0
 13 36  1  0  0  0  0
 14 15  1  0  0  0  0
 14 37  1  0  0  0  0
 15 16  2  0  0  0  0
 15 38  1  0  0  0  0
 17 18  1  0  0  0  0
 17 19  1  0  0  0  0
 17 39  1  0  0  0  0
 18 40  1  0  0  0  0
 18 41  1  0  0  0  0
 18 42  1  0  0  0  0
 19 43  1  0  0  0  0
 19 44  1  0  0  0  0
 19 45  1  0  0  0  0
 20 21  1  0  0  0  0
 20 46  1  0  0  0  0
 20 47  1  0  0  0  0
 21 22  1  0  0  0  0
 21 23  1  0  0  0  0
 21 48  1  0  0  0  0
 22 49  1  0  0  0  0
 22 50  1  0  0  0  0
 22 51  1  0  0  0  0
M  CHG  1   4   1
M  CHG  1   8  -1
M  END
> <s_m_source_file>
AV-unprocessed.smi

> <i_m_source_file_index>
1762

> <i_lp_mmshare_version>
43012

> <i_f3d_flags>
0

> <s_epik_input>
W0NIM11bQ0BASF0xW0NIMl1OKFtDSDJdW0NASF0oTzEpW0NIM10pW0NAQEhdKFtDSF0oW0NIM10pW0NIM10pQyg9TylbTkhdW0NIMl1bQ0gyXWMyW2NIXVtjSF1bY0hdW2NIXW4y

> <s_epik_cmdline>
J2VwaWtfcHl0aG9uJywgJy1waCcsICc3LjAnLCAnLXRuJywgJzgnLCAnLW1hJywgJzIwMCcsICctbWV0YWxfYmluZGluZycsICctaW1hZScsICc8aW5maWxlLm1hZT4nLCAnLW9tYWUnLCAnPG91dGZpbGUubWFlPic=

> <r_epik_Ionization_Penalty>
7.82966

> <r_epik_Ionization_Penalty_Charging>
7.7461

> <r_epik_Ionization_Penalty_Neutral>
0.0835571

> <r_epik_State_Penalty>
8.52273

> <r_epik_Charging_Adjusted_Penalty>
16.2688

> <i_epik_Tot_Q>
0

> <i_epik_Tot_abs_Q>
2

> <r_epik_Metal_State_Penalty>
4.47451

> <b_epik_Metal_Only>
1

> <s_lp_Force_Field>
OPLS_2005

> <r_lp_Energy>
21.039

> <b_lp_Chiralities_Consistent>
1

> <s_lp_Variant>
AV-unprocessed.smi:1762-25

> <Gold.Version>
5.8.1

> <Gold.Id.Protein>
6NUR|6NUR_protein|mol2

> <Gold.PLP.Fitness>
50.1478

> <Gold.PLP.PLP>
-47.4061

> <Gold.PLP.part.hbond>
-2.5667

> <Gold.PLP.part.metal>
0.0000

> <Gold.PLP.part.buried>
-5.1916

> <Gold.PLP.part.nonpolar>
-39.2730

> <Gold.PLP.part.repulsive>
0.1390

> <Gold.PLP.ligand.clash>
0.0000

> <Gold.PLP.ligand.torsion>
1.4868

> <Gold.PLP.Chemscore.Hbond>
1.6557

> <Gold.PLP.Chemscore.CHOScore>
0.0000

> <Gold.PLP.Chemscore.Metal>
0.0000

> <Gold.Chemscore.Hbonds>
donor molecule, donor type, donor heavy atom, donor atom, acceptor molecule, acceptor atom, score
      P1  H  6931  6943       L1    16  0.70
      P1  H  6934  6947       L1    16  0.23
      P1  H  7997  8008       L1     7  0.89

> <Gold.PLP.Chemscore.Internal.Correction>
0.7481

> <Gold.Rescore>
     Score         DG    S(hbond)    S(metal)    S(lipo)     H(rot)  DE(clash)    DE(int)     intcor
     17.62     -19.40       1.01        0.00     125.08       1.60       0.11       1.67       ----

> <Gold.Chemscore.Fitness>
17.6185

> <Gold.Chemscore.DG>
-19.4043

> <Gold.Chemscore.ZeroCoef>
-5.4800

> <Gold.Chemscore.Hbond>
1.0148

> <Gold.Chemscore.Metal>
0.0000

> <Gold.Chemscore.Lipo>
125.0755

> <Gold.Chemscore.Internal_Hbond>
0.0000

> <Gold.Chemscore.DEClash>
0.1129

> <Gold.Chemscore.DEInternal>
1.6730

> <Gold.Chemscore.Rot>
1.6012

> <Gold.Chemscore.Internal.Correction>
   9.000000E+99

> <Gold.Chemscore.Hbonds>
donor molecule, donor type, donor heavy atom, donor atom, acceptor molecule, acceptor atom, score
      P1  H  6931  6943       L1    16  0.07
      P1  H  6934  6947       L1    16  0.02
      P1  H  7997  8008       L1     7  0.87

> <Gold.Chemscore.Hbond.Weighted>
-3.3895

> <Gold.Chemscore.Metal.Weighted>
-0.0000

> <Gold.Chemscore.Lipo.Weighted>
-14.6338

> <Gold.Chemscore.Internal_Hbond.Weighted>
0.0000

> <Gold.Chemscore.DEClash.Weighted>
0.1129

> <Gold.Chemscore.DEInternal.Weighted>
1.6730

> <Gold.Chemscore.Rot.Weighted>
4.0990

> <Gold.Chemscore.Internal.Correction.Weighted>
   9.000000E+99

> <Gold.Protein.RotatedTorsions>
[ 6907 6896 6895 6894 ] final   27.32 input  -60.11 | X-H torsion
[ 7974 7965 7964 7962 ] final -151.93 input  175.53 | X-H torsion
[ 8008 7997 7996 7995 ] final  -61.49 input   59.86 | X-H torsion
[ 10167 10162 10161 10158 ] final  -43.58 input  -65.29 | X-H torsion
[ 10718 10713 10712 10709 ] final   70.42 input   66.30 | X-H torsion
[ 10763 10752 10751 10750 ] final  -10.99 input  -60.55 | X-H torsion
[ 11005 11000 10999 10996 ] final   48.56 input  -57.11 | X-H torsion

> <Gold.Protein.ActiveResidues>
 VAL166  LYS551  ARG553  GLY616  TRP617  ASP618  TYR619  PRO620  LYS621  CYS622 
 ASP623  PHE694  ASN695  SER759  ASP760  ASP761  ALA762  ILE779  LEU786  VAL792 
 PHE793  MET794  SER795  GLU796  ALA797  LYS798  CYS799  TRP800  GLU811  SER814 

> <Gold.Protein.RotatedAtoms>
  152.0005  134.9931  160.0564 H   0  0  0  0  0  0  0  0  0  0  0  0  # atno 6907 bound_to 6896
  152.1524  133.4525  159.4828 H   0  0  0  0  0  0  0  0  0  0  0  0  # atno 6908 bound_to 6896
  150.6877  134.2091  159.4395 H   0  0  0  0  0  0  0  0  0  0  0  0  # atno 6909 bound_to 6896
  144.7822  140.4731  143.5831 H   0  0  0  0  0  0  0  0  0  0  0  0  # atno 7974 bound_to 7965
  154.4450  140.1016  156.6438 H   0  0  0  0  0  0  0  0  0  0  0  0  # atno 8008 bound_to 7997
  155.5472  140.3485  155.4441 H   0  0  0  0  0  0  0  0  0  0  0  0  # atno 8009 bound_to 7997
  156.0555  140.1314  156.9991 H   0  0  0  0  0  0  0  0  0  0  0  0  # atno 8010 bound_to 7997
  140.6928  143.2975  151.3372 H   0  0  0  0  0  0  0  0  0  0  0  0  # atno 10167 bound_to 10162
  157.6399  130.9476  150.0648 H   0  0  0  0  0  0  0  0  0  0  0  0  # atno 10718 bound_to 10713
  153.4773  135.7017  153.5958 H   0  0  0  0  0  0  0  0  0  0  0  0  # atno 10763 bound_to 10752
  153.4187  135.3831  155.2097 H   0  0  0  0  0  0  0  0  0  0  0  0  # atno 10764 bound_to 10752
  154.8723  135.3922  154.4218 H   0  0  0  0  0  0  0  0  0  0  0  0  # atno 10765 bound_to 10752
  140.1179  134.4868  155.8621 H   0  0  0  0  0  0  0  0  0  0  0  0  # atno 11005 bound_to 11000
  145.6018  139.1504  143.3125 LP  0  0  0  0  0  0  0  0  0  0  0  0  # atno 17320 bound_to 7965
  146.2036  140.6139  142.9091 LP  0  0  0  0  0  0  0  0  0  0  0  0  # atno 17321 bound_to 7965
  139.6350  144.0648  152.2508 LP  0  0  0  0  0  0  0  0  0  0  0  0  # atno 17342 bound_to 10162
  140.0135  144.6206  150.7627 LP  0  0  0  0  0  0  0  0  0  0  0  0  # atno 17343 bound_to 10162
  156.1670  130.3645  149.9218 LP  0  0  0  0  0  0  0  0  0  0  0  0  # atno 17370 bound_to 10713
  156.7203  130.9004  151.3617 LP  0  0  0  0  0  0  0  0  0  0  0  0  # atno 17371 bound_to 10713
  141.2145  133.6750  156.6833 LP  0  0  0  0  0  0  0  0  0  0  0  0  # atno 17394 bound_to 11000
  140.3003  134.8169  157.4092 LP  0  0  0  0  0  0  0  0  0  0  0  0  # atno 17395 bound_to 11000

$$$$
