AV-unprocessed.smi:1445|AV-procd|sdf|5886|dock2
  -GOLD-   22720 5563D 1   1.00000     0.00000
 Structure written by MMmdl.
 46 47  0  0  0  0  0  0  0  0  2 V2000
  151.9282  138.3917  154.4436 C   0  0  0  0  0  0  0  0  0  0  0  0
  150.5467  138.3257  154.1069 O   0  0  0  0  0  0  0  0  0  0  0  0
  149.7588  139.4378  154.3354 C   0  0  0  0  0  0  0  0  0  0  0  0
  150.3259  140.5215  154.9228 N   0  0  0  0  0  0  0  0  0  0  0  0
  149.5570  141.6065  155.1487 C   0  0  0  0  0  0  0  0  0  0  0  0
  148.1923  141.6674  154.8120 C   0  0  0  0  0  0  0  0  0  0  0  0
  147.6018  140.5449  154.2026 C   0  0  0  0  0  0  0  0  0  0  0  0
  148.4002  139.4049  153.9427 C   0  0  0  0  0  0  0  0  0  0  0  0
  147.8966  138.2159  153.3472 N   0  0  0  0  0  0  0  0  0  0  0  0
  146.6142  137.8641  153.1557 C   0  0  0  0  0  0  0  0  0  0  0  0
  145.6354  138.5372  153.4792 O   0  0  0  0  0  0  0  0  0  0  0  0
  146.5189  136.6803  152.5334 N   0  0  0  0  0  0  0  0  0  0  0  0
  145.2621  136.0423  152.1585 C   0  0  0  0  0  0  0  0  0  0  0  0
  145.1980  135.7786  150.6415 C   0  0  0  0  0  0  0  0  0  0  0  0
  145.0135  134.3403  150.3260 N   0  3  2  0  0  0  0  0  0  0  0  0
  143.6722  133.8438  150.7288 C   0  0  0  0  0  0  0  0  0  0  0  0
  143.4524  132.3968  150.2600 C   0  0  0  0  0  0  0  0  0  0  0  0
  144.5602  131.4738  150.7866 C   0  0  0  0  0  0  0  0  0  0  0  0
  145.9563  132.0140  150.4256 C   0  0  1  0  0  0  0  0  0  0  0  0
  146.3051  131.8215  148.9395 C   0  0  0  0  0  0  0  0  0  0  0  0
  146.1010  133.4832  150.8731 C   0  0  0  0  0  0  0  0  0  0  0  0
  152.4041  137.4412  154.2029 H   0  0  0  0  0  0  0  0  0  0  0  0
  152.0714  138.5719  155.5100 H   0  0  0  0  0  0  0  0  0  0  0  0
  152.4402  139.1705  153.8765 H   0  0  0  0  0  0  0  0  0  0  0  0
  150.0427  142.4489  155.6186 H   0  0  0  0  0  0  0  0  0  0  0  0
  147.6107  142.5529  155.0214 H   0  0  0  0  0  0  0  0  0  0  0  0
  146.5507  140.5736  153.9609 H   0  0  0  0  0  0  0  0  0  0  0  0
  148.5937  137.6060  152.9455 H   0  0  0  0  0  0  0  0  0  0  0  0
  147.3710  136.1910  152.3008 H   0  0  0  0  0  0  0  0  0  0  0  0
  145.1834  135.1003  152.7020 H   0  0  0  0  0  0  0  0  0  0  0  0
  144.4313  136.6626  152.4958 H   0  0  0  0  0  0  0  0  0  0  0  0
  144.4028  136.3590  150.1706 H   0  0  0  0  0  0  0  0  0  0  0  0
  146.1330  136.1301  150.2025 H   0  0  0  0  0  0  0  0  0  0  0  0
  143.5684  133.9098  151.8131 H   0  0  0  0  0  0  0  0  0  0  0  0
  142.8973  134.4779  150.2964 H   0  0  0  0  0  0  0  0  0  0  0  0
  142.4805  132.0403  150.6022 H   0  0  0  0  0  0  0  0  0  0  0  0
  143.4232  132.3620  149.1705 H   0  0  0  0  0  0  0  0  0  0  0  0
  144.4741  131.3996  151.8715 H   0  0  0  0  0  0  0  0  0  0  0  0
  144.4278  130.4625  150.4004 H   0  0  0  0  0  0  0  0  0  0  0  0
  146.6846  131.4287  150.9884 H   0  0  0  0  0  0  0  0  0  0  0  0
  145.6451  132.3934  148.2876 H   0  0  0  0  0  0  0  0  0  0  0  0
  146.2276  130.7725  148.6526 H   0  0  0  0  0  0  0  0  0  0  0  0
  147.3272  132.1410  148.7349 H   0  0  0  0  0  0  0  0  0  0  0  0
  147.0772  133.8583  150.5675 H   0  0  0  0  0  0  0  0  0  0  0  0
  146.0802  133.5379  151.9630 H   0  0  0  0  0  0  0  0  0  0  0  0
  145.0508  134.2602  149.3197 H   0  0  0  0  0  0  0  0  0  0  0  0
  1  2  1  0  0  0  0
  1 22  1  0  0  0  0
  1 23  1  0  0  0  0
  1 24  1  0  0  0  0
  2  3  1  0  0  0  0
  3  8  1  0  0  0  0
  3  4  2  0  0  0  0
  4  5  1  0  0  0  0
  5  6  2  0  0  0  0
  5 25  1  0  0  0  0
  6  7  1  0  0  0  0
  6 26  1  0  0  0  0
  7  8  2  0  0  0  0
  7 27  1  0  0  0  0
  8  9  1  0  0  0  0
  9 10  1  0  0  0  0
  9 28  1  0  0  0  0
 10 11  2  0  0  0  0
 10 12  1  0  0  0  0
 12 13  1  0  0  0  0
 12 29  1  0  0  0  0
 13 14  1  0  0  0  0
 13 30  1  0  0  0  0
 13 31  1  0  0  0  0
 14 15  1  0  0  0  0
 14 32  1  0  0  0  0
 14 33  1  0  0  0  0
 15 21  1  0  0  0  0
 15 16  1  0  0  0  0
 15 46  1  0  0  0  0
 16 17  1  0  0  0  0
 16 34  1  0  0  0  0
 16 35  1  0  0  0  0
 17 18  1  0  0  0  0
 17 36  1  0  0  0  0
 17 37  1  0  0  0  0
 18 19  1  0  0  0  0
 18 38  1  0  0  0  0
 18 39  1  0  0  0  0
 19 20  1  0  0  0  0
 19 21  1  0  0  0  0
 19 40  1  0  0  0  0
 20 41  1  0  0  0  0
 20 42  1  0  0  0  0
 20 43  1  0  0  0  0
 21 44  1  0  0  0  0
 21 45  1  0  0  0  0
M  CHG  1  15   1
M  END
> <s_m_source_file>
AV-unprocessed.smi

> <i_m_source_file_index>
1445

> <i_lp_mmshare_version>
43012

> <i_f3d_flags>
0

> <s_epik_input>
W0NIM11PYzFuW2NIXVtjSF1bY0hdYzFbTkhdQyg9TylbTkhdW0NIMl1bQ0gyXU4yW0NIMl1bQ0gyXVtDSDJdW0NAQEhdKFtDSDNdKVtDSDJdMg==

> <s_epik_cmdline>
J2VwaWtfcHl0aG9uJywgJy1waCcsICc3LjAnLCAnLXRuJywgJzgnLCAnLW1hJywgJzIwMCcsICctbWV0YWxfYmluZGluZycsICctaW1hZScsICc8aW5maWxlLm1hZT4nLCAnLW9tYWUnLCAnPG91dGZpbGUubWFlPic=

> <r_lp_tautomer_probability>
1

> <r_epik_Ionization_Penalty>
0.00179544

> <r_epik_Ionization_Penalty_Charging>
0.00171832

> <r_epik_Ionization_Penalty_Neutral>
7.71118e-05

> <r_epik_State_Penalty>
0.0011618

> <r_epik_Charging_Adjusted_Penalty>
0.00288012

> <i_epik_Tot_Q>
1

> <i_epik_Tot_abs_Q>
1

> <r_epik_Metal_State_Penalty>
-0

> <b_epik_Metal_Only>
0

> <s_lp_Force_Field>
OPLS_2005

> <r_lp_Energy>
21.8434

> <b_lp_Chiralities_Consistent>
1

> <s_lp_Variant>
AV-unprocessed.smi:1445-2

> <Gold.Version>
5.8.1

> <Gold.Id.Protein>
6NUR|6NUR_protein|mol2

> <Gold.PLP.Fitness>
50.8199

> <Gold.PLP.PLP>
-38.4118

> <Gold.PLP.part.hbond>
-4.1732

> <Gold.PLP.part.metal>
0.0000

> <Gold.PLP.part.buried>
1.3583

> <Gold.PLP.part.nonpolar>
-36.2863

> <Gold.PLP.part.repulsive>
2.1550

> <Gold.PLP.ligand.clash>
0.0000

> <Gold.PLP.ligand.torsion>
0.4457

> <Gold.PLP.Chemscore.Hbond>
3.5974

> <Gold.PLP.Chemscore.CHOScore>
0.8102

> <Gold.PLP.Chemscore.Metal>
0.0000

> <Gold.Chemscore.Hbonds>
donor molecule, donor type, donor heavy atom, donor atom, acceptor molecule, acceptor atom, score
      L1  H     9    28       P1  7948  0.98
      L1  H    12    29       P1  7948  1.00
      L1  H    15    46       P1  7921  0.77
      P1  H  7989  7998       L1     4  0.78
      L1  C     5    25       P1  8028  0.76

> <Gold.PLP.Chemscore.Internal.Correction>
0.0767

> <Gold.Rescore>
     Score         DG    S(hbond)    S(metal)    S(lipo)     H(rot)  DE(clash)    DE(int)     intcor
     19.22     -22.81       2.82        0.00     105.00       1.71       1.88       1.71       ----

> <Gold.Chemscore.Fitness>
19.2182

> <Gold.Chemscore.DG>
-22.8099

> <Gold.Chemscore.ZeroCoef>
-5.4800

> <Gold.Chemscore.Hbond>
2.8216

> <Gold.Chemscore.Metal>
0.0000

> <Gold.Chemscore.Lipo>
105.0000

> <Gold.Chemscore.Internal_Hbond>
0.0000

> <Gold.Chemscore.DEClash>
1.8820

> <Gold.Chemscore.DEInternal>
1.7096

> <Gold.Chemscore.Rot>
1.7107

> <Gold.Chemscore.Internal.Correction>
   9.000000E+99

> <Gold.Chemscore.Hbonds>
donor molecule, donor type, donor heavy atom, donor atom, acceptor molecule, acceptor atom, score
      L1  H     9    28       P1  7948  0.93
      L1  H    12    29       P1  7948  0.94
      L1  H    15    46       P1  7921  0.74
      P1  H  7989  7998       L1     4  0.08

> <Gold.Chemscore.Hbond.Weighted>
-9.4243

> <Gold.Chemscore.Metal.Weighted>
-0.0000

> <Gold.Chemscore.Lipo.Weighted>
-12.2850

> <Gold.Chemscore.Internal_Hbond.Weighted>
0.0000

> <Gold.Chemscore.DEClash.Weighted>
1.8820

> <Gold.Chemscore.DEInternal.Weighted>
1.7096

> <Gold.Chemscore.Rot.Weighted>
4.3794

> <Gold.Chemscore.Internal.Correction.Weighted>
   9.000000E+99

> <Gold.Protein.RotatedTorsions>
[ 6907 6896 6895 6894 ] final -105.52 input  -60.11 | X-H torsion
[ 7974 7965 7964 7962 ] final  -25.64 input  175.53 | X-H torsion
[ 8008 7997 7996 7995 ] final  -15.83 input   59.86 | X-H torsion
[ 10167 10162 10161 10158 ] final  -99.53 input  -65.29 | X-H torsion
[ 10718 10713 10712 10709 ] final  -39.83 input   66.30 | X-H torsion
[ 10763 10752 10751 10750 ] final -141.97 input  -60.55 | X-H torsion
[ 11005 11000 10999 10996 ] final   50.12 input  -57.11 | X-H torsion

> <Gold.Protein.ActiveResidues>
 VAL166  LYS551  ARG553  GLY616  TRP617  ASP618  TYR619  PRO620  LYS621  CYS622 
 ASP623  PHE694  ASN695  SER759  ASP760  ASP761  ALA762  ILE779  LEU786  VAL792 
 PHE793  MET794  SER795  GLU796  ALA797  LYS798  CYS799  TRP800  GLU811  SER814 

> <Gold.Protein.RotatedAtoms>
  150.7341  134.0114  159.3670 H   0  0  0  0  0  0  0  0  0  0  0  0  # atno 6907 bound_to 6896
  151.8073  135.0689  160.0417 H   0  0  0  0  0  0  0  0  0  0  0  0  # atno 6908 bound_to 6896
  152.3098  133.5704  159.5709 H   0  0  0  0  0  0  0  0  0  0  0  0  # atno 6909 bound_to 6896
  146.1478  140.4913  142.8624 H   0  0  0  0  0  0  0  0  0  0  0  0  # atno 7974 bound_to 7965
  154.5099  140.2185  155.9176 H   0  0  0  0  0  0  0  0  0  0  0  0  # atno 8008 bound_to 7997
  156.1540  140.3156  155.8661 H   0  0  0  0  0  0  0  0  0  0  0  0  # atno 8009 bound_to 7997
  155.3883  140.0476  157.3032 H   0  0  0  0  0  0  0  0  0  0  0  0  # atno 8010 bound_to 7997
  140.2614  143.3405  152.0621 H   0  0  0  0  0  0  0  0  0  0  0  0  # atno 10167 bound_to 10162
  156.2881  130.4225  149.8267 H   0  0  0  0  0  0  0  0  0  0  0  0  # atno 10718 bound_to 10713
  154.8526  135.3509  154.5953 H   0  0  0  0  0  0  0  0  0  0  0  0  # atno 10763 bound_to 10752
  153.6562  135.6992  153.5197 H   0  0  0  0  0  0  0  0  0  0  0  0  # atno 10764 bound_to 10752
  153.2854  135.4251  155.1075 H   0  0  0  0  0  0  0  0  0  0  0  0  # atno 10765 bound_to 10752
  140.1044  134.5037  155.8733 H   0  0  0  0  0  0  0  0  0  0  0  0  # atno 11005 bound_to 11000
  144.7867  140.5950  143.6569 LP  0  0  0  0  0  0  0  0  0  0  0  0  # atno 17320 bound_to 7965
  145.4896  139.1489  143.3717 LP  0  0  0  0  0  0  0  0  0  0  0  0  # atno 17321 bound_to 7965
  139.5015  144.6716  151.6229 LP  0  0  0  0  0  0  0  0  0  0  0  0  # atno 17342 bound_to 10162
  140.5962  143.9691  150.6356 LP  0  0  0  0  0  0  0  0  0  0  0  0  # atno 17343 bound_to 10162
  156.5690  130.8416  151.3351 LP  0  0  0  0  0  0  0  0  0  0  0  0  # atno 17370 bound_to 10713
  157.7334  130.9730  150.1978 LP  0  0  0  0  0  0  0  0  0  0  0  0  # atno 17371 bound_to 10713
  141.2114  133.6706  156.6583 LP  0  0  0  0  0  0  0  0  0  0  0  0  # atno 17394 bound_to 11000
  140.3175  134.8035  157.4226 LP  0  0  0  0  0  0  0  0  0  0  0  0  # atno 17395 bound_to 11000

$$$$
