AV-unprocessed.smi:3106|AV-procd|sdf|11824|dock2
  -GOLD-   2272017193D 1   1.00000     0.00000
 Structure written by MMmdl.
 29 30  0  0  0  0  0  0  0  0  1 V2000
  151.5671  145.4994  159.9064 C   0  0  0  0  0  0  0  0  0  0  0  0
  152.1972  144.1681  160.2581 C   0  0  0  0  0  0  0  0  0  0  0  0
  152.3007  143.7521  161.5985 C   0  0  0  0  0  0  0  0  0  0  0  0
  152.8979  142.5082  161.8795 C   0  0  0  0  0  0  0  0  0  0  0  0
  153.3766  141.7104  160.8161 C   0  0  0  0  0  0  0  0  0  0  0  0
  153.9635  140.4775  161.2069 N   0  0  0  0  0  0  0  0  0  0  0  0
  154.6895  139.6240  160.4610 C   0  0  0  0  0  0  0  0  0  0  0  0
  154.9694  139.7953  159.2739 O   0  0  0  0  0  0  0  0  0  0  0  0
  155.1944  138.3733  161.1903 C   0  0  1  0  0  0  0  0  0  0  0  0
  154.7847  138.3011  162.6735 C   0  0  0  0  0  0  0  0  0  0  0  0
  153.7634  137.1811  162.7098 C   0  0  0  0  0  0  0  0  0  0  0  0
  154.2337  136.2950  161.5656 C   0  0  0  0  0  0  0  0  0  0  0  0
  154.6081  137.2314  160.5674 O   0  0  0  0  0  0  0  0  0  0  0  0
  153.2713  142.1193  159.5269 N   0  0  0  0  0  0  0  0  0  0  0  0
  152.6997  143.3121  159.2584 C   0  0  0  0  0  0  0  0  0  0  0  0
  150.6234  145.6261  160.4377 H   0  0  0  0  0  0  0  0  0  0  0  0
  151.3669  145.5713  158.8370 H   0  0  0  0  0  0  0  0  0  0  0  0
  152.2326  146.3163  160.1865 H   0  0  0  0  0  0  0  0  0  0  0  0
  151.9299  144.3743  162.4001 H   0  0  0  0  0  0  0  0  0  0  0  0
  152.9859  142.1748  162.9034 H   0  0  0  0  0  0  0  0  0  0  0  0
  153.8162  140.2120  162.1695 H   0  0  0  0  0  0  0  0  0  0  0  0
  156.2806  138.3026  161.1087 H   0  0  0  0  0  0  0  0  0  0  0  0
  155.6510  138.0338  163.2800 H   0  0  0  0  0  0  0  0  0  0  0  0
  154.3848  139.2339  163.0736 H   0  0  0  0  0  0  0  0  0  0  0  0
  153.7295  136.6618  163.6678 H   0  0  0  0  0  0  0  0  0  0  0  0
  152.7683  137.5730  162.4947 H   0  0  0  0  0  0  0  0  0  0  0  0
  155.1039  135.7062  161.8597 H   0  0  0  0  0  0  0  0  0  0  0  0
  153.4588  135.6156  161.2100 H   0  0  0  0  0  0  0  0  0  0  0  0
  152.6446  143.5882  158.2157 H   0  0  0  0  0  0  0  0  0  0  0  0
  1  2  1  0  0  0  0
  1 16  1  0  0  0  0
  1 17  1  0  0  0  0
  1 18  1  0  0  0  0
  2 15  1  0  0  0  0
  2  3  2  0  0  0  0
  3  4  1  0  0  0  0
  3 19  1  0  0  0  0
  4  5  2  0  0  0  0
  4 20  1  0  0  0  0
  5  6  1  0  0  0  0
  5 14  1  0  0  0  0
  6  7  1  0  0  0  0
  6 21  1  0  0  0  0
  7  8  2  0  0  0  0
  7  9  1  0  0  0  0
  9 13  1  0  0  0  0
  9 10  1  0  0  0  0
  9 22  1  0  0  0  0
 10 11  1  0  0  0  0
 10 23  1  0  0  0  0
 10 24  1  0  0  0  0
 11 12  1  0  0  0  0
 11 25  1  0  0  0  0
 11 26  1  0  0  0  0
 12 13  1  0  0  0  0
 12 27  1  0  0  0  0
 12 28  1  0  0  0  0
 14 15  2  0  0  0  0
 15 29  1  0  0  0  0
M  END
> <s_m_source_file>
AV-unprocessed.smi

> <i_m_source_file_index>
3106

> <i_lp_mmshare_version>
43012

> <i_f3d_flags>
0

> <s_epik_input>
W0NIM11jMVtjSF1bY0hdYyhuW2NIXTEpW05IXUMoPU8pW0NAQEhdMltDSDJdW0NIMl1bQ0gyXU8y

> <s_epik_cmdline>
J2VwaWtfcHl0aG9uJywgJy1waCcsICc3LjAnLCAnLXRuJywgJzgnLCAnLW1hJywgJzIwMCcsICctbWV0YWxfYmluZGluZycsICctaW1hZScsICc8aW5maWxlLm1hZT4nLCAnLW9tYWUnLCAnPG91dGZpbGUubWFlPic=

> <r_epik_Ionization_Penalty>
0.00356606

> <r_epik_Ionization_Penalty_Charging>
0

> <r_epik_Ionization_Penalty_Neutral>
0.00356606

> <r_epik_State_Penalty>
0.00372088

> <r_epik_Charging_Adjusted_Penalty>
0.00372088

> <i_epik_Tot_Q>
0

> <i_epik_Tot_abs_Q>
0

> <r_epik_Metal_State_Penalty>
-0

> <b_epik_Metal_Only>
0

> <s_lp_Force_Field>
OPLS_2005

> <r_lp_Energy>
20.6895

> <b_lp_Chiralities_Consistent>
1

> <s_lp_Variant>
AV-unprocessed.smi:3106-2

> <Gold.Version>
5.8.1

> <Gold.Id.Protein>
6NUR|6NUR_protein|mol2

> <Gold.PLP.Fitness>
40.1100

> <Gold.PLP.PLP>
-37.1887

> <Gold.PLP.part.hbond>
-1.0000

> <Gold.PLP.part.metal>
0.0000

> <Gold.PLP.part.buried>
-5.2154

> <Gold.PLP.part.nonpolar>
-31.1174

> <Gold.PLP.part.repulsive>
0.0125

> <Gold.PLP.ligand.clash>
0.0025

> <Gold.PLP.ligand.torsion>
0.0418

> <Gold.PLP.Chemscore.Hbond>
1.0000

> <Gold.PLP.Chemscore.CHOScore>
0.0000

> <Gold.PLP.Chemscore.Metal>
0.0000

> <Gold.Chemscore.Hbonds>
donor molecule, donor type, donor heavy atom, donor atom, acceptor molecule, acceptor atom, score
      P1  H  7997  8010       L1     8  1.00

> <Gold.PLP.Chemscore.Internal.Correction>
0.0074

> <Gold.Rescore>
     Score         DG    S(hbond)    S(metal)    S(lipo)     H(rot)  DE(clash)    DE(int)     intcor
     15.40     -16.74       0.99        0.00      89.80       1.00       0.03       1.31       ----

> <Gold.Chemscore.Fitness>
15.3978

> <Gold.Chemscore.DG>
-16.7357

> <Gold.Chemscore.ZeroCoef>
-5.4800

> <Gold.Chemscore.Hbond>
0.9908

> <Gold.Chemscore.Metal>
0.0000

> <Gold.Chemscore.Lipo>
89.7974

> <Gold.Chemscore.Internal_Hbond>
0.0000

> <Gold.Chemscore.DEClash>
0.0310

> <Gold.Chemscore.DEInternal>
1.3069

> <Gold.Chemscore.Rot>
1.0000

> <Gold.Chemscore.Internal.Correction>
   9.000000E+99

> <Gold.Chemscore.Hbonds>
donor molecule, donor type, donor heavy atom, donor atom, acceptor molecule, acceptor atom, score
      P1  H  7997  8010       L1     8  0.96

> <Gold.Chemscore.Hbond.Weighted>
-3.3094

> <Gold.Chemscore.Metal.Weighted>
-0.0000

> <Gold.Chemscore.Lipo.Weighted>
-10.5063

> <Gold.Chemscore.Internal_Hbond.Weighted>
0.0000

> <Gold.Chemscore.DEClash.Weighted>
0.0310

> <Gold.Chemscore.DEInternal.Weighted>
1.3069

> <Gold.Chemscore.Rot.Weighted>
2.5600

> <Gold.Chemscore.Internal.Correction.Weighted>
   9.000000E+99

> <Gold.Protein.RotatedTorsions>
[ 6907 6896 6895 6894 ] final   54.19 input  -60.11 | X-H torsion
[ 7974 7965 7964 7962 ] final  -29.56 input  175.53 | X-H torsion
[ 8008 7997 7996 7995 ] final  -16.09 input   59.86 | X-H torsion
[ 10167 10162 10161 10158 ] final  -23.87 input  -65.29 | X-H torsion
[ 10718 10713 10712 10709 ] final   15.28 input   66.30 | X-H torsion
[ 10763 10752 10751 10750 ] final   27.11 input  -60.55 | X-H torsion
[ 11005 11000 10999 10996 ] final   30.80 input  -57.11 | X-H torsion

> <Gold.Protein.ActiveResidues>
 VAL166  LYS551  ARG553  GLY616  TRP617  ASP618  TYR619  PRO620  LYS621  CYS622 
 ASP623  PHE694  ASN695  SER759  ASP760  ASP761  ALA762  ILE779  LEU786  VAL792 
 PHE793  MET794  SER795  GLU796  ALA797  LYS798  CYS799  TRP800  GLU811  SER814 

> <Gold.Protein.RotatedAtoms>
  152.3414  134.7129  160.0262 H   0  0  0  0  0  0  0  0  0  0  0  0  # atno 6907 bound_to 6896
  151.7513  133.3322  159.3400 H   0  0  0  0  0  0  0  0  0  0  0  0  # atno 6908 bound_to 6896
  150.7482  134.6122  159.6136 H   0  0  0  0  0  0  0  0  0  0  0  0  # atno 6909 bound_to 6896
  146.1208  140.5427  142.8736 H   0  0  0  0  0  0  0  0  0  0  0  0  # atno 7974 bound_to 7965
  154.5080  140.2179  155.9213 H   0  0  0  0  0  0  0  0  0  0  0  0  # atno 8008 bound_to 7997
  156.1517  140.3160  155.8625 H   0  0  0  0  0  0  0  0  0  0  0  0  # atno 8009 bound_to 7997
  155.3926  140.0479  157.3031 H   0  0  0  0  0  0  0  0  0  0  0  0  # atno 8010 bound_to 7997
  140.7288  143.4404  151.0666 H   0  0  0  0  0  0  0  0  0  0  0  0  # atno 10167 bound_to 10162
  157.0513  130.6271  149.5768 H   0  0  0  0  0  0  0  0  0  0  0  0  # atno 10718 bound_to 10713
  153.0577  135.6544  154.0537 H   0  0  0  0  0  0  0  0  0  0  0  0  # atno 10763 bound_to 10752
  154.0211  135.2920  155.3382 H   0  0  0  0  0  0  0  0  0  0  0  0  # atno 10764 bound_to 10752
  154.6901  135.5286  153.8448 H   0  0  0  0  0  0  0  0  0  0  0  0  # atno 10765 bound_to 10752
  140.2906  134.2868  155.7777 H   0  0  0  0  0  0  0  0  0  0  0  0  # atno 11005 bound_to 11000
  144.7595  140.5388  143.6745 LP  0  0  0  0  0  0  0  0  0  0  0  0  # atno 17320 bound_to 7965
  145.5470  139.1476  143.3415 LP  0  0  0  0  0  0  0  0  0  0  0  0  # atno 17321 bound_to 7965
  139.8070  143.8003  152.3168 LP  0  0  0  0  0  0  0  0  0  0  0  0  # atno 17342 bound_to 10162
  139.8040  144.7363  150.9786 LP  0  0  0  0  0  0  0  0  0  0  0  0  # atno 17343 bound_to 10162
  156.0007  130.5085  150.7651 LP  0  0  0  0  0  0  0  0  0  0  0  0  # atno 17370 bound_to 10713
  157.5028  131.0920  151.0294 LP  0  0  0  0  0  0  0  0  0  0  0  0  # atno 17371 bound_to 10713
  141.2147  133.7583  156.9619 LP  0  0  0  0  0  0  0  0  0  0  0  0  # atno 17394 bound_to 11000
  140.1199  134.9424  157.2188 LP  0  0  0  0  0  0  0  0  0  0  0  0  # atno 17395 bound_to 11000

$$$$
