AV-unprocessed.smi:283|AV-procd|sdf|2125|dock4
  -GOLD-   2262021433D 1   1.00000     0.00000
 Structure written by MMmdl.
 48 51  0  0  0  0  0  0  0  0  1 V2000
  153.4675  138.6071  158.2060 C   0  0  0  0  0  0  0  0  0  0  0  0
  152.3419  139.6557  158.1401 C   0  0  2  0  0  0  0  0  0  0  0  0
  152.1105  140.0975  156.7651 N   0  0  0  0  0  0  0  0  0  0  0  0
  151.1842  139.5096  155.9752 C   0  0  0  0  0  0  0  0  0  0  0  0
  151.3672  138.2568  155.4827 N   0  0  0  0  0  0  0  0  0  0  0  0
  150.4343  137.7018  154.7035 C   0  0  0  0  0  0  0  0  0  0  0  0
  149.2694  138.2151  154.3025 N   0  0  0  0  0  0  0  0  0  0  0  0
  149.0768  139.4716  154.7989 C   0  0  0  0  0  0  0  0  0  0  0  0
  149.9804  140.1810  155.6388 C   0  0  0  0  0  0  0  0  0  0  0  0
  149.4541  141.4280  155.9494 N   0  0  0  0  0  0  0  0  0  0  0  0
  148.3066  141.4505  155.3259 C   0  0  0  0  0  0  0  0  0  0  0  0
  148.0032  140.3172  154.6043 N   0  0  0  0  0  0  0  0  0  0  0  0
  146.7774  140.0592  153.7894 C   0  0  2  0  0  0  0  0  0  0  0  0
  146.1432  138.9274  154.3012 O   0  0  0  0  0  0  0  0  0  0  0  0
  145.6817  138.1130  153.2292 C   0  0  2  0  0  0  0  0  0  0  0  0
  145.5259  136.6613  153.7077 C   0  0  0  0  0  0  0  0  0  0  0  0
  146.7936  136.0541  153.8371 O   0  0  0  0  0  0  0  0  0  0  0  0
  146.7832  138.2975  152.1842 C   0  0  1  0  0  0  0  0  0  0  0  0
  146.3765  137.9360  150.8767 O   0  0  0  0  0  0  0  0  0  0  0  0
  147.1429  139.7751  152.3231 C   0  0  1  0  0  0  0  0  0  0  0  0
  146.3861  140.5956  151.4512 O   0  0  0  0  0  0  0  0  0  0  0  0
  152.6576  140.8148  159.0844 C   0  0  0  0  0  0  0  0  0  0  0  0
  153.4456  140.5915  160.2384 C   0  0  0  0  0  0  0  0  0  0  0  0
  153.7359  141.6449  161.1255 C   0  0  0  0  0  0  0  0  0  0  0  0
  153.2359  142.9346  160.8727 C   0  0  0  0  0  0  0  0  0  0  0  0
  152.4417  143.1668  159.7350 C   0  0  0  0  0  0  0  0  0  0  0  0
  152.1468  142.1159  158.8433 C   0  0  0  0  0  0  0  0  0  0  0  0
  151.1483  142.4581  157.4734 Cl  0  0  0  0  0  0  0  0  0  0  0  0
  146.1578  140.9471  153.9250 H   0  0  0  0  0  0  0  0  0  0  0  0
  144.7400  138.5125  152.8474 H   0  0  0  0  0  0  0  0  0  0  0  0
  147.6466  137.6896  152.4549 H   0  0  0  0  0  0  0  0  0  0  0  0
  148.2037  139.9496  152.1370 H   0  0  0  0  0  0  0  0  0  0  0  0
  153.6054  138.2466  159.2258 H   0  0  0  0  0  0  0  0  0  0  0  0
  154.4175  139.0259  157.8725 H   0  0  0  0  0  0  0  0  0  0  0  0
  153.2536  137.7387  157.5836 H   0  0  0  0  0  0  0  0  0  0  0  0
  151.4155  139.1965  158.4827 H   0  0  0  0  0  0  0  0  0  0  0  0
  152.7500  140.7997  156.4222 H   0  0  0  0  0  0  0  0  0  0  0  0
  150.6528  136.7051  154.3499 H   0  0  0  0  0  0  0  0  0  0  0  0
  147.6467  142.3048  155.3709 H   0  0  0  0  0  0  0  0  0  0  0  0
  145.0517  136.6378  154.6891 H   0  0  0  0  0  0  0  0  0  0  0  0
  144.8947  136.0857  153.0298 H   0  0  0  0  0  0  0  0  0  0  0  0
  147.3842  136.4577  153.2196 H   0  0  0  0  0  0  0  0  0  0  0  0
  145.4388  138.0374  150.8155 H   0  0  0  0  0  0  0  0  0  0  0  0
  146.7110  141.4805  151.5166 H   0  0  0  0  0  0  0  0  0  0  0  0
  153.8305  139.6065  160.4575 H   0  0  0  0  0  0  0  0  0  0  0  0
  154.3399  141.4623  162.0020 H   0  0  0  0  0  0  0  0  0  0  0  0
  153.4566  143.7437  161.5532 H   0  0  0  0  0  0  0  0  0  0  0  0
  152.0531  144.1572  159.5481 H   0  0  0  0  0  0  0  0  0  0  0  0
  1  2  1  0  0  0  0
  1 33  1  0  0  0  0
  1 34  1  0  0  0  0
  1 35  1  0  0  0  0
  2  3  1  0  0  0  0
  2 22  1  0  0  0  0
  2 36  1  0  0  0  0
  3  4  1  0  0  0  0
  3 37  1  0  0  0  0
  4  9  1  0  0  0  0
  4  5  2  0  0  0  0
  5  6  1  0  0  0  0
  6  7  2  0  0  0  0
  6 38  1  0  0  0  0
  7  8  1  0  0  0  0
  8 12  1  0  0  0  0
  8  9  2  0  0  0  0
  9 10  1  0  0  0  0
 10 11  2  0  0  0  0
 11 12  1  0  0  0  0
 11 39  1  0  0  0  0
 12 13  1  0  0  0  0
 13 29  1  0  0  0  0
 13 20  1  0  0  0  0
 13 14  1  0  0  0  0
 14 15  1  0  0  0  0
 15 30  1  0  0  0  0
 15 16  1  0  0  0  0
 15 18  1  0  0  0  0
 16 17  1  0  0  0  0
 16 40  1  0  0  0  0
 16 41  1  0  0  0  0
 17 42  1  0  0  0  0
 18 31  1  0  0  0  0
 18 19  1  0  0  0  0
 18 20  1  0  0  0  0
 19 43  1  0  0  0  0
 20 32  1  0  0  0  0
 20 21  1  0  0  0  0
 21 44  1  0  0  0  0
 22 27  1  0  0  0  0
 22 23  2  0  0  0  0
 23 24  1  0  0  0  0
 23 45  1  0  0  0  0
 24 25  2  0  0  0  0
 24 46  1  0  0  0  0
 25 26  1  0  0  0  0
 25 47  1  0  0  0  0
 26 27  2  0  0  0  0
 26 48  1  0  0  0  0
 27 28  1  0  0  0  0
M  END
> <s_m_source_file>
AV-unprocessed.smi

> <i_m_source_file_index>
283

> <i_lp_mmshare_version>
43012

> <i_f3d_flags>
0

> <s_epik_input>
Q2xjMVtjSF1bY0hdW2NIXVtjSF1jMVtDQEhdKFtDSDNdKVtOSF1jKG5bY0hdbjIpYyhjMjMpbltjSF1uM1tDQEBIXTRPW0NASF0oW0NIMl1bT0hdKVtDQEBIXShbT0hdKVtDQEhdNFtPSF0=

> <s_epik_cmdline>
J2VwaWtfcHl0aG9uJywgJy1waCcsICc3LjAnLCAnLXRuJywgJzgnLCAnLW1hJywgJzIwMCcsICctbWV0YWxfYmluZGluZycsICctaW1hZScsICc8aW5maWxlLm1hZT4nLCAnLW9tYWUnLCAnPG91dGZpbGUubWFlPic=

> <r_lp_tautomer_probability>
1

> <r_epik_Ionization_Penalty>
0.000266407

> <r_epik_Ionization_Penalty_Charging>
0

> <r_epik_Ionization_Penalty_Neutral>
0.000266407

> <r_epik_State_Penalty>
-0

> <r_epik_Charging_Adjusted_Penalty>
0

> <i_epik_Tot_Q>
0

> <i_epik_Tot_abs_Q>
0

> <r_epik_Metal_State_Penalty>
-0

> <b_epik_Metal_Only>
0

> <s_epik_Chemistry_Notes>
This compound contains an acetal/aminal-like group ( X-CH(R)-Y where X, Y are N, S, or O) that may be acid/base labile, releasing an aldehyde.

> <s_lp_Force_Field>
OPLS_2005

> <r_lp_Energy>
47.4388

> <b_lp_Chiralities_Consistent>
1

> <s_lp_Variant>
AV-unprocessed.smi:283-1

> <Gold.Version>
5.8.1

> <Gold.Id.Protein>
6NUR|6NUR_protein|mol2

> <Gold.PLP.Fitness>
48.0454

> <Gold.PLP.PLP>
-41.3204

> <Gold.PLP.part.hbond>
-5.6409

> <Gold.PLP.part.metal>
0.0000

> <Gold.PLP.part.buried>
4.5473

> <Gold.PLP.part.nonpolar>
-41.8178

> <Gold.PLP.part.repulsive>
0.7967

> <Gold.PLP.ligand.clash>
0.0000

> <Gold.PLP.ligand.torsion>
1.9202

> <Gold.PLP.Chemscore.Hbond>
3.0000

> <Gold.PLP.Chemscore.CHOScore>
0.4745

> <Gold.PLP.Chemscore.Metal>
0.0000

> <Gold.Chemscore.Hbonds>
donor molecule, donor type, donor heavy atom, donor atom, acceptor molecule, acceptor atom, score
      L1  H    17    42       P1  7948  0.83
      L1  H    19    43       P1 10171  0.98
      P1  H  7954  7966       L1    19  0.98
      L1  C    11    39       P1  8028  0.41

> <Gold.PLP.Chemscore.Internal.Correction>
0.1419

> <Gold.Rescore>
     Score         DG    S(hbond)    S(metal)    S(lipo)     H(rot)  DE(clash)    DE(int)     intcor
      7.04     -15.12       2.20        0.00     109.10       4.10       3.12       4.95       ----

> <Gold.Chemscore.Fitness>
7.0400

> <Gold.Chemscore.DG>
-15.1159

> <Gold.Chemscore.ZeroCoef>
-5.4800

> <Gold.Chemscore.Hbond>
2.2035

> <Gold.Chemscore.Metal>
0.0000

> <Gold.Chemscore.Lipo>
109.0963

> <Gold.Chemscore.Internal_Hbond>
0.0000

> <Gold.Chemscore.DEClash>
3.1211

> <Gold.Chemscore.DEInternal>
4.9548

> <Gold.Chemscore.Rot>
4.0968

> <Gold.Chemscore.Internal.Correction>
   9.000000E+99

> <Gold.Chemscore.Hbonds>
donor molecule, donor type, donor heavy atom, donor atom, acceptor molecule, acceptor atom, score
      L1  H    17    42       P1  7948  0.77
      L1  H    19    43       P1 10171  0.93
      P1  H  7954  7966       L1    19  0.31

> <Gold.Chemscore.Hbond.Weighted>
-7.3596

> <Gold.Chemscore.Metal.Weighted>
-0.0000

> <Gold.Chemscore.Lipo.Weighted>
-12.7643

> <Gold.Chemscore.Internal_Hbond.Weighted>
0.0000

> <Gold.Chemscore.DEClash.Weighted>
3.1211

> <Gold.Chemscore.DEInternal.Weighted>
4.9548

> <Gold.Chemscore.Rot.Weighted>
10.4879

> <Gold.Chemscore.Internal.Correction.Weighted>
   9.000000E+99

> <Gold.Protein.RotatedTorsions>
[ 6907 6896 6895 6894 ] final  -50.91 input  -60.11 | X-H torsion
[ 7974 7965 7964 7962 ] final  -11.95 input  175.53 | X-H torsion
[ 8008 7997 7996 7995 ] final  -27.91 input   59.86 | X-H torsion
[ 10167 10162 10161 10158 ] final  -26.66 input  -65.29 | X-H torsion
[ 10718 10713 10712 10709 ] final   45.69 input   66.30 | X-H torsion
[ 10763 10752 10751 10750 ] final   29.32 input  -60.55 | X-H torsion
[ 11005 11000 10999 10996 ] final  -22.85 input  -57.11 | X-H torsion

> <Gold.Protein.ActiveResidues>
 VAL166  LYS551  ARG553  GLY616  TRP617  ASP618  TYR619  PRO620  LYS621  CYS622 
 ASP623  PHE694  ASN695  SER759  ASP760  ASP761  ALA762  ILE779  LEU786  VAL792 
 PHE793  MET794  SER795  GLU796  ALA797  LYS798  CYS799  TRP800  GLU811  SER814 

> <Gold.Protein.RotatedAtoms>
  150.8661  134.8025  159.7119 H   0  0  0  0  0  0  0  0  0  0  0  0  # atno 6907 bound_to 6896
  152.4682  134.5021  159.9738 H   0  0  0  0  0  0  0  0  0  0  0  0  # atno 6908 bound_to 6896
  151.5117  133.3445  159.2921 H   0  0  0  0  0  0  0  0  0  0  0  0  # atno 6909 bound_to 6896
  146.2169  140.2987  142.8373 H   0  0  0  0  0  0  0  0  0  0  0  0  # atno 7974 bound_to 7965
  154.4355  140.1859  156.1007 H   0  0  0  0  0  0  0  0  0  0  0  0  # atno 8008 bound_to 7997
  156.0294  140.3332  155.7098 H   0  0  0  0  0  0  0  0  0  0  0  0  # atno 8009 bound_to 7997
  155.5861  140.0626  157.2761 H   0  0  0  0  0  0  0  0  0  0  0  0  # atno 8010 bound_to 7997
  140.7281  143.4159  151.1030 H   0  0  0  0  0  0  0  0  0  0  0  0  # atno 10167 bound_to 10162
  157.4402  130.8077  149.7687 H   0  0  0  0  0  0  0  0  0  0  0  0  # atno 10718 bound_to 10713
  153.0437  135.6492  154.0873 H   0  0  0  0  0  0  0  0  0  0  0  0  # atno 10763 bound_to 10752
  154.0575  135.2890  155.3332 H   0  0  0  0  0  0  0  0  0  0  0  0  # atno 10764 bound_to 10752
  154.6679  135.5367  153.8166 H   0  0  0  0  0  0  0  0  0  0  0  0  # atno 10765 bound_to 10752
  140.8696  133.7730  156.0170 H   0  0  0  0  0  0  0  0  0  0  0  0  # atno 11005 bound_to 11000
  144.9073  140.7715  143.5829 LP  0  0  0  0  0  0  0  0  0  0  0  0  # atno 17320 bound_to 7965
  145.2916  139.1882  143.4737 LP  0  0  0  0  0  0  0  0  0  0  0  0  # atno 17321 bound_to 7965
  139.7798  143.8372  152.3135 LP  0  0  0  0  0  0  0  0  0  0  0  0  # atno 17342 bound_to 10162
  139.8319  144.7250  150.9440 LP  0  0  0  0  0  0  0  0  0  0  0  0  # atno 17343 bound_to 10162
  155.9946  130.3917  150.2853 LP  0  0  0  0  0  0  0  0  0  0  0  0  # atno 17370 bound_to 10713
  157.1017  131.0197  151.3083 LP  0  0  0  0  0  0  0  0  0  0  0  0  # atno 17371 bound_to 10713
  140.8589  134.2865  157.5243 LP  0  0  0  0  0  0  0  0  0  0  0  0  # atno 17394 bound_to 11000
  139.8711  134.9507  156.4064 LP  0  0  0  0  0  0  0  0  0  0  0  0  # atno 17395 bound_to 11000

$$$$
