AV-unprocessed.smi:2346|AV-procd|sdf|9365|dock6
  -GOLD-   2272012593D 1   1.00000     0.00000
 Structure written by MMmdl.
 44 46  0  0  0  0  0  0  0  0  1 V2000
  147.2970  137.0425  163.1385 C   0  0  0  0  0  0  0  0  0  0  0  0
  147.6987  137.1266  161.7789 O   0  0  0  0  0  0  0  0  0  0  0  0
  147.7134  135.9700  161.0263 C   0  0  0  0  0  0  0  0  0  0  0  0
  147.3370  134.6997  161.5326 C   0  0  0  0  0  0  0  0  0  0  0  0
  147.3747  133.5596  160.7065 C   0  0  0  0  0  0  0  0  0  0  0  0
  146.9865  132.2627  161.2353 C   0  0  0  0  0  0  0  0  0  0  0  0
  146.6775  131.2302  161.6562 N   0  0  0  0  0  0  0  0  0  0  0  0
  147.7893  133.6789  159.3677 C   0  0  0  0  0  0  0  0  0  0  0  0
  148.1652  134.9340  158.8566 C   0  0  0  0  0  0  0  0  0  0  0  0
  148.1302  136.0880  159.6800 C   0  0  0  0  0  0  0  0  0  0  0  0
  148.4844  137.3486  159.2447 O   0  0  0  0  0  0  0  0  0  0  0  0
  148.9689  137.4958  157.9178 C   0  0  0  0  0  0  0  0  0  0  0  0
  149.9697  138.6571  157.8907 C   0  0  0  0  0  0  0  0  0  0  0  0
  150.0035  139.3159  156.5927 N   0  0  0  0  0  0  0  0  0  0  0  0
  150.9647  139.2596  155.6323 C   0  0  0  0  0  0  0  0  0  0  0  0
  152.2345  138.4657  155.7861 C   0  0  2  0  0  0  0  0  0  0  0  0
  153.2692  138.8223  154.7094 C   0  0  0  0  0  0  0  0  0  0  0  0
  151.9988  137.0737  155.7293 O   0  0  0  0  0  0  0  0  0  0  0  0
  150.7143  139.9659  154.5273 N   0  0  0  0  0  0  0  0  0  0  0  0
  149.4889  140.5397  154.7979 C   0  0  0  0  0  0  0  0  0  0  0  0
  148.6889  141.4051  154.0179 C   0  0  0  0  0  0  0  0  0  0  0  0
  147.4536  141.8735  154.5114 C   0  0  0  0  0  0  0  0  0  0  0  0
  147.0026  141.4848  155.7892 C   0  0  0  0  0  0  0  0  0  0  0  0
  147.7845  140.6225  156.5819 C   0  0  0  0  0  0  0  0  0  0  0  0
  149.0165  140.1560  156.0842 C   0  0  0  0  0  0  0  0  0  0  0  0
  147.3429  138.0340  163.5885 H   0  0  0  0  0  0  0  0  0  0  0  0
  147.9594  136.3909  163.7101 H   0  0  0  0  0  0  0  0  0  0  0  0
  146.2699  136.6868  163.2310 H   0  0  0  0  0  0  0  0  0  0  0  0
  147.0147  134.5798  162.5564 H   0  0  0  0  0  0  0  0  0  0  0  0
  147.8216  132.8106  158.7251 H   0  0  0  0  0  0  0  0  0  0  0  0
  148.4777  134.9837  157.8248 H   0  0  0  0  0  0  0  0  0  0  0  0
  149.4609  136.5778  157.5921 H   0  0  0  0  0  0  0  0  0  0  0  0
  148.1412  137.7012  157.2389 H   0  0  0  0  0  0  0  0  0  0  0  0
  149.7445  139.3892  158.6655 H   0  0  0  0  0  0  0  0  0  0  0  0
  150.9687  138.2847  158.1189 H   0  0  0  0  0  0  0  0  0  0  0  0
  152.6805  138.6581  156.7596 H   0  0  0  0  0  0  0  0  0  0  0  0
  153.5168  139.8833  154.7346 H   0  0  0  0  0  0  0  0  0  0  0  0
  152.8969  138.5945  153.7100 H   0  0  0  0  0  0  0  0  0  0  0  0
  154.1949  138.2642  154.8537 H   0  0  0  0  0  0  0  0  0  0  0  0
  151.0666  136.9309  155.6708 H   0  0  0  0  0  0  0  0  0  0  0  0
  149.0267  141.7095  153.0385 H   0  0  0  0  0  0  0  0  0  0  0  0
  146.8496  142.5343  153.9069 H   0  0  0  0  0  0  0  0  0  0  0  0
  146.0559  141.8490  156.1605 H   0  0  0  0  0  0  0  0  0  0  0  0
  147.4392  140.3250  157.5607 H   0  0  0  0  0  0  0  0  0  0  0  0
  1  2  1  0  0  0  0
  1 26  1  0  0  0  0
  1 27  1  0  0  0  0
  1 28  1  0  0  0  0
  2  3  1  0  0  0  0
  3 10  1  0  0  0  0
  3  4  2  0  0  0  0
  4  5  1  0  0  0  0
  4 29  1  0  0  0  0
  5  6  1  0  0  0  0
  5  8  2  0  0  0  0
  6  7  3  0  0  0  0
  8  9  1  0  0  0  0
  8 30  1  0  0  0  0
  9 10  2  0  0  0  0
  9 31  1  0  0  0  0
 10 11  1  0  0  0  0
 11 12  1  0  0  0  0
 12 13  1  0  0  0  0
 12 32  1  0  0  0  0
 12 33  1  0  0  0  0
 13 14  1  0  0  0  0
 13 34  1  0  0  0  0
 13 35  1  0  0  0  0
 14 25  1  0  0  0  0
 14 15  1  0  0  0  0
 15 16  1  0  0  0  0
 15 19  2  0  0  0  0
 16 17  1  0  0  0  0
 16 18  1  0  0  0  0
 16 36  1  0  0  0  0
 17 37  1  0  0  0  0
 17 38  1  0  0  0  0
 17 39  1  0  0  0  0
 18 40  1  0  0  0  0
 19 20  1  0  0  0  0
 20 25  2  0  0  0  0
 20 21  1  0  0  0  0
 21 22  2  0  0  0  0
 21 41  1  0  0  0  0
 22 23  1  0  0  0  0
 22 42  1  0  0  0  0
 23 24  2  0  0  0  0
 23 43  1  0  0  0  0
 24 25  1  0  0  0  0
 24 44  1  0  0  0  0
M  END
> <s_m_source_file>
AV-unprocessed.smi

> <i_m_source_file_index>
2346

> <i_lp_mmshare_version>
43012

> <i_f3d_flags>
0

> <s_epik_input>
W0NIM11PYzFbY0hdYyhDI04pW2NIXVtjSF1jMU9bQ0gyXVtDSDJdbihjKG4yKVtDQEhdKFtDSDNdKVtPSF0pYyhjMjMpW2NIXVtjSF1bY0hdW2NIXTM=

> <s_epik_cmdline>
J2VwaWtfcHl0aG9uJywgJy1waCcsICc3LjAnLCAnLXRuJywgJzgnLCAnLW1hJywgJzIwMCcsICctbWV0YWxfYmluZGluZycsICctaW1hZScsICc8aW5maWxlLm1hZT4nLCAnLW9tYWUnLCAnPG91dGZpbGUubWFlPic=

> <r_epik_Ionization_Penalty>
0.0419826

> <r_epik_Ionization_Penalty_Charging>
0

> <r_epik_Ionization_Penalty_Neutral>
0.0419826

> <r_epik_State_Penalty>
0.0354317

> <r_epik_Charging_Adjusted_Penalty>
0.0354317

> <i_epik_Tot_Q>
0

> <i_epik_Tot_abs_Q>
0

> <r_epik_Metal_State_Penalty>
3.65115e-05

> <b_epik_Metal_Only>
0

> <s_lp_Force_Field>
OPLS_2005

> <r_lp_Energy>
19.3722

> <b_lp_Chiralities_Consistent>
1

> <s_lp_Variant>
AV-unprocessed.smi:2346-1

> <Gold.Version>
5.8.1

> <Gold.Id.Protein>
6NUR|6NUR_protein|mol2

> <Gold.PLP.Fitness>
49.1471

> <Gold.PLP.PLP>
-39.8538

> <Gold.PLP.part.hbond>
-4.2366

> <Gold.PLP.part.metal>
0.0000

> <Gold.PLP.part.buried>
-2.8576

> <Gold.PLP.part.nonpolar>
-32.7758

> <Gold.PLP.part.repulsive>
0.1404

> <Gold.PLP.ligand.clash>
0.0000

> <Gold.PLP.ligand.torsion>
0.7875

> <Gold.PLP.Chemscore.Hbond>
3.5897

> <Gold.PLP.Chemscore.CHOScore>
0.0000

> <Gold.PLP.Chemscore.Metal>
0.0000

> <Gold.Chemscore.Hbonds>
donor molecule, donor type, donor heavy atom, donor atom, acceptor molecule, acceptor atom, score
      P1  H  6931  6943       L1     2  1.00
      P1  H  6934  6947       L1     2  0.53
      P1  H  7989  7998       L1    19  1.00
      P1  H 10752 10764       L1    18  0.97

> <Gold.PLP.Chemscore.Internal.Correction>
0.0994

> <Gold.Rescore>
     Score         DG    S(hbond)    S(metal)    S(lipo)     H(rot)  DE(clash)    DE(int)     intcor
     17.37     -18.09       2.62        0.00      89.12       2.57       0.07       0.65       ----

> <Gold.Chemscore.Fitness>
17.3687

> <Gold.Chemscore.DG>
-18.0914

> <Gold.Chemscore.ZeroCoef>
-5.4800

> <Gold.Chemscore.Hbond>
2.6223

> <Gold.Chemscore.Metal>
0.0000

> <Gold.Chemscore.Lipo>
89.1205

> <Gold.Chemscore.Internal_Hbond>
0.0000

> <Gold.Chemscore.DEClash>
0.0717

> <Gold.Chemscore.DEInternal>
0.6509

> <Gold.Chemscore.Rot>
2.5681

> <Gold.Chemscore.Internal.Correction>
   9.000000E+99

> <Gold.Chemscore.Hbonds>
donor molecule, donor type, donor heavy atom, donor atom, acceptor molecule, acceptor atom, score
      P1  H  6931  6943       L1     2  0.25
      P1  H  6934  6947       L1     2  0.41
      P1  H  7989  7998       L1    19  0.85
      P1  H 10752 10764       L1    18  0.68

> <Gold.Chemscore.Hbond.Weighted>
-8.7586

> <Gold.Chemscore.Metal.Weighted>
-0.0000

> <Gold.Chemscore.Lipo.Weighted>
-10.4271

> <Gold.Chemscore.Internal_Hbond.Weighted>
0.0000

> <Gold.Chemscore.DEClash.Weighted>
0.0717

> <Gold.Chemscore.DEInternal.Weighted>
0.6509

> <Gold.Chemscore.Rot.Weighted>
6.5743

> <Gold.Chemscore.Internal.Correction.Weighted>
   9.000000E+99

> <Gold.Protein.RotatedTorsions>
[ 6907 6896 6895 6894 ] final   60.91 input  -60.11 | X-H torsion
[ 7974 7965 7964 7962 ] final  -22.73 input  175.53 | X-H torsion
[ 8008 7997 7996 7995 ] final   37.66 input   59.86 | X-H torsion
[ 10167 10162 10161 10158 ] final   81.93 input  -65.29 | X-H torsion
[ 10718 10713 10712 10709 ] final  153.72 input   66.30 | X-H torsion
[ 10763 10752 10751 10750 ] final  -44.85 input  -60.55 | X-H torsion
[ 11005 11000 10999 10996 ] final -166.91 input  -57.11 | X-H torsion

> <Gold.Protein.ActiveResidues>
 VAL166  LYS551  ARG553  GLY616  TRP617  ASP618  TYR619  PRO620  LYS621  CYS622 
 ASP623  PHE694  ASN695  SER759  ASP760  ASP761  ALA762  ILE779  LEU786  VAL792 
 PHE793  MET794  SER795  GLU796  ALA797  LYS798  CYS799  TRP800  GLU811  SER814 

> <Gold.Protein.RotatedAtoms>
  152.4044  134.6232  160.0056 H   0  0  0  0  0  0  0  0  0  0  0  0  # atno 6907 bound_to 6896
  151.6428  133.3319  159.3142 H   0  0  0  0  0  0  0  0  0  0  0  0  # atno 6908 bound_to 6896
  150.7940  134.7028  159.6604 H   0  0  0  0  0  0  0  0  0  0  0  0  # atno 6909 bound_to 6896
  146.1658  140.4519  142.8552 H   0  0  0  0  0  0  0  0  0  0  0  0  # atno 7974 bound_to 7965
  155.2074  140.3320  155.4334 H   0  0  0  0  0  0  0  0  0  0  0  0  # atno 8008 bound_to 7997
  156.2384  140.1883  156.7106 H   0  0  0  0  0  0  0  0  0  0  0  0  # atno 8009 bound_to 7997
  154.6101  140.0610  156.9468 H   0  0  0  0  0  0  0  0  0  0  0  0  # atno 8010 bound_to 7997
  139.9341  144.6132  150.8315 H   0  0  0  0  0  0  0  0  0  0  0  0  # atno 10167 bound_to 10162
  157.2410  131.0759  151.1792 H   0  0  0  0  0  0  0  0  0  0  0  0  # atno 10718 bound_to 10713
  154.0188  135.6672  153.4771 H   0  0  0  0  0  0  0  0  0  0  0  0  # atno 10763 bound_to 10752
  153.0589  135.5039  154.8043 H   0  0  0  0  0  0  0  0  0  0  0  0  # atno 10764 bound_to 10752
  154.6950  135.3068  154.9389 H   0  0  0  0  0  0  0  0  0  0  0  0  # atno 10765 bound_to 10752
  140.5592  134.5350  157.5139 H   0  0  0  0  0  0  0  0  0  0  0  0  # atno 11005 bound_to 11000
  144.8091  140.6352  143.6427 LP  0  0  0  0  0  0  0  0  0  0  0  0  # atno 17320 bound_to 7965
  145.4471  139.1528  143.3939 LP  0  0  0  0  0  0  0  0  0  0  0  0  # atno 17321 bound_to 7965
  140.7629  143.3210  151.2622 LP  0  0  0  0  0  0  0  0  0  0  0  0  # atno 17342 bound_to 10162
  139.6758  143.9941  152.2780 LP  0  0  0  0  0  0  0  0  0  0  0  0  # atno 17343 bound_to 10162
  157.3378  130.7018  149.6363 LP  0  0  0  0  0  0  0  0  0  0  0  0  # atno 17370 bound_to 10713
  155.9670  130.4288  150.4806 LP  0  0  0  0  0  0  0  0  0  0  0  0  # atno 17371 bound_to 10713
  139.9416  134.7776  156.0664 LP  0  0  0  0  0  0  0  0  0  0  0  0  # atno 17394 bound_to 11000
  141.1125  133.6638  156.3013 LP  0  0  0  0  0  0  0  0  0  0  0  0  # atno 17395 bound_to 11000

$$$$
