#       Name:                AV-unprocessed.smi:2893
#       Creating user name   scv26
#       Creation time:       Fri Mar 27 15:59:35 2020


#       File generated by GOLD software.
#

@<TRIPOS>MOLECULE
AV-unprocessed.smi:2893
    43    45     1
SMALL
NO_CHARGES


@<TRIPOS>ATOM
      1 ****        -6.2943  -0.3940   0.9471 C.3            1 S1                 0.0000
      2 ****        -5.6213  -0.3771  -0.4316 C.3            1 S1                 0.0000
      3 ****        -4.1987  -0.0746  -0.3288 N.am           1 S1                 0.0000
      4 ****        -3.6742   1.1568  -0.2047 C.2            1 S1                 0.0000
      5 ****        -4.3570   2.1820  -0.1884 O.2            1 S1                 0.0000
      6 ****        -2.1727   1.2272  -0.1246 C.ar           1 S1                 0.0000
      7 ****        -1.5062   2.4449  -0.3819 C.ar           1 S1                 0.0000
      8 ****        -0.1050   2.4618  -0.2763 C.ar           1 S1                 0.0000
      9 ****         0.5395   1.2631   0.0831 C.ar           1 S1                 0.0000
     10 ****         1.9367   1.2549   0.2003 N.pl3          1 S1                 0.0000
     11 ****         2.6729   0.0207   0.4529 C.3            1 S1                 0.0000
     12 ****         4.1501   0.2801   0.7651 C.3            1 S1                 0.0000
     13 ****         4.8550  -0.6018  -0.2733 C.3            1 S1                 0.0000
     14 ****         4.6619  -2.0992   0.0044 C.3            1 S1                 0.0000
     15 ****         3.2009  -2.3056  -0.3950 C.3            1 S1                 0.0000
     16 ****         2.7783  -0.8844  -0.7901 C.3            1 S1                 0.0000
     17 ****         3.9856  -0.4251  -1.3769 O.3            1 S1                 0.0000
     18 ****        -0.1554   0.1241   0.3242 N.ar           1 S1                 0.0000
     19 ****        -1.4886   0.1075   0.2231 N.ar           1 S1                 0.0000
     20 ****        -7.3502  -0.6504   0.8597 H              1 S1                 0.0000
     21 ****        -6.2301   0.5804   1.4325 H              1 S1                 0.0000
     22 ****        -5.8271  -1.1279   1.6046 H              1 S1                 0.0000
     23 ****        -5.7283  -1.3535  -0.9044 H              1 S1                 0.0000
     24 ****        -6.1158   0.3415  -1.0871 H              1 S1                 0.0000
     25 ****        -3.5607  -0.8574  -0.3453 H              1 S1                 0.0000
     26 ****        -2.0448   3.3415  -0.6526 H              1 S1                 0.0000
     27 ****         0.4533   3.3673  -0.4636 H              1 S1                 0.0000
     28 ****         2.4586   2.0915  -0.0167 H              1 S1                 0.0000
     29 ****         2.2015  -0.5131   1.2792 H              1 S1                 0.0000
     30 ****         4.4178   1.3266   0.6102 H              1 S1                 0.0000
     31 ****         4.4165   0.0123   1.7880 H              1 S1                 0.0000
     32 ****         5.8892  -0.3160  -0.4664 H              1 S1                 0.0000
     33 ****         5.3186  -2.7004  -0.6254 H              1 S1                 0.0000
     34 ****         4.8577  -2.3543   1.0463 H              1 S1                 0.0000
     35 ****         3.1298  -2.9806  -1.2486 H              1 S1                 0.0000
     36 ****         2.5926  -2.7124   0.4135 H              1 S1                 0.0000
     37 ****         1.9133  -0.8570  -1.4535 H              1 S1                 0.0000
     38 ****        -5.3518   2.1215  -0.2698 LP             1 S1                 0.0000
     39 ****        -3.9164   3.0747  -0.0937 LP             1 S1                 0.0000
     40 ****         4.2572  -0.9839  -2.1604 LP             1 S1                 0.0000
     41 ****         3.9252   0.5333  -1.6560 LP             1 S1                 0.0000
     42 ****         0.3331  -0.7102   0.5797 LP             1 S1                 0.0000
     43 ****        -1.9875  -0.7397   0.4058 LP             1 S1                 0.0000
@<TRIPOS>BOND
    1    1    2 1     
    2    1   20 1     
    3    1   21 1     
    4    1   22 1     
    5    2    3 1     
    6    2   23 1     
    7    2   24 1     
    8    3    4 am    
    9    3   25 1     
   10    4    5 2     
   11    4    6 1     
   12    6   19 ar    
   13    6    7 ar    
   14    7    8 ar    
   15    7   26 1     
   16    8    9 ar    
   17    8   27 1     
   18    9   10 1     
   19    9   18 ar    
   20   10   11 1     
   21   10   28 1     
   22   11   16 1     
   23   11   12 1     
   24   11   29 1     
   25   12   13 1     
   26   12   30 1     
   27   12   31 1     
   28   13   17 1     
   29   13   14 1     
   30   13   32 1     
   31   14   15 1     
   32   14   33 1     
   33   14   34 1     
   34   15   16 1     
   35   15   35 1     
   36   15   36 1     
   37   16   17 1     
   38   16   37 1     
   39   18   19 ar    
   40    5   38 1     
   41    5   39 1     
   42   17   40 1     
   43   17   41 1     
   44   18   42 1     
   45   19   43 1     
@<TRIPOS>SUBSTRUCTURE
      1 S1             1
@<TRIPOS>SET
LONE_PAIRS      STATIC     ATOMS    <user>   **** ""
6 38 39 40 41 42 43
DONOR_HYDROGENS      STATIC     ATOMS    <user>   **** ""
2 25 28
ATOM$BLUE        STATIC     ATOMS    COLORGROUP SYSTEM
6 38 39 40 41 42 43
ATOM$RED        STATIC     ATOMS    COLORGROUP SYSTEM
2 25 28
