AV-unprocessed.smi:845|AV-procd|sdf|3932|dock7
  -GOLD-   22720 1393D 1   1.00000     0.00000
 Structure written by MMmdl.
 42 43  0  0  0  0  0  0  0  0  3 V2000
  150.9409  138.1880  154.4763 C   0  0  0  0  0  0  0  0  0  0  0  0
  151.4569  139.0074  155.6763 C   0  0  0  0  0  0  0  0  0  0  0  0
  152.7904  138.4014  156.1546 C   0  0  0  0  0  0  0  0  0  0  0  0
  150.3943  139.1114  156.8089 C   0  0  1  0  0  0  0  0  0  0  0  0
  150.2998  137.8099  157.6603 C   0  0  0  0  0  0  0  0  0  0  0  0
  149.3831  137.9049  158.7914 N   0  0  0  0  0  0  0  0  0  0  0  0
  148.8988  136.8728  159.4959 C   0  0  0  0  0  0  0  0  0  0  0  0
  149.2472  135.7225  159.2211 O   0  0  0  0  0  0  0  0  0  0  0  0
  148.0243  137.2401  160.4584 N   0  5  0  0  0  0  0  0  0  0  0  0
  147.4239  136.3051  161.2120 C   0  0  0  0  0  0  0  0  0  0  0  0
  147.7896  135.0183  161.2077 N   0  0  0  0  0  0  0  0  0  0  0  0
  147.0352  134.2246  162.0735 C   0  0  0  0  0  0  0  0  0  0  0  0
  146.0775  134.9253  162.7579 C   0  0  0  0  0  0  0  0  0  0  0  0
  146.0948  136.6132  162.3330 S   0  0  0  0  0  0  0  0  0  0  0  0
  150.6347  140.3516  157.6127 N   0  3  0  0  0  0  0  0  0  0  0  0
  151.8996  140.3815  158.3878 C   0  0  0  0  0  0  0  0  0  0  0  0
  151.8896  141.5758  159.3556 C   0  0  0  0  0  0  0  0  0  0  0  0
  151.6858  142.7821  158.6279 O   0  0  0  0  0  0  0  0  0  0  0  0
  150.4391  142.7929  157.9415 C   0  0  0  0  0  0  0  0  0  0  0  0
  150.3988  141.6434  156.9216 C   0  0  0  0  0  0  0  0  0  0  0  0
  150.6678  137.1758  154.7770 H   0  0  0  0  0  0  0  0  0  0  0  0
  151.7018  138.1076  153.6994 H   0  0  0  0  0  0  0  0  0  0  0  0
  150.0669  138.6454  154.0125 H   0  0  0  0  0  0  0  0  0  0  0  0
  151.6764  140.0125  155.3144 H   0  0  0  0  0  0  0  0  0  0  0  0
  152.6383  137.4311  156.6289 H   0  0  0  0  0  0  0  0  0  0  0  0
  153.3017  139.0492  156.8658 H   0  0  0  0  0  0  0  0  0  0  0  0
  153.4778  138.2572  155.3206 H   0  0  0  0  0  0  0  0  0  0  0  0
  149.4346  139.2382  156.3053 H   0  0  0  0  0  0  0  0  0  0  0  0
  149.9767  136.9683  157.0478 H   0  0  0  0  0  0  0  0  0  0  0  0
  151.2823  137.5355  158.0445 H   0  0  0  0  0  0  0  0  0  0  0  0
  149.0779  138.8298  159.0574 H   0  0  0  0  0  0  0  0  0  0  0  0
  147.2493  133.1685  162.1403 H   0  0  0  0  0  0  0  0  0  0  0  0
  145.3679  134.5546  163.4819 H   0  0  0  0  0  0  0  0  0  0  0  0
  152.0196  139.4549  158.9504 H   0  0  0  0  0  0  0  0  0  0  0  0
  152.7580  140.4705  157.7246 H   0  0  0  0  0  0  0  0  0  0  0  0
  151.1113  141.4578  160.1112 H   0  0  0  0  0  0  0  0  0  0  0  0
  152.8407  141.6382  159.8848 H   0  0  0  0  0  0  0  0  0  0  0  0
  149.6174  142.7095  158.6547 H   0  0  0  0  0  0  0  0  0  0  0  0
  150.3237  143.7502  157.4328 H   0  0  0  0  0  0  0  0  0  0  0  0
  151.1600  141.8115  156.1593 H   0  0  0  0  0  0  0  0  0  0  0  0
  149.4324  141.6320  156.4177 H   0  0  0  0  0  0  0  0  0  0  0  0
  149.9226  140.3068  158.3272 H   0  0  0  0  0  0  0  0  0  0  0  0
  1  2  1  0  0  0  0
  1 21  1  0  0  0  0
  1 22  1  0  0  0  0
  1 23  1  0  0  0  0
  2  3  1  0  0  0  0
  2  4  1  0  0  0  0
  2 24  1  0  0  0  0
  3 25  1  0  0  0  0
  3 26  1  0  0  0  0
  3 27  1  0  0  0  0
  4  5  1  0  0  0  0
  4 15  1  0  0  0  0
  4 28  1  0  0  0  0
  5  6  1  0  0  0  0
  5 29  1  0  0  0  0
  5 30  1  0  0  0  0
  6  7  1  0  0  0  0
  6 31  1  0  0  0  0
  7  8  2  0  0  0  0
  7  9  1  0  0  0  0
  9 10  1  0  0  0  0
 10 14  1  0  0  0  0
 10 11  2  0  0  0  0
 11 12  1  0  0  0  0
 12 13  2  0  0  0  0
 12 32  1  0  0  0  0
 13 14  1  0  0  0  0
 13 33  1  0  0  0  0
 15 20  1  0  0  0  0
 15 16  1  0  0  0  0
 15 42  1  0  0  0  0
 16 17  1  0  0  0  0
 16 34  1  0  0  0  0
 16 35  1  0  0  0  0
 17 18  1  0  0  0  0
 17 36  1  0  0  0  0
 17 37  1  0  0  0  0
 18 19  1  0  0  0  0
 19 20  1  0  0  0  0
 19 38  1  0  0  0  0
 19 39  1  0  0  0  0
 20 40  1  0  0  0  0
 20 41  1  0  0  0  0
M  CHG  1   9  -1
M  CHG  1  15   1
M  END
> <s_m_source_file>
AV-unprocessed.smi

> <i_m_source_file_index>
845

> <i_lp_mmshare_version>
43012

> <i_f3d_flags>
0

> <s_epik_input>
W0NIMl0xW0NIMl1PW0NIMl1bQ0gyXU4xW0NASF0oW0NIXShbQ0gzXSlbQ0gzXSlbQ0gyXVtOSF1DKD1PKVtOSF1jMm5bY0hdW2NIXXMy

> <s_epik_cmdline>
J2VwaWtfcHl0aG9uJywgJy1waCcsICc3LjAnLCAnLXRuJywgJzgnLCAnLW1hJywgJzIwMCcsICctbWV0YWxfYmluZGluZycsICctaW1hZScsICc8aW5maWxlLm1hZT4nLCAnLW9tYWUnLCAnPG91dGZpbGUubWFlPic=

> <r_lp_tautomer_probability>
0.999

> <r_epik_Ionization_Penalty>
7.97104

> <r_epik_Ionization_Penalty_Charging>
6.58021

> <r_epik_Ionization_Penalty_Neutral>
1.39083

> <r_epik_State_Penalty>
6.69807

> <r_epik_Charging_Adjusted_Penalty>
13.2783

> <i_epik_Tot_Q>
0

> <i_epik_Tot_abs_Q>
2

> <r_epik_Metal_State_Penalty>
2.62985

> <b_epik_Metal_Only>
1

> <s_lp_Force_Field>
OPLS_2005

> <r_lp_Energy>
19.9677

> <b_lp_Chiralities_Consistent>
1

> <s_lp_Variant>
AV-unprocessed.smi:845-6

> <Gold.Version>
5.8.1

> <Gold.Id.Protein>
6NUR|6NUR_protein|mol2

> <Gold.PLP.Fitness>
44.1606

> <Gold.PLP.PLP>
-33.2073

> <Gold.PLP.part.hbond>
-3.0000

> <Gold.PLP.part.metal>
0.0000

> <Gold.PLP.part.buried>
-5.3308

> <Gold.PLP.part.nonpolar>
-26.5497

> <Gold.PLP.part.repulsive>
0.2898

> <Gold.PLP.ligand.clash>
0.0000

> <Gold.PLP.ligand.torsion>
0.6200

> <Gold.PLP.Chemscore.Hbond>
3.9311

> <Gold.PLP.Chemscore.CHOScore>
0.0000

> <Gold.PLP.Chemscore.Metal>
0.0000

> <Gold.Chemscore.Hbonds>
donor molecule, donor type, donor heavy atom, donor atom, acceptor molecule, acceptor atom, score
      P1  H  6896  6909       L1     8  1.00
      P1  H  6931  6943       L1     9  1.44
      P1  H  6934  6947       L1     9  1.47

> <Gold.PLP.Chemscore.Internal.Correction>
0.4000

> <Gold.Rescore>
     Score         DG    S(hbond)    S(metal)    S(lipo)     H(rot)  DE(clash)    DE(int)     intcor
     13.70     -16.13       1.81        0.00      77.84       1.76       0.01       2.41       ----

> <Gold.Chemscore.Fitness>
13.7045

> <Gold.Chemscore.DG>
-16.1252

> <Gold.Chemscore.ZeroCoef>
-5.4800

> <Gold.Chemscore.Hbond>
1.8111

> <Gold.Chemscore.Metal>
0.0000

> <Gold.Chemscore.Lipo>
77.8440

> <Gold.Chemscore.Internal_Hbond>
0.0000

> <Gold.Chemscore.DEClash>
0.0133

> <Gold.Chemscore.DEInternal>
2.4074

> <Gold.Chemscore.Rot>
1.7623

> <Gold.Chemscore.Internal.Correction>
   9.000000E+99

> <Gold.Chemscore.Hbonds>
donor molecule, donor type, donor heavy atom, donor atom, acceptor molecule, acceptor atom, score
      P1  H  6896  6909       L1     8  0.98
      P1  H  6931  6943       L1     9  0.13
      P1  H  6934  6947       L1     9  0.46

> <Gold.Chemscore.Hbond.Weighted>
-6.0491

> <Gold.Chemscore.Metal.Weighted>
-0.0000

> <Gold.Chemscore.Lipo.Weighted>
-9.1077

> <Gold.Chemscore.Internal_Hbond.Weighted>
0.0000

> <Gold.Chemscore.DEClash.Weighted>
0.0133

> <Gold.Chemscore.DEInternal.Weighted>
2.4074

> <Gold.Chemscore.Rot.Weighted>
4.5116

> <Gold.Chemscore.Internal.Correction.Weighted>
   9.000000E+99

> <Gold.Protein.RotatedTorsions>
[ 6907 6896 6895 6894 ] final   74.98 input  -60.11 | X-H torsion
[ 7974 7965 7964 7962 ] final   86.74 input  175.53 | X-H torsion
[ 8008 7997 7996 7995 ] final  -13.79 input   59.86 | X-H torsion
[ 10167 10162 10161 10158 ] final  -78.02 input  -65.29 | X-H torsion
[ 10718 10713 10712 10709 ] final  145.10 input   66.30 | X-H torsion
[ 10763 10752 10751 10750 ] final  110.02 input  -60.55 | X-H torsion
[ 11005 11000 10999 10996 ] final  172.74 input  -57.11 | X-H torsion

> <Gold.Protein.ActiveResidues>
 VAL166  LYS551  ARG553  GLY616  TRP617  ASP618  TYR619  PRO620  LYS621  CYS622 
 ASP623  PHE694  ASN695  SER759  ASP760  ASP761  ALA762  ILE779  LEU786  VAL792 
 PHE793  MET794  SER795  GLU796  ALA797  LYS798  CYS799  TRP800  GLU811  SER814 

> <Gold.Protein.RotatedAtoms>
  152.5003  134.4189  159.9473 H   0  0  0  0  0  0  0  0  0  0  0  0  # atno 6907 bound_to 6896
  151.4161  133.3706  159.2758 H   0  0  0  0  0  0  0  0  0  0  0  0  # atno 6908 bound_to 6896
  150.9256  134.8695  159.7577 H   0  0  0  0  0  0  0  0  0  0  0  0  # atno 6909 bound_to 6896
  145.5683  139.2311  143.2421 H   0  0  0  0  0  0  0  0  0  0  0  0  # atno 7974 bound_to 7965
  154.5263  140.2240  155.8884 H   0  0  0  0  0  0  0  0  0  0  0  0  # atno 8008 bound_to 7997
  156.1716  140.3120  155.8949 H   0  0  0  0  0  0  0  0  0  0  0  0  # atno 8009 bound_to 7997
  155.3545  140.0457  157.3037 H   0  0  0  0  0  0  0  0  0  0  0  0  # atno 8010 bound_to 7997
  140.4719  143.2424  151.8192 H   0  0  0  0  0  0  0  0  0  0  0  0  # atno 10167 bound_to 10162
  157.3492  131.0948  151.1014 H   0  0  0  0  0  0  0  0  0  0  0  0  # atno 10718 bound_to 10713
  153.4430  135.3761  155.2239 H   0  0  0  0  0  0  0  0  0  0  0  0  # atno 10763 bound_to 10752
  154.8754  135.3867  154.4129 H   0  0  0  0  0  0  0  0  0  0  0  0  # atno 10764 bound_to 10752
  153.4678  135.7087  153.6075 H   0  0  0  0  0  0  0  0  0  0  0  0  # atno 10765 bound_to 10752
  140.3330  134.7341  157.4148 H   0  0  0  0  0  0  0  0  0  0  0  0  # atno 11005 bound_to 11000
  146.1802  140.6509  142.9192 LP  0  0  0  0  0  0  0  0  0  0  0  0  # atno 17320 bound_to 7965
  144.7450  140.5043  143.6842 LP  0  0  0  0  0  0  0  0  0  0  0  0  # atno 17321 bound_to 7965
  139.4820  144.4881  151.9220 LP  0  0  0  0  0  0  0  0  0  0  0  0  # atno 17342 bound_to 10162
  140.3967  144.2546  150.5895 LP  0  0  0  0  0  0  0  0  0  0  0  0  # atno 17343 bound_to 10162
  157.2197  130.6475  149.5806 LP  0  0  0  0  0  0  0  0  0  0  0  0  # atno 17370 bound_to 10713
  155.9719  130.4633  150.6178 LP  0  0  0  0  0  0  0  0  0  0  0  0  # atno 17371 bound_to 10713
  140.0845  134.5685  155.8506 LP  0  0  0  0  0  0  0  0  0  0  0  0  # atno 17394 bound_to 11000
  141.2058  133.6650  156.6206 LP  0  0  0  0  0  0  0  0  0  0  0  0  # atno 17395 bound_to 11000

$$$$
