AV-unprocessed.smi:2063|AV-procd|sdf|8409|dock3
  -GOLD-   2272011 93D 1   1.00000     0.00000
 Structure written by MMmdl.
 39 40  0  0  0  0  0  0  0  0  1 V2000
  151.7672  140.4307  158.2806 C   0  0  0  0  0  0  0  0  0  0  0  0
  151.5172  141.0805  156.9119 C   0  0  0  0  0  0  0  0  0  0  0  0
  150.6691  142.3563  157.0146 C   0  0  0  0  0  0  0  0  0  0  0  0
  150.9446  140.1081  155.9270 C   0  0  0  0  0  0  0  0  0  0  0  0
  151.6008  139.7323  154.8217 N   0  0  0  0  0  0  0  0  0  0  0  0
  150.8759  138.8293  154.0569 N   0  0  0  0  0  0  0  0  0  0  0  0
  149.6876  138.5476  154.6082 C   0  0  0  0  0  0  0  0  0  0  0  0
  148.7444  137.6527  154.0371 N   0  0  0  0  0  0  0  0  0  0  0  0
  147.4727  137.4297  154.4126 C   0  0  0  0  0  0  0  0  0  0  0  0
  146.9024  137.9795  155.3552 O   0  0  0  0  0  0  0  0  0  0  0  0
  146.8898  136.5157  153.6228 N   0  0  0  0  0  0  0  0  0  0  0  0
  145.5199  136.0240  153.7550 C   0  0  1  0  0  0  0  0  0  0  0  0
  144.5562  137.1981  153.5236 C   0  0  0  0  0  0  0  0  0  0  0  0
  145.2816  134.8671  152.7627 C   0  0  2  0  0  0  0  0  0  0  0  0
  145.3740  135.2584  151.2878 C   0  0  0  0  0  0  0  0  0  0  0  0
  144.5513  134.1903  150.5863 C   0  0  0  0  0  0  0  0  0  0  0  0
  143.6986  133.5841  151.7046 C   0  0  0  0  0  0  0  0  0  0  0  0
  143.9468  134.3914  152.8474 O   0  0  0  0  0  0  0  0  0  0  0  0
  149.3562  139.3691  156.1229 S   0  0  0  0  0  0  0  0  0  0  0  0
  152.4274  139.5677  158.1897 H   0  0  0  0  0  0  0  0  0  0  0  0
  150.8370  140.0923  158.7378 H   0  0  0  0  0  0  0  0  0  0  0  0
  152.2372  141.1338  158.9684 H   0  0  0  0  0  0  0  0  0  0  0  0
  152.4925  141.3847  156.5284 H   0  0  0  0  0  0  0  0  0  0  0  0
  150.5623  142.8351  156.0407 H   0  0  0  0  0  0  0  0  0  0  0  0
  151.1288  143.0798  157.6886 H   0  0  0  0  0  0  0  0  0  0  0  0
  149.6688  142.1415  157.3918 H   0  0  0  0  0  0  0  0  0  0  0  0
  149.0780  137.1182  153.2488 H   0  0  0  0  0  0  0  0  0  0  0  0
  147.4398  136.1176  152.8762 H   0  0  0  0  0  0  0  0  0  0  0  0
  145.3550  135.6567  154.7695 H   0  0  0  0  0  0  0  0  0  0  0  0
  143.5190  136.8967  153.6710 H   0  0  0  0  0  0  0  0  0  0  0  0
  144.6473  137.5937  152.5115 H   0  0  0  0  0  0  0  0  0  0  0  0
  144.7577  138.0131  154.2197 H   0  0  0  0  0  0  0  0  0  0  0  0
  145.9636  134.0397  152.9697 H   0  0  0  0  0  0  0  0  0  0  0  0
  144.9151  136.2352  151.1283 H   0  0  0  0  0  0  0  0  0  0  0  0
  146.4010  135.3045  150.9252 H   0  0  0  0  0  0  0  0  0  0  0  0
  143.9397  134.6213  149.7930 H   0  0  0  0  0  0  0  0  0  0  0  0
  145.1914  133.4280  150.1411 H   0  0  0  0  0  0  0  0  0  0  0  0
  142.6362  133.5728  151.4607 H   0  0  0  0  0  0  0  0  0  0  0  0
  144.0113  132.5599  151.9124 H   0  0  0  0  0  0  0  0  0  0  0  0
  1  2  1  0  0  0  0
  1 20  1  0  0  0  0
  1 21  1  0  0  0  0
  1 22  1  0  0  0  0
  2  3  1  0  0  0  0
  2  4  1  0  0  0  0
  2 23  1  0  0  0  0
  3 24  1  0  0  0  0
  3 25  1  0  0  0  0
  3 26  1  0  0  0  0
  4 19  1  0  0  0  0
  4  5  2  0  0  0  0
  5  6  1  0  0  0  0
  6  7  2  0  0  0  0
  7  8  1  0  0  0  0
  7 19  1  0  0  0  0
  8  9  1  0  0  0  0
  8 27  1  0  0  0  0
  9 10  2  0  0  0  0
  9 11  1  0  0  0  0
 11 12  1  0  0  0  0
 11 28  1  0  0  0  0
 12 13  1  0  0  0  0
 12 14  1  0  0  0  0
 12 29  1  0  0  0  0
 13 30  1  0  0  0  0
 13 31  1  0  0  0  0
 13 32  1  0  0  0  0
 14 18  1  0  0  0  0
 14 15  1  0  0  0  0
 14 33  1  0  0  0  0
 15 16  1  0  0  0  0
 15 34  1  0  0  0  0
 15 35  1  0  0  0  0
 16 17  1  0  0  0  0
 16 36  1  0  0  0  0
 16 37  1  0  0  0  0
 17 18  1  0  0  0  0
 17 38  1  0  0  0  0
 17 39  1  0  0  0  0
M  END
> <s_m_source_file>
AV-unprocessed.smi

> <i_m_source_file_index>
2063

> <i_lp_mmshare_version>
43012

> <i_f3d_flags>
0

> <s_epik_input>
W0NIM11bQ0hdKFtDSDNdKWMxbm5jKHMxKVtOSF1DKD1PKVtOSF1bQ0BIXShbQ0gzXSlbQ0BASF0yW0NIMl1bQ0gyXVtDSDJdTzI=

> <s_epik_cmdline>
J2VwaWtfcHl0aG9uJywgJy1waCcsICc3LjAnLCAnLXRuJywgJzgnLCAnLW1hJywgJzIwMCcsICctbWV0YWxfYmluZGluZycsICctaW1hZScsICc8aW5maWxlLm1hZT4nLCAnLW9tYWUnLCAnPG91dGZpbGUubWFlPic=

> <r_lp_tautomer_probability>
1

> <r_epik_Ionization_Penalty>
0.00050567

> <r_epik_Ionization_Penalty_Charging>
0

> <r_epik_Ionization_Penalty_Neutral>
0.00050567

> <r_epik_State_Penalty>
-0

> <r_epik_Charging_Adjusted_Penalty>
0

> <i_epik_Tot_Q>
0

> <i_epik_Tot_abs_Q>
0

> <r_epik_Metal_State_Penalty>
0.219912

> <b_epik_Metal_Only>
0

> <s_lp_Force_Field>
OPLS_2005

> <r_lp_Energy>
10.6095

> <b_lp_Chiralities_Consistent>
1

> <s_lp_Variant>
AV-unprocessed.smi:2063-2

> <Gold.Version>
5.8.1

> <Gold.Id.Protein>
6NUR|6NUR_protein|mol2

> <Gold.PLP.Fitness>
32.5950

> <Gold.PLP.PLP>
-25.0439

> <Gold.PLP.part.hbond>
-3.3754

> <Gold.PLP.part.metal>
0.0000

> <Gold.PLP.part.buried>
-4.3968

> <Gold.PLP.part.nonpolar>
-18.1760

> <Gold.PLP.part.repulsive>
0.4017

> <Gold.PLP.ligand.clash>
0.0000

> <Gold.PLP.ligand.torsion>
0.0833

> <Gold.PLP.Chemscore.Hbond>
2.5440

> <Gold.PLP.Chemscore.CHOScore>
0.0000

> <Gold.PLP.Chemscore.Metal>
0.0000

> <Gold.Chemscore.Hbonds>
donor molecule, donor type, donor heavy atom, donor atom, acceptor molecule, acceptor atom, score
      L1  H     8    27       P1  7948  1.00
      L1  H    11    28       P1  7948  0.96
      P1  H  7989  7998       L1     5  0.55

> <Gold.PLP.Chemscore.Internal.Correction>
0.0857

> <Gold.Rescore>
     Score         DG    S(hbond)    S(metal)    S(lipo)     H(rot)  DE(clash)    DE(int)     intcor
     13.20     -14.63       1.97        0.00      52.98       1.42       0.02       1.41       ----

> <Gold.Chemscore.Fitness>
13.1995

> <Gold.Chemscore.DG>
-14.6282

> <Gold.Chemscore.ZeroCoef>
-5.4800

> <Gold.Chemscore.Hbond>
1.9677

> <Gold.Chemscore.Metal>
0.0000

> <Gold.Chemscore.Lipo>
52.9833

> <Gold.Chemscore.Internal_Hbond>
0.0000

> <Gold.Chemscore.DEClash>
0.0174

> <Gold.Chemscore.DEInternal>
1.4113

> <Gold.Chemscore.Rot>
1.4152

> <Gold.Chemscore.Internal.Correction>
   9.000000E+99

> <Gold.Chemscore.Hbonds>
donor molecule, donor type, donor heavy atom, donor atom, acceptor molecule, acceptor atom, score
      L1  H     8    27       P1  7948  0.98
      L1  H    11    28       P1  7948  0.92
      P1  H  7989  7998       L1     5  0.03

> <Gold.Chemscore.Hbond.Weighted>
-6.5721

> <Gold.Chemscore.Metal.Weighted>
-0.0000

> <Gold.Chemscore.Lipo.Weighted>
-6.1991

> <Gold.Chemscore.Internal_Hbond.Weighted>
0.0000

> <Gold.Chemscore.DEClash.Weighted>
0.0174

> <Gold.Chemscore.DEInternal.Weighted>
1.4113

> <Gold.Chemscore.Rot.Weighted>
3.6229

> <Gold.Chemscore.Internal.Correction.Weighted>
   9.000000E+99

> <Gold.Protein.RotatedTorsions>
[ 6907 6896 6895 6894 ] final -109.19 input  -60.11 | X-H torsion
[ 7974 7965 7964 7962 ] final  -79.63 input  175.53 | X-H torsion
[ 8008 7997 7996 7995 ] final  -58.87 input   59.86 | X-H torsion
[ 10167 10162 10161 10158 ] final -116.12 input  -65.29 | X-H torsion
[ 10718 10713 10712 10709 ] final  -32.55 input   66.30 | X-H torsion
[ 10763 10752 10751 10750 ] final -134.59 input  -60.55 | X-H torsion
[ 11005 11000 10999 10996 ] final  101.04 input  -57.11 | X-H torsion

> <Gold.Protein.ActiveResidues>
 VAL166  LYS551  ARG553  GLY616  TRP617  ASP618  TYR619  PRO620  LYS621  CYS622 
 ASP623  PHE694  ASN695  SER759  ASP760  ASP761  ALA762  ILE779  LEU786  VAL792 
 PHE793  MET794  SER795  GLU796  ALA797  LYS798  CYS799  TRP800  GLU811  SER814 

> <Gold.Protein.RotatedAtoms>
  150.7547  133.9566  159.3502 H   0  0  0  0  0  0  0  0  0  0  0  0  # atno 6907 bound_to 6896
  151.7488  135.0835  160.0337 H   0  0  0  0  0  0  0  0  0  0  0  0  # atno 6908 bound_to 6896
  152.3480  133.6108  159.5960 H   0  0  0  0  0  0  0  0  0  0  0  0  # atno 6909 bound_to 6896
  145.5706  140.9466  143.1397 H   0  0  0  0  0  0  0  0  0  0  0  0  # atno 7974 bound_to 7965
  154.4327  140.1074  156.6026 H   0  0  0  0  0  0  0  0  0  0  0  0  # atno 8008 bound_to 7997
  155.5894  140.3492  155.4543 H   0  0  0  0  0  0  0  0  0  0  0  0  # atno 8009 bound_to 7997
  156.0258  140.1249  157.0300 H   0  0  0  0  0  0  0  0  0  0  0  0  # atno 8010 bound_to 7997
  140.0826  143.4773  152.1917 H   0  0  0  0  0  0  0  0  0  0  0  0  # atno 10167 bound_to 10162
  156.3735  130.4343  149.7526 H   0  0  0  0  0  0  0  0  0  0  0  0  # atno 10718 bound_to 10713
  154.8717  135.3730  154.4761 H   0  0  0  0  0  0  0  0  0  0  0  0  # atno 10763 bound_to 10752
  153.5417  135.7026  153.5638 H   0  0  0  0  0  0  0  0  0  0  0  0  # atno 10764 bound_to 10752
  153.3797  135.4000  155.1812 H   0  0  0  0  0  0  0  0  0  0  0  0  # atno 10765 bound_to 10752
  139.8772  134.9166  156.4847 H   0  0  0  0  0  0  0  0  0  0  0  0  # atno 11005 bound_to 11000
  144.7439  139.7372  143.7300 LP  0  0  0  0  0  0  0  0  0  0  0  0  # atno 17320 bound_to 7965
  146.1787  139.4969  142.9881 LP  0  0  0  0  0  0  0  0  0  0  0  0  # atno 17321 bound_to 7965
  139.5770  144.7492  151.3738 LP  0  0  0  0  0  0  0  0  0  0  0  0  # atno 17342 bound_to 10162
  140.7070  143.7489  150.7499 LP  0  0  0  0  0  0  0  0  0  0  0  0  # atno 17343 bound_to 10162
  156.4644  130.7967  151.2986 LP  0  0  0  0  0  0  0  0  0  0  0  0  # atno 17370 bound_to 10713
  157.7486  131.0055  150.3118 LP  0  0  0  0  0  0  0  0  0  0  0  0  # atno 17371 bound_to 10713
  140.8702  133.7994  155.9356 LP  0  0  0  0  0  0  0  0  0  0  0  0  # atno 17394 bound_to 11000
  140.8961  134.2436  157.5068 LP  0  0  0  0  0  0  0  0  0  0  0  0  # atno 17395 bound_to 11000

$$$$
