AV-unprocessed.smi:69|AV-procd|sdf|658|dock8
  -GOLD-   2262016563D 1   1.00000     0.00000
 Structure written by MMmdl.
 32 34  0  0  0  0  0  0  0  0  1 V2000
  143.3895  138.6878  154.1327 N   0  0  0  0  0  0  0  0  0  0  0  0
  143.1465  137.3989  153.8577 C   0  0  0  0  0  0  0  0  0  0  0  0
  142.0029  136.8462  154.3261 N   0  0  0  0  0  0  0  0  0  0  0  0
  141.7383  135.5615  154.0668 C   0  0  0  0  0  0  0  0  0  0  0  0
  142.4671  134.6814  153.3751 N   0  0  0  0  0  0  0  0  0  0  0  0
  143.6195  135.2407  152.9024 C   0  0  0  0  0  0  0  0  0  0  0  0
  144.0301  136.5881  153.1010 C   0  0  0  0  0  0  0  0  0  0  0  0
  145.2533  136.8060  152.4819 N   0  0  0  0  0  0  0  0  0  0  0  0
  145.5460  135.6496  151.9494 C   0  0  0  0  0  0  0  0  0  0  0  0
  144.6161  134.6523  152.1501 N   0  0  0  0  0  0  0  0  0  0  0  0
  144.6749  133.2378  151.6689 C   0  0  1  0  0  0  0  0  0  0  0  0
  143.7263  133.0881  150.6583 O   0  0  0  0  0  0  0  0  0  0  0  0
  144.2681  132.3033  149.6030 C   0  0  1  0  0  0  0  0  0  0  0  0
  143.5266  132.6136  148.2938 C   0  0  0  0  0  0  0  0  0  0  0  0
  143.4011  134.0098  148.1270 O   0  0  0  0  0  0  0  0  0  0  0  0
  145.7364  132.7326  149.5910 C   0  0  2  0  0  0  0  0  0  0  0  0
  146.5758  131.7945  148.9429 O   0  0  0  0  0  0  0  0  0  0  0  0
  146.0568  132.9141  151.0740 C   0  0  2  0  0  0  0  0  0  0  0  0
  146.5953  131.7387  151.6530 O   0  0  0  0  0  0  0  0  0  0  0  0
  144.4125  132.6323  152.5384 H   0  0  0  0  0  0  0  0  0  0  0  0
  144.1948  131.2453  149.8636 H   0  0  0  0  0  0  0  0  0  0  0  0
  145.8340  133.6918  149.0824 H   0  0  0  0  0  0  0  0  0  0  0  0
  146.7579  133.7341  151.2363 H   0  0  0  0  0  0  0  0  0  0  0  0
  144.2361  139.1230  153.7950 H   0  0  0  0  0  0  0  0  0  0  0  0
  142.7280  139.2202  154.6790 H   0  0  0  0  0  0  0  0  0  0  0  0
  140.8100  135.1848  154.4702 H   0  0  0  0  0  0  0  0  0  0  0  0
  146.4558  135.4926  151.3884 H   0  0  0  0  0  0  0  0  0  0  0  0
  144.0340  132.1705  147.4359 H   0  0  0  0  0  0  0  0  0  0  0  0
  142.5196  132.1970  148.3247 H   0  0  0  0  0  0  0  0  0  0  0  0
  144.2660  134.3818  148.0466 H   0  0  0  0  0  0  0  0  0  0  0  0
  147.2849  131.5738  149.5276 H   0  0  0  0  0  0  0  0  0  0  0  0
  147.2530  131.3929  151.0688 H   0  0  0  0  0  0  0  0  0  0  0  0
  1  2  1  0  0  0  0
  1 24  1  0  0  0  0
  1 25  1  0  0  0  0
  2  7  1  0  0  0  0
  2  3  2  0  0  0  0
  3  4  1  0  0  0  0
  4  5  2  0  0  0  0
  4 26  1  0  0  0  0
  5  6  1  0  0  0  0
  6 10  1  0  0  0  0
  6  7  2  0  0  0  0
  7  8  1  0  0  0  0
  8  9  2  0  0  0  0
  9 10  1  0  0  0  0
  9 27  1  0  0  0  0
 10 11  1  0  0  0  0
 11 20  1  0  0  0  0
 11 18  1  0  0  0  0
 11 12  1  0  0  0  0
 12 13  1  0  0  0  0
 13 21  1  0  0  0  0
 13 14  1  0  0  0  0
 13 16  1  0  0  0  0
 14 15  1  0  0  0  0
 14 28  1  0  0  0  0
 14 29  1  0  0  0  0
 15 30  1  0  0  0  0
 16 22  1  0  0  0  0
 16 17  1  0  0  0  0
 16 18  1  0  0  0  0
 17 31  1  0  0  0  0
 18 23  1  0  0  0  0
 18 19  1  0  0  0  0
 19 32  1  0  0  0  0
M  END
> <s_m_source_file>
AV-unprocessed.smi

> <i_m_source_file_index>
69

> <i_lp_mmshare_version>
43012

> <i_f3d_flags>
0

> <s_epik_input>
bjFbY0hdbmMoW05IMl0pYyhjMTIpbltjSF1uMltDQEBIXTNPW0NASF0oW0NIMl1bT0hdKVtDQEBIXShbT0hdKVtDQEhdM1tPSF0=

> <s_epik_cmdline>
J2VwaWtfcHl0aG9uJywgJy1waCcsICc3LjAnLCAnLXRuJywgJzgnLCAnLW1hJywgJzIwMCcsICctbWV0YWxfYmluZGluZycsICctaW1hZScsICc8aW5maWxlLm1hZT4nLCAnLW9tYWUnLCAnPG91dGZpbGUubWFlPic=

> <r_lp_tautomer_probability>
1

> <r_epik_Ionization_Penalty>
0.000428445

> <r_epik_Ionization_Penalty_Charging>
0

> <r_epik_Ionization_Penalty_Neutral>
0.000428445

> <r_epik_State_Penalty>
-0

> <r_epik_Charging_Adjusted_Penalty>
0

> <i_epik_Tot_Q>
0

> <i_epik_Tot_abs_Q>
0

> <r_epik_Metal_State_Penalty>
-0

> <b_epik_Metal_Only>
0

> <s_epik_Chemistry_Notes>
This compound contains an acetal/aminal-like group ( X-CH(R)-Y where X, Y are N, S, or O) that may be acid/base labile, releasing an aldehyde.

> <s_lp_Force_Field>
OPLS_2005

> <r_lp_Energy>
38.6546

> <b_lp_Chiralities_Consistent>
1

> <s_lp_Variant>
AV-unprocessed.smi:69-16

> <Gold.Version>
5.8.1

> <Gold.Id.Protein>
6NUR|6NUR_protein|mol2

> <Gold.PLP.Fitness>
47.8949

> <Gold.PLP.PLP>
-30.8299

> <Gold.PLP.part.hbond>
-5.9614

> <Gold.PLP.part.metal>
0.0000

> <Gold.PLP.part.buried>
-4.4191

> <Gold.PLP.part.nonpolar>
-20.7782

> <Gold.PLP.part.repulsive>
0.6263

> <Gold.PLP.ligand.clash>
0.0000

> <Gold.PLP.ligand.torsion>
0.2646

> <Gold.PLP.Chemscore.Hbond>
3.9913

> <Gold.PLP.Chemscore.CHOScore>
1.8691

> <Gold.PLP.Chemscore.Metal>
0.0000

> <Gold.Chemscore.Hbonds>
donor molecule, donor type, donor heavy atom, donor atom, acceptor molecule, acceptor atom, score
      L1  H     1    24       P1 10175  0.11
      L1  H    15    30       P1  7921  1.00
      L1  H    17    31       P1 10747  1.00
      L1  H    19    32       P1 10747  1.00
      P1  H 10192 10197       L1    15  0.96
      L1  C     4    26       P1 11000  1.00
      L1  C     9    27       P1  7948  0.81

> <Gold.PLP.Chemscore.Internal.Correction>
0.0131

> <Gold.Rescore>
     Score         DG    S(hbond)    S(metal)    S(lipo)     H(rot)  DE(clash)    DE(int)     intcor
     12.32     -13.63       3.80        0.00      49.21       4.03       0.98       0.33       ----

> <Gold.Chemscore.Fitness>
12.3169

> <Gold.Chemscore.DG>
-13.6312

> <Gold.Chemscore.ZeroCoef>
-5.4800

> <Gold.Chemscore.Hbond>
3.8038

> <Gold.Chemscore.Metal>
0.0000

> <Gold.Chemscore.Lipo>
49.2096

> <Gold.Chemscore.Internal_Hbond>
0.0000

> <Gold.Chemscore.DEClash>
0.9819

> <Gold.Chemscore.DEInternal>
0.3324

> <Gold.Chemscore.Rot>
4.0277

> <Gold.Chemscore.Internal.Correction>
   9.000000E+99

> <Gold.Chemscore.Hbonds>
donor molecule, donor type, donor heavy atom, donor atom, acceptor molecule, acceptor atom, score
      L1  H     1    24       P1 10175  0.12
      L1  H    15    30       P1  7921  0.99
      L1  H    17    31       P1 10747  0.98
      L1  H    19    32       P1 10747  0.98
      P1  H 10192 10197       L1    15  0.72

> <Gold.Chemscore.Hbond.Weighted>
-12.7047

> <Gold.Chemscore.Metal.Weighted>
-0.0000

> <Gold.Chemscore.Lipo.Weighted>
-5.7575

> <Gold.Chemscore.Internal_Hbond.Weighted>
0.0000

> <Gold.Chemscore.DEClash.Weighted>
0.9819

> <Gold.Chemscore.DEInternal.Weighted>
0.3324

> <Gold.Chemscore.Rot.Weighted>
10.3110

> <Gold.Chemscore.Internal.Correction.Weighted>
   9.000000E+99

> <Gold.Protein.RotatedTorsions>
[ 6907 6896 6895 6894 ] final   83.85 input  -60.11 | X-H torsion
[ 7974 7965 7964 7962 ] final -174.72 input  175.53 | X-H torsion
[ 8008 7997 7996 7995 ] final  106.34 input   59.86 | X-H torsion
[ 10167 10162 10161 10158 ] final -178.32 input  -65.29 | X-H torsion
[ 10718 10713 10712 10709 ] final   62.99 input   66.30 | X-H torsion
[ 10763 10752 10751 10750 ] final  -92.14 input  -60.55 | X-H torsion
[ 11005 11000 10999 10996 ] final -151.91 input  -57.11 | X-H torsion

> <Gold.Protein.ActiveResidues>
 VAL166  LYS551  ARG553  GLY616  TRP617  ASP618  TYR619  PRO620  LYS621  CYS622 
 ASP623  PHE694  ASN695  SER759  ASP760  ASP761  ALA762  ILE779  LEU786  VAL792 
 PHE793  MET794  SER795  GLU796  ALA797  LYS798  CYS799  TRP800  GLU811  SER814 

> <Gold.Protein.RotatedAtoms>
  152.5338  134.2831  159.9014 H   0  0  0  0  0  0  0  0  0  0  0  0  # atno 6907 bound_to 6896
  151.2785  133.4214  159.2633 H   0  0  0  0  0  0  0  0  0  0  0  0  # atno 6908 bound_to 6896
  151.0305  134.9551  159.8165 H   0  0  0  0  0  0  0  0  0  0  0  0  # atno 6909 bound_to 6896
  144.7130  140.1428  143.6390 H   0  0  0  0  0  0  0  0  0  0  0  0  # atno 7974 bound_to 7965
  156.1735  140.3114  155.9016 H   0  0  0  0  0  0  0  0  0  0  0  0  # atno 8008 bound_to 7997
  155.3537  140.0472  157.3063 H   0  0  0  0  0  0  0  0  0  0  0  0  # atno 8009 bound_to 7997
  154.5265  140.2216  155.8890 H   0  0  0  0  0  0  0  0  0  0  0  0  # atno 8010 bound_to 7997
  139.5438  144.2292  152.0947 H   0  0  0  0  0  0  0  0  0  0  0  0  # atno 10167 bound_to 10162
  157.5939  130.9080  149.9658 H   0  0  0  0  0  0  0  0  0  0  0  0  # atno 10718 bound_to 10713
  154.6831  135.5242  153.8290 H   0  0  0  0  0  0  0  0  0  0  0  0  # atno 10763 bound_to 10752
  153.0578  135.6557  154.0544 H   0  0  0  0  0  0  0  0  0  0  0  0  # atno 10764 bound_to 10752
  154.0428  135.2976  155.3332 H   0  0  0  0  0  0  0  0  0  0  0  0  # atno 10765 bound_to 10752
  140.7245  134.3690  157.5178 H   0  0  0  0  0  0  0  0  0  0  0  0  # atno 11005 bound_to 11000
  145.9186  139.2531  143.1395 LP  0  0  0  0  0  0  0  0  0  0  0  0  # atno 17320 bound_to 7965
  145.9643  140.8811  143.0195 LP  0  0  0  0  0  0  0  0  0  0  0  0  # atno 17321 bound_to 7965
  140.1775  144.4877  150.6546 LP  0  0  0  0  0  0  0  0  0  0  0  0  # atno 17342 bound_to 10162
  140.6678  143.2274  151.5700 LP  0  0  0  0  0  0  0  0  0  0  0  0  # atno 17343 bound_to 10162
  156.0999  130.3656  150.0238 LP  0  0  0  0  0  0  0  0  0  0  0  0  # atno 17370 bound_to 10713
  156.8355  130.9407  151.3635 LP  0  0  0  0  0  0  0  0  0  0  0  0  # atno 17371 bound_to 10713
  139.8840  134.8977  156.2729 LP  0  0  0  0  0  0  0  0  0  0  0  0  # atno 17394 bound_to 11000
  140.9975  133.7171  156.0908 LP  0  0  0  0  0  0  0  0  0  0  0  0  # atno 17395 bound_to 11000

$$$$
