#       Name:                AV-unprocessed.smi:3338
#       Creating user name   scv26
#       Creation time:       Fri Mar 27 19:27:05 2020


#       File generated by GOLD software.
#

@<TRIPOS>MOLECULE
AV-unprocessed.smi:3338
    47    48     1
SMALL
NO_CHARGES


@<TRIPOS>ATOM
      1 ****        -4.3521  -0.9076   1.4494 C.3            1 S1                 0.0000
      2 ****        -4.3461  -0.0226   0.1908 C.3            1 S1                 0.0000
      3 ****        -4.7514   1.4344   0.4817 C.3            1 S1                 0.0000
      4 ****        -3.6255   2.1944   1.1970 C.3            1 S1                 0.0000
      5 ****        -2.3046   2.0845   0.4193 C.3            1 S1                 0.0000
      6 ****        -1.9319   0.6638   0.1963 N.4            1 S1                 1.0000
      7 ****        -0.5869   0.5222  -0.4151 C.3            1 S1                 0.0000
      8 ****         0.0555  -0.8374  -0.0964 C.3            1 S1                 0.0000
      9 ****         1.3864  -0.9167  -0.6815 N.am           1 S1                 0.0000
     10 ****         2.3494  -1.7633  -0.2868 C.2            1 S1                 0.0000
     11 ****         2.1887  -2.5872   0.6146 O.2            1 S1                 0.0000
     12 ****         3.6910  -1.6531  -1.0298 C.3            1 S1                 0.0000
     13 ****         4.6545  -2.8141  -0.7168 C.3            1 S1                 0.0000
     14 ****         4.3128  -0.3628  -0.7573 N.pl3          1 S1                 0.0000
     15 ****         4.8884   0.0929   0.4131 C.2            1 S1                 0.0000
     16 ****         5.3036   1.3747   0.1930 C.2            1 S1                 0.0000
     17 ****         4.9286   1.6242  -1.1562 C.2            1 S1                 0.0000
     18 ****         4.3307   0.5869  -1.7192 N.2            1 S1                 0.0000
     19 ****        -2.9922  -0.0704  -0.5467 C.3            1 S1                 0.0000
     20 ****        -3.6036  -0.5901   2.1752 H              1 S1                 0.0000
     21 ****        -4.1430  -1.9471   1.1960 H              1 S1                 0.0000
     22 ****        -5.3244  -0.8814   1.9425 H              1 S1                 0.0000
     23 ****        -5.0985  -0.4398  -0.4798 H              1 S1                 0.0000
     24 ****        -4.9773   1.9380  -0.4592 H              1 S1                 0.0000
     25 ****        -5.6673   1.4676   1.0727 H              1 S1                 0.0000
     26 ****        -3.9016   3.2430   1.3124 H              1 S1                 0.0000
     27 ****        -3.4926   1.8020   2.2056 H              1 S1                 0.0000
     28 ****        -2.3861   2.5972  -0.5406 H              1 S1                 0.0000
     29 ****        -1.5195   2.5894   0.9835 H              1 S1                 0.0000
     30 ****        -0.6497   0.6834  -1.4926 H              1 S1                 0.0000
     31 ****         0.0703   1.3014  -0.0259 H              1 S1                 0.0000
     32 ****         0.1119  -0.9698   0.9855 H              1 S1                 0.0000
     33 ****        -0.5392  -1.6609  -0.4911 H              1 S1                 0.0000
     34 ****         1.6014  -0.2738  -1.4307 H              1 S1                 0.0000
     35 ****         3.4662  -1.7006  -2.0972 H              1 S1                 0.0000
     36 ****         4.2068  -3.7769  -0.9663 H              1 S1                 0.0000
     37 ****         4.9327  -2.8403   0.3374 H              1 S1                 0.0000
     38 ****         5.5727  -2.7228  -1.2977 H              1 S1                 0.0000
     39 ****         4.9524  -0.5256   1.2962 H              1 S1                 0.0000
     40 ****         5.7979   2.0346   0.8903 H              1 S1                 0.0000
     41 ****         5.0682   2.5233  -1.7380 H              1 S1                 0.0000
     42 ****        -2.7038  -1.1097  -0.7017 H              1 S1                 0.0000
     43 ****        -3.0990   0.3701  -1.5392 H              1 S1                 0.0000
     44 ****        -1.8719   0.2450   1.1135 H              1 S1                 0.0000
     45 ****         1.3095  -2.6458   1.0875 LP             1 S1                 0.0000
     46 ****         2.9373  -3.1975   0.8735 LP             1 S1                 0.0000
     47 ****         3.9715   0.5202  -2.6501 LP             1 S1                 0.0000
@<TRIPOS>BOND
    1    1    2 1     
    2    1   20 1     
    3    1   21 1     
    4    1   22 1     
    5    2   19 1     
    6    2    3 1     
    7    2   23 1     
    8    3    4 1     
    9    3   24 1     
   10    3   25 1     
   11    4    5 1     
   12    4   26 1     
   13    4   27 1     
   14    5    6 1     
   15    5   28 1     
   16    5   29 1     
   17    6    7 1     
   18    6   19 1     
   19    6   44 1     
   20    7    8 1     
   21    7   30 1     
   22    7   31 1     
   23    8    9 1     
   24    8   32 1     
   25    8   33 1     
   26    9   10 am    
   27    9   34 1     
   28   10   11 2     
   29   10   12 1     
   30   12   13 1     
   31   12   14 1     
   32   12   35 1     
   33   13   36 1     
   34   13   37 1     
   35   13   38 1     
   36   14   18 1     
   37   14   15 1     
   38   15   16 2     
   39   15   39 1     
   40   16   17 1     
   41   16   40 1     
   42   17   18 2     
   43   17   41 1     
   44   19   42 1     
   45   19   43 1     
   46   11   45 1     
   47   11   46 1     
   48   18   47 1     
@<TRIPOS>SUBSTRUCTURE
      1 S1             1
@<TRIPOS>SET
LONE_PAIRS      STATIC     ATOMS    <user>   **** ""
3 45 46 47
DONOR_HYDROGENS      STATIC     ATOMS    <user>   **** ""
2 44 34
ATOM$BLUE        STATIC     ATOMS    COLORGROUP SYSTEM
3 45 46 47
ATOM$RED        STATIC     ATOMS    COLORGROUP SYSTEM
2 44 34
