AV-unprocessed.smi:81|AV-procd|sdf|788|dock3
  -GOLD-   2262017153D 1   1.00000     0.00000
 Structure written by MMmdl.
 64 67  0  0  0  0  0  0  0  0  2 V2000
  150.6875  128.0448  154.5126 C   0  0  0  0  0  0  0  0  0  0  0  0
  149.4685  128.0107  155.4493 C   0  0  0  0  0  0  0  0  0  0  0  0
  148.9743  126.5696  155.6362 C   0  0  0  0  0  0  0  0  0  0  0  0
  148.3220  128.9105  154.9346 C   0  0  0  0  0  0  0  0  0  0  0  0
  148.7157  130.3028  154.6994 N   0  0  0  0  0  0  0  0  0  0  0  0
  149.2584  130.9271  155.7744 C   0  0  0  0  0  0  0  0  0  0  0  0
  150.4752  131.5244  155.6727 N   0  0  0  0  0  0  0  0  0  0  0  0
  151.0012  132.1542  156.7276 C   0  0  0  0  0  0  0  0  0  0  0  0
  150.4875  132.3058  157.9502 N   0  0  0  0  0  0  0  0  0  0  0  0
  149.2610  131.7177  158.0500 C   0  0  0  0  0  0  0  0  0  0  0  0
  148.5813  131.0111  157.0199 C   0  0  0  0  0  0  0  0  0  0  0  0
  147.3561  130.5501  157.4841 N   0  0  0  0  0  0  0  0  0  0  0  0
  147.3125  130.9632  158.7212 C   0  0  0  0  0  0  0  0  0  0  0  0
  148.4112  131.6793  159.1412 N   0  0  0  0  0  0  0  0  0  0  0  0
  148.6182  132.2640  160.4564 C   0  0  0  0  0  0  0  0  0  0  0  0
  147.3862  133.0374  160.9835 C   0  0  1  0  0  0  0  0  0  0  0  0
  146.9863  133.9769  159.9987 O   0  0  0  0  0  0  0  0  0  0  0  0
  146.1941  132.1537  161.3200 C   0  0  0  0  0  0  0  0  0  0  0  0
  145.4214  133.0066  162.3184 C   0  0  0  0  0  0  0  0  0  0  0  0
  146.4190  133.6910  163.0659 O   0  0  0  0  0  0  0  0  0  0  0  0
  147.6440  133.7383  162.3350 C   0  0  2  0  0  0  0  0  0  0  0  0
  148.1945  135.1720  162.2736 C   0  0  0  0  0  0  0  0  0  0  0  0
  147.8090  131.1083  153.8686 C   0  0  2  0  0  0  0  0  0  0  0  0
  147.0465  130.2911  152.8044 C   0  0  0  0  0  0  0  0  0  0  0  0
  146.0564  131.1811  152.0361 C   0  0  0  0  0  0  0  0  0  0  0  0
  146.7535  132.3300  151.4066 N   0  3  1  0  0  0  0  0  0  0  0  0
  145.8539  133.1364  150.5541 C   0  0  0  0  0  0  0  0  0  0  0  0
  147.4767  133.1567  152.4048 C   0  0  0  0  0  0  0  0  0  0  0  0
  148.4955  132.3135  153.1895 C   0  0  0  0  0  0  0  0  0  0  0  0
  150.4276  127.6984  153.5118 H   0  0  0  0  0  0  0  0  0  0  0  0
  151.4883  127.4071  154.8878 H   0  0  0  0  0  0  0  0  0  0  0  0
  151.0928  129.0524  154.4199 H   0  0  0  0  0  0  0  0  0  0  0  0
  149.7885  128.3627  156.4308 H   0  0  0  0  0  0  0  0  0  0  0  0
  148.6371  126.1402  154.6921 H   0  0  0  0  0  0  0  0  0  0  0  0
  148.1404  126.5286  156.3378 H   0  0  0  0  0  0  0  0  0  0  0  0
  149.7654  125.9307  156.0297 H   0  0  0  0  0  0  0  0  0  0  0  0
  147.9298  128.4926  154.0066 H   0  0  0  0  0  0  0  0  0  0  0  0
  147.4943  128.8891  155.6447 H   0  0  0  0  0  0  0  0  0  0  0  0
  151.9701  132.6043  156.5692 H   0  0  0  0  0  0  0  0  0  0  0  0
  146.4673  130.7626  159.3636 H   0  0  0  0  0  0  0  0  0  0  0  0
  148.8799  131.4575  161.1426 H   0  0  0  0  0  0  0  0  0  0  0  0
  149.4877  132.9213  160.4124 H   0  0  0  0  0  0  0  0  0  0  0  0
  147.4850  133.8169  159.2121 H   0  0  0  0  0  0  0  0  0  0  0  0
  145.5995  131.8657  160.4516 H   0  0  0  0  0  0  0  0  0  0  0  0
  146.5305  131.2408  161.8135 H   0  0  0  0  0  0  0  0  0  0  0  0
  144.8045  133.7406  161.7985 H   0  0  0  0  0  0  0  0  0  0  0  0
  144.7726  132.4141  162.9636 H   0  0  0  0  0  0  0  0  0  0  0  0
  148.3445  133.1316  162.9107 H   0  0  0  0  0  0  0  0  0  0  0  0
  149.1249  135.2105  161.7068 H   0  0  0  0  0  0  0  0  0  0  0  0
  148.4010  135.5483  163.2756 H   0  0  0  0  0  0  0  0  0  0  0  0
  147.4859  135.8570  161.8074 H   0  0  0  0  0  0  0  0  0  0  0  0
  147.0585  131.5052  154.5537 H   0  0  0  0  0  0  0  0  0  0  0  0
  147.7400  129.8410  152.0926 H   0  0  0  0  0  0  0  0  0  0  0  0
  146.5058  129.4713  153.2785 H   0  0  0  0  0  0  0  0  0  0  0  0
  145.5579  130.5891  151.2674 H   0  0  0  0  0  0  0  0  0  0  0  0
  145.2789  131.5469  152.7088 H   0  0  0  0  0  0  0  0  0  0  0  0
  145.0656  133.6025  151.1469 H   0  0  0  0  0  0  0  0  0  0  0  0
  145.3862  132.5142  149.7905 H   0  0  0  0  0  0  0  0  0  0  0  0
  146.4101  133.9240  150.0449 H   0  0  0  0  0  0  0  0  0  0  0  0
  147.9947  133.9715  151.8975 H   0  0  0  0  0  0  0  0  0  0  0  0
  146.7607  133.6136  153.0898 H   0  0  0  0  0  0  0  0  0  0  0  0
  148.9861  132.9431  153.9322 H   0  0  0  0  0  0  0  0  0  0  0  0
  149.2741  131.9738  152.5064 H   0  0  0  0  0  0  0  0  0  0  0  0
  147.4549  131.9399  150.7931 H   0  0  0  0  0  0  0  0  0  0  0  0
  1  2  1  0  0  0  0
  1 30  1  0  0  0  0
  1 31  1  0  0  0  0
  1 32  1  0  0  0  0
  2  3  1  0  0  0  0
  2  4  1  0  0  0  0
  2 33  1  0  0  0  0
  3 34  1  0  0  0  0
  3 35  1  0  0  0  0
  3 36  1  0  0  0  0
  4  5  1  0  0  0  0
  4 37  1  0  0  0  0
  4 38  1  0  0  0  0
  5  6  1  0  0  0  0
  5 23  1  0  0  0  0
  6 11  1  0  0  0  0
  6  7  2  0  0  0  0
  7  8  1  0  0  0  0
  8  9  2  0  0  0  0
  8 39  1  0  0  0  0
  9 10  1  0  0  0  0
 10 14  1  0  0  0  0
 10 11  2  0  0  0  0
 11 12  1  0  0  0  0
 12 13  2  0  0  0  0
 13 14  1  0  0  0  0
 13 40  1  0  0  0  0
 14 15  1  0  0  0  0
 15 16  1  0  0  0  0
 15 41  1  0  0  0  0
 15 42  1  0  0  0  0
 16 21  1  0  0  0  0
 16 17  1  0  0  0  0
 16 18  1  0  0  0  0
 17 43  1  0  0  0  0
 18 19  1  0  0  0  0
 18 44  1  0  0  0  0
 18 45  1  0  0  0  0
 19 20  1  0  0  0  0
 19 46  1  0  0  0  0
 19 47  1  0  0  0  0
 20 21  1  0  0  0  0
 21 22  1  0  0  0  0
 21 48  1  0  0  0  0
 22 49  1  0  0  0  0
 22 50  1  0  0  0  0
 22 51  1  0  0  0  0
 23 29  1  0  0  0  0
 23 24  1  0  0  0  0
 23 52  1  0  0  0  0
 24 25  1  0  0  0  0
 24 53  1  0  0  0  0
 24 54  1  0  0  0  0
 25 26  1  0  0  0  0
 25 55  1  0  0  0  0
 25 56  1  0  0  0  0
 26 27  1  0  0  0  0
 26 28  1  0  0  0  0
 26 64  1  0  0  0  0
 27 57  1  0  0  0  0
 27 58  1  0  0  0  0
 27 59  1  0  0  0  0
 28 29  1  0  0  0  0
 28 60  1  0  0  0  0
 28 61  1  0  0  0  0
 29 62  1  0  0  0  0
 29 63  1  0  0  0  0
M  CHG  1  26   1
M  END
> <s_m_source_file>
AV-unprocessed.smi

> <i_m_source_file_index>
81

> <i_lp_mmshare_version>
43012

> <i_f3d_flags>
0

> <s_epik_input>
W0NIMl0xW0NIMl1OKFtDSDNdKVtDSDJdW0NIMl1bQ0hdMU4oW0NIMl1bQ0hdKFtDSDNdKVtDSDNdKWMobltjSF1uMiljKGMyMyluW2NIXW4zW0NIMl1bQ0BAXTQoW09IXSlbQ0gyXVtDSDJdT1tDQEhdNFtDSDNd

> <s_epik_cmdline>
J2VwaWtfcHl0aG9uJywgJy1waCcsICc3LjAnLCAnLXRuJywgJzgnLCAnLW1hJywgJzIwMCcsICctbWV0YWxfYmluZGluZycsICctaW1hZScsICc8aW5maWxlLm1hZT4nLCAnLW9tYWUnLCAnPG91dGZpbGUubWFlPic=

> <r_lp_tautomer_probability>
1

> <r_epik_Ionization_Penalty>
0.00272708

> <r_epik_Ionization_Penalty_Charging>
0.00158983

> <r_epik_Ionization_Penalty_Neutral>
0.00113725

> <r_epik_State_Penalty>
-0

> <r_epik_Charging_Adjusted_Penalty>
0.00158983

> <i_epik_Tot_Q>
1

> <i_epik_Tot_abs_Q>
1

> <r_epik_Metal_State_Penalty>
-0

> <b_epik_Metal_Only>
0

> <s_lp_Force_Field>
OPLS_2005

> <r_lp_Energy>
45.229

> <b_lp_Chiralities_Consistent>
1

> <s_lp_Variant>
AV-unprocessed.smi:81-3

> <Gold.Version>
5.8.1

> <Gold.Id.Protein>
6NUR|6NUR_protein|mol2

> <Gold.PLP.Fitness>
41.2783

> <Gold.PLP.PLP>
-36.4613

> <Gold.PLP.part.hbond>
-3.0000

> <Gold.PLP.part.metal>
0.0000

> <Gold.PLP.part.buried>
-5.6674

> <Gold.PLP.part.nonpolar>
-28.3099

> <Gold.PLP.part.repulsive>
0.0946

> <Gold.PLP.ligand.clash>
0.0000

> <Gold.PLP.ligand.torsion>
0.9892

> <Gold.PLP.Chemscore.Hbond>
2.0000

> <Gold.PLP.Chemscore.CHOScore>
0.0000

> <Gold.PLP.Chemscore.Metal>
0.0000

> <Gold.Chemscore.Hbonds>
donor molecule, donor type, donor heavy atom, donor atom, acceptor molecule, acceptor atom, score
      L1  H    26    64       P1 10747  1.00
      P1  H  6896  6907       L1     9  1.00

> <Gold.PLP.Chemscore.Internal.Correction>
0.7954

> <Gold.Rescore>
     Score         DG    S(hbond)    S(metal)    S(lipo)     H(rot)  DE(clash)    DE(int)     intcor
     15.12     -16.04       1.98        0.00      90.01       2.58       0.01       0.91       ----

> <Gold.Chemscore.Fitness>
15.1201

> <Gold.Chemscore.DG>
-16.0368

> <Gold.Chemscore.ZeroCoef>
-5.4800

> <Gold.Chemscore.Hbond>
1.9833

> <Gold.Chemscore.Metal>
0.0000

> <Gold.Chemscore.Lipo>
90.0079

> <Gold.Chemscore.Internal_Hbond>
0.0000

> <Gold.Chemscore.DEClash>
0.0089

> <Gold.Chemscore.DEInternal>
0.9078

> <Gold.Chemscore.Rot>
2.5774

> <Gold.Chemscore.Internal.Correction>
   9.000000E+99

> <Gold.Chemscore.Hbonds>
donor molecule, donor type, donor heavy atom, donor atom, acceptor molecule, acceptor atom, score
      L1  H    26    64       P1 10747  0.99
      P1  H  6896  6907       L1     9  0.99

> <Gold.Chemscore.Hbond.Weighted>
-6.6242

> <Gold.Chemscore.Metal.Weighted>
-0.0000

> <Gold.Chemscore.Lipo.Weighted>
-10.5309

> <Gold.Chemscore.Internal_Hbond.Weighted>
0.0000

> <Gold.Chemscore.DEClash.Weighted>
0.0089

> <Gold.Chemscore.DEInternal.Weighted>
0.9078

> <Gold.Chemscore.Rot.Weighted>
6.5982

> <Gold.Chemscore.Internal.Correction.Weighted>
   9.000000E+99

> <Gold.Protein.RotatedTorsions>
[ 6907 6896 6895 6894 ] final -154.58 input  -60.11 | X-H torsion
[ 7974 7965 7964 7962 ] final   94.35 input  175.53 | X-H torsion
[ 8008 7997 7996 7995 ] final  -34.17 input   59.86 | X-H torsion
[ 10167 10162 10161 10158 ] final -177.39 input  -65.29 | X-H torsion
[ 10718 10713 10712 10709 ] final  153.21 input   66.30 | X-H torsion
[ 10763 10752 10751 10750 ] final  144.99 input  -60.55 | X-H torsion
[ 11005 11000 10999 10996 ] final   65.30 input  -57.11 | X-H torsion

> <Gold.Protein.ActiveResidues>
 VAL166  LYS551  ARG553  GLY616  TRP617  ASP618  TYR619  PRO620  LYS621  CYS622 
 ASP623  PHE694  ASN695  SER759  ASP760  ASP761  ALA762  ILE779  LEU786  VAL792 
 PHE793  MET794  SER795  GLU796  ALA797  LYS798  CYS799  TRP800  GLU811  SER814 

> <Gold.Protein.RotatedAtoms>
  151.2597  133.4308  159.2615 H   0  0  0  0  0  0  0  0  0  0  0  0  # atno 6907 bound_to 6896
  151.0542  134.9694  159.8237 H   0  0  0  0  0  0  0  0  0  0  0  0  # atno 6908 bound_to 6896
  152.5388  134.2550  159.8966 H   0  0  0  0  0  0  0  0  0  0  0  0  # atno 6909 bound_to 6896
  145.4668  139.2284  143.2957 H   0  0  0  0  0  0  0  0  0  0  0  0  # atno 7974 bound_to 7965
  154.4128  140.1691  156.2006 H   0  0  0  0  0  0  0  0  0  0  0  0  # atno 8008 bound_to 7997
  155.9527  140.3399  155.6398 H   0  0  0  0  0  0  0  0  0  0  0  0  # atno 8009 bound_to 7997
  155.6849  140.0727  157.2461 H   0  0  0  0  0  0  0  0  0  0  0  0  # atno 8010 bound_to 7997
  139.5482  144.2178  152.1029 H   0  0  0  0  0  0  0  0  0  0  0  0  # atno 10167 bound_to 10162
  157.2477  131.0772  151.1750 H   0  0  0  0  0  0  0  0  0  0  0  0  # atno 10718 bound_to 10713
  153.9980  135.2926  155.3405 H   0  0  0  0  0  0  0  0  0  0  0  0  # atno 10763 bound_to 10752
  154.7176  135.5123  153.8764 H   0  0  0  0  0  0  0  0  0  0  0  0  # atno 10764 bound_to 10752
  153.0779  135.6669  154.0225 H   0  0  0  0  0  0  0  0  0  0  0  0  # atno 10765 bound_to 10752
  139.9903  134.6601  156.0102 H   0  0  0  0  0  0  0  0  0  0  0  0  # atno 11005 bound_to 11000
  146.2420  140.5442  142.8930 LP  0  0  0  0  0  0  0  0  0  0  0  0  # atno 17320 bound_to 7965
  144.7969  140.6140  143.6504 LP  0  0  0  0  0  0  0  0  0  0  0  0  # atno 17321 bound_to 7965
  140.1669  144.4973  150.6601 LP  0  0  0  0  0  0  0  0  0  0  0  0  # atno 17342 bound_to 10162
  140.6737  143.2296  151.5560 LP  0  0  0  0  0  0  0  0  0  0  0  0  # atno 17343 bound_to 10162
  157.3311  130.6985  149.6325 LP  0  0  0  0  0  0  0  0  0  0  0  0  # atno 17370 bound_to 10713
  155.9667  130.4307  150.4889 LP  0  0  0  0  0  0  0  0  0  0  0  0  # atno 17371 bound_to 10713
  141.1560  133.6543  156.4164 LP  0  0  0  0  0  0  0  0  0  0  0  0  # atno 17394 bound_to 11000
  140.4921  134.6566  157.5215 LP  0  0  0  0  0  0  0  0  0  0  0  0  # atno 17395 bound_to 11000

$$$$
