AV-unprocessed.smi:196|AV-procd|sdf|1531|dock4
  -GOLD-   2262019383D 1   1.00000     0.00000
 Structure written by MMmdl.
 47 50  0  0  0  0  0  0  0  0  1 V2000
  149.8719  140.9288  156.7081 C   0  0  0  0  0  0  0  0  0  0  0  0
  150.3475  140.4515  155.3268 C   0  0  1  0  0  0  0  0  0  0  0  0
  151.7187  140.0804  155.4506 O   0  0  0  0  0  0  0  0  0  0  0  0
  151.9953  139.0193  154.5537 C   0  0  0  0  0  0  0  0  0  0  0  0
  150.7384  138.1689  154.6528 C   0  0  0  0  0  0  0  0  0  0  0  0
  149.6260  139.2107  154.7285 C   0  0  2  0  0  0  0  0  0  0  0  0
  149.2449  139.5359  153.4016 O   0  0  0  0  0  0  0  0  0  0  0  0
  148.3612  138.7178  155.4795 C   0  0  0  0  0  0  0  0  0  0  0  0
  147.8977  137.4113  155.0360 N   0  0  0  0  0  0  0  0  0  0  0  0
  148.4762  136.1945  155.3160 C   0  0  0  0  0  0  0  0  0  0  0  0
  147.8678  135.1591  154.8060 N   0  0  0  0  0  0  0  0  0  0  0  0
  146.7953  135.7014  154.1065 C   0  0  0  0  0  0  0  0  0  0  0  0
  145.7355  135.1522  153.3269 C   0  0  0  0  0  0  0  0  0  0  0  0
  145.5852  133.8182  153.1017 N   0  0  0  0  0  0  0  0  0  0  0  0
  146.1151  132.8774  154.0835 C   0  0  0  0  0  0  0  0  0  0  0  0
  146.6628  131.7000  153.2779 C   0  0  2  0  0  0  0  0  0  0  0  0
  147.9467  131.9186  152.9895 F   0  0  0  0  0  0  0  0  0  0  0  0
  145.8380  131.7402  151.9965 C   0  0  0  0  0  0  0  0  0  0  0  0
  145.6102  133.2408  151.7500 C   0  0  1  0  0  0  0  0  0  0  0  0
  144.3329  133.4731  150.9186 C   0  0  0  0  0  0  0  0  0  0  0  0
  143.3430  134.2014  151.4459 N   0  0  0  0  0  0  0  0  0  0  0  0
  144.2460  132.9923  149.7910 O   0  0  0  0  0  0  0  0  0  0  0  0
  144.8330  136.0253  152.8057 N   0  0  0  0  0  0  0  0  0  0  0  0
  144.9599  137.3389  153.0124 C   0  0  0  0  0  0  0  0  0  0  0  0
  145.8969  137.9866  153.7058 N   0  0  0  0  0  0  0  0  0  0  0  0
  146.8001  137.1192  154.2450 C   0  0  0  0  0  0  0  0  0  0  0  0
  146.6012  130.7483  153.8061 H   0  0  0  0  0  0  0  0  0  0  0  0
  146.4673  133.6373  151.2027 H   0  0  0  0  0  0  0  0  0  0  0  0
  148.8281  141.2424  156.6843 H   0  0  0  0  0  0  0  0  0  0  0  0
  150.4601  141.7838  157.0419 H   0  0  0  0  0  0  0  0  0  0  0  0
  149.9783  140.1470  157.4607 H   0  0  0  0  0  0  0  0  0  0  0  0
  150.2929  141.2949  154.6355 H   0  0  0  0  0  0  0  0  0  0  0  0
  152.1285  139.4120  153.5445 H   0  0  0  0  0  0  0  0  0  0  0  0
  152.8971  138.4767  154.8376 H   0  0  0  0  0  0  0  0  0  0  0  0
  150.6288  137.4624  153.8288 H   0  0  0  0  0  0  0  0  0  0  0  0
  150.7788  137.5952  155.5792 H   0  0  0  0  0  0  0  0  0  0  0  0
  149.2909  138.7514  152.8768 H   0  0  0  0  0  0  0  0  0  0  0  0
  148.5518  138.6546  156.5510 H   0  0  0  0  0  0  0  0  0  0  0  0
  147.5428  139.4278  155.3529 H   0  0  0  0  0  0  0  0  0  0  0  0
  149.3656  136.0988  155.9220 H   0  0  0  0  0  0  0  0  0  0  0  0
  146.8892  133.3089  154.7202 H   0  0  0  0  0  0  0  0  0  0  0  0
  145.2946  132.5513  154.7235 H   0  0  0  0  0  0  0  0  0  0  0  0
  146.3366  131.2470  151.1612 H   0  0  0  0  0  0  0  0  0  0  0  0
  144.8899  131.2264  152.1663 H   0  0  0  0  0  0  0  0  0  0  0  0
  142.4987  134.3603  150.9154 H   0  0  0  0  0  0  0  0  0  0  0  0
  143.4434  134.5867  152.3736 H   0  0  0  0  0  0  0  0  0  0  0  0
  144.2017  137.9590  152.5574 H   0  0  0  0  0  0  0  0  0  0  0  0
  1  2  1  0  0  0  0
  1 29  1  0  0  0  0
  1 30  1  0  0  0  0
  1 31  1  0  0  0  0
  2  6  1  0  0  0  0
  2  3  1  0  0  0  0
  2 32  1  0  0  0  0
  3  4  1  0  0  0  0
  4  5  1  0  0  0  0
  4 33  1  0  0  0  0
  4 34  1  0  0  0  0
  5  6  1  0  0  0  0
  5 35  1  0  0  0  0
  5 36  1  0  0  0  0
  6  7  1  0  0  0  0
  6  8  1  0  0  0  0
  7 37  1  0  0  0  0
  8  9  1  0  0  0  0
  8 38  1  0  0  0  0
  8 39  1  0  0  0  0
  9 26  1  0  0  0  0
  9 10  1  0  0  0  0
 10 11  2  0  0  0  0
 10 40  1  0  0  0  0
 11 12  1  0  0  0  0
 12 26  2  0  0  0  0
 12 13  1  0  0  0  0
 13 14  1  0  0  0  0
 13 23  2  0  0  0  0
 14 19  1  0  0  0  0
 14 15  1  0  0  0  0
 15 16  1  0  0  0  0
 15 41  1  0  0  0  0
 15 42  1  0  0  0  0
 16 27  1  0  0  0  0
 16 17  1  0  0  0  0
 16 18  1  0  0  0  0
 18 19  1  0  0  0  0
 18 43  1  0  0  0  0
 18 44  1  0  0  0  0
 19 28  1  0  0  0  0
 19 20  1  0  0  0  0
 20 21  1  0  0  0  0
 20 22  2  0  0  0  0
 21 45  1  0  0  0  0
 21 46  1  0  0  0  0
 23 24  1  0  0  0  0
 24 25  2  0  0  0  0
 24 47  1  0  0  0  0
 25 26  1  0  0  0  0
M  END
> <s_m_source_file>
AV-unprocessed.smi

> <i_m_source_file_index>
196

> <i_lp_mmshare_version>
43012

> <i_f3d_flags>
0

> <s_epik_input>
W0NIMl0xW0NIMl1PW0NAQEhdKFtDSDNdKVtDQEBdMShbT0hdKVtDSDJdbihbY0hdbjIpYyhjMjMpbltjSF1uYzNONFtDSDJdW0NASF0oRilbQ0gyXVtDQEhdNEMoPU8pW05IMl0=

> <s_epik_cmdline>
J2VwaWtfcHl0aG9uJywgJy1waCcsICc3LjAnLCAnLXRuJywgJzgnLCAnLW1hJywgJzIwMCcsICctbWV0YWxfYmluZGluZycsICctaW1hZScsICc8aW5maWxlLm1hZT4nLCAnLW9tYWUnLCAnPG91dGZpbGUubWFlPic=

> <r_lp_tautomer_probability>
1

> <r_epik_Ionization_Penalty>
0.000857933

> <r_epik_Ionization_Penalty_Charging>
0

> <r_epik_Ionization_Penalty_Neutral>
0.000857933

> <r_epik_State_Penalty>
0.000462053

> <r_epik_Charging_Adjusted_Penalty>
0.000462053

> <i_epik_Tot_Q>
0

> <i_epik_Tot_abs_Q>
0

> <r_epik_Metal_State_Penalty>
-0

> <b_epik_Metal_Only>
0

> <s_lp_Force_Field>
OPLS_2005

> <r_lp_Energy>
43.6884

> <b_lp_Chiralities_Consistent>
1

> <s_lp_Variant>
AV-unprocessed.smi:196-4

> <Gold.Version>
5.8.1

> <Gold.Id.Protein>
6NUR|6NUR_protein|mol2

> <Gold.PLP.Fitness>
37.6511

> <Gold.PLP.PLP>
-30.3750

> <Gold.PLP.part.hbond>
-2.0151

> <Gold.PLP.part.metal>
0.0000

> <Gold.PLP.part.buried>
-3.7495

> <Gold.PLP.part.nonpolar>
-24.0564

> <Gold.PLP.part.repulsive>
0.6023

> <Gold.PLP.ligand.clash>
0.0000

> <Gold.PLP.ligand.torsion>
1.0077

> <Gold.PLP.Chemscore.Hbond>
1.0000

> <Gold.PLP.Chemscore.CHOScore>
2.0000

> <Gold.PLP.Chemscore.Metal>
0.0000

> <Gold.Chemscore.Hbonds>
donor molecule, donor type, donor heavy atom, donor atom, acceptor molecule, acceptor atom, score
      L1  H    21    45       P1 10186  0.90
      L1  C    24    47       P1 10171  0.25
      L1  C    24    47       P1 10175  0.98

> <Gold.PLP.Chemscore.Internal.Correction>
0.2916

> <Gold.Rescore>
     Score         DG    S(hbond)    S(metal)    S(lipo)     H(rot)  DE(clash)    DE(int)     intcor
     10.17     -13.89       2.58        0.00      55.02       2.60       0.18       3.54       ----

> <Gold.Chemscore.Fitness>
10.1664

> <Gold.Chemscore.DG>
-13.8884

> <Gold.Chemscore.ZeroCoef>
-5.4800

> <Gold.Chemscore.Hbond>
2.5806

> <Gold.Chemscore.Metal>
0.0000

> <Gold.Chemscore.Lipo>
55.0152

> <Gold.Chemscore.Internal_Hbond>
0.0000

> <Gold.Chemscore.DEClash>
0.1799

> <Gold.Chemscore.DEInternal>
3.5421

> <Gold.Chemscore.Rot>
2.5968

> <Gold.Chemscore.Internal.Correction>
   9.000000E+99

> <Gold.Chemscore.Hbonds>
donor molecule, donor type, donor heavy atom, donor atom, acceptor molecule, acceptor atom, score
      L1  H    21    45       P1 10186  0.17

> <Gold.Chemscore.Hbond.Weighted>
-8.6194

> <Gold.Chemscore.Metal.Weighted>
-0.0000

> <Gold.Chemscore.Lipo.Weighted>
-6.4368

> <Gold.Chemscore.Internal_Hbond.Weighted>
0.0000

> <Gold.Chemscore.DEClash.Weighted>
0.1799

> <Gold.Chemscore.DEInternal.Weighted>
3.5421

> <Gold.Chemscore.Rot.Weighted>
6.6477

> <Gold.Chemscore.Internal.Correction.Weighted>
   9.000000E+99

> <Gold.Protein.RotatedTorsions>
[ 6907 6896 6895 6894 ] final  -74.50 input  -60.11 | X-H torsion
[ 7974 7965 7964 7962 ] final  103.97 input  175.53 | X-H torsion
[ 8008 7997 7996 7995 ] final   65.24 input   59.86 | X-H torsion
[ 10167 10162 10161 10158 ] final -165.84 input  -65.29 | X-H torsion
[ 10718 10713 10712 10709 ] final   61.04 input   66.30 | X-H torsion
[ 10763 10752 10751 10750 ] final  141.39 input  -60.55 | X-H torsion
[ 11005 11000 10999 10996 ] final -124.08 input  -57.11 | X-H torsion

> <Gold.Protein.ActiveResidues>
 VAL166  LYS551  ARG553  GLY616  TRP617  ASP618  TYR619  PRO620  LYS621  CYS622 
 ASP623  PHE694  ASN695  SER759  ASP760  ASP761  ALA762  ILE779  LEU786  VAL792 
 PHE793  MET794  SER795  GLU796  ALA797  LYS798  CYS799  TRP800  GLU811  SER814 

> <Gold.Protein.RotatedAtoms>
  150.7091  134.4860  159.5492 H   0  0  0  0  0  0  0  0  0  0  0  0  # atno 6907 bound_to 6896
  152.2487  134.8151  160.0458 H   0  0  0  0  0  0  0  0  0  0  0  0  # atno 6908 bound_to 6896
  151.8907  133.3480  159.3834 H   0  0  0  0  0  0  0  0  0  0  0  0  # atno 6909 bound_to 6896
  145.3389  139.2467  143.3620 H   0  0  0  0  0  0  0  0  0  0  0  0  # atno 7974 bound_to 7965
  155.6587  140.3497  155.4774 H   0  0  0  0  0  0  0  0  0  0  0  0  # atno 8008 bound_to 7997
  155.9787  140.1170  157.0770 H   0  0  0  0  0  0  0  0  0  0  0  0  # atno 8009 bound_to 7997
  154.4185  140.1142  156.5391 H   0  0  0  0  0  0  0  0  0  0  0  0  # atno 8010 bound_to 7997
  139.6155  144.0729  152.1883 H   0  0  0  0  0  0  0  0  0  0  0  0  # atno 10167 bound_to 10162
  157.5798  130.8972  149.9411 H   0  0  0  0  0  0  0  0  0  0  0  0  # atno 10718 bound_to 10713
  153.9384  135.2982  155.3443 H   0  0  0  0  0  0  0  0  0  0  0  0  # atno 10763 bound_to 10752
  154.7490  135.4989  153.9258 H   0  0  0  0  0  0  0  0  0  0  0  0  # atno 10764 bound_to 10752
  153.1055  135.6745  153.9701 H   0  0  0  0  0  0  0  0  0  0  0  0  # atno 10765 bound_to 10752
  140.9869  134.0594  157.3701 H   0  0  0  0  0  0  0  0  0  0  0  0  # atno 11005 bound_to 11000
  146.3015  140.3982  142.8702 LP  0  0  0  0  0  0  0  0  0  0  0  0  # atno 17320 bound_to 7965
  144.8805  140.7394  143.5989 LP  0  0  0  0  0  0  0  0  0  0  0  0  # atno 17321 bound_to 7965
  140.0358  144.6045  150.7451 LP  0  0  0  0  0  0  0  0  0  0  0  0  # atno 17342 bound_to 10162
  140.7348  143.2733  151.3821 LP  0  0  0  0  0  0  0  0  0  0  0  0  # atno 17343 bound_to 10162
  156.0843  130.3669  150.0517 LP  0  0  0  0  0  0  0  0  0  0  0  0  # atno 17370 bound_to 10713
  156.8658  130.9507  151.3614 LP  0  0  0  0  0  0  0  0  0  0  0  0  # atno 17371 bound_to 10713
  139.8974  135.0150  156.7100 LP  0  0  0  0  0  0  0  0  0  0  0  0  # atno 17394 bound_to 11000
  140.7101  133.9231  155.8079 LP  0  0  0  0  0  0  0  0  0  0  0  0  # atno 17395 bound_to 11000

$$$$
