AV-unprocessed.smi:671|AV-procd|sdf|3286|dock10
  -GOLD-   22720 0243D 1   1.00000     0.00000
 Structure written by MMmdl.
 50 51  0  0  0  0  0  0  0  0  2 V2000
  142.6597  135.6647  153.2261 C   0  0  0  0  0  0  0  0  0  0  0  0
  143.6474  134.8718  152.4374 C   0  0  0  0  0  0  0  0  0  0  0  0
  143.3795  134.2961  151.2349 N   0  3  0  0  0  0  0  0  0  0  0  0
  144.4629  133.6535  150.7772 N   0  0  0  0  0  0  0  0  0  0  0  0
  144.3921  132.9600  149.4910 C   0  0  0  0  0  0  0  0  0  0  0  0
  145.4918  133.7755  151.6624 C   0  0  0  0  0  0  0  0  0  0  0  0
  146.8465  133.1761  151.4711 C   0  0  0  0  0  0  0  0  0  0  0  0
  144.9796  134.5419  152.7167 C   0  0  0  0  0  0  0  0  0  0  0  0
  145.7389  134.9396  153.9541 C   0  0  0  0  0  0  0  0  0  0  0  0
  145.6602  136.4496  154.2589 C   0  0  1  0  0  0  0  0  0  0  0  0
  145.4930  136.7211  155.7599 C   0  0  0  0  0  0  0  0  0  0  0  0
  146.8663  137.1285  153.7725 N   0  0  0  0  0  0  0  0  0  0  0  0
  147.3975  138.3027  154.1581 C   0  0  0  0  0  0  0  0  0  0  0  0
  146.8645  138.9944  155.0232 O   0  0  0  0  0  0  0  0  0  0  0  0
  148.5217  138.6555  153.5129 N   0  0  0  0  0  0  0  0  0  0  0  0
  149.2954  139.8767  153.7414 C   0  0  2  0  0  0  0  0  0  0  0  0
  149.9706  139.8244  155.1276 C   0  0  0  0  0  0  0  0  0  0  0  0
  149.4517  141.0318  155.9164 C   0  0  0  0  0  0  0  0  0  0  0  0
  148.1449  141.4210  155.2316 C   0  0  0  0  0  0  0  0  0  0  0  0
  148.4127  141.1471  153.7510 C   0  0  2  0  0  0  0  0  0  0  0  0
  147.1379  141.1139  152.8914 C   0  0  0  0  0  0  0  0  0  0  0  0
  142.3871  135.1299  154.1359 H   0  0  0  0  0  0  0  0  0  0  0  0
  141.7546  135.8393  152.6437 H   0  0  0  0  0  0  0  0  0  0  0  0
  143.0845  136.6301  153.5014 H   0  0  0  0  0  0  0  0  0  0  0  0
  144.5517  131.8936  149.6526 H   0  0  0  0  0  0  0  0  0  0  0  0
  145.1699  133.3498  148.8338 H   0  0  0  0  0  0  0  0  0  0  0  0
  143.4157  133.1151  149.0298 H   0  0  0  0  0  0  0  0  0  0  0  0
  147.3855  133.1264  152.4167 H   0  0  0  0  0  0  0  0  0  0  0  0
  147.4264  133.7778  150.7716 H   0  0  0  0  0  0  0  0  0  0  0  0
  146.7617  132.1643  151.0742 H   0  0  0  0  0  0  0  0  0  0  0  0
  145.3614  134.3804  154.8110 H   0  0  0  0  0  0  0  0  0  0  0  0
  146.7848  134.6451  153.8589 H   0  0  0  0  0  0  0  0  0  0  0  0
  144.7682  136.8309  153.7614 H   0  0  0  0  0  0  0  0  0  0  0  0
  144.5940  136.2414  156.1478 H   0  0  0  0  0  0  0  0  0  0  0  0
  145.4058  137.7902  155.9576 H   0  0  0  0  0  0  0  0  0  0  0  0
  146.3432  136.3450  156.3301 H   0  0  0  0  0  0  0  0  0  0  0  0
  147.3002  136.6995  152.9679 H   0  0  0  0  0  0  0  0  0  0  0  0
  148.8718  138.0287  152.8034 H   0  0  0  0  0  0  0  0  0  0  0  0
  150.0632  139.9813  152.9728 H   0  0  0  0  0  0  0  0  0  0  0  0
  149.7166  138.9037  155.6557 H   0  0  0  0  0  0  0  0  0  0  0  0
  151.0579  139.8508  155.0446 H   0  0  0  0  0  0  0  0  0  0  0  0
  149.3199  140.8143  156.9768 H   0  0  0  0  0  0  0  0  0  0  0  0
  150.1637  141.8545  155.8343 H   0  0  0  0  0  0  0  0  0  0  0  0
  147.3355  140.7842  155.5924 H   0  0  0  0  0  0  0  0  0  0  0  0
  147.8664  142.4577  155.4235 H   0  0  0  0  0  0  0  0  0  0  0  0
  149.0322  141.9663  153.3821 H   0  0  0  0  0  0  0  0  0  0  0  0
  146.4334  140.3682  153.2564 H   0  0  0  0  0  0  0  0  0  0  0  0
  147.3685  140.8805  151.8515 H   0  0  0  0  0  0  0  0  0  0  0  0
  146.6312  142.0787  152.9101 H   0  0  0  0  0  0  0  0  0  0  0  0
  142.5163  134.3095  150.7063 H   0  0  0  0  0  0  0  0  0  0  0  0
  1  2  1  0  0  0  0
  1 22  1  0  0  0  0
  1 23  1  0  0  0  0
  1 24  1  0  0  0  0
  2  8  1  0  0  0  0
  2  3  2  0  0  0  0
  3  4  1  0  0  0  0
  3 50  1  0  0  0  0
  4  5  1  0  0  0  0
  4  6  1  0  0  0  0
  5 25  1  0  0  0  0
  5 26  1  0  0  0  0
  5 27  1  0  0  0  0
  6  7  1  0  0  0  0
  6  8  2  0  0  0  0
  7 28  1  0  0  0  0
  7 29  1  0  0  0  0
  7 30  1  0  0  0  0
  8  9  1  0  0  0  0
  9 10  1  0  0  0  0
  9 31  1  0  0  0  0
  9 32  1  0  0  0  0
 10 11  1  0  0  0  0
 10 12  1  0  0  0  0
 10 33  1  0  0  0  0
 11 34  1  0  0  0  0
 11 35  1  0  0  0  0
 11 36  1  0  0  0  0
 12 13  1  0  0  0  0
 12 37  1  0  0  0  0
 13 14  2  0  0  0  0
 13 15  1  0  0  0  0
 15 16  1  0  0  0  0
 15 38  1  0  0  0  0
 16 20  1  0  0  0  0
 16 17  1  0  0  0  0
 16 39  1  0  0  0  0
 17 18  1  0  0  0  0
 17 40  1  0  0  0  0
 17 41  1  0  0  0  0
 18 19  1  0  0  0  0
 18 42  1  0  0  0  0
 18 43  1  0  0  0  0
 19 20  1  0  0  0  0
 19 44  1  0  0  0  0
 19 45  1  0  0  0  0
 20 21  1  0  0  0  0
 20 46  1  0  0  0  0
 21 47  1  0  0  0  0
 21 48  1  0  0  0  0
 21 49  1  0  0  0  0
M  CHG  1   3   1
M  END
> <s_m_source_file>
AV-unprocessed.smi

> <i_m_source_file_index>
671

> <i_lp_mmshare_version>
43012

> <i_f3d_flags>
0

> <s_epik_input>
W0NIM11jMW5uKFtDSDNdKWMoW0NIM10pYzFbQ0gyXVtDQEhdKFtDSDNdKVtOSF1DKD1PKVtOSF1bQ0BASF0yW0NIMl1bQ0gyXVtDSDJdW0NASF0yW0NIM10=

> <s_epik_cmdline>
J2VwaWtfcHl0aG9uJywgJy1waCcsICc3LjAnLCAnLXRuJywgJzgnLCAnLW1hJywgJzIwMCcsICctbWV0YWxfYmluZGluZycsICctaW1hZScsICc8aW5maWxlLm1hZT4nLCAnLW9tYWUnLCAnPG91dGZpbGUubWFlPic=

> <r_lp_tautomer_probability>
1

> <r_epik_Ionization_Penalty>
2.28705

> <r_epik_Ionization_Penalty_Charging>
2.28698

> <r_epik_Ionization_Penalty_Neutral>
6.23157e-05

> <r_epik_State_Penalty>
2.43671

> <r_epik_Charging_Adjusted_Penalty>
4.72369

> <i_epik_Tot_Q>
1

> <i_epik_Tot_abs_Q>
1

> <r_epik_Metal_State_Penalty>
2.44911

> <b_epik_Metal_Only>
0

> <s_lp_Force_Field>
OPLS_2005

> <r_lp_Energy>
35.2288

> <b_lp_Chiralities_Consistent>
1

> <s_lp_Variant>
AV-unprocessed.smi:671-14

> <Gold.Version>
5.8.1

> <Gold.Id.Protein>
6NUR|6NUR_protein|mol2

> <Gold.PLP.Fitness>
40.0062

> <Gold.PLP.PLP>
-30.2221

> <Gold.PLP.part.hbond>
-4.0000

> <Gold.PLP.part.metal>
0.0000

> <Gold.PLP.part.buried>
-0.9752

> <Gold.PLP.part.nonpolar>
-25.5975

> <Gold.PLP.part.repulsive>
0.0780

> <Gold.PLP.ligand.clash>
0.0000

> <Gold.PLP.ligand.torsion>
1.0594

> <Gold.PLP.Chemscore.Hbond>
3.9600

> <Gold.PLP.Chemscore.CHOScore>
0.0000

> <Gold.PLP.Chemscore.Metal>
0.0000

> <Gold.Chemscore.Hbonds>
donor molecule, donor type, donor heavy atom, donor atom, acceptor molecule, acceptor atom, score
      L1  H     3    50       P1 10186  2.00
      L1  H    12    37       P1  7948  0.98
      L1  H    15    38       P1  7948  1.00

> <Gold.PLP.Chemscore.Internal.Correction>
0.0229

> <Gold.Rescore>
     Score         DG    S(hbond)    S(metal)    S(lipo)     H(rot)  DE(clash)    DE(int)     intcor
     13.12     -18.54       2.53        0.00      72.32       1.51       0.59       4.83       ----

> <Gold.Chemscore.Fitness>
13.1158

> <Gold.Chemscore.DG>
-18.5377

> <Gold.Chemscore.ZeroCoef>
-5.4800

> <Gold.Chemscore.Hbond>
2.5301

> <Gold.Chemscore.Metal>
0.0000

> <Gold.Chemscore.Lipo>
72.3246

> <Gold.Chemscore.Internal_Hbond>
0.0000

> <Gold.Chemscore.DEClash>
0.5876

> <Gold.Chemscore.DEInternal>
4.8343

> <Gold.Chemscore.Rot>
1.5057

> <Gold.Chemscore.Internal.Correction>
   9.000000E+99

> <Gold.Chemscore.Hbonds>
donor molecule, donor type, donor heavy atom, donor atom, acceptor molecule, acceptor atom, score
      L1  H     3    50       P1 10186  0.40
      L1  H    12    37       P1  7948  0.88
      L1  H    15    38       P1  7948  0.94

> <Gold.Chemscore.Hbond.Weighted>
-8.4504

> <Gold.Chemscore.Metal.Weighted>
-0.0000

> <Gold.Chemscore.Lipo.Weighted>
-8.4620

> <Gold.Chemscore.Internal_Hbond.Weighted>
0.0000

> <Gold.Chemscore.DEClash.Weighted>
0.5876

> <Gold.Chemscore.DEInternal.Weighted>
4.8343

> <Gold.Chemscore.Rot.Weighted>
3.8547

> <Gold.Chemscore.Internal.Correction.Weighted>
   9.000000E+99

> <Gold.Protein.RotatedTorsions>
[ 6907 6896 6895 6894 ] final  -14.02 input  -60.11 | X-H torsion
[ 7974 7965 7964 7962 ] final   37.95 input  175.53 | X-H torsion
[ 8008 7997 7996 7995 ] final  -87.65 input   59.86 | X-H torsion
[ 10167 10162 10161 10158 ] final   40.47 input  -65.29 | X-H torsion
[ 10718 10713 10712 10709 ] final   -1.88 input   66.30 | X-H torsion
[ 10763 10752 10751 10750 ] final  135.05 input  -60.55 | X-H torsion
[ 11005 11000 10999 10996 ] final -151.63 input  -57.11 | X-H torsion

> <Gold.Protein.ActiveResidues>
 VAL166  LYS551  ARG553  GLY616  TRP617  ASP618  TYR619  PRO620  LYS621  CYS622 
 ASP623  PHE694  ASN695  SER759  ASP760  ASP761  ALA762  ILE779  LEU786  VAL792 
 PHE793  MET794  SER795  GLU796  ALA797  LYS798  CYS799  TRP800  GLU811  SER814 

> <Gold.Protein.RotatedAtoms>
  151.3459  135.0874  159.9386 H   0  0  0  0  0  0  0  0  0  0  0  0  # atno 6907 bound_to 6896
  152.5200  133.9401  159.7632 H   0  0  0  0  0  0  0  0  0  0  0  0  # atno 6908 bound_to 6896
  150.9767  133.6234  159.2759 H   0  0  0  0  0  0  0  0  0  0  0  0  # atno 6909 bound_to 6896
  146.1099  139.5831  142.9359 H   0  0  0  0  0  0  0  0  0  0  0  0  # atno 7974 bound_to 7965
  154.6657  140.0563  157.0111 H   0  0  0  0  0  0  0  0  0  0  0  0  # atno 8008 bound_to 7997
  155.1162  140.3243  155.4490 H   0  0  0  0  0  0  0  0  0  0  0  0  # atno 8009 bound_to 7997
  156.2637  140.2005  156.6286 H   0  0  0  0  0  0  0  0  0  0  0  0  # atno 8010 bound_to 7997
  140.3739  144.2069  150.6132 H   0  0  0  0  0  0  0  0  0  0  0  0  # atno 10167 bound_to 10162
  156.7991  130.5387  149.5724 H   0  0  0  0  0  0  0  0  0  0  0  0  # atno 10718 bound_to 10713
  153.8336  135.3100  155.3421 H   0  0  0  0  0  0  0  0  0  0  0  0  # atno 10763 bound_to 10752
  154.7962  135.4754  154.0170 H   0  0  0  0  0  0  0  0  0  0  0  0  # atno 10764 bound_to 10752
  153.1619  135.6862  153.8822 H   0  0  0  0  0  0  0  0  0  0  0  0  # atno 10765 bound_to 10752
  140.7275  134.3659  157.5173 H   0  0  0  0  0  0  0  0  0  0  0  0  # atno 11005 bound_to 11000
  145.5686  141.0397  143.2187 LP  0  0  0  0  0  0  0  0  0  0  0  0  # atno 17320 bound_to 7965
  144.7502  139.7214  143.7276 LP  0  0  0  0  0  0  0  0  0  0  0  0  # atno 17321 bound_to 7965
  140.5006  143.2319  151.8684 LP  0  0  0  0  0  0  0  0  0  0  0  0  # atno 17342 bound_to 10162
  139.4801  144.5064  151.8992 LP  0  0  0  0  0  0  0  0  0  0  0  0  # atno 17343 bound_to 10162
  156.1112  130.6042  151.0050 LP  0  0  0  0  0  0  0  0  0  0  0  0  # atno 17370 bound_to 10713
  157.6563  131.0889  150.7940 LP  0  0  0  0  0  0  0  0  0  0  0  0  # atno 17371 bound_to 10713
  139.8834  134.8996  156.2770 LP  0  0  0  0  0  0  0  0  0  0  0  0  # atno 17394 bound_to 11000
  140.9950  133.7185  156.0872 LP  0  0  0  0  0  0  0  0  0  0  0  0  # atno 17395 bound_to 11000

$$$$
