AV-unprocessed.smi:155|AV-procd|sdf|1277|dock10
  -GOLD-   2262018543D 1   1.00000     0.00000
 Structure written by MMmdl.
 63 66  0  0  0  0  0  0  0  0  2 V2000
  146.0949  131.8590  149.3506 C   0  0  0  0  0  0  0  0  0  0  0  0
  145.1207  132.9261  149.6714 N   0  3  0  0  0  0  0  0  0  0  0  0
  143.7292  132.4194  149.6360 C   0  0  0  0  0  0  0  0  0  0  0  0
  145.4609  133.6287  150.9338 C   0  0  0  0  0  0  0  0  0  0  0  0
  144.2911  134.4835  151.4676 C   0  0  0  0  0  0  0  0  0  0  0  0
  144.7531  135.5169  152.3977 N   0  0  0  0  0  0  0  0  0  0  0  0
  145.5354  134.9008  153.4755 C   0  0  0  0  0  0  0  0  0  0  0  0
  145.9174  135.8852  154.5949 C   0  0  0  0  0  0  0  0  0  0  0  0
  147.1406  136.7520  154.2531 C   0  0  0  0  0  0  0  0  0  0  0  0
  146.8447  137.8573  153.3410 N   0  0  0  0  0  0  0  0  0  0  0  0
  147.4391  139.0529  153.5963 C   0  0  0  0  0  0  0  0  0  0  0  0
  146.9425  140.1791  153.0174 N   0  0  0  0  0  0  0  0  0  0  0  0
  147.4972  141.3694  153.2639 C   0  0  0  0  0  0  0  0  0  0  0  0
  148.5414  141.6584  154.0422 N   0  0  0  0  0  0  0  0  0  0  0  0
  149.0523  140.5337  154.6192 C   0  0  0  0  0  0  0  0  0  0  0  0
  148.5683  139.2045  154.4534 C   0  0  0  0  0  0  0  0  0  0  0  0
  149.3535  138.3239  155.1906 N   0  0  0  0  0  0  0  0  0  0  0  0
  150.2405  139.0883  155.7663 C   0  0  0  0  0  0  0  0  0  0  0  0
  150.1312  140.4291  155.4794 N   0  0  0  0  0  0  0  0  0  0  0  0
  150.9806  141.4938  155.9833 C   0  0  0  0  0  0  0  0  0  0  0  0
  150.6382  141.8815  157.4353 C   0  0  2  0  0  0  0  0  0  0  0  0
  149.4046  142.5745  157.4554 O   0  0  0  0  0  0  0  0  0  0  0  0
  151.7209  142.7724  158.0707 C   0  0  1  0  0  0  0  0  0  0  0  0
  151.8231  144.1726  157.4667 C   0  0  0  0  0  0  0  0  0  0  0  0
  152.5237  144.9304  158.5717 C   0  0  0  0  0  0  0  0  0  0  0  0
  151.9355  144.2963  159.8312 C   0  0  0  0  0  0  0  0  0  0  0  0
  151.4192  143.0264  159.4389 O   0  0  0  0  0  0  0  0  0  0  0  0
  145.6834  137.8128  152.4523 C   0  0  0  0  0  0  0  0  0  0  0  0
  145.5745  136.4904  151.6750 C   0  0  0  0  0  0  0  0  0  0  0  0
  146.0908  131.0831  150.1171 H   0  0  0  0  0  0  0  0  0  0  0  0
  147.1053  132.2636  149.2781 H   0  0  0  0  0  0  0  0  0  0  0  0
  145.8589  131.3947  148.3925 H   0  0  0  0  0  0  0  0  0  0  0  0
  143.5510  131.7071  150.4427 H   0  0  0  0  0  0  0  0  0  0  0  0
  143.5284  131.9170  148.6891 H   0  0  0  0  0  0  0  0  0  0  0  0
  143.0065  133.2296  149.7270 H   0  0  0  0  0  0  0  0  0  0  0  0
  145.7787  132.9054  151.6867 H   0  0  0  0  0  0  0  0  0  0  0  0
  146.3252  134.2615  150.7374 H   0  0  0  0  0  0  0  0  0  0  0  0
  143.7262  134.9361  150.6507 H   0  0  0  0  0  0  0  0  0  0  0  0
  143.6033  133.8147  151.9848 H   0  0  0  0  0  0  0  0  0  0  0  0
  144.9497  134.1085  153.9376 H   0  0  0  0  0  0  0  0  0  0  0  0
  146.4283  134.4191  153.0734 H   0  0  0  0  0  0  0  0  0  0  0  0
  145.0658  136.4954  154.8989 H   0  0  0  0  0  0  0  0  0  0  0  0
  146.1783  135.2918  155.4717 H   0  0  0  0  0  0  0  0  0  0  0  0
  147.5283  137.1547  155.1898 H   0  0  0  0  0  0  0  0  0  0  0  0
  147.9353  136.1376  153.8289 H   0  0  0  0  0  0  0  0  0  0  0  0
  147.0376  142.2111  152.7671 H   0  0  0  0  0  0  0  0  0  0  0  0
  151.0030  138.6931  156.4218 H   0  0  0  0  0  0  0  0  0  0  0  0
  152.0162  141.1582  155.9152 H   0  0  0  0  0  0  0  0  0  0  0  0
  150.8913  142.3588  155.3249 H   0  0  0  0  0  0  0  0  0  0  0  0
  150.5233  140.9753  158.0313 H   0  0  0  0  0  0  0  0  0  0  0  0
  149.3420  143.0982  156.6711 H   0  0  0  0  0  0  0  0  0  0  0  0
  152.6955  142.2826  158.0234 H   0  0  0  0  0  0  0  0  0  0  0  0
  152.3703  144.1926  156.5237 H   0  0  0  0  0  0  0  0  0  0  0  0
  150.8302  144.5919  157.2963 H   0  0  0  0  0  0  0  0  0  0  0  0
  153.5973  144.7435  158.5259 H   0  0  0  0  0  0  0  0  0  0  0  0
  152.3631  146.0076  158.5215 H   0  0  0  0  0  0  0  0  0  0  0  0
  152.6840  144.1885  160.6167 H   0  0  0  0  0  0  0  0  0  0  0  0
  151.1159  144.8981  160.2245 H   0  0  0  0  0  0  0  0  0  0  0  0
  144.7692  138.0260  153.0078 H   0  0  0  0  0  0  0  0  0  0  0  0
  145.7836  138.6093  151.7136 H   0  0  0  0  0  0  0  0  0  0  0  0
  146.5515  136.0854  151.4048 H   0  0  0  0  0  0  0  0  0  0  0  0
  145.0751  136.7338  150.7366 H   0  0  0  0  0  0  0  0  0  0  0  0
  145.2018  133.6090  148.9314 H   0  0  0  0  0  0  0  0  0  0  0  0
  1  2  1  0  0  0  0
  1 30  1  0  0  0  0
  1 31  1  0  0  0  0
  1 32  1  0  0  0  0
  2  3  1  0  0  0  0
  2  4  1  0  0  0  0
  2 63  1  0  0  0  0
  3 33  1  0  0  0  0
  3 34  1  0  0  0  0
  3 35  1  0  0  0  0
  4  5  1  0  0  0  0
  4 36  1  0  0  0  0
  4 37  1  0  0  0  0
  5  6  1  0  0  0  0
  5 38  1  0  0  0  0
  5 39  1  0  0  0  0
  6 29  1  0  0  0  0
  6  7  1  0  0  0  0
  7  8  1  0  0  0  0
  7 40  1  0  0  0  0
  7 41  1  0  0  0  0
  8  9  1  0  0  0  0
  8 42  1  0  0  0  0
  8 43  1  0  0  0  0
  9 10  1  0  0  0  0
  9 44  1  0  0  0  0
  9 45  1  0  0  0  0
 10 11  1  0  0  0  0
 10 28  1  0  0  0  0
 11 16  1  0  0  0  0
 11 12  2  0  0  0  0
 12 13  1  0  0  0  0
 13 14  2  0  0  0  0
 13 46  1  0  0  0  0
 14 15  1  0  0  0  0
 15 19  1  0  0  0  0
 15 16  2  0  0  0  0
 16 17  1  0  0  0  0
 17 18  2  0  0  0  0
 18 19  1  0  0  0  0
 18 47  1  0  0  0  0
 19 20  1  0  0  0  0
 20 21  1  0  0  0  0
 20 48  1  0  0  0  0
 20 49  1  0  0  0  0
 21 22  1  0  0  0  0
 21 23  1  0  0  0  0
 21 50  1  0  0  0  0
 22 51  1  0  0  0  0
 23 27  1  0  0  0  0
 23 24  1  0  0  0  0
 23 52  1  0  0  0  0
 24 25  1  0  0  0  0
 24 53  1  0  0  0  0
 24 54  1  0  0  0  0
 25 26  1  0  0  0  0
 25 55  1  0  0  0  0
 25 56  1  0  0  0  0
 26 27  1  0  0  0  0
 26 57  1  0  0  0  0
 26 58  1  0  0  0  0
 28 29  1  0  0  0  0
 28 59  1  0  0  0  0
 28 60  1  0  0  0  0
 29 61  1  0  0  0  0
 29 62  1  0  0  0  0
M  CHG  1   2   1
M  END
> <s_m_source_file>
AV-unprocessed.smi

> <i_m_source_file_index>
155

> <i_lp_mmshare_version>
43012

> <i_f3d_flags>
0

> <s_epik_input>
W0NIM11OKFtDSDNdKVtDSDJdW0NIMl1OMVtDSDJdW0NIMl1bQ0gyXU4oW0NIMl1bQ0gyXTEpYyhuW2NIXW4yKWMoYzIzKW5bY0hdbjNbQ0gyXVtDQEhdKFtPSF0pW0NAQEhdNFtDSDJdW0NIMl1bQ0gyXU80

> <s_epik_cmdline>
J2VwaWtfcHl0aG9uJywgJy1waCcsICc3LjAnLCAnLXRuJywgJzgnLCAnLW1hJywgJzIwMCcsICctbWV0YWxfYmluZGluZycsICctaW1hZScsICc8aW5maWxlLm1hZT4nLCAnLW9tYWUnLCAnPG91dGZpbGUubWFlPic=

> <r_lp_tautomer_probability>
1

> <r_epik_Ionization_Penalty>
0.0599493

> <r_epik_Ionization_Penalty_Charging>
0.00816363

> <r_epik_Ionization_Penalty_Neutral>
0.0517857

> <r_epik_State_Penalty>
0.460607

> <r_epik_Charging_Adjusted_Penalty>
0.468771

> <i_epik_Tot_Q>
1

> <i_epik_Tot_abs_Q>
1

> <r_epik_Metal_State_Penalty>
0.45965

> <b_epik_Metal_Only>
0

> <s_lp_Force_Field>
OPLS_2005

> <r_lp_Energy>
54.9456

> <b_lp_Chiralities_Consistent>
1

> <s_lp_Variant>
AV-unprocessed.smi:155-11

> <Gold.Version>
5.8.1

> <Gold.Id.Protein>
6NUR|6NUR_protein|mol2

> <Gold.PLP.Fitness>
55.1853

> <Gold.PLP.PLP>
-49.6056

> <Gold.PLP.part.hbond>
-3.0000

> <Gold.PLP.part.metal>
0.0000

> <Gold.PLP.part.buried>
-4.3062

> <Gold.PLP.part.nonpolar>
-42.8793

> <Gold.PLP.part.repulsive>
0.7594

> <Gold.PLP.ligand.clash>
0.0000

> <Gold.PLP.ligand.torsion>
0.6904

> <Gold.PLP.Chemscore.Hbond>
2.2457

> <Gold.PLP.Chemscore.CHOScore>
0.0000

> <Gold.PLP.Chemscore.Metal>
0.0000

> <Gold.Chemscore.Hbonds>
donor molecule, donor type, donor heavy atom, donor atom, acceptor molecule, acceptor atom, score
      L1  H     2    63       P1  7921  1.00
      L1  H    22    51       P1  8028  1.00
      P1  H  8011  8017       L1    14  0.19

> <Gold.PLP.Chemscore.Internal.Correction>
0.2235

> <Gold.Rescore>
     Score         DG    S(hbond)    S(metal)    S(lipo)     H(rot)  DE(clash)    DE(int)     intcor
     15.95     -18.45       1.83        0.00     117.98       2.71       0.35       2.15       ----

> <Gold.Chemscore.Fitness>
15.9534

> <Gold.Chemscore.DG>
-18.4528

> <Gold.Chemscore.ZeroCoef>
-5.4800

> <Gold.Chemscore.Hbond>
1.8267

> <Gold.Chemscore.Metal>
0.0000

> <Gold.Chemscore.Lipo>
117.9847

> <Gold.Chemscore.Internal_Hbond>
0.0000

> <Gold.Chemscore.DEClash>
0.3532

> <Gold.Chemscore.DEInternal>
2.1462

> <Gold.Chemscore.Rot>
2.7080

> <Gold.Chemscore.Internal.Correction>
   9.000000E+99

> <Gold.Chemscore.Hbonds>
donor molecule, donor type, donor heavy atom, donor atom, acceptor molecule, acceptor atom, score
      L1  H     2    63       P1  7921  0.67
      L1  H    22    51       P1  8028  0.96
      P1  H  8011  8017       L1    14  0.02

> <Gold.Chemscore.Hbond.Weighted>
-6.1012

> <Gold.Chemscore.Metal.Weighted>
-0.0000

> <Gold.Chemscore.Lipo.Weighted>
-13.8042

> <Gold.Chemscore.Internal_Hbond.Weighted>
0.0000

> <Gold.Chemscore.DEClash.Weighted>
0.3532

> <Gold.Chemscore.DEInternal.Weighted>
2.1462

> <Gold.Chemscore.Rot.Weighted>
6.9326

> <Gold.Chemscore.Internal.Correction.Weighted>
   9.000000E+99

> <Gold.Protein.RotatedTorsions>
[ 6907 6896 6895 6894 ] final  -27.14 input  -60.11 | X-H torsion
[ 7974 7965 7964 7962 ] final   69.16 input  175.53 | X-H torsion
[ 8008 7997 7996 7995 ] final   38.88 input   59.86 | X-H torsion
[ 10167 10162 10161 10158 ] final -172.52 input  -65.29 | X-H torsion
[ 10718 10713 10712 10709 ] final   34.66 input   66.30 | X-H torsion
[ 10763 10752 10751 10750 ] final  -19.46 input  -60.55 | X-H torsion
[ 11005 11000 10999 10996 ] final -111.46 input  -57.11 | X-H torsion

> <Gold.Protein.ActiveResidues>
 VAL166  LYS551  ARG553  GLY616  TRP617  ASP618  TYR619  PRO620  LYS621  CYS622 
 ASP623  PHE694  ASN695  SER759  ASP760  ASP761  ALA762  ILE779  LEU786  VAL792 
 PHE793  MET794  SER795  GLU796  ALA797  LYS798  CYS799  TRP800  GLU811  SER814 

> <Gold.Protein.RotatedAtoms>
  151.1511  135.0227  159.8668 H   0  0  0  0  0  0  0  0  0  0  0  0  # atno 6907 bound_to 6896
  152.5452  134.1388  159.8480 H   0  0  0  0  0  0  0  0  0  0  0  0  # atno 6908 bound_to 6896
  151.1473  133.4885  159.2628 H   0  0  0  0  0  0  0  0  0  0  0  0  # atno 6909 bound_to 6896
  145.7938  139.2947  143.1195 H   0  0  0  0  0  0  0  0  0  0  0  0  # atno 7974 bound_to 7965
  155.2275  140.3335  155.4307 H   0  0  0  0  0  0  0  0  0  0  0  0  # atno 8008 bound_to 7997
  156.2308  140.1850  156.7293 H   0  0  0  0  0  0  0  0  0  0  0  0  # atno 8009 bound_to 7997
  154.5975  140.0628  156.9309 H   0  0  0  0  0  0  0  0  0  0  0  0  # atno 8010 bound_to 7997
  139.5740  144.1575  152.1424 H   0  0  0  0  0  0  0  0  0  0  0  0  # atno 10167 bound_to 10162
  157.3131  130.7409  149.6737 H   0  0  0  0  0  0  0  0  0  0  0  0  # atno 10718 bound_to 10713
  153.6052  135.6998  153.5368 H   0  0  0  0  0  0  0  0  0  0  0  0  # atno 10763 bound_to 10752
  153.3063  135.4114  155.1296 H   0  0  0  0  0  0  0  0  0  0  0  0  # atno 10764 bound_to 10752
  154.8574  135.3661  154.5589 H   0  0  0  0  0  0  0  0  0  0  0  0  # atno 10765 bound_to 10752
  141.0733  133.9343  157.2441 H   0  0  0  0  0  0  0  0  0  0  0  0  # atno 11005 bound_to 11000
  145.9949  140.8570  143.0047 LP  0  0  0  0  0  0  0  0  0  0  0  0  # atno 17320 bound_to 7965
  144.6778  140.2269  143.7360 LP  0  0  0  0  0  0  0  0  0  0  0  0  # atno 17321 bound_to 7965
  140.1114  144.5453  150.6922 LP  0  0  0  0  0  0  0  0  0  0  0  0  # atno 17342 bound_to 10162
  140.7023  143.2443  151.4827 LP  0  0  0  0  0  0  0  0  0  0  0  0  # atno 17343 bound_to 10162
  155.9679  130.4245  150.4613 LP  0  0  0  0  0  0  0  0  0  0  0  0  # atno 17370 bound_to 10713
  157.2615  131.0568  151.2317 LP  0  0  0  0  0  0  0  0  0  0  0  0  # atno 17371 bound_to 10713
  139.9546  135.0168  156.9091 LP  0  0  0  0  0  0  0  0  0  0  0  0  # atno 17394 bound_to 11000
  140.5627  134.0519  155.7404 LP  0  0  0  0  0  0  0  0  0  0  0  0  # atno 17395 bound_to 11000

$$$$
