AV-unprocessed.smi:1225|AV-procd|sdf|5140|dock8
  -GOLD-   22720 4203D 1   1.00000     0.00000
 Structure written by MMmdl.
 49 51  0  0  0  0  0  0  0  0  2 V2000
  147.1985  130.9704  153.5484 C   0  0  0  0  0  0  0  0  0  0  0  0
  148.1131  131.9680  154.1722 C   0  0  0  0  0  0  0  0  0  0  0  0
  148.4411  131.9581  155.4659 N   0  0  0  0  0  0  0  0  0  0  0  0
  149.3157  132.9929  155.8032 C   0  0  0  0  0  0  0  0  0  0  0  0
  149.6482  133.8052  154.7470 C   0  0  0  0  0  0  0  0  0  0  0  0
  150.5551  134.9941  154.7620 C   0  0  0  0  0  0  0  0  0  0  0  0
  149.8343  136.2699  154.5228 N   0  3  1  0  0  0  0  0  0  0  0  0
  148.5915  136.3491  155.3265 C   0  0  0  0  0  0  0  0  0  0  0  0
  150.7010  137.4707  154.6731 C   0  0  0  0  0  0  0  0  0  0  0  0
  149.8938  138.7732  154.8368 C   0  0  2  0  0  0  0  0  0  0  0  0
  149.1256  138.9849  153.6676 O   0  0  0  0  0  0  0  0  0  0  0  0
  150.8147  139.9873  155.0615 C   0  0  0  0  0  0  0  0  0  0  0  0
  151.4562  139.9593  156.3632 N   0  0  0  0  0  0  0  0  0  0  0  0
  152.0051  138.8960  156.9822 C   0  0  0  0  0  0  0  0  0  0  0  0
  152.5434  139.1018  158.1808 N   0  0  0  0  0  0  0  0  0  0  0  0
  152.3102  140.4542  158.3642 C   0  0  0  0  0  0  0  0  0  0  0  0
  152.6327  141.3034  159.4452 C   0  0  0  0  0  0  0  0  0  0  0  0
  152.2901  142.6743  159.4169 C   0  0  0  0  0  0  0  0  0  0  0  0
  152.6527  143.5510  160.6025 C   0  0  0  0  0  0  0  0  0  0  0  0
  151.6163  143.2158  158.2926 C   0  0  0  0  0  0  0  0  0  0  0  0
  151.2371  144.6852  158.2407 C   0  0  0  0  0  0  0  0  0  0  0  0
  151.2882  142.3817  157.2035 C   0  0  0  0  0  0  0  0  0  0  0  0
  151.6320  141.0193  157.2451 C   0  0  0  0  0  0  0  0  0  0  0  0
  148.8754  133.2747  153.2744 S   0  0  0  0  0  0  0  0  0  0  0  0
  146.3889  130.7178  154.2336 H   0  0  0  0  0  0  0  0  0  0  0  0
  147.7488  130.0617  153.3040 H   0  0  0  0  0  0  0  0  0  0  0  0
  146.7661  131.3752  152.6332 H   0  0  0  0  0  0  0  0  0  0  0  0
  149.6503  133.0809  156.8264 H   0  0  0  0  0  0  0  0  0  0  0  0
  151.0472  135.0326  155.7348 H   0  0  0  0  0  0  0  0  0  0  0  0
  151.3491  134.8804  154.0223 H   0  0  0  0  0  0  0  0  0  0  0  0
  148.8179  136.3891  156.3926 H   0  0  0  0  0  0  0  0  0  0  0  0
  147.9606  135.4779  155.1469 H   0  0  0  0  0  0  0  0  0  0  0  0
  147.9996  137.2265  155.0695 H   0  0  0  0  0  0  0  0  0  0  0  0
  151.3687  137.3258  155.5238 H   0  0  0  0  0  0  0  0  0  0  0  0
  151.3473  137.5848  153.8030 H   0  0  0  0  0  0  0  0  0  0  0  0
  149.2126  138.6941  155.6834 H   0  0  0  0  0  0  0  0  0  0  0  0
  149.6450  139.4812  153.0526 H   0  0  0  0  0  0  0  0  0  0  0  0
  151.5969  140.0125  154.3016 H   0  0  0  0  0  0  0  0  0  0  0  0
  150.2555  140.9192  154.9637 H   0  0  0  0  0  0  0  0  0  0  0  0
  152.0138  137.9169  156.5259 H   0  0  0  0  0  0  0  0  0  0  0  0
  153.1463  140.8911  160.3012 H   0  0  0  0  0  0  0  0  0  0  0  0
  153.3364  144.3429  160.2962 H   0  0  0  0  0  0  0  0  0  0  0  0
  153.1383  142.9751  161.3910 H   0  0  0  0  0  0  0  0  0  0  0  0
  151.7591  144.0094  161.0264 H   0  0  0  0  0  0  0  0  0  0  0  0
  150.7426  144.9359  157.3019 H   0  0  0  0  0  0  0  0  0  0  0  0
  152.1244  145.3125  158.3292 H   0  0  0  0  0  0  0  0  0  0  0  0
  150.5551  144.9323  159.0545 H   0  0  0  0  0  0  0  0  0  0  0  0
  150.7743  142.7806  156.3416 H   0  0  0  0  0  0  0  0  0  0  0  0
  149.5493  136.2480  153.5537 H   0  0  0  0  0  0  0  0  0  0  0  0
  1  2  1  0  0  0  0
  1 25  1  0  0  0  0
  1 26  1  0  0  0  0
  1 27  1  0  0  0  0
  2 24  1  0  0  0  0
  2  3  2  0  0  0  0
  3  4  1  0  0  0  0
  4  5  2  0  0  0  0
  4 28  1  0  0  0  0
  5  6  1  0  0  0  0
  5 24  1  0  0  0  0
  6  7  1  0  0  0  0
  6 29  1  0  0  0  0
  6 30  1  0  0  0  0
  7  8  1  0  0  0  0
  7  9  1  0  0  0  0
  7 49  1  0  0  0  0
  8 31  1  0  0  0  0
  8 32  1  0  0  0  0
  8 33  1  0  0  0  0
  9 10  1  0  0  0  0
  9 34  1  0  0  0  0
  9 35  1  0  0  0  0
 10 11  1  0  0  0  0
 10 12  1  0  0  0  0
 10 36  1  0  0  0  0
 11 37  1  0  0  0  0
 12 13  1  0  0  0  0
 12 38  1  0  0  0  0
 12 39  1  0  0  0  0
 13 23  1  0  0  0  0
 13 14  1  0  0  0  0
 14 15  2  0  0  0  0
 14 40  1  0  0  0  0
 15 16  1  0  0  0  0
 16 23  2  0  0  0  0
 16 17  1  0  0  0  0
 17 18  2  0  0  0  0
 17 41  1  0  0  0  0
 18 19  1  0  0  0  0
 18 20  1  0  0  0  0
 19 42  1  0  0  0  0
 19 43  1  0  0  0  0
 19 44  1  0  0  0  0
 20 21  1  0  0  0  0
 20 22  2  0  0  0  0
 21 45  1  0  0  0  0
 21 46  1  0  0  0  0
 21 47  1  0  0  0  0
 22 23  1  0  0  0  0
 22 48  1  0  0  0  0
M  CHG  1   7   1
M  END
> <s_m_source_file>
AV-unprocessed.smi

> <i_m_source_file_index>
1225

> <i_lp_mmshare_version>
43012

> <i_f3d_flags>
0

> <s_epik_input>
W0NIM11jMW5bY0hdYyhzMSlbQ0gyXU4oW0NIM10pW0NIMl1bQ0BIXShbT0hdKVtDSDJdbihbY0hdbjIpYyhjMjMpW2NIXWMoW0NIM10pYyhbY0hdMylbQ0gzXQ==

> <s_epik_cmdline>
J2VwaWtfcHl0aG9uJywgJy1waCcsICc3LjAnLCAnLXRuJywgJzgnLCAnLW1hJywgJzIwMCcsICctbWV0YWxfYmluZGluZycsICctaW1hZScsICc8aW5maWxlLm1hZT4nLCAnLW9tYWUnLCAnPG91dGZpbGUubWFlPic=

> <r_epik_Ionization_Penalty>
1.62543

> <r_epik_Ionization_Penalty_Charging>
1.53932

> <r_epik_Ionization_Penalty_Neutral>
0.0861152

> <r_epik_State_Penalty>
1.73127

> <r_epik_Charging_Adjusted_Penalty>
3.27059

> <i_epik_Tot_Q>
1

> <i_epik_Tot_abs_Q>
1

> <r_epik_Metal_State_Penalty>
1.71387

> <b_epik_Metal_Only>
0

> <s_lp_Force_Field>
OPLS_2005

> <r_lp_Energy>
11.3728

> <b_lp_Chiralities_Consistent>
1

> <s_lp_Variant>
AV-unprocessed.smi:1225-5

> <Gold.Version>
5.8.1

> <Gold.Id.Protein>
6NUR|6NUR_protein|mol2

> <Gold.PLP.Fitness>
52.5552

> <Gold.PLP.PLP>
-45.2956

> <Gold.PLP.part.hbond>
-2.3280

> <Gold.PLP.part.metal>
0.0000

> <Gold.PLP.part.buried>
-3.2968

> <Gold.PLP.part.nonpolar>
-38.8046

> <Gold.PLP.part.repulsive>
0.0446

> <Gold.PLP.ligand.clash>
0.0000

> <Gold.PLP.ligand.torsion>
0.6208

> <Gold.PLP.Chemscore.Hbond>
2.8000

> <Gold.PLP.Chemscore.CHOScore>
0.0000

> <Gold.PLP.Chemscore.Metal>
0.0000

> <Gold.Chemscore.Hbonds>
donor molecule, donor type, donor heavy atom, donor atom, acceptor molecule, acceptor atom, score
      L1  H     7    49       P1  7948  2.00
      L1  H    11    37       P1  7957  0.80

> <Gold.PLP.Chemscore.Internal.Correction>
0.1012

> <Gold.Rescore>
     Score         DG    S(hbond)    S(metal)    S(lipo)     H(rot)  DE(clash)    DE(int)     intcor
     18.54     -20.25       1.80        0.00     126.95       2.37       0.14       1.58       ----

> <Gold.Chemscore.Fitness>
18.5362

> <Gold.Chemscore.DG>
-20.2538

> <Gold.Chemscore.ZeroCoef>
-5.4800

> <Gold.Chemscore.Hbond>
1.7968

> <Gold.Chemscore.Metal>
0.0000

> <Gold.Chemscore.Lipo>
126.9457

> <Gold.Chemscore.Internal_Hbond>
0.0000

> <Gold.Chemscore.DEClash>
0.1355

> <Gold.Chemscore.DEInternal>
1.5821

> <Gold.Chemscore.Rot>
2.3750

> <Gold.Chemscore.Internal.Correction>
   9.000000E+99

> <Gold.Chemscore.Hbonds>
donor molecule, donor type, donor heavy atom, donor atom, acceptor molecule, acceptor atom, score
      L1  H     7    49       P1  7948  0.50
      L1  H    11    37       P1  7957  0.78

> <Gold.Chemscore.Hbond.Weighted>
-6.0011

> <Gold.Chemscore.Metal.Weighted>
-0.0000

> <Gold.Chemscore.Lipo.Weighted>
-14.8527

> <Gold.Chemscore.Internal_Hbond.Weighted>
0.0000

> <Gold.Chemscore.DEClash.Weighted>
0.1355

> <Gold.Chemscore.DEInternal.Weighted>
1.5821

> <Gold.Chemscore.Rot.Weighted>
6.0800

> <Gold.Chemscore.Internal.Correction.Weighted>
   9.000000E+99

> <Gold.Protein.RotatedTorsions>
[ 6907 6896 6895 6894 ] final  -18.79 input  -60.11 | X-H torsion
[ 7974 7965 7964 7962 ] final  -62.02 input  175.53 | X-H torsion
[ 8008 7997 7996 7995 ] final  -89.09 input   59.86 | X-H torsion
[ 10167 10162 10161 10158 ] final   21.97 input  -65.29 | X-H torsion
[ 10718 10713 10712 10709 ] final -150.17 input   66.30 | X-H torsion
[ 10763 10752 10751 10750 ] final -128.38 input  -60.55 | X-H torsion
[ 11005 11000 10999 10996 ] final -153.99 input  -57.11 | X-H torsion

> <Gold.Protein.ActiveResidues>
 VAL166  LYS551  ARG553  GLY616  TRP617  ASP618  TYR619  PRO620  LYS621  CYS622 
 ASP623  PHE694  ASN695  SER759  ASP760  ASP761  ALA762  ILE779  LEU786  VAL792 
 PHE793  MET794  SER795  GLU796  ALA797  LYS798  CYS799  TRP800  GLU811  SER814 

> <Gold.Protein.RotatedAtoms>
  151.2728  135.0690  159.9140 H   0  0  0  0  0  0  0  0  0  0  0  0  # atno 6907 bound_to 6896
  152.5347  134.0112  159.7949 H   0  0  0  0  0  0  0  0  0  0  0  0  # atno 6908 bound_to 6896
  151.0353  133.5703  159.2687 H   0  0  0  0  0  0  0  0  0  0  0  0  # atno 6909 bound_to 6896
  145.7964  140.8680  143.0254 H   0  0  0  0  0  0  0  0  0  0  0  0  # atno 7974 bound_to 7965
  154.6825  140.0546  157.0281 H   0  0  0  0  0  0  0  0  0  0  0  0  # atno 8008 bound_to 7997
  155.0931  140.3221  155.4549 H   0  0  0  0  0  0  0  0  0  0  0  0  # atno 8009 bound_to 7997
  156.2699  140.2044  156.6058 H   0  0  0  0  0  0  0  0  0  0  0  0  # atno 8010 bound_to 7997
  140.5385  143.9718  150.6505 H   0  0  0  0  0  0  0  0  0  0  0  0  # atno 10167 bound_to 10162
  156.4426  130.8129  151.2359 H   0  0  0  0  0  0  0  0  0  0  0  0  # atno 10718 bound_to 10713
  154.8756  135.3930  154.3748 H   0  0  0  0  0  0  0  0  0  0  0  0  # atno 10763 bound_to 10752
  153.4503  135.7028  153.6118 H   0  0  0  0  0  0  0  0  0  0  0  0  # atno 10764 bound_to 10752
  153.4661  135.3801  155.2334 H   0  0  0  0  0  0  0  0  0  0  0  0  # atno 10765 bound_to 10752
  140.7021  134.3925  157.5208 H   0  0  0  0  0  0  0  0  0  0  0  0  # atno 11005 bound_to 11000
  144.6774  140.0196  143.7484 LP  0  0  0  0  0  0  0  0  0  0  0  0  # atno 17320 bound_to 7965
  145.9923  139.3025  143.0977 LP  0  0  0  0  0  0  0  0  0  0  0  0  # atno 17321 bound_to 7965
  140.3113  143.3196  152.0876 LP  0  0  0  0  0  0  0  0  0  0  0  0  # atno 17342 bound_to 10162
  139.4980  144.6634  151.6411 LP  0  0  0  0  0  0  0  0  0  0  0  0  # atno 17343 bound_to 10162
  157.7506  131.0163  150.3540 LP  0  0  0  0  0  0  0  0  0  0  0  0  # atno 17370 bound_to 10713
  156.3901  130.3896  149.7036 LP  0  0  0  0  0  0  0  0  0  0  0  0  # atno 17371 bound_to 10713
  139.8894  134.8832  156.2424 LP  0  0  0  0  0  0  0  0  0  0  0  0  # atno 17394 bound_to 11000
  141.0155  133.7071  156.1181 LP  0  0  0  0  0  0  0  0  0  0  0  0  # atno 17395 bound_to 11000

$$$$
