AV-unprocessed.smi:458|AV-procd|sdf|2622|dock8
  -GOLD-   2262023 23D 1   1.00000     0.00000
 Structure written by MMmdl.
 37 39  0  0  0  0  0  0  0  0  2 V2000
  151.6202  136.5327  154.1876 O   0  0  0  0  0  0  0  0  0  0  0  0
  151.7596  137.7933  154.8046 C   0  0  0  0  0  0  0  0  0  0  0  0
  150.5830  138.6781  154.5546 C   0  0  0  0  0  0  0  0  0  0  0  0
  149.5032  138.3618  153.7862 N   0  3  0  0  0  0  0  0  0  0  0  0
  148.6122  139.4345  153.7575 C   0  0  0  0  0  0  0  0  0  0  0  0
  147.3897  139.5830  153.1100 C   0  0  0  0  0  0  0  0  0  0  0  0
  146.7296  140.8175  153.2796 C   0  0  0  0  0  0  0  0  0  0  0  0
  147.2866  141.8448  154.0680 C   0  0  0  0  0  0  0  0  0  0  0  0
  148.5250  141.6808  154.7222 C   0  0  0  0  0  0  0  0  0  0  0  0
  149.1734  140.4572  154.5499 C   0  0  0  0  0  0  0  0  0  0  0  0
  150.3907  139.9465  155.0211 N   0  0  0  0  0  0  0  0  0  0  0  0
  151.2515  140.7820  155.8760 C   0  0  0  0  0  0  0  0  0  0  0  0
  151.0186  140.5243  157.3784 C   0  0  2  0  0  0  0  0  0  0  0  0
  149.6722  140.1352  157.5553 O   0  0  0  0  0  0  0  0  0  0  0  0
  151.3926  141.7247  158.2369 C   0  0  0  0  0  0  0  0  0  0  0  0
  150.7142  142.9504  158.0631 C   0  0  0  0  0  0  0  0  0  0  0  0
  151.0289  144.0578  158.8742 C   0  0  0  0  0  0  0  0  0  0  0  0
  152.0252  143.9466  159.8629 C   0  0  0  0  0  0  0  0  0  0  0  0
  152.3253  145.0101  160.6451 F   0  0  0  0  0  0  0  0  0  0  0  0
  152.7072  142.7275  160.0396 C   0  0  0  0  0  0  0  0  0  0  0  0
  152.3921  141.6194  159.2295 C   0  0  0  0  0  0  0  0  0  0  0  0
  151.4535  136.6654  153.2665 H   0  0  0  0  0  0  0  0  0  0  0  0
  151.8820  137.6512  155.8786 H   0  0  0  0  0  0  0  0  0  0  0  0
  152.6687  138.2715  154.4412 H   0  0  0  0  0  0  0  0  0  0  0  0
  146.9622  138.7980  152.5037 H   0  0  0  0  0  0  0  0  0  0  0  0
  145.7780  140.9799  152.7945 H   0  0  0  0  0  0  0  0  0  0  0  0
  146.7536  142.7788  154.1732 H   0  0  0  0  0  0  0  0  0  0  0  0
  148.9395  142.4796  155.3187 H   0  0  0  0  0  0  0  0  0  0  0  0
  152.2968  140.6366  155.6045 H   0  0  0  0  0  0  0  0  0  0  0  0
  151.0248  141.8212  155.6362 H   0  0  0  0  0  0  0  0  0  0  0  0
  151.6249  139.6735  157.6906 H   0  0  0  0  0  0  0  0  0  0  0  0
  149.2725  140.7153  158.1855 H   0  0  0  0  0  0  0  0  0  0  0  0
  149.9419  143.0418  157.3131 H   0  0  0  0  0  0  0  0  0  0  0  0
  150.5040  144.9920  158.7391 H   0  0  0  0  0  0  0  0  0  0  0  0
  153.4704  142.6411  160.7989 H   0  0  0  0  0  0  0  0  0  0  0  0
  152.9134  140.6853  159.3800 H   0  0  0  0  0  0  0  0  0  0  0  0
  149.3913  137.4762  153.3097 H   0  0  0  0  0  0  0  0  0  0  0  0
  1  2  1  0  0  0  0
  1 22  1  0  0  0  0
  2  3  1  0  0  0  0
  2 23  1  0  0  0  0
  2 24  1  0  0  0  0
  3 11  1  0  0  0  0
  3  4  2  0  0  0  0
  4  5  1  0  0  0  0
  4 37  1  0  0  0  0
  5 10  2  0  0  0  0
  5  6  1  0  0  0  0
  6  7  2  0  0  0  0
  6 25  1  0  0  0  0
  7  8  1  0  0  0  0
  7 26  1  0  0  0  0
  8  9  2  0  0  0  0
  8 27  1  0  0  0  0
  9 10  1  0  0  0  0
  9 28  1  0  0  0  0
 10 11  1  0  0  0  0
 11 12  1  0  0  0  0
 12 13  1  0  0  0  0
 12 29  1  0  0  0  0
 12 30  1  0  0  0  0
 13 14  1  0  0  0  0
 13 15  1  0  0  0  0
 13 31  1  0  0  0  0
 14 32  1  0  0  0  0
 15 21  1  0  0  0  0
 15 16  2  0  0  0  0
 16 17  1  0  0  0  0
 16 33  1  0  0  0  0
 17 18  2  0  0  0  0
 17 34  1  0  0  0  0
 18 19  1  0  0  0  0
 18 20  1  0  0  0  0
 20 21  2  0  0  0  0
 20 35  1  0  0  0  0
 21 36  1  0  0  0  0
M  CHG  1   4   1
M  END
> <s_m_source_file>
AV-unprocessed.smi

> <i_m_source_file_index>
458

> <i_lp_mmshare_version>
43012

> <i_f3d_flags>
0

> <s_epik_input>
W2NIXTFbY0hdW2NIXVtjSF1jKGMxMiluKGMobjIpW0NIMl1bT0hdKVtDSDJdW0NASF0oW09IXSljM1tjSF1bY0hdYyhGKVtjSF1bY0hdMw==

> <s_epik_cmdline>
J2VwaWtfcHl0aG9uJywgJy1waCcsICc3LjAnLCAnLXRuJywgJzgnLCAnLW1hJywgJzIwMCcsICctbWV0YWxfYmluZGluZycsICctaW1hZScsICc8aW5maWxlLm1hZT4nLCAnLW9tYWUnLCAnPG91dGZpbGUubWFlPic=

> <r_epik_Ionization_Penalty>
1.35643

> <r_epik_Ionization_Penalty_Charging>
1.35557

> <r_epik_Ionization_Penalty_Neutral>
0.00085758

> <r_epik_State_Penalty>
1.43401

> <r_epik_Charging_Adjusted_Penalty>
2.78958

> <i_epik_Tot_Q>
1

> <i_epik_Tot_abs_Q>
1

> <r_epik_Metal_State_Penalty>
5.47166

> <b_epik_Metal_Only>
0

> <s_lp_Force_Field>
OPLS_2005

> <r_lp_Energy>
15.2314

> <b_lp_Chiralities_Consistent>
1

> <s_lp_Variant>
AV-unprocessed.smi:458-3

> <Gold.Version>
5.8.1

> <Gold.Id.Protein>
6NUR|6NUR_protein|mol2

> <Gold.PLP.Fitness>
58.7354

> <Gold.PLP.PLP>
-48.0844

> <Gold.PLP.part.hbond>
-3.8128

> <Gold.PLP.part.metal>
0.0000

> <Gold.PLP.part.buried>
1.8965

> <Gold.PLP.part.nonpolar>
-45.9667

> <Gold.PLP.part.repulsive>
0.0539

> <Gold.PLP.ligand.clash>
0.0000

> <Gold.PLP.ligand.torsion>
0.6904

> <Gold.PLP.Chemscore.Hbond>
4.0000

> <Gold.PLP.Chemscore.CHOScore>
0.0000

> <Gold.PLP.Chemscore.Metal>
0.0000

> <Gold.Chemscore.Hbonds>
donor molecule, donor type, donor heavy atom, donor atom, acceptor molecule, acceptor atom, score
      L1  H     1    22       P1  7949  1.00
      L1  H     4    37       P1  7948  2.00
      P1  H 10752 10765       L1     1  1.00

> <Gold.PLP.Chemscore.Internal.Correction>
0.0317

> <Gold.Rescore>
     Score         DG    S(hbond)    S(metal)    S(lipo)     H(rot)  DE(clash)    DE(int)     intcor
     18.40     -20.70       2.46        0.00     121.59       2.82       1.74       0.56       ----

> <Gold.Chemscore.Fitness>
18.4006

> <Gold.Chemscore.DG>
-20.6971

> <Gold.Chemscore.ZeroCoef>
-5.4800

> <Gold.Chemscore.Hbond>
2.4597

> <Gold.Chemscore.Metal>
0.0000

> <Gold.Chemscore.Lipo>
121.5888

> <Gold.Chemscore.Internal_Hbond>
0.0000

> <Gold.Chemscore.DEClash>
1.7387

> <Gold.Chemscore.DEInternal>
0.5577

> <Gold.Chemscore.Rot>
2.8219

> <Gold.Chemscore.Internal.Correction>
   9.000000E+99

> <Gold.Chemscore.Hbonds>
donor molecule, donor type, donor heavy atom, donor atom, acceptor molecule, acceptor atom, score
      L1  H     1    22       P1  7949  0.81
      L1  H     4    37       P1  7948  0.94
      P1  H 10752 10765       L1     1  0.46

> <Gold.Chemscore.Hbond.Weighted>
-8.2152

> <Gold.Chemscore.Metal.Weighted>
-0.0000

> <Gold.Chemscore.Lipo.Weighted>
-14.2259

> <Gold.Chemscore.Internal_Hbond.Weighted>
0.0000

> <Gold.Chemscore.DEClash.Weighted>
1.7387

> <Gold.Chemscore.DEInternal.Weighted>
0.5577

> <Gold.Chemscore.Rot.Weighted>
7.2240

> <Gold.Chemscore.Internal.Correction.Weighted>
   9.000000E+99

> <Gold.Protein.RotatedTorsions>
[ 6907 6896 6895 6894 ] final  174.68 input  -60.11 | X-H torsion
[ 7974 7965 7964 7962 ] final  -69.85 input  175.53 | X-H torsion
[ 8008 7997 7996 7995 ] final   39.86 input   59.86 | X-H torsion
[ 10167 10162 10161 10158 ] final  131.94 input  -65.29 | X-H torsion
[ 10718 10713 10712 10709 ] final   37.00 input   66.30 | X-H torsion
[ 10763 10752 10751 10750 ] final  161.98 input  -60.55 | X-H torsion
[ 11005 11000 10999 10996 ] final -114.45 input  -57.11 | X-H torsion

> <Gold.Protein.ActiveResidues>
 VAL166  LYS551  ARG553  GLY616  TRP617  ASP618  TYR619  PRO620  LYS621  CYS622 
 ASP623  PHE694  ASN695  SER759  ASP760  ASP761  ALA762  ILE779  LEU786  VAL792 
 PHE793  MET794  SER795  GLU796  ALA797  LYS798  CYS799  TRP800  GLU811  SER814 

> <Gold.Protein.RotatedAtoms>
  151.7484  133.3326  159.3384 H   0  0  0  0  0  0  0  0  0  0  0  0  # atno 6907 bound_to 6896
  150.7545  134.6214  159.6147 H   0  0  0  0  0  0  0  0  0  0  0  0  # atno 6908 bound_to 6896
  152.3484  134.7041  160.0295 H   0  0  0  0  0  0  0  0  0  0  0  0  # atno 6909 bound_to 6896
  145.6985  140.9126  143.0743 H   0  0  0  0  0  0  0  0  0  0  0  0  # atno 7974 bound_to 7965
  155.2435  140.3347  155.4289 H   0  0  0  0  0  0  0  0  0  0  0  0  # atno 8008 bound_to 7997
  156.2246  140.1823  156.7440 H   0  0  0  0  0  0  0  0  0  0  0  0  # atno 8009 bound_to 7997
  154.5878  140.0643  156.9181 H   0  0  0  0  0  0  0  0  0  0  0  0  # atno 8010 bound_to 7997
  139.5361  144.6684  151.4780 H   0  0  0  0  0  0  0  0  0  0  0  0  # atno 10167 bound_to 10162
  157.3417  130.7551  149.6916 H   0  0  0  0  0  0  0  0  0  0  0  0  # atno 10718 bound_to 10713
  154.2713  135.2765  155.2737 H   0  0  0  0  0  0  0  0  0  0  0  0  # atno 10763 bound_to 10752
  154.5299  135.5732  153.6754 H   0  0  0  0  0  0  0  0  0  0  0  0  # atno 10764 bound_to 10752
  152.9945  135.6225  154.2867 H   0  0  0  0  0  0  0  0  0  0  0  0  # atno 10765 bound_to 10752
  141.0551  133.9625  157.2768 H   0  0  0  0  0  0  0  0  0  0  0  0  # atno 11005 bound_to 11000
  144.6975  139.8916  143.7453 LP  0  0  0  0  0  0  0  0  0  0  0  0  # atno 17320 bound_to 7965
  146.0819  139.3806  143.0459 LP  0  0  0  0  0  0  0  0  0  0  0  0  # atno 17321 bound_to 7965
  140.6569  143.8581  150.6844 LP  0  0  0  0  0  0  0  0  0  0  0  0  # atno 17342 bound_to 10162
  140.1963  143.3995  152.1825 LP  0  0  0  0  0  0  0  0  0  0  0  0  # atno 17343 bound_to 10162
  155.9708  130.4166  150.4237 LP  0  0  0  0  0  0  0  0  0  0  0  0  # atno 17370 bound_to 10713
  157.2286  131.0499  151.2505 LP  0  0  0  0  0  0  0  0  0  0  0  0  # atno 17371 bound_to 10713
  139.9383  135.0194  156.8627 LP  0  0  0  0  0  0  0  0  0  0  0  0  # atno 17394 bound_to 11000
  140.5980  134.0199  155.7526 LP  0  0  0  0  0  0  0  0  0  0  0  0  # atno 17395 bound_to 11000

$$$$
