AV-unprocessed.smi:1916|AV-procd|sdf|7767|dock3
  -GOLD-   22720 9513D 1   1.00000     0.00000
 Structure written by MMmdl.
 46 48  0  0  0  0  0  0  0  0  2 V2000
  152.3304  136.7487  156.4841 O   0  0  0  0  0  0  0  0  0  0  0  0
  151.4509  137.3808  155.8989 C   0  0  0  0  0  0  0  0  0  0  0  0
  150.2473  136.8654  155.6068 N   0  0  0  0  0  0  0  0  0  0  0  0
  149.8103  135.5107  155.9331 C   0  0  0  0  0  0  0  0  0  0  0  0
  150.4519  134.4228  155.0459 C   0  0  0  0  0  0  0  0  0  0  0  0
  149.5267  133.2601  154.7290 C   0  0  0  0  0  0  0  0  0  0  0  0
  149.7696  131.9564  155.2129 C   0  0  0  0  0  0  0  0  0  0  0  0
  148.8626  130.9237  154.8950 C   0  0  0  0  0  0  0  0  0  0  0  0
  147.7327  131.2159  154.1032 C   0  0  0  0  0  0  0  0  0  0  0  0
  147.5382  132.5357  153.6470 C   0  0  0  0  0  0  0  0  0  0  0  0
  148.4303  133.4966  153.9714 N   0  3  0  0  0  0  0  0  0  0  0  0
  151.7084  138.8239  155.4384 C   0  0  1  0  0  0  0  0  0  0  0  0
  150.4529  139.4505  154.8043 C   0  0  0  0  0  0  0  0  0  0  0  0
  150.0338  140.5219  155.7967 C   0  0  0  0  0  0  0  0  0  0  0  0
  149.0042  141.1800  155.6584 O   0  0  0  0  0  0  0  0  0  0  0  0
  150.9182  140.6276  156.8003 N   0  0  0  0  0  0  0  0  0  0  0  0
  150.8876  141.5439  157.9494 C   0  0  0  0  0  0  0  0  0  0  0  0
  150.7724  143.0304  157.5440 C   0  0  0  0  0  0  0  0  0  0  0  0
  152.0731  143.6990  157.9954 C   0  0  0  0  0  0  0  0  0  0  0  0
  152.5293  142.8718  159.1935 C   0  0  0  0  0  0  0  0  0  0  0  0
  152.1492  141.4352  158.8318 C   0  0  0  0  0  0  0  0  0  0  0  0
  152.0685  139.7566  156.6139 C   0  0  0  0  0  0  0  0  0  0  0  0
  149.5831  137.4559  155.1268 H   0  0  0  0  0  0  0  0  0  0  0  0
  150.0012  135.3014  156.9868 H   0  0  0  0  0  0  0  0  0  0  0  0
  148.7276  135.4836  155.8072 H   0  0  0  0  0  0  0  0  0  0  0  0
  150.7905  134.8642  154.1074 H   0  0  0  0  0  0  0  0  0  0  0  0
  151.3491  134.0389  155.5324 H   0  0  0  0  0  0  0  0  0  0  0  0
  150.6377  131.7493  155.8218 H   0  0  0  0  0  0  0  0  0  0  0  0
  149.0312  129.9195  155.2561 H   0  0  0  0  0  0  0  0  0  0  0  0
  147.0262  130.4390  153.8497 H   0  0  0  0  0  0  0  0  0  0  0  0
  146.7029  132.8496  153.0381 H   0  0  0  0  0  0  0  0  0  0  0  0
  152.5242  138.8250  154.7133 H   0  0  0  0  0  0  0  0  0  0  0  0
  150.6879  139.9156  153.8465 H   0  0  0  0  0  0  0  0  0  0  0  0
  149.6400  138.7403  154.6432 H   0  0  0  0  0  0  0  0  0  0  0  0
  150.0179  141.2998  158.5618 H   0  0  0  0  0  0  0  0  0  0  0  0
  150.5828  143.1828  156.4807 H   0  0  0  0  0  0  0  0  0  0  0  0
  149.9350  143.4814  158.0780 H   0  0  0  0  0  0  0  0  0  0  0  0
  152.8183  143.6350  157.2017 H   0  0  0  0  0  0  0  0  0  0  0  0
  151.9396  144.7532  158.2392 H   0  0  0  0  0  0  0  0  0  0  0  0
  153.5936  142.9842  159.4016 H   0  0  0  0  0  0  0  0  0  0  0  0
  151.9813  143.1837  160.0836 H   0  0  0  0  0  0  0  0  0  0  0  0
  151.9792  140.8226  159.7176 H   0  0  0  0  0  0  0  0  0  0  0  0
  152.9755  140.9804  158.2844 H   0  0  0  0  0  0  0  0  0  0  0  0
  152.2931  139.2136  157.5339 H   0  0  0  0  0  0  0  0  0  0  0  0
  152.9417  140.3634  156.3707 H   0  0  0  0  0  0  0  0  0  0  0  0
  148.2703  134.4457  153.6320 H   0  0  0  0  0  0  0  0  0  0  0  0
  1  2  2  0  0  0  0
  2  3  1  0  0  0  0
  2 12  1  0  0  0  0
  3  4  1  0  0  0  0
  3 23  1  0  0  0  0
  4  5  1  0  0  0  0
  4 24  1  0  0  0  0
  4 25  1  0  0  0  0
  5  6  1  0  0  0  0
  5 26  1  0  0  0  0
  5 27  1  0  0  0  0
  6 11  1  0  0  0  0
  6  7  2  0  0  0  0
  7  8  1  0  0  0  0
  7 28  1  0  0  0  0
  8  9  2  0  0  0  0
  8 29  1  0  0  0  0
  9 10  1  0  0  0  0
  9 30  1  0  0  0  0
 10 11  2  0  0  0  0
 10 31  1  0  0  0  0
 11 46  1  0  0  0  0
 12 22  1  0  0  0  0
 12 13  1  0  0  0  0
 12 32  1  0  0  0  0
 13 14  1  0  0  0  0
 13 33  1  0  0  0  0
 13 34  1  0  0  0  0
 14 15  2  0  0  0  0
 14 16  1  0  0  0  0
 16 17  1  0  0  0  0
 16 22  1  0  0  0  0
 17 21  1  0  0  0  0
 17 18  1  0  0  0  0
 17 35  1  0  0  0  0
 18 19  1  0  0  0  0
 18 36  1  0  0  0  0
 18 37  1  0  0  0  0
 19 20  1  0  0  0  0
 19 38  1  0  0  0  0
 19 39  1  0  0  0  0
 20 21  1  0  0  0  0
 20 40  1  0  0  0  0
 20 41  1  0  0  0  0
 21 42  1  0  0  0  0
 21 43  1  0  0  0  0
 22 44  1  0  0  0  0
 22 45  1  0  0  0  0
M  CHG  1  11   1
M  END
> <s_m_source_file>
AV-unprocessed.smi

> <i_m_source_file_index>
1916

> <i_lp_mmshare_version>
43012

> <i_f3d_flags>
0

> <s_epik_input>
W0NIMl0xW0NIMl1bQ0gyXVtDSDJdW0NIXTFOKFtDSDJdMilDKD1PKVtDSDJdW0NASF0yQyg9TylbTkhdW0NIMl1bQ0gyXWMzW2NIXVtjSF1bY0hdW2NIXW4z

> <s_epik_cmdline>
J2VwaWtfcHl0aG9uJywgJy1waCcsICc3LjAnLCAnLXRuJywgJzgnLCAnLW1hJywgJzIwMCcsICctbWV0YWxfYmluZGluZycsICctaW1hZScsICc8aW5maWxlLm1hZT4nLCAnLW9tYWUnLCAnPG91dGZpbGUubWFlPic=

> <r_epik_Ionization_Penalty>
1.88249

> <r_epik_Ionization_Penalty_Charging>
1.88249

> <r_epik_Ionization_Penalty_Neutral>
3.64574e-08

> <r_epik_State_Penalty>
2.00238

> <r_epik_Charging_Adjusted_Penalty>
3.88487

> <i_epik_Tot_Q>
1

> <i_epik_Tot_abs_Q>
1

> <r_epik_Metal_State_Penalty>
2.02676

> <b_epik_Metal_Only>
0

> <s_lp_Force_Field>
OPLS_2005

> <r_lp_Energy>
36.1777

> <b_lp_Chiralities_Consistent>
1

> <s_lp_Variant>
AV-unprocessed.smi:1916-4

> <Gold.Version>
5.8.1

> <Gold.Id.Protein>
6NUR|6NUR_protein|mol2

> <Gold.PLP.Fitness>
49.0650

> <Gold.PLP.PLP>
-42.0898

> <Gold.PLP.part.hbond>
-2.0000

> <Gold.PLP.part.metal>
0.0000

> <Gold.PLP.part.buried>
-2.3209

> <Gold.PLP.part.nonpolar>
-38.1426

> <Gold.PLP.part.repulsive>
0.1586

> <Gold.PLP.ligand.clash>
1.2797

> <Gold.PLP.ligand.torsion>
0.3997

> <Gold.PLP.Chemscore.Hbond>
2.9840

> <Gold.PLP.Chemscore.CHOScore>
0.0000

> <Gold.PLP.Chemscore.Metal>
0.0000

> <Gold.Chemscore.Hbonds>
donor molecule, donor type, donor heavy atom, donor atom, acceptor molecule, acceptor atom, score
      P1  H 10752 10764       L1     1  0.91

> <Gold.PLP.Chemscore.Internal.Correction>
0.1022

> <Gold.Rescore>
     Score         DG    S(hbond)    S(metal)    S(lipo)     H(rot)  DE(clash)    DE(int)     intcor
     18.38     -18.96       1.80        0.00     101.19       1.72       0.05       0.53       ----

> <Gold.Chemscore.Fitness>
18.3774

> <Gold.Chemscore.DG>
-18.9552

> <Gold.Chemscore.ZeroCoef>
-5.4800

> <Gold.Chemscore.Hbond>
1.8050

> <Gold.Chemscore.Metal>
0.0000

> <Gold.Chemscore.Lipo>
101.1869

> <Gold.Chemscore.Internal_Hbond>
0.0000

> <Gold.Chemscore.DEClash>
0.0505

> <Gold.Chemscore.DEInternal>
0.5272

> <Gold.Chemscore.Rot>
1.7158

> <Gold.Chemscore.Internal.Correction>
   9.000000E+99

> <Gold.Chemscore.Hbonds>
donor molecule, donor type, donor heavy atom, donor atom, acceptor molecule, acceptor atom, score
      P1  H 10752 10764       L1     1  0.52

> <Gold.Chemscore.Hbond.Weighted>
-6.0286

> <Gold.Chemscore.Metal.Weighted>
-0.0000

> <Gold.Chemscore.Lipo.Weighted>
-11.8389

> <Gold.Chemscore.Internal_Hbond.Weighted>
0.0000

> <Gold.Chemscore.DEClash.Weighted>
0.0505

> <Gold.Chemscore.DEInternal.Weighted>
0.5272

> <Gold.Chemscore.Rot.Weighted>
4.3924

> <Gold.Chemscore.Internal.Correction.Weighted>
   9.000000E+99

> <Gold.Protein.RotatedTorsions>
[ 6907 6896 6895 6894 ] final -166.82 input  -60.11 | X-H torsion
[ 7974 7965 7964 7962 ] final  -15.84 input  175.53 | X-H torsion
[ 8008 7997 7996 7995 ] final  -35.14 input   59.86 | X-H torsion
[ 10167 10162 10161 10158 ] final -136.99 input  -65.29 | X-H torsion
[ 10718 10713 10712 10709 ] final  -49.53 input   66.30 | X-H torsion
[ 10763 10752 10751 10750 ] final  -26.95 input  -60.55 | X-H torsion
[ 11005 11000 10999 10996 ] final   46.15 input  -57.11 | X-H torsion

> <Gold.Protein.ActiveResidues>
 VAL166  LYS551  ARG553  GLY616  TRP617  ASP618  TYR619  PRO620  LYS621  CYS622 
 ASP623  PHE694  ASN695  SER759  ASP760  ASP761  ALA762  ILE779  LEU786  VAL792 
 PHE793  MET794  SER795  GLU796  ALA797  LYS798  CYS799  TRP800  GLU811  SER814 

> <Gold.Protein.RotatedAtoms>
  151.4497  133.3621  159.2793 H   0  0  0  0  0  0  0  0  0  0  0  0  # atno 6907 bound_to 6896
  150.9100  134.8518  159.7429 H   0  0  0  0  0  0  0  0  0  0  0  0  # atno 6908 bound_to 6896
  152.4927  134.4425  159.9600 H   0  0  0  0  0  0  0  0  0  0  0  0  # atno 6909 bound_to 6896
  146.2014  140.3550  142.8422 H   0  0  0  0  0  0  0  0  0  0  0  0  # atno 7974 bound_to 7965
  154.4103  140.1665  156.2163 H   0  0  0  0  0  0  0  0  0  0  0  0  # atno 8008 bound_to 7997
  155.9401  140.3408  155.6297 H   0  0  0  0  0  0  0  0  0  0  0  0  # atno 8009 bound_to 7997
  155.6999  140.0744  157.2405 H   0  0  0  0  0  0  0  0  0  0  0  0  # atno 8010 bound_to 7997
  139.8623  143.7062  152.2649 H   0  0  0  0  0  0  0  0  0  0  0  0  # atno 10167 bound_to 10162
  156.1885  130.4152  149.9405 H   0  0  0  0  0  0  0  0  0  0  0  0  # atno 10718 bound_to 10713
  153.7243  135.6943  153.5005 H   0  0  0  0  0  0  0  0  0  0  0  0  # atno 10763 bound_to 10752
  153.2181  135.4379  155.0457 H   0  0  0  0  0  0  0  0  0  0  0  0  # atno 10764 bound_to 10752
  154.8274  135.3454  154.6775 H   0  0  0  0  0  0  0  0  0  0  0  0  # atno 10765 bound_to 10752
  140.1395  134.4602  155.8460 H   0  0  0  0  0  0  0  0  0  0  0  0  # atno 11005 bound_to 11000
  144.8693  140.7250  143.6057 LP  0  0  0  0  0  0  0  0  0  0  0  0  # atno 17320 bound_to 7965
  145.3470  139.1716  143.4455 LP  0  0  0  0  0  0  0  0  0  0  0  0  # atno 17321 bound_to 7965
  139.7362  144.7570  151.0724 LP  0  0  0  0  0  0  0  0  0  0  0  0  # atno 17342 bound_to 10162
  140.7773  143.5027  150.9750 LP  0  0  0  0  0  0  0  0  0  0  0  0  # atno 17343 bound_to 10162
  156.7153  130.8986  151.3613 LP  0  0  0  0  0  0  0  0  0  0  0  0  # atno 17370 bound_to 10713
  157.6914  130.9237  150.0524 LP  0  0  0  0  0  0  0  0  0  0  0  0  # atno 17371 bound_to 10713
  141.2183  133.6827  156.7219 LP  0  0  0  0  0  0  0  0  0  0  0  0  # atno 17394 bound_to 11000
  140.2740  134.8369  157.3873 LP  0  0  0  0  0  0  0  0  0  0  0  0  # atno 17395 bound_to 11000

$$$$
