#       Name:                AV-unprocessed.smi:2064
#       Creating user name   scv26
#       Creation time:       Fri Mar 27 11:10:51 2020


#       File generated by GOLD software.
#

@<TRIPOS>MOLECULE
AV-unprocessed.smi:2064
    53    55     1
SMALL
NO_CHARGES


@<TRIPOS>ATOM
      1 ****        -5.2598  -4.3250  -1.3048 N.1            1 S1                 0.0000
      2 ****        -4.6564  -3.3427  -1.4069 C.1            1 S1                 0.0000
      3 ****        -3.9398  -2.1173  -1.5373 C.2            1 S1                 0.0000
      4 ****        -4.5733  -0.9358  -1.6878 C.2            1 S1                 0.0000
      5 ****        -3.8964   0.2567  -1.8218 N.am           1 S1                 0.0000
      6 ****        -4.5896   1.5141  -1.8224 C.3            1 S1                 0.0000
      7 ****        -5.6668   1.7571  -2.8568 C.3            1 S1                 0.0000
      8 ****        -4.3640   2.5143  -2.9398 C.3            1 S1                 0.0000
      9 ****        -2.4880   0.2877  -1.7251 C.2            1 S1                 0.0000
     10 ****        -1.8697   1.3552  -1.7410 O.2            1 S1                 0.0000
     11 ****        -1.8054  -0.9463  -1.5971 N.am           1 S1                 0.0000
     12 ****        -0.3278  -0.9319  -1.5242 C.3            1 S1                 0.0000
     13 ****         0.2170  -0.7583  -0.0982 C.2            1 S1                 0.0000
     14 ****        -0.5363  -0.7702   0.8766 O.2            1 S1                 0.0000
     15 ****         1.5455  -0.5976   0.0011 N.am           1 S1                 0.0000
     16 ****         2.2913  -0.4156   1.2443 C.3            1 S1                 0.0000
     17 ****         2.2562   1.0745   1.6431 C.3            1 S1                 0.0000
     18 ****         3.0445   1.4326   2.9148 C.3            1 S1                 0.0000
     19 ****         4.5653   1.4356   2.6918 C.3            1 S1                 0.0000
     20 ****         5.2598   0.0735   2.8621 C.3            1 S1                 0.0000
     21 ****         4.4788  -1.1607   2.3778 C.3            1 S1                 0.0000
     22 ****         3.7131  -0.9852   1.0554 C.3            1 S1                 0.0000
     23 ****        -2.4811  -2.1893  -1.4955 C.2            1 S1                 0.0000
     24 ****        -1.8563  -3.2438  -1.3687 O.2            1 S1                 0.0000
     25 ****        -5.6535  -0.9215  -1.7091 H              1 S1                 0.0000
     26 ****        -4.7755   1.9402  -0.8380 H              1 S1                 0.0000
     27 ****        -5.8427   0.9874  -3.6060 H              1 S1                 0.0000
     28 ****        -6.5498   2.3085  -2.5403 H              1 S1                 0.0000
     29 ****        -4.3779   3.5701  -2.6774 H              1 S1                 0.0000
     30 ****        -3.6831   2.2437  -3.7446 H              1 S1                 0.0000
     31 ****         0.0967  -1.8449  -1.9444 H              1 S1                 0.0000
     32 ****         0.0805  -0.1387  -2.1531 H              1 S1                 0.0000
     33 ****         2.0848  -0.6000  -0.8525 H              1 S1                 0.0000
     34 ****         1.7990  -0.9972   2.0262 H              1 S1                 0.0000
     35 ****         2.6069   1.6895   0.8129 H              1 S1                 0.0000
     36 ****         1.2165   1.3648   1.8006 H              1 S1                 0.0000
     37 ****         2.7489   2.4397   3.2104 H              1 S1                 0.0000
     38 ****         2.7677   0.7853   3.7476 H              1 S1                 0.0000
     39 ****         4.7850   1.8357   1.7012 H              1 S1                 0.0000
     40 ****         5.0253   2.1352   3.3906 H              1 S1                 0.0000
     41 ****         6.2204   0.1149   2.3473 H              1 S1                 0.0000
     42 ****         5.5011  -0.0732   3.9155 H              1 S1                 0.0000
     43 ****         5.1898  -1.9802   2.2673 H              1 S1                 0.0000
     44 ****         3.7889  -1.4872   3.1569 H              1 S1                 0.0000
     45 ****         3.6239  -1.9723   0.5992 H              1 S1                 0.0000
     46 ****         4.2884  -0.3836   0.3504 H              1 S1                 0.0000
     47 ****        -5.7812  -5.1737  -1.2166 LP             1 S1                 0.0000
     48 ****        -2.3662   2.2194  -1.8235 LP             1 S1                 0.0000
     49 ****        -0.8722   1.3564  -1.6714 LP             1 S1                 0.0000
     50 ****        -1.5201  -0.8943   0.7468 LP             1 S1                 0.0000
     51 ****        -0.1641  -0.6557   1.7976 LP             1 S1                 0.0000
     52 ****        -2.3490  -4.1102  -1.2881 LP             1 S1                 0.0000
     53 ****        -0.8567  -3.2330  -1.3464 LP             1 S1                 0.0000
@<TRIPOS>BOND
    1    1    2 3     
    2    2    3 1     
    3    3   23 1     
    4    3    4 2     
    5    4    5 1     
    6    4   25 1     
    7    5    6 1     
    8    5    9 am    
    9    6    8 1     
   10    6    7 1     
   11    6   26 1     
   12    7    8 1     
   13    7   27 1     
   14    7   28 1     
   15    8   29 1     
   16    8   30 1     
   17    9   10 2     
   18    9   11 am    
   19   11   12 1     
   20   11   23 am    
   21   12   13 1     
   22   12   31 1     
   23   12   32 1     
   24   13   14 2     
   25   13   15 am    
   26   15   16 1     
   27   15   33 1     
   28   16   22 1     
   29   16   17 1     
   30   16   34 1     
   31   17   18 1     
   32   17   35 1     
   33   17   36 1     
   34   18   19 1     
   35   18   37 1     
   36   18   38 1     
   37   19   20 1     
   38   19   39 1     
   39   19   40 1     
   40   20   21 1     
   41   20   41 1     
   42   20   42 1     
   43   21   22 1     
   44   21   43 1     
   45   21   44 1     
   46   22   45 1     
   47   22   46 1     
   48   23   24 2     
   49    1   47 1     
   50   10   48 1     
   51   10   49 1     
   52   14   50 1     
   53   14   51 1     
   54   24   52 1     
   55   24   53 1     
@<TRIPOS>SUBSTRUCTURE
      1 S1             1
@<TRIPOS>SET
LONE_PAIRS      STATIC     ATOMS    <user>   **** ""
7 47 48 49 50 51 52 53
DONOR_HYDROGENS      STATIC     ATOMS    <user>   **** ""
1 33
ATOM$BLUE        STATIC     ATOMS    COLORGROUP SYSTEM
7 47 48 49 50 51 52 53
ATOM$RED        STATIC     ATOMS    COLORGROUP SYSTEM
1 33
