AV-unprocessed.smi:532|AV-procd|sdf|2848|dock6
  -GOLD-   2262023343D 1   1.00000     0.00000
 Structure written by MMmdl.
 49 51  0  0  0  0  0  0  0  0  1 V2000
  151.9461  138.3439  159.1400 C   0  0  0  0  0  0  0  0  0  0  0  0
  151.2157  137.9833  157.9808 O   0  0  0  0  0  0  0  0  0  0  0  0
  152.0429  137.8493  156.8379 C   0  0  0  0  0  0  0  0  0  0  0  0
  152.4872  139.2499  156.3859 C   0  0  0  0  0  0  0  0  0  0  0  0
  151.3570  140.1210  156.0775 N   0  0  0  0  0  0  0  0  0  0  0  0
  151.0063  141.3231  156.6241 C   0  0  0  0  0  0  0  0  0  0  0  0
  151.7453  141.9730  157.6240 N   0  0  0  0  0  0  0  0  0  0  0  0
  151.7369  143.4268  157.8042 C   0  0  0  0  0  0  0  0  0  0  0  0
  151.4162  143.8259  159.2582 C   0  0  2  0  0  0  0  0  0  0  0  0
  151.3563  145.3508  159.4207 C   0  0  0  0  0  0  0  0  0  0  0  0
  152.4435  143.1972  160.2141 C   0  0  0  0  0  0  0  0  0  0  0  0
  152.5415  141.6827  159.9719 C   0  0  2  0  0  0  0  0  0  0  0  0
  153.6222  141.0370  160.8492 C   0  0  0  0  0  0  0  0  0  0  0  0
  152.7976  141.4126  158.4754 C   0  0  0  0  0  0  0  0  0  0  0  0
  149.8639  141.8257  156.1432 N   0  0  0  0  0  0  0  0  0  0  0  0
  149.4603  140.8862  155.2099 C   0  0  0  0  0  0  0  0  0  0  0  0
  150.3368  139.8530  155.1607 C   0  0  0  0  0  0  0  0  0  0  0  0
  150.1370  138.6967  154.2748 C   0  0  0  0  0  0  0  0  0  0  0  0
  150.9036  137.7373  154.2257 O   0  0  0  0  0  0  0  0  0  0  0  0
  149.0176  138.7932  153.5171 N   0  0  0  0  0  0  0  0  0  0  0  0
  148.1016  139.8088  153.5125 C   0  0  0  0  0  0  0  0  0  0  0  0
  147.1301  139.7578  152.7584 O   0  0  0  0  0  0  0  0  0  0  0  0
  148.3127  140.8602  154.3671 N   0  0  0  0  0  0  0  0  0  0  0  0
  147.3624  141.9735  154.4080 C   0  0  0  0  0  0  0  0  0  0  0  0
  148.8375  138.0266  152.8853 H   0  0  0  0  0  0  0  0  0  0  0  0
  151.2670  138.4338  159.9879 H   0  0  0  0  0  0  0  0  0  0  0  0
  152.4473  139.3036  159.0074 H   0  0  0  0  0  0  0  0  0  0  0  0
  152.6942  137.5891  159.3859 H   0  0  0  0  0  0  0  0  0  0  0  0
  152.9033  137.2230  157.0736 H   0  0  0  0  0  0  0  0  0  0  0  0
  151.4954  137.3448  156.0415 H   0  0  0  0  0  0  0  0  0  0  0  0
  153.0879  139.7203  157.1641 H   0  0  0  0  0  0  0  0  0  0  0  0
  153.1486  139.1884  155.5260 H   0  0  0  0  0  0  0  0  0  0  0  0
  152.7032  143.8330  157.5015 H   0  0  0  0  0  0  0  0  0  0  0  0
  150.9960  143.8766  157.1424 H   0  0  0  0  0  0  0  0  0  0  0  0
  150.4308  143.4286  159.5072 H   0  0  0  0  0  0  0  0  0  0  0  0
  152.3149  145.8124  159.1818 H   0  0  0  0  0  0  0  0  0  0  0  0
  151.0994  145.6263  160.4438 H   0  0  0  0  0  0  0  0  0  0  0  0
  150.6039  145.7860  158.7627 H   0  0  0  0  0  0  0  0  0  0  0  0
  153.4202  143.6577  160.0581 H   0  0  0  0  0  0  0  0  0  0  0  0
  152.1659  143.3962  161.2498 H   0  0  0  0  0  0  0  0  0  0  0  0
  151.5856  141.2366  160.2479 H   0  0  0  0  0  0  0  0  0  0  0  0
  154.6102  141.4379  160.6208 H   0  0  0  0  0  0  0  0  0  0  0  0
  153.6565  139.9579  160.6960 H   0  0  0  0  0  0  0  0  0  0  0  0
  153.4268  141.2137  161.9072 H   0  0  0  0  0  0  0  0  0  0  0  0
  152.9104  140.3477  158.2991 H   0  0  0  0  0  0  0  0  0  0  0  0
  153.7519  141.8522  158.1813 H   0  0  0  0  0  0  0  0  0  0  0  0
  146.3478  141.6115  154.5795 H   0  0  0  0  0  0  0  0  0  0  0  0
  147.3748  142.5168  153.4624 H   0  0  0  0  0  0  0  0  0  0  0  0
  147.5875  142.6872  155.2001 H   0  0  0  0  0  0  0  0  0  0  0  0
  1  2  1  0  0  0  0
  1 26  1  0  0  0  0
  1 27  1  0  0  0  0
  1 28  1  0  0  0  0
  2  3  1  0  0  0  0
  3  4  1  0  0  0  0
  3 29  1  0  0  0  0
  3 30  1  0  0  0  0
  4  5  1  0  0  0  0
  4 31  1  0  0  0  0
  4 32  1  0  0  0  0
  5 17  1  0  0  0  0
  5  6  1  0  0  0  0
  6  7  1  0  0  0  0
  6 15  2  0  0  0  0
  7 14  1  0  0  0  0
  7  8  1  0  0  0  0
  8  9  1  0  0  0  0
  8 33  1  0  0  0  0
  8 34  1  0  0  0  0
  9 10  1  0  0  0  0
  9 11  1  0  0  0  0
  9 35  1  0  0  0  0
 10 36  1  0  0  0  0
 10 37  1  0  0  0  0
 10 38  1  0  0  0  0
 11 12  1  0  0  0  0
 11 39  1  0  0  0  0
 11 40  1  0  0  0  0
 12 13  1  0  0  0  0
 12 14  1  0  0  0  0
 12 41  1  0  0  0  0
 13 42  1  0  0  0  0
 13 43  1  0  0  0  0
 13 44  1  0  0  0  0
 14 45  1  0  0  0  0
 14 46  1  0  0  0  0
 15 16  1  0  0  0  0
 16 23  1  0  0  0  0
 16 17  2  0  0  0  0
 17 18  1  0  0  0  0
 18 19  2  0  0  0  0
 18 20  1  0  0  0  0
 20 25  1  0  0  0  0
 20 21  1  0  0  0  0
 21 22  2  0  0  0  0
 21 23  1  0  0  0  0
 23 24  1  0  0  0  0
 24 47  1  0  0  0  0
 24 48  1  0  0  0  0
 24 49  1  0  0  0  0
M  END
> <s_m_source_file>
AV-unprocessed.smi

> <i_m_source_file_index>
532

> <i_lp_mmshare_version>
43012

> <i_f3d_flags>
0

> <s_epik_input>
W0NIM11uMWMoPU8pW25IXWMoPU8pYyhjMTIpbihbQ0gyXVtDSDJdT1tDSDNdKWMobjIpTjNbQ0gyXVtDQEBIXShbQ0gzXSlbQ0gyXVtDQEBIXShbQ0gzXSlbQ0gyXTM=

> <s_epik_cmdline>
J2VwaWtfcHl0aG9uJywgJy1waCcsICc3LjAnLCAnLXRuJywgJzgnLCAnLW1hJywgJzIwMCcsICctbWV0YWxfYmluZGluZycsICctaW1hZScsICc8aW5maWxlLm1hZT4nLCAnLW9tYWUnLCAnPG91dGZpbGUubWFlPic=

> <r_lp_tautomer_probability>
1

> <r_epik_Ionization_Penalty>
0.000642525

> <r_epik_Ionization_Penalty_Charging>
0.000121571

> <r_epik_Ionization_Penalty_Neutral>
0.000520954

> <r_epik_State_Penalty>
-0

> <r_epik_Charging_Adjusted_Penalty>
0.000121571

> <i_epik_Tot_Q>
0

> <i_epik_Tot_abs_Q>
0

> <r_epik_Metal_State_Penalty>
0.0931709

> <b_epik_Metal_Only>
0

> <s_lp_Force_Field>
OPLS_2005

> <r_lp_Energy>
38.055

> <b_lp_Chiralities_Consistent>
1

> <s_lp_Variant>
AV-unprocessed.smi:532-1

> <Gold.Version>
5.8.1

> <Gold.Id.Protein>
6NUR|6NUR_protein|mol2

> <Gold.PLP.Fitness>
48.3302

> <Gold.PLP.PLP>
-45.8995

> <Gold.PLP.part.hbond>
-2.0000

> <Gold.PLP.part.metal>
0.0000

> <Gold.PLP.part.buried>
-4.6358

> <Gold.PLP.part.nonpolar>
-41.0907

> <Gold.PLP.part.repulsive>
2.2302

> <Gold.PLP.ligand.clash>
0.0000

> <Gold.PLP.ligand.torsion>
0.2710

> <Gold.PLP.Chemscore.Hbond>
0.9750

> <Gold.PLP.Chemscore.CHOScore>
0.0000

> <Gold.PLP.Chemscore.Metal>
0.0000

> <Gold.Chemscore.Hbonds>
donor molecule, donor type, donor heavy atom, donor atom, acceptor molecule, acceptor atom, score
      L1  H    20    25       P1  7948  0.98

> <Gold.PLP.Chemscore.Internal.Correction>
0.0477

> <Gold.Rescore>
     Score         DG    S(hbond)    S(metal)    S(lipo)     H(rot)  DE(clash)    DE(int)     intcor
     14.16     -16.76       0.99        0.00      99.53       1.43       0.18       2.42       ----

> <Gold.Chemscore.Fitness>
14.1632

> <Gold.Chemscore.DG>
-16.7592

> <Gold.Chemscore.ZeroCoef>
-5.4800

> <Gold.Chemscore.Hbond>
0.9884

> <Gold.Chemscore.Metal>
0.0000

> <Gold.Chemscore.Lipo>
99.5276

> <Gold.Chemscore.Internal_Hbond>
0.0000

> <Gold.Chemscore.DEClash>
0.1764

> <Gold.Chemscore.DEInternal>
2.4197

> <Gold.Chemscore.Rot>
1.4324

> <Gold.Chemscore.Internal.Correction>
   9.000000E+99

> <Gold.Chemscore.Hbonds>
donor molecule, donor type, donor heavy atom, donor atom, acceptor molecule, acceptor atom, score
      L1  H    20    25       P1  7948  0.91

> <Gold.Chemscore.Hbond.Weighted>
-3.3013

> <Gold.Chemscore.Metal.Weighted>
-0.0000

> <Gold.Chemscore.Lipo.Weighted>
-11.6447

> <Gold.Chemscore.Internal_Hbond.Weighted>
0.0000

> <Gold.Chemscore.DEClash.Weighted>
0.1764

> <Gold.Chemscore.DEInternal.Weighted>
2.4197

> <Gold.Chemscore.Rot.Weighted>
3.6669

> <Gold.Chemscore.Internal.Correction.Weighted>
   9.000000E+99

> <Gold.Protein.RotatedTorsions>
[ 6907 6896 6895 6894 ] final  147.18 input  -60.11 | X-H torsion
[ 7974 7965 7964 7962 ] final -153.97 input  175.53 | X-H torsion
[ 8008 7997 7996 7995 ] final -145.29 input   59.86 | X-H torsion
[ 10167 10162 10161 10158 ] final -114.05 input  -65.29 | X-H torsion
[ 10718 10713 10712 10709 ] final  -45.29 input   66.30 | X-H torsion
[ 10763 10752 10751 10750 ] final -123.77 input  -60.55 | X-H torsion
[ 11005 11000 10999 10996 ] final  161.05 input  -57.11 | X-H torsion

> <Gold.Protein.ActiveResidues>
 VAL166  LYS551  ARG553  GLY616  TRP617  ASP618  TYR619  PRO620  LYS621  CYS622 
 ASP623  PHE694  ASN695  SER759  ASP760  ASP761  ALA762  ILE779  LEU786  VAL792 
 PHE793  MET794  SER795  GLU796  ALA797  LYS798  CYS799  TRP800  GLU811  SER814 

> <Gold.Protein.RotatedAtoms>
  152.1581  133.4564  159.4847 H   0  0  0  0  0  0  0  0  0  0  0  0  # atno 6907 bound_to 6896
  150.6903  134.2105  159.4366 H   0  0  0  0  0  0  0  0  0  0  0  0  # atno 6908 bound_to 6896
  152.0006  134.9930  160.0615 H   0  0  0  0  0  0  0  0  0  0  0  0  # atno 6909 bound_to 6896
  144.7713  140.4453  143.5905 H   0  0  0  0  0  0  0  0  0  0  0  0  # atno 7974 bound_to 7965
  155.5408  140.0608  157.2870 H   0  0  0  0  0  0  0  0  0  0  0  0  # atno 8008 bound_to 7997
  154.4453  140.1919  156.0633 H   0  0  0  0  0  0  0  0  0  0  0  0  # atno 8009 bound_to 7997
  156.0586  140.3275  155.7439 H   0  0  0  0  0  0  0  0  0  0  0  0  # atno 8010 bound_to 7997
  140.1052  143.4577  152.1787 H   0  0  0  0  0  0  0  0  0  0  0  0  # atno 10167 bound_to 10162
  156.2298  130.4172  149.8889 H   0  0  0  0  0  0  0  0  0  0  0  0  # atno 10718 bound_to 10713
  154.8713  135.4087  154.2997 H   0  0  0  0  0  0  0  0  0  0  0  0  # atno 10763 bound_to 10752
  153.3859  135.7013  153.6536 H   0  0  0  0  0  0  0  0  0  0  0  0  # atno 10764 bound_to 10752
  153.5339  135.3662  155.2660 H   0  0  0  0  0  0  0  0  0  0  0  0  # atno 10765 bound_to 10752
  140.2120  134.8260  157.3130 H   0  0  0  0  0  0  0  0  0  0  0  0  # atno 11005 bound_to 11000
  145.6315  139.1537  143.2966 LP  0  0  0  0  0  0  0  0  0  0  0  0  # atno 17320 bound_to 7965
  146.1862  140.6418  142.9166 LP  0  0  0  0  0  0  0  0  0  0  0  0  # atno 17321 bound_to 7965
  139.5649  144.7429  151.4050 LP  0  0  0  0  0  0  0  0  0  0  0  0  # atno 17342 bound_to 10162
  140.6956  143.7757  150.7321 LP  0  0  0  0  0  0  0  0  0  0  0  0  # atno 17343 bound_to 10162
  156.6507  130.8742  151.3530 LP  0  0  0  0  0  0  0  0  0  0  0  0  # atno 17370 bound_to 10713
  157.7128  130.9460  150.1147 LP  0  0  0  0  0  0  0  0  0  0  0  0  # atno 17371 bound_to 10713
  140.1941  134.4335  155.7699 LP  0  0  0  0  0  0  0  0  0  0  0  0  # atno 17394 bound_to 11000
  141.2226  133.7041  156.8075 LP  0  0  0  0  0  0  0  0  0  0  0  0  # atno 17395 bound_to 11000

$$$$
