AV-unprocessed.smi:1809|AV-procd|sdf|7317|dock10
  -GOLD-   22720 8573D 1   1.00000     0.00000
 Structure written by MMmdl.
 39 41  0  0  0  0  0  0  0  0  1 V2000
  142.3992  142.0722  155.5566 C   0  0  0  0  0  0  0  0  0  0  0  0
  143.8580  141.8502  155.7669 C   0  0  0  0  0  0  0  0  0  0  0  0
  144.3608  140.6763  156.1685 N   0  0  0  0  0  0  0  0  0  0  0  0
  145.7423  140.7121  156.2971 N   0  0  0  0  0  0  0  0  0  0  0  0
  146.2421  141.9169  155.9892 C   0  0  0  0  0  0  0  0  0  0  0  0
  147.6255  142.2336  156.0350 N   0  0  0  0  0  0  0  0  0  0  0  0
  148.6641  141.4041  156.2377 C   0  0  0  0  0  0  0  0  0  0  0  0
  148.5796  140.1895  156.4218 O   0  0  0  0  0  0  0  0  0  0  0  0
  149.8274  142.0702  156.2118 N   0  0  0  0  0  0  0  0  0  0  0  0
  151.1440  141.4704  156.4010 C   0  0  0  0  0  0  0  0  0  0  0  0
  151.4511  141.2244  157.8877 C   0  0  2  0  0  0  0  0  0  0  0  0
  151.5749  142.5531  158.6686 C   0  0  0  0  0  0  0  0  0  0  0  0
  151.9839  142.2907  160.0349 N   0  0  0  0  0  0  0  0  0  0  0  0
  152.2233  143.4400  160.8766 C   0  0  0  0  0  0  0  0  0  0  0  0
  153.0222  142.8796  162.0665 C   0  0  0  0  0  0  0  0  0  0  0  0
  153.6069  141.5476  161.5456 C   0  0  0  0  0  0  0  0  0  0  0  0
  153.2276  141.5699  160.0640 C   0  0  1  0  0  0  0  0  0  0  0  0
  153.0899  140.2232  159.3407 C   0  0  0  0  0  0  0  0  0  0  0  0
  152.6762  140.4878  157.9982 O   0  0  0  0  0  0  0  0  0  0  0  0
  145.0524  143.1170  155.5134 S   0  0  0  0  0  0  0  0  0  0  0  0
  141.9020  141.1342  155.3072 H   0  0  0  0  0  0  0  0  0  0  0  0
  142.2402  142.7776  154.7409 H   0  0  0  0  0  0  0  0  0  0  0  0
  141.9503  142.4773  156.4635 H   0  0  0  0  0  0  0  0  0  0  0  0
  147.8510  143.2070  155.8935 H   0  0  0  0  0  0  0  0  0  0  0  0
  149.8022  143.0671  156.0559 H   0  0  0  0  0  0  0  0  0  0  0  0
  151.2391  140.5447  155.8306 H   0  0  0  0  0  0  0  0  0  0  0  0
  151.8783  142.1613  155.9863 H   0  0  0  0  0  0  0  0  0  0  0  0
  150.6476  140.6291  158.3256 H   0  0  0  0  0  0  0  0  0  0  0  0
  152.3038  143.2017  158.1804 H   0  0  0  0  0  0  0  0  0  0  0  0
  150.6226  143.0843  158.6622 H   0  0  0  0  0  0  0  0  0  0  0  0
  152.8232  144.1790  160.3430 H   0  0  0  0  0  0  0  0  0  0  0  0
  151.2916  143.9164  161.1821 H   0  0  0  0  0  0  0  0  0  0  0  0
  153.8023  143.5755  162.3766 H   0  0  0  0  0  0  0  0  0  0  0  0
  152.3730  142.6995  162.9241 H   0  0  0  0  0  0  0  0  0  0  0  0
  154.6847  141.4734  161.6935 H   0  0  0  0  0  0  0  0  0  0  0  0
  153.1349  140.7056  162.0538 H   0  0  0  0  0  0  0  0  0  0  0  0
  153.9861  142.1553  159.5393 H   0  0  0  0  0  0  0  0  0  0  0  0
  154.0418  139.6921  159.3278 H   0  0  0  0  0  0  0  0  0  0  0  0
  152.3613  139.5798  159.8362 H   0  0  0  0  0  0  0  0  0  0  0  0
  1  2  1  0  0  0  0
  1 21  1  0  0  0  0
  1 22  1  0  0  0  0
  1 23  1  0  0  0  0
  2 20  1  0  0  0  0
  2  3  2  0  0  0  0
  3  4  1  0  0  0  0
  4  5  2  0  0  0  0
  5  6  1  0  0  0  0
  5 20  1  0  0  0  0
  6  7  1  0  0  0  0
  6 24  1  0  0  0  0
  7  8  2  0  0  0  0
  7  9  1  0  0  0  0
  9 10  1  0  0  0  0
  9 25  1  0  0  0  0
 10 11  1  0  0  0  0
 10 26  1  0  0  0  0
 10 27  1  0  0  0  0
 11 19  1  0  0  0  0
 11 12  1  0  0  0  0
 11 28  1  0  0  0  0
 12 13  1  0  0  0  0
 12 29  1  0  0  0  0
 12 30  1  0  0  0  0
 13 17  1  0  0  0  0
 13 14  1  0  0  0  0
 14 15  1  0  0  0  0
 14 31  1  0  0  0  0
 14 32  1  0  0  0  0
 15 16  1  0  0  0  0
 15 33  1  0  0  0  0
 15 34  1  0  0  0  0
 16 17  1  0  0  0  0
 16 35  1  0  0  0  0
 16 36  1  0  0  0  0
 17 18  1  0  0  0  0
 17 37  1  0  0  0  0
 18 19  1  0  0  0  0
 18 38  1  0  0  0  0
 18 39  1  0  0  0  0
M  END
> <s_m_source_file>
AV-unprocessed.smi

> <i_m_source_file_index>
1809

> <i_lp_mmshare_version>
43012

> <i_f3d_flags>
0

> <s_epik_input>
W0NIM11jMW5uYyhzMSlbTkhdQyg9TylbTkhdW0NIMl1bQ0BIXShbQ0gyXTIpT1tDSDJdW0NAQEhdKE4yMylbQ0gyXVtDSDJdW0NIMl0z

> <s_epik_cmdline>
J2VwaWtfcHl0aG9uJywgJy1waCcsICc3LjAnLCAnLXRuJywgJzgnLCAnLW1hJywgJzIwMCcsICctbWV0YWxfYmluZGluZycsICctaW1hZScsICc8aW5maWxlLm1hZT4nLCAnLW9tYWUnLCAnPG91dGZpbGUubWFlPic=

> <r_lp_tautomer_probability>
1

> <r_epik_Ionization_Penalty>
1.05954

> <r_epik_Ionization_Penalty_Charging>
0

> <r_epik_Ionization_Penalty_Neutral>
1.05954

> <r_epik_State_Penalty>
1.4238

> <r_epik_Charging_Adjusted_Penalty>
1.4238

> <i_epik_Tot_Q>
0

> <i_epik_Tot_abs_Q>
0

> <r_epik_Metal_State_Penalty>
1.7901

> <b_epik_Metal_Only>
0

> <s_lp_Force_Field>
OPLS_2005

> <r_lp_Energy>
46.8482

> <b_lp_Chiralities_Consistent>
1

> <s_lp_Variant>
AV-unprocessed.smi:1809-9

> <Gold.Version>
5.8.1

> <Gold.Id.Protein>
6NUR|6NUR_protein|mol2

> <Gold.PLP.Fitness>
40.0951

> <Gold.PLP.PLP>
-32.6998

> <Gold.PLP.part.hbond>
-3.0000

> <Gold.PLP.part.metal>
0.0000

> <Gold.PLP.part.buried>
-5.3882

> <Gold.PLP.part.nonpolar>
-23.9233

> <Gold.PLP.part.repulsive>
0.2501

> <Gold.PLP.ligand.clash>
0.0000

> <Gold.PLP.ligand.torsion>
0.1710

> <Gold.PLP.Chemscore.Hbond>
2.5788

> <Gold.PLP.Chemscore.CHOScore>
0.0000

> <Gold.PLP.Chemscore.Metal>
0.0000

> <Gold.Chemscore.Hbonds>
donor molecule, donor type, donor heavy atom, donor atom, acceptor molecule, acceptor atom, score
      L1  H     6    24       P1  8028  1.00
      L1  H     9    25       P1  8028  1.00
      P1  H  7997  8010       L1    19  0.58

> <Gold.PLP.Chemscore.Internal.Correction>
0.0009

> <Gold.Rescore>
     Score         DG    S(hbond)    S(metal)    S(lipo)     H(rot)  DE(clash)    DE(int)     intcor
     16.72     -18.26       1.96        0.00      82.12       1.32       0.08       1.46       ----

> <Gold.Chemscore.Fitness>
16.7221

> <Gold.Chemscore.DG>
-18.2639

> <Gold.Chemscore.ZeroCoef>
-5.4800

> <Gold.Chemscore.Hbond>
1.9623

> <Gold.Chemscore.Metal>
0.0000

> <Gold.Chemscore.Lipo>
82.1209

> <Gold.Chemscore.Internal_Hbond>
0.0000

> <Gold.Chemscore.DEClash>
0.0810

> <Gold.Chemscore.DEInternal>
1.4608

> <Gold.Chemscore.Rot>
1.3196

> <Gold.Chemscore.Internal.Correction>
   9.000000E+99

> <Gold.Chemscore.Hbonds>
donor molecule, donor type, donor heavy atom, donor atom, acceptor molecule, acceptor atom, score
      L1  H     6    24       P1  8028  0.35
      L1  H     9    25       P1  8028  0.96
      P1  H  7997  8010       L1    19  0.22

> <Gold.Chemscore.Hbond.Weighted>
-6.5540

> <Gold.Chemscore.Metal.Weighted>
-0.0000

> <Gold.Chemscore.Lipo.Weighted>
-9.6081

> <Gold.Chemscore.Internal_Hbond.Weighted>
0.0000

> <Gold.Chemscore.DEClash.Weighted>
0.0810

> <Gold.Chemscore.DEInternal.Weighted>
1.4608

> <Gold.Chemscore.Rot.Weighted>
3.3783

> <Gold.Chemscore.Internal.Correction.Weighted>
   9.000000E+99

> <Gold.Protein.RotatedTorsions>
[ 6907 6896 6895 6894 ] final -164.08 input  -60.11 | X-H torsion
[ 7974 7965 7964 7962 ] final  -92.52 input  175.53 | X-H torsion
[ 8008 7997 7996 7995 ] final   47.90 input   59.86 | X-H torsion
[ 10167 10162 10161 10158 ] final  157.77 input  -65.29 | X-H torsion
[ 10718 10713 10712 10709 ] final -116.02 input   66.30 | X-H torsion
[ 10763 10752 10751 10750 ] final   47.14 input  -60.55 | X-H torsion
[ 11005 11000 10999 10996 ] final  -45.42 input  -57.11 | X-H torsion

> <Gold.Protein.ActiveResidues>
 VAL166  LYS551  ARG553  GLY616  TRP617  ASP618  TYR619  PRO620  LYS621  CYS622 
 ASP623  PHE694  ASN695  SER759  ASP760  ASP761  ALA762  ILE779  LEU786  VAL792 
 PHE793  MET794  SER795  GLU796  ALA797  LYS798  CYS799  TRP800  GLU811  SER814 

> <Gold.Protein.RotatedAtoms>
  151.4062  133.3742  159.2737 H   0  0  0  0  0  0  0  0  0  0  0  0  # atno 6907 bound_to 6896
  150.9397  134.8808  159.7615 H   0  0  0  0  0  0  0  0  0  0  0  0  # atno 6908 bound_to 6896
  152.5066  134.4012  159.9469 H   0  0  0  0  0  0  0  0  0  0  0  0  # atno 6909 bound_to 6896
  145.3987  140.9535  143.2299 H   0  0  0  0  0  0  0  0  0  0  0  0  # atno 7974 bound_to 7965
  155.3767  140.3426  155.4245 H   0  0  0  0  0  0  0  0  0  0  0  0  # atno 8008 bound_to 7997
  156.1633  140.1608  156.8609 H   0  0  0  0  0  0  0  0  0  0  0  0  # atno 8009 bound_to 7997
  154.5160  140.0778  156.8064 H   0  0  0  0  0  0  0  0  0  0  0  0  # atno 8010 bound_to 7997
  139.4824  144.4886  151.8341 H   0  0  0  0  0  0  0  0  0  0  0  0  # atno 10167 bound_to 10162
  156.0935  130.6112  150.8981 H   0  0  0  0  0  0  0  0  0  0  0  0  # atno 10718 bound_to 10713
  152.9803  135.5986  154.3714 H   0  0  0  0  0  0  0  0  0  0  0  0  # atno 10763 bound_to 10752
  154.3387  135.2768  155.2436 H   0  0  0  0  0  0  0  0  0  0  0  0  # atno 10764 bound_to 10752
  154.4527  135.5985  153.6258 H   0  0  0  0  0  0  0  0  0  0  0  0  # atno 10765 bound_to 10752
  141.0514  133.6741  156.3011 H   0  0  0  0  0  0  0  0  0  0  0  0  # atno 11005 bound_to 11000
  144.8389  139.5504  143.6909 LP  0  0  0  0  0  0  0  0  0  0  0  0  # atno 17320 bound_to 7965
  146.2762  139.6760  142.9261 LP  0  0  0  0  0  0  0  0  0  0  0  0  # atno 17321 bound_to 7965
  140.4368  144.2040  150.5889 LP  0  0  0  0  0  0  0  0  0  0  0  0  # atno 17342 bound_to 10162
  140.4723  143.2408  151.9071 LP  0  0  0  0  0  0  0  0  0  0  0  0  # atno 17343 bound_to 10162
  157.6090  131.0937  150.8828 LP  0  0  0  0  0  0  0  0  0  0  0  0  # atno 17370 bound_to 10713
  156.8971  130.5233  149.5284 LP  0  0  0  0  0  0  0  0  0  0  0  0  # atno 17371 bound_to 10713
  140.6048  134.5519  157.5523 LP  0  0  0  0  0  0  0  0  0  0  0  0  # atno 17394 bound_to 11000
  139.9354  134.7886  156.0818 LP  0  0  0  0  0  0  0  0  0  0  0  0  # atno 17395 bound_to 11000

$$$$
