AV-unprocessed.smi:2801|AV-procd|sdf|10797|dock3
  -GOLD-   2272015233D 1   1.00000     0.00000
 Structure written by MMmdl.
 32 32  0  0  0  0  0  0  0  0  3 V2000
  151.5915  145.3215  159.6013 C   0  0  0  0  0  0  0  0  0  0  0  0
  152.4567  144.8763  158.4205 C   0  0  0  0  0  0  0  0  0  0  0  0
  151.7441  143.8899  157.6840 O   0  0  0  0  0  0  0  0  0  0  0  0
  151.1867  142.8308  158.4590 C   0  0  2  0  0  0  0  0  0  0  0  0
  152.3483  142.0744  159.1306 C   0  0  0  0  0  0  0  0  0  0  0  0
  152.7512  142.6809  160.4805 C   0  0  0  0  0  0  0  0  0  0  0  0
  150.3617  141.8962  157.5591 C   0  0  0  0  0  0  0  0  0  0  0  0
  149.1602  141.7454  157.7799 O   0  0  0  0  0  0  0  0  0  0  0  0
  151.0496  141.2726  156.5852 N   0  0  0  0  0  0  0  0  0  0  0  0
  150.5973  140.3521  155.5976 C   0  0  0  0  0  0  0  0  0  0  0  0
  149.2986  140.3844  155.0271 C   0  0  0  0  0  0  0  0  0  0  0  0
  148.9497  139.4386  154.0423 C   0  0  0  0  0  0  0  0  0  0  0  0
  149.8506  138.5173  153.6418 N   0  3  0  0  0  0  0  0  0  0  0  0
  151.1009  138.4540  154.1445 C   0  0  0  0  0  0  0  0  0  0  0  0
  151.5102  139.3712  155.1336 C   0  0  0  0  0  0  0  0  0  0  0  0
  152.7830  139.2924  155.6259 O   0  5  0  0  0  0  0  0  0  0  0  0
  152.1014  146.0809  160.1940 H   0  0  0  0  0  0  0  0  0  0  0  0
  151.3642  144.4809  160.2576 H   0  0  0  0  0  0  0  0  0  0  0  0
  150.6469  145.7433  159.2569 H   0  0  0  0  0  0  0  0  0  0  0  0
  152.6798  145.7325  157.7822 H   0  0  0  0  0  0  0  0  0  0  0  0
  153.4046  144.4847  158.7910 H   0  0  0  0  0  0  0  0  0  0  0  0
  150.5458  143.2467  159.2396 H   0  0  0  0  0  0  0  0  0  0  0  0
  152.0663  141.0325  159.2893 H   0  0  0  0  0  0  0  0  0  0  0  0
  153.2165  142.0594  158.4700 H   0  0  0  0  0  0  0  0  0  0  0  0
  153.5636  142.1131  160.9340 H   0  0  0  0  0  0  0  0  0  0  0  0
  151.9137  142.6784  161.1787 H   0  0  0  0  0  0  0  0  0  0  0  0
  153.0898  143.7110  160.3663 H   0  0  0  0  0  0  0  0  0  0  0  0
  152.0467  141.4357  156.5786 H   0  0  0  0  0  0  0  0  0  0  0  0
  148.5646  141.1209  155.3123 H   0  0  0  0  0  0  0  0  0  0  0  0
  147.9837  139.3966  153.5613 H   0  0  0  0  0  0  0  0  0  0  0  0
  151.7343  137.6772  153.7411 H   0  0  0  0  0  0  0  0  0  0  0  0
  149.5779  137.8436  152.9264 H   0  0  0  0  0  0  0  0  0  0  0  0
  1  2  1  0  0  0  0
  1 17  1  0  0  0  0
  1 18  1  0  0  0  0
  1 19  1  0  0  0  0
  2  3  1  0  0  0  0
  2 20  1  0  0  0  0
  2 21  1  0  0  0  0
  3  4  1  0  0  0  0
  4  5  1  0  0  0  0
  4  7  1  0  0  0  0
  4 22  1  0  0  0  0
  5  6  1  0  0  0  0
  5 23  1  0  0  0  0
  5 24  1  0  0  0  0
  6 25  1  0  0  0  0
  6 26  1  0  0  0  0
  6 27  1  0  0  0  0
  7  8  2  0  0  0  0
  7  9  1  0  0  0  0
  9 28  1  0  0  0  0
  9 10  1  0  0  0  0
 10 11  2  0  0  0  0
 10 15  1  0  0  0  0
 11 12  1  0  0  0  0
 11 29  1  0  0  0  0
 12 13  2  0  0  0  0
 12 30  1  0  0  0  0
 13 14  1  0  0  0  0
 13 32  1  0  0  0  0
 14 15  2  0  0  0  0
 14 31  1  0  0  0  0
 15 16  1  0  0  0  0
M  CHG  1  13   1
M  CHG  1  16  -1
M  END
> <s_m_source_file>
AV-unprocessed.smi

> <i_m_source_file_index>
2801

> <i_lp_mmshare_version>
43012

> <i_f3d_flags>
0

> <s_epik_input>
W0NIM11bQ0gyXU9bQ0BIXShbQ0gyXVtDSDNdKUMoPU8pW05IXWMxW2NIXVtjSF1uW2NIXWMxW09IXQ==

> <s_epik_cmdline>
J2VwaWtfcHl0aG9uJywgJy1waCcsICc3LjAnLCAnLXRuJywgJzgnLCAnLW1hJywgJzIwMCcsICctbWV0YWxfYmluZGluZycsICctaW1hZScsICc8aW5maWxlLm1hZT4nLCAnLW9tYWUnLCAnPG91dGZpbGUubWFlPic=

> <r_lp_tautomer_probability>
0.56342

> <r_epik_Ionization_Penalty>
0.0170685

> <r_epik_Ionization_Penalty_Charging>
0.0170685

> <r_epik_Ionization_Penalty_Neutral>
1.5328e-09

> <r_epik_State_Penalty>
0.331557

> <r_epik_Charging_Adjusted_Penalty>
0.348625

> <i_epik_Tot_Q>
0

> <i_epik_Tot_abs_Q>
2

> <r_epik_Metal_State_Penalty>
0.590147

> <b_epik_Metal_Only>
0

> <s_lp_Force_Field>
OPLS_2005

> <r_lp_Energy>
9.87866

> <b_lp_Chiralities_Consistent>
1

> <s_lp_Variant>
AV-unprocessed.smi:2801-1

> <Gold.Version>
5.8.1

> <Gold.Id.Protein>
6NUR|6NUR_protein|mol2

> <Gold.PLP.Fitness>
48.2774

> <Gold.PLP.PLP>
-37.3547

> <Gold.PLP.part.hbond>
-3.0000

> <Gold.PLP.part.metal>
0.0000

> <Gold.PLP.part.buried>
-5.0797

> <Gold.PLP.part.nonpolar>
-30.1524

> <Gold.PLP.part.repulsive>
0.3641

> <Gold.PLP.ligand.clash>
0.0000

> <Gold.PLP.ligand.torsion>
0.5771

> <Gold.PLP.Chemscore.Hbond>
4.0000

> <Gold.PLP.Chemscore.CHOScore>
0.0000

> <Gold.PLP.Chemscore.Metal>
0.0000

> <Gold.Chemscore.Hbonds>
donor molecule, donor type, donor heavy atom, donor atom, acceptor molecule, acceptor atom, score
      L1  H    13    32       P1  7948  2.00
      P1  H  7997  8010       L1    16  2.00

> <Gold.PLP.Chemscore.Internal.Correction>
0.0770

> <Gold.Rescore>
     Score         DG    S(hbond)    S(metal)    S(lipo)     H(rot)  DE(clash)    DE(int)     intcor
     17.79     -18.48       1.91        0.00      91.54       1.59       0.03       0.66       ----

> <Gold.Chemscore.Fitness>
17.7885

> <Gold.Chemscore.DG>
-18.4751

> <Gold.Chemscore.ZeroCoef>
-5.4800

> <Gold.Chemscore.Hbond>
1.9053

> <Gold.Chemscore.Metal>
0.0000

> <Gold.Chemscore.Lipo>
91.5408

> <Gold.Chemscore.Internal_Hbond>
0.0000

> <Gold.Chemscore.DEClash>
0.0253

> <Gold.Chemscore.DEInternal>
0.6613

> <Gold.Chemscore.Rot>
1.5933

> <Gold.Chemscore.Internal.Correction>
   9.000000E+99

> <Gold.Chemscore.Hbonds>
donor molecule, donor type, donor heavy atom, donor atom, acceptor molecule, acceptor atom, score
      L1  H    13    32       P1  7948  0.76
      P1  H  7997  8010       L1    16  1.00

> <Gold.Chemscore.Hbond.Weighted>
-6.3637

> <Gold.Chemscore.Metal.Weighted>
-0.0000

> <Gold.Chemscore.Lipo.Weighted>
-10.7103

> <Gold.Chemscore.Internal_Hbond.Weighted>
0.0000

> <Gold.Chemscore.DEClash.Weighted>
0.0253

> <Gold.Chemscore.DEInternal.Weighted>
0.6613

> <Gold.Chemscore.Rot.Weighted>
4.0789

> <Gold.Chemscore.Internal.Correction.Weighted>
   9.000000E+99

> <Gold.Protein.RotatedTorsions>
[ 6907 6896 6895 6894 ] final  149.60 input  -60.11 | X-H torsion
[ 7974 7965 7964 7962 ] final   30.04 input  175.53 | X-H torsion
[ 8008 7997 7996 7995 ] final   89.88 input   59.86 | X-H torsion
[ 10167 10162 10161 10158 ] final   41.11 input  -65.29 | X-H torsion
[ 10718 10713 10712 10709 ] final   87.16 input   66.30 | X-H torsion
[ 10763 10752 10751 10750 ] final    2.92 input  -60.55 | X-H torsion
[ 11005 11000 10999 10996 ] final -177.98 input  -57.11 | X-H torsion

> <Gold.Protein.ActiveResidues>
 VAL166  LYS551  ARG553  GLY616  TRP617  ASP618  TYR619  PRO620  LYS621  CYS622 
 ASP623  PHE694  ASN695  SER759  ASP760  ASP761  ALA762  ILE779  LEU786  VAL792 
 PHE793  MET794  SER795  GLU796  ALA797  LYS798  CYS799  TRP800  GLU811  SER814 

> <Gold.Protein.RotatedAtoms>
  152.1259  133.4379  159.4697 H   0  0  0  0  0  0  0  0  0  0  0  0  # atno 6907 bound_to 6896
  150.6875  134.2479  159.4508 H   0  0  0  0  0  0  0  0  0  0  0  0  # atno 6908 bound_to 6896
  152.0359  134.9739  160.0624 H   0  0  0  0  0  0  0  0  0  0  0  0  # atno 6909 bound_to 6896
  146.1635  139.6841  142.9017 H   0  0  0  0  0  0  0  0  0  0  0  0  # atno 7974 bound_to 7965
  156.0053  140.3355  155.6886 H   0  0  0  0  0  0  0  0  0  0  0  0  # atno 8008 bound_to 7997
  155.6233  140.0677  157.2689 H   0  0  0  0  0  0  0  0  0  0  0  0  # atno 8009 bound_to 7997
  154.4263  140.1772  156.1383 H   0  0  0  0  0  0  0  0  0  0  0  0  # atno 8010 bound_to 7997
  140.3675  144.2148  150.6134 H   0  0  0  0  0  0  0  0  0  0  0  0  # atno 10167 bound_to 10162
  157.6937  131.0244  150.3081 H   0  0  0  0  0  0  0  0  0  0  0  0  # atno 10718 bound_to 10713
  153.2896  135.6947  153.7306 H   0  0  0  0  0  0  0  0  0  0  0  0  # atno 10763 bound_to 10752
  153.6262  135.3418  155.3027 H   0  0  0  0  0  0  0  0  0  0  0  0  # atno 10764 bound_to 10752
  154.8520  135.4398  154.1975 H   0  0  0  0  0  0  0  0  0  0  0  0  # atno 10765 bound_to 10752
  140.4348  134.6485  157.4729 H   0  0  0  0  0  0  0  0  0  0  0  0  # atno 11005 bound_to 11000
  145.4526  141.0429  143.2796 LP  0  0  0  0  0  0  0  0  0  0  0  0  # atno 17320 bound_to 7965
  144.8060  139.6050  143.7050 LP  0  0  0  0  0  0  0  0  0  0  0  0  # atno 17321 bound_to 7965
  140.5066  143.2302  151.8599 LP  0  0  0  0  0  0  0  0  0  0  0  0  # atno 17342 bound_to 10162
  139.4807  144.4998  151.9075 LP  0  0  0  0  0  0  0  0  0  0  0  0  # atno 17343 bound_to 10162
  156.3587  130.3843  149.7269 LP  0  0  0  0  0  0  0  0  0  0  0  0  # atno 17370 bound_to 10713
  156.4723  130.8002  151.3020 LP  0  0  0  0  0  0  0  0  0  0  0  0  # atno 17371 bound_to 10713
  140.0109  134.6692  155.9382 LP  0  0  0  0  0  0  0  0  0  0  0  0  # atno 17394 bound_to 11000
  141.1730  133.6538  156.4723 LP  0  0  0  0  0  0  0  0  0  0  0  0  # atno 17395 bound_to 11000

$$$$
