AV-unprocessed.smi:3112|AV-procd|sdf|11841|dock10
  -GOLD-   2272017223D 1   1.00000     0.00000
 Structure written by MMmdl.
 37 37  0  0  0  0  0  0  0  0  2 V2000
  144.7656  135.1005  150.5112 C   0  0  0  0  0  0  0  0  0  0  0  0
  144.8420  136.1340  151.6435 C   0  0  0  0  0  0  0  0  0  0  0  0
  146.1716  136.9094  151.6773 C   0  0  1  0  0  0  0  0  0  0  0  0
  146.3150  137.6270  150.4668 O   0  0  0  0  0  0  0  0  0  0  0  0
  146.2299  137.9066  152.8463 C   0  0  0  0  0  0  0  0  0  0  0  0
  147.5328  138.6038  152.8836 N   0  3  0  0  0  0  0  0  0  0  0  0
  147.7935  139.4033  154.1041 C   0  0  2  0  0  0  0  0  0  0  0  0
  146.6032  140.3424  154.3775 C   0  0  0  0  0  0  0  0  0  0  0  0
  149.1353  140.1673  153.9539 C   0  0  1  0  0  0  0  0  0  0  0  0
  149.1357  141.5507  154.6315 C   0  0  0  0  0  0  0  0  0  0  0  0
  150.2438  139.3675  154.4648 N   0  0  0  0  0  0  0  0  0  0  0  0
  150.4473  138.0047  154.3675 C   0  0  0  0  0  0  0  0  0  0  0  0
  151.6434  137.7262  154.9638 C   0  0  0  0  0  0  0  0  0  0  0  0
  152.1111  138.9986  155.3943 C   0  0  0  0  0  0  0  0  0  0  0  0
  151.2772  139.9784  155.0853 N   0  0  0  0  0  0  0  0  0  0  0  0
  143.8230  134.5541  150.5498 H   0  0  0  0  0  0  0  0  0  0  0  0
  145.5737  134.3723  150.5868 H   0  0  0  0  0  0  0  0  0  0  0  0
  144.8317  135.5747  149.5318 H   0  0  0  0  0  0  0  0  0  0  0  0
  144.0052  136.8291  151.5627 H   0  0  0  0  0  0  0  0  0  0  0  0
  144.7099  135.6098  152.5909 H   0  0  0  0  0  0  0  0  0  0  0  0
  146.9972  136.2013  151.7650 H   0  0  0  0  0  0  0  0  0  0  0  0
  145.4863  138.0282  150.2520 H   0  0  0  0  0  0  0  0  0  0  0  0
  145.4121  138.6244  152.7761 H   0  0  0  0  0  0  0  0  0  0  0  0
  146.1037  137.3702  153.7877 H   0  0  0  0  0  0  0  0  0  0  0  0
  148.2506  137.8944  152.8290 H   0  0  0  0  0  0  0  0  0  0  0  0
  147.8932  138.7173  154.9471 H   0  0  0  0  0  0  0  0  0  0  0  0
  146.7222  140.8800  155.3178 H   0  0  0  0  0  0  0  0  0  0  0  0
  145.6652  139.7927  154.4532 H   0  0  0  0  0  0  0  0  0  0  0  0
  146.4903  141.0805  153.5827 H   0  0  0  0  0  0  0  0  0  0  0  0
  149.3141  140.3335  152.8894 H   0  0  0  0  0  0  0  0  0  0  0  0
  148.4430  142.2374  154.1457 H   0  0  0  0  0  0  0  0  0  0  0  0
  150.1235  142.0102  154.5791 H   0  0  0  0  0  0  0  0  0  0  0  0
  148.8563  141.4834  155.6833 H   0  0  0  0  0  0  0  0  0  0  0  0
  149.7330  137.3525  153.8869 H   0  0  0  0  0  0  0  0  0  0  0  0
  152.1142  136.7606  155.0741 H   0  0  0  0  0  0  0  0  0  0  0  0
  153.0276  139.2389  155.9130 H   0  0  0  0  0  0  0  0  0  0  0  0
  147.6171  139.1999  152.0721 H   0  0  0  0  0  0  0  0  0  0  0  0
  1  2  1  0  0  0  0
  1 16  1  0  0  0  0
  1 17  1  0  0  0  0
  1 18  1  0  0  0  0
  2  3  1  0  0  0  0
  2 19  1  0  0  0  0
  2 20  1  0  0  0  0
  3  4  1  0  0  0  0
  3  5  1  0  0  0  0
  3 21  1  0  0  0  0
  4 22  1  0  0  0  0
  5  6  1  0  0  0  0
  5 23  1  0  0  0  0
  5 24  1  0  0  0  0
  6  7  1  0  0  0  0
  6 25  1  0  0  0  0
  6 37  1  0  0  0  0
  7  8  1  0  0  0  0
  7  9  1  0  0  0  0
  7 26  1  0  0  0  0
  8 27  1  0  0  0  0
  8 28  1  0  0  0  0
  8 29  1  0  0  0  0
  9 10  1  0  0  0  0
  9 11  1  0  0  0  0
  9 30  1  0  0  0  0
 10 31  1  0  0  0  0
 10 32  1  0  0  0  0
 10 33  1  0  0  0  0
 11 15  1  0  0  0  0
 11 12  1  0  0  0  0
 12 13  2  0  0  0  0
 12 34  1  0  0  0  0
 13 14  1  0  0  0  0
 13 35  1  0  0  0  0
 14 15  2  0  0  0  0
 14 36  1  0  0  0  0
M  CHG  1   6   1
M  END
> <s_m_source_file>
AV-unprocessed.smi

> <i_m_source_file_index>
3112

> <i_lp_mmshare_version>
43012

> <i_f3d_flags>
0

> <s_epik_input>
W0NIM11bQ0gyXVtDQEhdKFtPSF0pW0NIMl1bTkhdW0NASF0oW0NIM10pW0NASF0oW0NIM10pbjFbY0hdW2NIXVtjSF1uMQ==

> <s_epik_cmdline>
J2VwaWtfcHl0aG9uJywgJy1waCcsICc3LjAnLCAnLXRuJywgJzgnLCAnLW1hJywgJzIwMCcsICctbWV0YWxfYmluZGluZycsICctaW1hZScsICc8aW5maWxlLm1hZT4nLCAnLW9tYWUnLCAnPG91dGZpbGUubWFlPic=

> <r_lp_tautomer_probability>
1

> <r_epik_Ionization_Penalty>
0.0154842

> <r_epik_Ionization_Penalty_Charging>
0.0154724

> <r_epik_Ionization_Penalty_Neutral>
1.17979e-05

> <r_epik_State_Penalty>
0.0121607

> <r_epik_Charging_Adjusted_Penalty>
0.0276331

> <i_epik_Tot_Q>
1

> <i_epik_Tot_abs_Q>
1

> <r_epik_Metal_State_Penalty>
0.0121863

> <b_epik_Metal_Only>
0

> <s_lp_Force_Field>
OPLS_2005

> <r_lp_Energy>
12.5622

> <b_lp_Chiralities_Consistent>
1

> <s_lp_Variant>
AV-unprocessed.smi:3112-6

> <Gold.Version>
5.8.1

> <Gold.Id.Protein>
6NUR|6NUR_protein|mol2

> <Gold.PLP.Fitness>
44.8162

> <Gold.PLP.PLP>
-31.2928

> <Gold.PLP.part.hbond>
-5.0859

> <Gold.PLP.part.metal>
0.0000

> <Gold.PLP.part.buried>
1.5193

> <Gold.PLP.part.nonpolar>
-29.0145

> <Gold.PLP.part.repulsive>
0.0969

> <Gold.PLP.ligand.clash>
0.0000

> <Gold.PLP.ligand.torsion>
1.5191

> <Gold.PLP.Chemscore.Hbond>
4.4901

> <Gold.PLP.Chemscore.CHOScore>
1.0000

> <Gold.PLP.Chemscore.Metal>
0.0000

> <Gold.Chemscore.Hbonds>
donor molecule, donor type, donor heavy atom, donor atom, acceptor molecule, acceptor atom, score
      L1  H     4    22       P1 10171  1.00
      L1  H     6    25       P1  7948  1.87
      L1  H     6    37       P1  7957  0.16
      P1  H  7954  7966       L1     4  0.90
      P1  H  7989  7998       L1    15  0.45
      L1  C    12    34       P1  7948  1.00

> <Gold.PLP.Chemscore.Internal.Correction>
0.0914

> <Gold.Rescore>
     Score         DG    S(hbond)    S(metal)    S(lipo)     H(rot)  DE(clash)    DE(int)     intcor
     14.13     -17.53       2.86        0.00      73.90       2.41       1.89       1.50       ----

> <Gold.Chemscore.Fitness>
14.1327

> <Gold.Chemscore.DG>
-17.5256

> <Gold.Chemscore.ZeroCoef>
-5.4800

> <Gold.Chemscore.Hbond>
2.8641

> <Gold.Chemscore.Metal>
0.0000

> <Gold.Chemscore.Lipo>
73.9001

> <Gold.Chemscore.Internal_Hbond>
0.0000

> <Gold.Chemscore.DEClash>
1.8908

> <Gold.Chemscore.DEInternal>
1.5021

> <Gold.Chemscore.Rot>
2.4089

> <Gold.Chemscore.Internal.Correction>
   9.000000E+99

> <Gold.Chemscore.Hbonds>
donor molecule, donor type, donor heavy atom, donor atom, acceptor molecule, acceptor atom, score
      L1  H     4    22       P1 10171  1.00
      L1  H     6    25       P1  7948  0.84
      L1  H     6    37       P1  7957  0.16
      P1  H  7954  7966       L1     4  0.79
      P1  H  7989  7998       L1    15  0.01

> <Gold.Chemscore.Hbond.Weighted>
-9.5659

> <Gold.Chemscore.Metal.Weighted>
-0.0000

> <Gold.Chemscore.Lipo.Weighted>
-8.6463

> <Gold.Chemscore.Internal_Hbond.Weighted>
0.0000

> <Gold.Chemscore.DEClash.Weighted>
1.8908

> <Gold.Chemscore.DEInternal.Weighted>
1.5021

> <Gold.Chemscore.Rot.Weighted>
6.1667

> <Gold.Chemscore.Internal.Correction.Weighted>
   9.000000E+99

> <Gold.Protein.RotatedTorsions>
[ 6907 6896 6895 6894 ] final   19.66 input  -60.11 | X-H torsion
[ 7974 7965 7964 7962 ] final  115.73 input  175.53 | X-H torsion
[ 8008 7997 7996 7995 ] final  -34.43 input   59.86 | X-H torsion
[ 10167 10162 10161 10158 ] final    4.40 input  -65.29 | X-H torsion
[ 10718 10713 10712 10709 ] final  166.45 input   66.30 | X-H torsion
[ 10763 10752 10751 10750 ] final -142.99 input  -60.55 | X-H torsion
[ 11005 11000 10999 10996 ] final -125.25 input  -57.11 | X-H torsion

> <Gold.Protein.ActiveResidues>
 VAL166  LYS551  ARG553  GLY616  TRP617  ASP618  TYR619  PRO620  LYS621  CYS622 
 ASP623  PHE694  ASN695  SER759  ASP760  ASP761  ALA762  ILE779  LEU786  VAL792 
 PHE793  MET794  SER795  GLU796  ALA797  LYS798  CYS799  TRP800  GLU811  SER814 

> <Gold.Protein.RotatedAtoms>
  151.8843  135.0441  160.0491 H   0  0  0  0  0  0  0  0  0  0  0  0  # atno 6907 bound_to 6896
  152.2487  133.5192  159.5321 H   0  0  0  0  0  0  0  0  0  0  0  0  # atno 6908 bound_to 6896
  150.7076  134.0906  159.3973 H   0  0  0  0  0  0  0  0  0  0  0  0  # atno 6909 bound_to 6896
  145.1884  139.3013  143.4381 H   0  0  0  0  0  0  0  0  0  0  0  0  # atno 7974 bound_to 7965
  154.4121  140.1684  156.2048 H   0  0  0  0  0  0  0  0  0  0  0  0  # atno 8008 bound_to 7997
  155.9494  140.3402  155.6371 H   0  0  0  0  0  0  0  0  0  0  0  0  # atno 8009 bound_to 7997
  155.6889  140.0731  157.2446 H   0  0  0  0  0  0  0  0  0  0  0  0  # atno 8010 bound_to 7997
  140.6536  143.7482  150.7616 H   0  0  0  0  0  0  0  0  0  0  0  0  # atno 10167 bound_to 10162
  157.0657  131.0352  151.2630 H   0  0  0  0  0  0  0  0  0  0  0  0  # atno 10718 bound_to 10713
  154.8487  135.3480  154.6116 H   0  0  0  0  0  0  0  0  0  0  0  0  # atno 10763 bound_to 10752
  153.6725  135.6984  153.5147 H   0  0  0  0  0  0  0  0  0  0  0  0  # atno 10764 bound_to 10752
  153.2731  135.4286  155.0964 H   0  0  0  0  0  0  0  0  0  0  0  0  # atno 10765 bound_to 10752
  140.9777  134.0717  157.3800 H   0  0  0  0  0  0  0  0  0  0  0  0  # atno 11005 bound_to 11000
  146.3441  140.2088  142.8590 LP  0  0  0  0  0  0  0  0  0  0  0  0  # atno 17320 bound_to 7965
  145.0066  140.8678  143.5249 LP  0  0  0  0  0  0  0  0  0  0  0  0  # atno 17321 bound_to 7965
  140.1138  143.4675  152.2354 LP  0  0  0  0  0  0  0  0  0  0  0  0  # atno 17342 bound_to 10162
  139.5755  144.7485  151.3776 LP  0  0  0  0  0  0  0  0  0  0  0  0  # atno 17343 bound_to 10162
  157.4919  130.7827  149.7516 LP  0  0  0  0  0  0  0  0  0  0  0  0  # atno 17370 bound_to 10713
  155.9965  130.3905  150.2776 LP  0  0  0  0  0  0  0  0  0  0  0  0  # atno 17371 bound_to 10713
  139.8937  135.0132  156.6914 LP  0  0  0  0  0  0  0  0  0  0  0  0  # atno 17394 bound_to 11000
  140.7234  133.9121  155.8162 LP  0  0  0  0  0  0  0  0  0  0  0  0  # atno 17395 bound_to 11000

$$$$
