AV-unprocessed.smi:1535|AV-procd|sdf|6185|dock9
  -GOLD-   22720 6343D 1   1.00000     0.00000
 Structure written by MMmdl.
 47 48  0  0  0  0  0  0  0  0  2 V2000
  152.5297  143.2121  160.5940 C   0  0  0  0  0  0  0  0  0  0  0  0
  152.2813  142.3338  159.3804 C   0  0  0  0  0  0  0  0  0  0  0  0
  151.3449  142.7525  158.4081 C   0  0  0  0  0  0  0  0  0  0  0  0
  151.0849  141.9639  157.2660 C   0  0  0  0  0  0  0  0  0  0  0  0
  150.2243  142.1768  156.2027 N   0  0  0  0  0  0  0  0  0  0  0  0
  150.4316  141.0889  155.4669 C   0  0  0  0  0  0  0  0  0  0  0  0
  151.3291  140.1959  155.9263 N   0  0  0  0  0  0  0  0  0  0  0  0
  151.7145  138.9427  155.3015 C   0  0  0  0  0  0  0  0  0  0  0  0
  150.5035  138.1240  154.8148 C   0  0  1  0  0  0  0  0  0  0  0  0
  150.2418  138.4275  153.4577 O   0  0  0  0  0  0  0  0  0  0  0  0
  150.7588  136.6085  154.9341 C   0  0  0  0  0  0  0  0  0  0  0  0
  149.5346  135.8123  154.6643 N   0  3  1  0  0  0  0  0  0  0  0  0
  149.7846  134.3563  154.7706 C   0  0  0  0  0  0  0  0  0  0  0  0
  148.3641  136.2494  155.4696 C   0  0  0  0  0  0  0  0  0  0  0  0
  148.7298  136.5028  156.9437 C   0  0  1  0  0  0  0  0  0  0  0  0
  147.5892  137.2013  157.6945 C   0  0  0  0  0  0  0  0  0  0  0  0
  149.1090  135.2507  157.6185 C   0  0  0  0  0  0  0  0  0  0  0  0
  149.4078  134.2654  158.1449 N   0  0  0  0  0  0  0  0  0  0  0  0
  151.7920  140.7344  157.1224 C   0  0  0  0  0  0  0  0  0  0  0  0
  152.7279  140.3083  158.0814 C   0  0  0  0  0  0  0  0  0  0  0  0
  152.9764  141.1086  159.2162 C   0  0  0  0  0  0  0  0  0  0  0  0
  153.9906  140.6404  160.2446 C   0  0  0  0  0  0  0  0  0  0  0  0
  151.8996  144.1018  160.5779 H   0  0  0  0  0  0  0  0  0  0  0  0
  153.5695  143.5384  160.6223 H   0  0  0  0  0  0  0  0  0  0  0  0
  152.3126  142.6665  161.5128 H   0  0  0  0  0  0  0  0  0  0  0  0
  150.8164  143.6864  158.5317 H   0  0  0  0  0  0  0  0  0  0  0  0
  149.9014  140.9317  154.5389 H   0  0  0  0  0  0  0  0  0  0  0  0
  152.3878  139.1604  154.4715 H   0  0  0  0  0  0  0  0  0  0  0  0
  152.2916  138.3655  156.0250 H   0  0  0  0  0  0  0  0  0  0  0  0
  149.6295  138.4120  155.3991 H   0  0  0  0  0  0  0  0  0  0  0  0
  149.8167  137.6827  153.0587 H   0  0  0  0  0  0  0  0  0  0  0  0
  151.5463  136.3363  154.2290 H   0  0  0  0  0  0  0  0  0  0  0  0
  151.1419  136.3561  155.9243 H   0  0  0  0  0  0  0  0  0  0  0  0
  150.0767  134.0830  155.7853 H   0  0  0  0  0  0  0  0  0  0  0  0
  150.5830  134.0531  154.0923 H   0  0  0  0  0  0  0  0  0  0  0  0
  148.8997  133.7796  154.5033 H   0  0  0  0  0  0  0  0  0  0  0  0
  147.9263  137.1422  155.0202 H   0  0  0  0  0  0  0  0  0  0  0  0
  147.5848  135.4875  155.4406 H   0  0  0  0  0  0  0  0  0  0  0  0
  149.6033  137.1519  156.9962 H   0  0  0  0  0  0  0  0  0  0  0  0
  147.8667  137.3962  158.7309 H   0  0  0  0  0  0  0  0  0  0  0  0
  146.6868  136.5892  157.7021 H   0  0  0  0  0  0  0  0  0  0  0  0
  147.3411  138.1580  157.2342 H   0  0  0  0  0  0  0  0  0  0  0  0
  153.2516  139.3738  157.9450 H   0  0  0  0  0  0  0  0  0  0  0  0
  154.4185  139.6753  159.9715 H   0  0  0  0  0  0  0  0  0  0  0  0
  153.5225  140.5327  161.2233 H   0  0  0  0  0  0  0  0  0  0  0  0
  154.8079  141.3570  160.3280 H   0  0  0  0  0  0  0  0  0  0  0  0
  149.3097  135.9909  153.6953 H   0  0  0  0  0  0  0  0  0  0  0  0
  1  2  1  0  0  0  0
  1 23  1  0  0  0  0
  1 24  1  0  0  0  0
  1 25  1  0  0  0  0
  2 21  1  0  0  0  0
  2  3  2  0  0  0  0
  3  4  1  0  0  0  0
  3 26  1  0  0  0  0
  4 19  2  0  0  0  0
  4  5  1  0  0  0  0
  5  6  2  0  0  0  0
  6  7  1  0  0  0  0
  6 27  1  0  0  0  0
  7  8  1  0  0  0  0
  7 19  1  0  0  0  0
  8  9  1  0  0  0  0
  8 28  1  0  0  0  0
  8 29  1  0  0  0  0
  9 10  1  0  0  0  0
  9 11  1  0  0  0  0
  9 30  1  0  0  0  0
 10 31  1  0  0  0  0
 11 12  1  0  0  0  0
 11 32  1  0  0  0  0
 11 33  1  0  0  0  0
 12 13  1  0  0  0  0
 12 14  1  0  0  0  0
 12 47  1  0  0  0  0
 13 34  1  0  0  0  0
 13 35  1  0  0  0  0
 13 36  1  0  0  0  0
 14 15  1  0  0  0  0
 14 37  1  0  0  0  0
 14 38  1  0  0  0  0
 15 16  1  0  0  0  0
 15 17  1  0  0  0  0
 15 39  1  0  0  0  0
 16 40  1  0  0  0  0
 16 41  1  0  0  0  0
 16 42  1  0  0  0  0
 17 18  3  0  0  0  0
 19 20  1  0  0  0  0
 20 21  2  0  0  0  0
 20 43  1  0  0  0  0
 21 22  1  0  0  0  0
 22 44  1  0  0  0  0
 22 45  1  0  0  0  0
 22 46  1  0  0  0  0
M  CHG  1  12   1
M  END
> <s_m_source_file>
AV-unprocessed.smi

> <i_m_source_file_index>
1535

> <i_lp_mmshare_version>
43012

> <i_f3d_flags>
0

> <s_epik_input>
W0NIM11jKFtjSF0xKWMoW0NIM10pW2NIXWMoYzEyKW4oW2NIXW4yKVtDSDJdW0NASF0oW09IXSlbQ0gyXU4oW0NIM10pW0NIMl1bQ0BIXShbQ0gzXSlDI04=

> <s_epik_cmdline>
J2VwaWtfcHl0aG9uJywgJy1waCcsICc3LjAnLCAnLXRuJywgJzgnLCAnLW1hJywgJzIwMCcsICctbWV0YWxfYmluZGluZycsICctaW1hZScsICc8aW5maWxlLm1hZT4nLCAnLW9tYWUnLCAnPG91dGZpbGUubWFlPic=

> <r_epik_Ionization_Penalty>
2.21058

> <r_epik_Ionization_Penalty_Charging>
2.12381

> <r_epik_Ionization_Penalty_Neutral>
0.0867699

> <r_epik_State_Penalty>
2.36208

> <r_epik_Charging_Adjusted_Penalty>
4.48589

> <i_epik_Tot_Q>
1

> <i_epik_Tot_abs_Q>
1

> <r_epik_Metal_State_Penalty>
2.2818

> <b_epik_Metal_Only>
0

> <s_lp_Force_Field>
OPLS_2005

> <r_lp_Energy>
14.5736

> <b_lp_Chiralities_Consistent>
1

> <s_lp_Variant>
AV-unprocessed.smi:1535-16

> <Gold.Version>
5.8.1

> <Gold.Id.Protein>
6NUR|6NUR_protein|mol2

> <Gold.PLP.Fitness>
49.3760

> <Gold.PLP.PLP>
-38.8099

> <Gold.PLP.part.hbond>
-4.2441

> <Gold.PLP.part.metal>
0.0000

> <Gold.PLP.part.buried>
-4.1941

> <Gold.PLP.part.nonpolar>
-31.0026

> <Gold.PLP.part.repulsive>
0.5917

> <Gold.PLP.ligand.clash>
0.0000

> <Gold.PLP.ligand.torsion>
0.8842

> <Gold.PLP.Chemscore.Hbond>
4.0000

> <Gold.PLP.Chemscore.CHOScore>
0.0000

> <Gold.PLP.Chemscore.Metal>
0.0000

> <Gold.Chemscore.Hbonds>
donor molecule, donor type, donor heavy atom, donor atom, acceptor molecule, acceptor atom, score
      L1  H    10    31       P1  7948  1.00
      L1  H    12    47       P1  7948  2.00
      P1  H  6896  6909       L1    18  1.00

> <Gold.PLP.Chemscore.Internal.Correction>
0.3345

> <Gold.Rescore>
     Score         DG    S(hbond)    S(metal)    S(lipo)     H(rot)  DE(clash)    DE(int)     intcor
     17.91     -19.25       2.85        0.00      93.47       2.60       0.28       1.06       ----

> <Gold.Chemscore.Fitness>
17.9090

> <Gold.Chemscore.DG>
-19.2538

> <Gold.Chemscore.ZeroCoef>
-5.4800

> <Gold.Chemscore.Hbond>
2.8450

> <Gold.Chemscore.Metal>
0.0000

> <Gold.Chemscore.Lipo>
93.4652

> <Gold.Chemscore.Internal_Hbond>
0.0000

> <Gold.Chemscore.DEClash>
0.2813

> <Gold.Chemscore.DEInternal>
1.0635

> <Gold.Chemscore.Rot>
2.6031

> <Gold.Chemscore.Internal.Correction>
   9.000000E+99

> <Gold.Chemscore.Hbonds>
donor molecule, donor type, donor heavy atom, donor atom, acceptor molecule, acceptor atom, score
      L1  H    10    31       P1  7948  0.47
      L1  H    12    47       P1  7948  0.74
      P1  H  6896  6909       L1    18  1.00

> <Gold.Chemscore.Hbond.Weighted>
-9.5023

> <Gold.Chemscore.Metal.Weighted>
-0.0000

> <Gold.Chemscore.Lipo.Weighted>
-10.9354

> <Gold.Chemscore.Internal_Hbond.Weighted>
0.0000

> <Gold.Chemscore.DEClash.Weighted>
0.2813

> <Gold.Chemscore.DEInternal.Weighted>
1.0635

> <Gold.Chemscore.Rot.Weighted>
6.6640

> <Gold.Chemscore.Internal.Correction.Weighted>
   9.000000E+99

> <Gold.Protein.RotatedTorsions>
[ 6907 6896 6895 6894 ] final   13.92 input  -60.11 | X-H torsion
[ 7974 7965 7964 7962 ] final   92.23 input  175.53 | X-H torsion
[ 8008 7997 7996 7995 ] final  175.06 input   59.86 | X-H torsion
[ 10167 10162 10161 10158 ] final  126.25 input  -65.29 | X-H torsion
[ 10718 10713 10712 10709 ] final   24.10 input   66.30 | X-H torsion
[ 10763 10752 10751 10750 ] final    4.93 input  -60.55 | X-H torsion
[ 11005 11000 10999 10996 ] final  -43.21 input  -57.11 | X-H torsion

> <Gold.Protein.ActiveResidues>
 VAL166  LYS551  ARG553  GLY616  TRP617  ASP618  TYR619  PRO620  LYS621  CYS622 
 ASP623  PHE694  ASN695  SER759  ASP760  ASP761  ALA762  ILE779  LEU786  VAL792 
 PHE793  MET794  SER795  GLU796  ALA797  LYS798  CYS799  TRP800  GLU811  SER814 

> <Gold.Protein.RotatedAtoms>
  151.7939  135.0728  160.0390 H   0  0  0  0  0  0  0  0  0  0  0  0  # atno 6907 bound_to 6896
  152.3137  133.5775  159.5706 H   0  0  0  0  0  0  0  0  0  0  0  0  # atno 6908 bound_to 6896
  150.7333  134.0031  159.3686 H   0  0  0  0  0  0  0  0  0  0  0  0  # atno 6909 bound_to 6896
  145.4951  139.2276  143.2808 H   0  0  0  0  0  0  0  0  0  0  0  0  # atno 7974 bound_to 7965
  156.0910  140.1418  156.9592 H   0  0  0  0  0  0  0  0  0  0  0  0  # atno 8008 bound_to 7997
  154.4642  140.0932  156.7022 H   0  0  0  0  0  0  0  0  0  0  0  0  # atno 8009 bound_to 7997
  155.4920  140.3448  155.4358 H   0  0  0  0  0  0  0  0  0  0  0  0  # atno 8010 bound_to 7997
  139.5641  144.6900  151.3960 H   0  0  0  0  0  0  0  0  0  0  0  0  # atno 10167 bound_to 10162
  157.1751  130.6777  149.6092 H   0  0  0  0  0  0  0  0  0  0  0  0  # atno 10718 bound_to 10713
  153.2654  135.6927  153.7535 H   0  0  0  0  0  0  0  0  0  0  0  0  # atno 10763 bound_to 10752
  153.6579  135.3365  155.3119 H   0  0  0  0  0  0  0  0  0  0  0  0  # atno 10764 bound_to 10752
  154.8445  135.4470  154.1658 H   0  0  0  0  0  0  0  0  0  0  0  0  # atno 10765 bound_to 10752
  141.0369  133.6796  156.2702 H   0  0  0  0  0  0  0  0  0  0  0  0  # atno 11005 bound_to 11000
  146.2260  140.5747  142.8996 LP  0  0  0  0  0  0  0  0  0  0  0  0  # atno 17320 bound_to 7965
  144.7812  140.5843  143.6604 LP  0  0  0  0  0  0  0  0  0  0  0  0  # atno 17321 bound_to 7965
  140.6923  143.7832  150.7274 LP  0  0  0  0  0  0  0  0  0  0  0  0  # atno 17342 bound_to 10162
  140.1318  143.4519  152.2250 LP  0  0  0  0  0  0  0  0  0  0  0  0  # atno 17343 bound_to 10162
  155.9732  130.4666  150.6294 LP  0  0  0  0  0  0  0  0  0  0  0  0  # atno 17370 bound_to 10713
  157.4006  131.0809  151.1312 LP  0  0  0  0  0  0  0  0  0  0  0  0  # atno 17371 bound_to 10713
  140.6306  134.5267  157.5559 LP  0  0  0  0  0  0  0  0  0  0  0  0  # atno 17394 bound_to 11000
  139.9247  134.8080  156.1105 LP  0  0  0  0  0  0  0  0  0  0  0  0  # atno 17395 bound_to 11000

$$$$
