#       Name:                AV-unprocessed.smi:1815
#       Creating user name   scv26
#       Creation time:       Fri Mar 27 09:02:31 2020


#       File generated by GOLD software.
#

@<TRIPOS>MOLECULE
AV-unprocessed.smi:1815
    45    46     1
SMALL
NO_CHARGES


@<TRIPOS>ATOM
      1 ****        -3.7368  -2.8830   2.6174 C.3            1 S1                 0.0000
      2 ****        -3.1929  -1.9934   1.4939 C.3            1 S1                 0.0000
      3 ****        -1.6837  -1.7250   1.6452 C.3            1 S1                 0.0000
      4 ****        -1.2085  -0.7981   0.5906 N.4            1 S1                 1.0000
      5 ****         0.2544  -0.5611   0.6688 C.3            1 S1                 0.0000
      6 ****         0.8339  -0.0115  -0.6438 C.3            1 S1                 0.0000
      7 ****         2.2777   0.1388  -0.5320 N.am           1 S1                 0.0000
      8 ****         3.0654   0.7342  -1.4367 C.2            1 S1                 0.0000
      9 ****         2.5730   1.2045  -2.4647 O.2            1 S1                 0.0000
     10 ****         4.3723   0.7464  -1.0912 N.pl3          1 S1                -1.0000
     11 ****         5.2756   1.3350  -1.8919 C.2            1 S1                 0.0000
     12 ****         5.7665   2.5575  -1.6590 N.2            1 S1                 0.0000
     13 ****         6.7010   2.9714  -2.6102 C.2            1 S1                 0.0000
     14 ****         6.9340   2.0380  -3.5852 C.2            1 S1                 0.0000
     15 ****         5.9787   0.6040  -3.3379 S.3            1 S1                 0.0000
     16 ****        -2.0158   0.4468   0.5974 C.3            1 S1                 0.0000
     17 ****        -3.5156   0.1182   0.4721 C.3            1 S1                 0.0000
     18 ****        -4.3908   1.3740   0.5521 C.3            1 S1                 0.0000
     19 ****        -3.8917  -0.7541   1.5320 O.3            1 S1                 0.0000
     20 ****        -3.2414  -3.8541   2.6258 H              1 S1                 0.0000
     21 ****        -4.8059  -3.0578   2.4931 H              1 S1                 0.0000
     22 ****        -3.5871  -2.4226   3.5945 H              1 S1                 0.0000
     23 ****        -3.3854  -2.4853   0.5388 H              1 S1                 0.0000
     24 ****        -1.4720  -1.2966   2.6267 H              1 S1                 0.0000
     25 ****        -1.1367  -2.6666   1.5812 H              1 S1                 0.0000
     26 ****         0.4762   0.1099   1.5003 H              1 S1                 0.0000
     27 ****         0.7545  -1.5052   0.8910 H              1 S1                 0.0000
     28 ****         0.6070  -0.6858  -1.4710 H              1 S1                 0.0000
     29 ****         0.3984   0.9586  -0.8842 H              1 S1                 0.0000
     30 ****         2.7202  -0.2334   0.2956 H              1 S1                 0.0000
     31 ****         7.1531   3.9472  -2.5133 H              1 S1                 0.0000
     32 ****         7.6054   2.1048  -4.4279 H              1 S1                 0.0000
     33 ****        -1.8261   0.9989   1.5194 H              1 S1                 0.0000
     34 ****        -1.7228   1.0945  -0.2281 H              1 S1                 0.0000
     35 ****        -3.7054  -0.3748  -0.4830 H              1 S1                 0.0000
     36 ****        -4.1454   2.0751  -0.2461 H              1 S1                 0.0000
     37 ****        -4.2566   1.8894   1.5035 H              1 S1                 0.0000
     38 ****        -5.4468   1.1198   0.4573 H              1 S1                 0.0000
     39 ****        -1.3783  -1.2586  -0.2923 H              1 S1                 0.0000
     40 ****         1.5874   1.1409  -2.6214 LP             1 S1                 0.0000
     41 ****         3.1592   1.6495  -3.1416 LP             1 S1                 0.0000
     42 ****         4.6669   0.3163  -0.2378 LP             1 S1                 0.0000
     43 ****         5.4909   3.1201  -0.8795 LP             1 S1                 0.0000
     44 ****        -3.6967  -0.3029   2.4029 LP             1 S1                 0.0000
     45 ****        -4.8725  -0.9370   1.4638 LP             1 S1                 0.0000
@<TRIPOS>BOND
    1    1    2 1     
    2    1   20 1     
    3    1   21 1     
    4    1   22 1     
    5    2   19 1     
    6    2    3 1     
    7    2   23 1     
    8    3    4 1     
    9    3   24 1     
   10    3   25 1     
   11    4    5 1     
   12    4   16 1     
   13    4   39 1     
   14    5    6 1     
   15    5   26 1     
   16    5   27 1     
   17    6    7 1     
   18    6   28 1     
   19    6   29 1     
   20    7    8 am    
   21    7   30 1     
   22    8    9 2     
   23    8   10 1     
   24   10   11 1     
   25   11   15 1     
   26   11   12 2     
   27   12   13 1     
   28   13   14 2     
   29   13   31 1     
   30   14   15 1     
   31   14   32 1     
   32   16   17 1     
   33   16   33 1     
   34   16   34 1     
   35   17   18 1     
   36   17   19 1     
   37   17   35 1     
   38   18   36 1     
   39   18   37 1     
   40   18   38 1     
   41    9   40 1     
   42    9   41 1     
   43   10   42 1     
   44   12   43 1     
   45   19   44 1     
   46   19   45 1     
@<TRIPOS>SUBSTRUCTURE
      1 S1             1
@<TRIPOS>SET
LONE_PAIRS      STATIC     ATOMS    <user>   **** ""
6 40 41 42 43 44 45
DONOR_HYDROGENS      STATIC     ATOMS    <user>   **** ""
2 39 30
ATOM$BLUE        STATIC     ATOMS    COLORGROUP SYSTEM
6 40 41 42 43 44 45
ATOM$RED        STATIC     ATOMS    COLORGROUP SYSTEM
2 39 30
