#       Name:                AV-unprocessed.smi:157
#       Creating user name   scv26
#       Creation time:       Thu Mar 26 18:58:58 2020


#       File generated by GOLD software.
#

@<TRIPOS>MOLECULE
AV-unprocessed.smi:157
    45    47     1
SMALL
NO_CHARGES


@<TRIPOS>ATOM
      1 ****        -4.1215   2.8009   1.7457 O.3            1 S1                 0.0000
      2 ****        -4.0085   1.5317   1.1381 C.3            1 S1                 0.0000
      3 ****        -2.5696   1.3038   0.6445 C.3            1 S1                 0.0000
      4 ****        -2.4089  -0.0065   0.1161 O.3            1 S1                 0.0000
      5 ****        -1.2656  -0.0516  -0.6865 C.3            1 S1                 0.0000
      6 ****        -0.1386  -0.6579   0.1001 N.pl3          1 S1                 0.0000
      7 ****        -0.1280  -0.9532   1.4081 C.2            1 S1                 0.0000
      8 ****         0.9999  -1.4887   1.8428 N.2            1 S1                 0.0000
      9 ****         1.8020  -1.5522   0.7054 C.2            1 S1                 0.0000
     10 ****         1.1131  -1.0462  -0.3872 C.2            1 S1                 0.0000
     11 ****         1.3730  -0.8693  -1.7330 N.2            1 S1                 0.0000
     12 ****         2.6100  -0.8757  -2.1188 C.2            1 S1                 0.0000
     13 ****         3.7699  -1.1309  -1.4014 N.pl3          1 S1                 0.0000
     14 ****         3.9283  -2.2802  -0.5266 C.3            1 S1                 0.0000
     15 ****         3.1774  -2.1459   0.8041 C.3            1 S1                 0.0000
     16 ****         3.9207  -1.3205   1.6775 O.3            1 S1                 0.0000
     17 ****        -0.9196   1.3979  -1.0716 C.3            1 S1                 0.0000
     18 ****        -2.0740   2.2010  -0.4961 C.3            1 S1                 0.0000
     19 ****        -3.0704   2.4153  -1.4777 O.3            1 S1                 0.0000
     20 ****        -1.8848   1.4030   1.4888 H              1 S1                 0.0000
     21 ****        -1.4100  -0.7216  -1.5347 H              1 S1                 0.0000
     22 ****         3.1228  -3.1301   1.2704 H              1 S1                 0.0000
     23 ****        -1.7442   3.1726  -0.1271 H              1 S1                 0.0000
     24 ****        -5.0061   2.9039   2.0622 H              1 S1                 0.0000
     25 ****        -4.2698   0.7738   1.8770 H              1 S1                 0.0000
     26 ****        -4.7315   1.4447   0.3270 H              1 S1                 0.0000
     27 ****        -0.9668  -0.7757   2.0646 H              1 S1                 0.0000
     28 ****         2.8271  -0.6588  -3.1657 H              1 S1                 0.0000
     29 ****         4.6540  -0.8520  -1.8018 H              1 S1                 0.0000
     30 ****         3.5410  -3.1488  -1.0614 H              1 S1                 0.0000
     31 ****         4.9876  -2.4751  -0.3570 H              1 S1                 0.0000
     32 ****         3.4680  -1.2865   2.5067 H              1 S1                 0.0000
     33 ****         0.0199   1.6959  -0.6033 H              1 S1                 0.0000
     34 ****        -0.8117   1.4987  -2.1524 H              1 S1                 0.0000
     35 ****        -3.7864   2.8850  -1.0777 H              1 S1                 0.0000
     36 ****        -3.9175   3.5149   1.0760 LP             1 S1                 0.0000
     37 ****        -3.4798   2.8675   2.5098 LP             1 S1                 0.0000
     38 ****        -3.2102  -0.2447  -0.4326 LP             1 S1                 0.0000
     39 ****        -2.3137  -0.6591   0.8678 LP             1 S1                 0.0000
     40 ****         1.2251  -1.7805   2.7724 LP             1 S1                 0.0000
     41 ****         0.6293  -0.7403  -2.3889 LP             1 S1                 0.0000
     42 ****         3.9940  -0.4001   1.2935 LP             1 S1                 0.0000
     43 ****         4.8362  -1.7016   1.8067 LP             1 S1                 0.0000
     44 ****        -3.3958   1.5363  -1.8263 LP             1 S1                 0.0000
     45 ****        -2.6923   2.9533  -2.2310 LP             1 S1                 0.0000
@<TRIPOS>BOND
    1    1    2 1     
    2    1   24 1     
    3    2    3 1     
    4    2   25 1     
    5    2   26 1     
    6    3   20 1     
    7    3   18 1     
    8    3    4 1     
    9    4    5 1     
   10    5   21 1     
   11    5    6 1     
   12    5   17 1     
   13    6   10 1     
   14    6    7 1     
   15    7    8 2     
   16    7   27 1     
   17    8    9 1     
   18    9   15 1     
   19    9   10 2     
   20   10   11 1     
   21   11   12 2     
   22   12   13 1     
   23   12   28 1     
   24   13   14 1     
   25   13   29 1     
   26   14   15 1     
   27   14   30 1     
   28   14   31 1     
   29   15   22 1     
   30   15   16 1     
   31   16   32 1     
   32   17   18 1     
   33   17   33 1     
   34   17   34 1     
   35   18   23 1     
   36   18   19 1     
   37   19   35 1     
   38    1   36 1     
   39    1   37 1     
   40    4   38 1     
   41    4   39 1     
   42    8   40 1     
   43   11   41 1     
   44   16   42 1     
   45   16   43 1     
   46   19   44 1     
   47   19   45 1     
@<TRIPOS>SUBSTRUCTURE
      1 S1             1
@<TRIPOS>SET
LONE_PAIRS      STATIC     ATOMS    <user>   **** ""
10 36 37 38 39 40 41 42 43 44 45
DONOR_HYDROGENS      STATIC     ATOMS    <user>   **** ""
4 24 29 32 35
ATOM$BLUE        STATIC     ATOMS    COLORGROUP SYSTEM
10 36 37 38 39 40 41 42 43 44 45
ATOM$RED        STATIC     ATOMS    COLORGROUP SYSTEM
4 24 29 32 35
