#       Name:                AV-unprocessed.smi:1115
#       Creating user name   scv26
#       Creation time:       Fri Mar 27 03:35:12 2020


#       File generated by GOLD software.
#

@<TRIPOS>MOLECULE
AV-unprocessed.smi:1115
    56    57     1
SMALL
NO_CHARGES


@<TRIPOS>ATOM
      1 ****        -7.3868   2.8818  -0.1102 C.3            1 S1                 0.0000
      2 ****        -6.1042   3.1386  -0.7521 N.pl3          1 S1                 0.0000
      3 ****        -5.8947   4.3633  -1.5163 C.3            1 S1                 0.0000
      4 ****        -5.0414   2.2241  -0.5878 C.ar           1 S1                 0.0000
      5 ****        -5.1460   1.0444   0.1892 C.ar           1 S1                 0.0000
      6 ****        -4.0386   0.1793   0.3035 C.ar           1 S1                 0.0000
      7 ****        -2.8289   0.4950  -0.3495 C.ar           1 S1                 0.0000
      8 ****        -1.7470  -0.4174  -0.2141 N.am           1 S1                 0.0000
      9 ****        -0.4454  -0.2250  -0.4897 C.2            1 S1                 0.0000
     10 ****         0.0508   0.8297  -0.8841 O.2            1 S1                 0.0000
     11 ****         0.2687  -1.3358  -0.2570 N.am           1 S1                 0.0000
     12 ****         1.7108  -1.4769  -0.4569 C.3            1 S1                 0.0000
     13 ****         2.5339  -1.3864   0.8637 C.3            1 S1                 0.0000
     14 ****         2.2811  -0.0292   1.5680 C.3            1 S1                 0.0000
     15 ****         2.0541  -2.4779   1.8527 C.3            1 S1                 0.0000
     16 ****         4.0095  -1.5544   0.6023 N.4            1 S1                 1.0000
     17 ****         4.4225  -2.8709   0.0377 C.3            1 S1                 0.0000
     18 ****         5.9552  -2.9854  -0.0069 C.3            1 S1                 0.0000
     19 ****         6.4910  -1.9204  -0.7788 O.3            1 S1                 0.0000
     20 ****         6.1873  -0.6557  -0.2081 C.3            1 S1                 0.0000
     21 ****         4.6628  -0.4564  -0.1663 C.3            1 S1                 0.0000
     22 ****        -2.7768   1.6802  -1.1217 C.ar           1 S1                 0.0000
     23 ****        -3.8619   2.4797  -1.2049 N.pl3          1 S1                 1.0000
     24 ****        -7.7942   1.9237  -0.4346 H              1 S1                 0.0000
     25 ****        -8.1161   3.6530  -0.3594 H              1 S1                 0.0000
     26 ****        -7.2746   2.8653   0.9744 H              1 S1                 0.0000
     27 ****        -5.6323   4.1310  -2.5487 H              1 S1                 0.0000
     28 ****        -5.0903   4.9556  -1.0786 H              1 S1                 0.0000
     29 ****        -6.7931   4.9808  -1.5310 H              1 S1                 0.0000
     30 ****        -6.0602   0.7857   0.7019 H              1 S1                 0.0000
     31 ****        -4.1217  -0.7208   0.8952 H              1 S1                 0.0000
     32 ****        -1.9886  -1.3192   0.1701 H              1 S1                 0.0000
     33 ****        -0.2227  -2.1539   0.0727 H              1 S1                 0.0000
     34 ****         1.8542  -2.4484  -0.9283 H              1 S1                 0.0000
     35 ****         2.0558  -0.7417  -1.1842 H              1 S1                 0.0000
     36 ****         1.2692   0.0377   1.9687 H              1 S1                 0.0000
     37 ****         2.3932   0.8162   0.8892 H              1 S1                 0.0000
     38 ****         2.9636   0.1180   2.4059 H              1 S1                 0.0000
     39 ****         1.0456  -2.2777   2.2163 H              1 S1                 0.0000
     40 ****         2.7032  -2.5346   2.7274 H              1 S1                 0.0000
     41 ****         2.0186  -3.4666   1.3960 H              1 S1                 0.0000
     42 ****         4.0438  -3.6992   0.6331 H              1 S1                 0.0000
     43 ****         4.0275  -2.9909  -0.9712 H              1 S1                 0.0000
     44 ****         6.3777  -2.9738   0.9992 H              1 S1                 0.0000
     45 ****         6.2473  -3.9315  -0.4632 H              1 S1                 0.0000
     46 ****         6.6189  -0.5794   0.7913 H              1 S1                 0.0000
     47 ****         6.6502   0.1236  -0.8138 H              1 S1                 0.0000
     48 ****         4.2758  -0.4243  -1.1848 H              1 S1                 0.0000
     49 ****         4.4717   0.5168   0.2813 H              1 S1                 0.0000
     50 ****        -1.9231   2.0212  -1.6871 H              1 S1                 0.0000
     51 ****        -3.7889   3.3261  -1.7699 H              1 S1                 0.0000
     52 ****         4.4335  -1.5177   1.5184 H              1 S1                 0.0000
     53 ****        -0.5280   1.6332  -1.0236 LP             1 S1                 0.0000
     54 ****         1.0328   0.8834  -1.0650 LP             1 S1                 0.0000
     55 ****         6.1050  -1.9615  -1.7004 LP             1 S1                 0.0000
     56 ****         7.4844  -2.0237  -0.8286 LP             1 S1                 0.0000
@<TRIPOS>BOND
    1    1    2 1     
    2    1   24 1     
    3    1   25 1     
    4    1   26 1     
    5    2    3 1     
    6    2    4 1     
    7    3   27 1     
    8    3   28 1     
    9    3   29 1     
   10    4   23 ar    
   11    4    5 ar    
   12    5    6 ar    
   13    5   30 1     
   14    6    7 ar    
   15    6   31 1     
   16    7    8 1     
   17    7   22 ar    
   18    8    9 am    
   19    8   32 1     
   20    9   10 2     
   21    9   11 am    
   22   11   12 1     
   23   11   33 1     
   24   12   13 1     
   25   12   34 1     
   26   12   35 1     
   27   13   14 1     
   28   13   15 1     
   29   13   16 1     
   30   14   36 1     
   31   14   37 1     
   32   14   38 1     
   33   15   39 1     
   34   15   40 1     
   35   15   41 1     
   36   16   21 1     
   37   16   17 1     
   38   16   52 1     
   39   17   18 1     
   40   17   42 1     
   41   17   43 1     
   42   18   19 1     
   43   18   44 1     
   44   18   45 1     
   45   19   20 1     
   46   20   21 1     
   47   20   46 1     
   48   20   47 1     
   49   21   48 1     
   50   21   49 1     
   51   22   23 ar    
   52   22   50 1     
   53   23   51 1     
   54   10   53 1     
   55   10   54 1     
   56   19   55 1     
   57   19   56 1     
@<TRIPOS>SUBSTRUCTURE
      1 S1             1
@<TRIPOS>SET
LONE_PAIRS      STATIC     ATOMS    <user>   **** ""
4 53 54 55 56
DONOR_HYDROGENS      STATIC     ATOMS    <user>   **** ""
4 32 33 52 51
ATOM$BLUE        STATIC     ATOMS    COLORGROUP SYSTEM
4 53 54 55 56
ATOM$RED        STATIC     ATOMS    COLORGROUP SYSTEM
4 32 33 52 51
