AV-unprocessed.smi:2098|AV-procd|sdf|8567|dock7
  -GOLD-   2272011293D 1   1.00000     0.00000
 Structure written by MMmdl.
 37 39  0  0  0  0  0  0  0  0  2 V2000
  152.7770  139.6970  154.9656 O   0  0  0  0  0  0  0  0  0  0  0  0
  152.1362  138.9134  155.9531 C   0  0  2  0  0  0  0  0  0  0  0  0
  150.7246  138.5638  155.4559 C   0  0  0  0  0  0  0  0  0  0  0  0
  150.0939  137.7237  156.4136 O   0  0  0  0  0  0  0  0  0  0  0  0
  150.0161  136.3734  156.1470 C   0  0  0  0  0  0  0  0  0  0  0  0
  149.5962  135.5362  157.2018 C   0  0  0  0  0  0  0  0  0  0  0  0
  149.4857  134.1444  157.0177 C   0  0  0  0  0  0  0  0  0  0  0  0
  149.7971  133.5733  155.7702 C   0  0  0  0  0  0  0  0  0  0  0  0
  149.6916  132.2355  155.5910 F   0  0  0  0  0  0  0  0  0  0  0  0
  150.2182  134.3959  154.7092 C   0  0  0  0  0  0  0  0  0  0  0  0
  150.3278  135.7883  154.8932 C   0  0  0  0  0  0  0  0  0  0  0  0
  152.0967  139.6986  157.2793 C   0  0  0  0  0  0  0  0  0  0  0  0
  151.5561  141.0571  157.1258 N   0  0  0  0  0  0  0  0  0  0  0  0
  150.7368  141.5598  156.1629 C   0  0  0  0  0  0  0  0  0  0  0  0
  150.5205  142.8732  156.4500 N   0  3  0  0  0  0  0  0  0  0  0  0
  151.2104  143.2156  157.6148 C   0  0  0  0  0  0  0  0  0  0  0  0
  151.2987  144.4245  158.2983 C   0  0  0  0  0  0  0  0  0  0  0  0
  152.0896  144.4349  159.4660 C   0  0  0  0  0  0  0  0  0  0  0  0
  152.7540  143.2746  159.9136 C   0  0  0  0  0  0  0  0  0  0  0  0
  152.6588  142.0550  159.2115 C   0  0  0  0  0  0  0  0  0  0  0  0
  151.8767  142.0527  158.0567 C   0  0  0  0  0  0  0  0  0  0  0  0
  153.1432  139.1163  154.3156 H   0  0  0  0  0  0  0  0  0  0  0  0
  152.7085  137.9969  156.1029 H   0  0  0  0  0  0  0  0  0  0  0  0
  150.1396  139.4805  155.3652 H   0  0  0  0  0  0  0  0  0  0  0  0
  150.7651  138.0946  154.4711 H   0  0  0  0  0  0  0  0  0  0  0  0
  149.3551  135.9660  158.1630 H   0  0  0  0  0  0  0  0  0  0  0  0
  149.1615  133.5156  157.8338 H   0  0  0  0  0  0  0  0  0  0  0  0
  150.4573  133.9590  153.7510 H   0  0  0  0  0  0  0  0  0  0  0  0
  150.6526  136.3853  154.0549 H   0  0  0  0  0  0  0  0  0  0  0  0
  151.5265  139.1656  158.0406 H   0  0  0  0  0  0  0  0  0  0  0  0
  153.1073  139.8045  157.6761 H   0  0  0  0  0  0  0  0  0  0  0  0
  150.3324  141.0156  155.3217 H   0  0  0  0  0  0  0  0  0  0  0  0
  150.7892  145.3143  157.9586 H   0  0  0  0  0  0  0  0  0  0  0  0
  152.1868  145.3506  160.0311 H   0  0  0  0  0  0  0  0  0  0  0  0
  153.3483  143.3199  160.8146 H   0  0  0  0  0  0  0  0  0  0  0  0
  153.1673  141.1711  159.5672 H   0  0  0  0  0  0  0  0  0  0  0  0
  149.9439  143.4881  155.8903 H   0  0  0  0  0  0  0  0  0  0  0  0
  1  2  1  0  0  0  0
  1 22  1  0  0  0  0
  2  3  1  0  0  0  0
  2 12  1  0  0  0  0
  2 23  1  0  0  0  0
  3  4  1  0  0  0  0
  3 24  1  0  0  0  0
  3 25  1  0  0  0  0
  4  5  1  0  0  0  0
  5 11  1  0  0  0  0
  5  6  2  0  0  0  0
  6  7  1  0  0  0  0
  6 26  1  0  0  0  0
  7  8  2  0  0  0  0
  7 27  1  0  0  0  0
  8  9  1  0  0  0  0
  8 10  1  0  0  0  0
 10 11  2  0  0  0  0
 10 28  1  0  0  0  0
 11 29  1  0  0  0  0
 12 13  1  0  0  0  0
 12 30  1  0  0  0  0
 12 31  1  0  0  0  0
 13 21  1  0  0  0  0
 13 14  1  0  0  0  0
 14 15  2  0  0  0  0
 14 32  1  0  0  0  0
 15 16  1  0  0  0  0
 15 37  1  0  0  0  0
 16 21  2  0  0  0  0
 16 17  1  0  0  0  0
 17 18  2  0  0  0  0
 17 33  1  0  0  0  0
 18 19  1  0  0  0  0
 18 34  1  0  0  0  0
 19 20  2  0  0  0  0
 19 35  1  0  0  0  0
 20 21  1  0  0  0  0
 20 36  1  0  0  0  0
M  CHG  1  15   1
M  END
> <s_m_source_file>
AV-unprocessed.smi

> <i_m_source_file_index>
2098

> <i_lp_mmshare_version>
43012

> <i_f3d_flags>
0

> <s_epik_input>
W2NIXTFbY0hdW2NIXVtjSF1jKGMxMiluKFtjSF1uMilbQ0gyXVtDQEhdKFtPSF0pW0NIMl1PYzNbY0hdW2NIXWMoRilbY0hdW2NIXTM=

> <s_epik_cmdline>
J2VwaWtfcHl0aG9uJywgJy1waCcsICc3LjAnLCAnLXRuJywgJzgnLCAnLW1hJywgJzIwMCcsICctbWV0YWxfYmluZGluZycsICctaW1hZScsICc8aW5maWxlLm1hZT4nLCAnLW9tYWUnLCAnPG91dGZpbGUubWFlPic=

> <r_lp_tautomer_probability>
1

> <r_epik_Ionization_Penalty>
1.3832

> <r_epik_Ionization_Penalty_Charging>
1.38319

> <r_epik_Ionization_Penalty_Neutral>
2.3993e-06

> <r_epik_State_Penalty>
1.46389

> <r_epik_Charging_Adjusted_Penalty>
2.84709

> <i_epik_Tot_Q>
1

> <i_epik_Tot_abs_Q>
1

> <r_epik_Metal_State_Penalty>
5.50438

> <b_epik_Metal_Only>
0

> <s_lp_Force_Field>
OPLS_2005

> <r_lp_Energy>
20.4389

> <b_lp_Chiralities_Consistent>
1

> <s_lp_Variant>
AV-unprocessed.smi:2098-3

> <Gold.Version>
5.8.1

> <Gold.Id.Protein>
6NUR|6NUR_protein|mol2

> <Gold.PLP.Fitness>
49.8439

> <Gold.PLP.PLP>
-41.7040

> <Gold.PLP.part.hbond>
-3.0000

> <Gold.PLP.part.metal>
0.0000

> <Gold.PLP.part.buried>
-5.9335

> <Gold.PLP.part.nonpolar>
-33.5127

> <Gold.PLP.part.repulsive>
0.0865

> <Gold.PLP.ligand.clash>
0.0000

> <Gold.PLP.ligand.torsion>
0.7780

> <Gold.PLP.Chemscore.Hbond>
3.2257

> <Gold.PLP.Chemscore.CHOScore>
0.0000

> <Gold.PLP.Chemscore.Metal>
0.0000

> <Gold.Chemscore.Hbonds>
donor molecule, donor type, donor heavy atom, donor atom, acceptor molecule, acceptor atom, score
      L1  H    15    37       P1  8028  2.00
      P1  H  7989  7998       L1     1  0.22
      P1  H  7997  8010       L1     1  0.95

> <Gold.PLP.Chemscore.Internal.Correction>
0.0188

> <Gold.Rescore>
     Score         DG    S(hbond)    S(metal)    S(lipo)     H(rot)  DE(clash)    DE(int)     intcor
     16.49     -18.22       1.87        0.00     109.36       2.46       0.01       1.73       ----

> <Gold.Chemscore.Fitness>
16.4885

> <Gold.Chemscore.DG>
-18.2247

> <Gold.Chemscore.ZeroCoef>
-5.4800

> <Gold.Chemscore.Hbond>
1.8693

> <Gold.Chemscore.Metal>
0.0000

> <Gold.Chemscore.Lipo>
109.3588

> <Gold.Chemscore.Internal_Hbond>
0.0000

> <Gold.Chemscore.DEClash>
0.0081

> <Gold.Chemscore.DEInternal>
1.7281

> <Gold.Chemscore.Rot>
2.4584

> <Gold.Chemscore.Internal.Correction>
   9.000000E+99

> <Gold.Chemscore.Hbonds>
donor molecule, donor type, donor heavy atom, donor atom, acceptor molecule, acceptor atom, score
      L1  H    15    37       P1  8028  0.98
      P1  H  7989  7998       L1     1  0.02
      P1  H  7997  8010       L1     1  0.06

> <Gold.Chemscore.Hbond.Weighted>
-6.2433

> <Gold.Chemscore.Metal.Weighted>
-0.0000

> <Gold.Chemscore.Lipo.Weighted>
-12.7950

> <Gold.Chemscore.Internal_Hbond.Weighted>
0.0000

> <Gold.Chemscore.DEClash.Weighted>
0.0081

> <Gold.Chemscore.DEInternal.Weighted>
1.7281

> <Gold.Chemscore.Rot.Weighted>
6.2936

> <Gold.Chemscore.Internal.Correction.Weighted>
   9.000000E+99

> <Gold.Protein.RotatedTorsions>
[ 6907 6896 6895 6894 ] final   69.98 input  -60.11 | X-H torsion
[ 7974 7965 7964 7962 ] final  127.16 input  175.53 | X-H torsion
[ 8008 7997 7996 7995 ] final  103.89 input   59.86 | X-H torsion
[ 10167 10162 10161 10158 ] final   26.31 input  -65.29 | X-H torsion
[ 10718 10713 10712 10709 ] final  116.99 input   66.30 | X-H torsion
[ 10763 10752 10751 10750 ] final  139.19 input  -60.55 | X-H torsion
[ 11005 11000 10999 10996 ] final   80.73 input  -57.11 | X-H torsion

> <Gold.Protein.ActiveResidues>
 VAL166  LYS551  ARG553  GLY616  TRP617  ASP618  TYR619  PRO620  LYS621  CYS622 
 ASP623  PHE694  ASN695  SER759  ASP760  ASP761  ALA762  ILE779  LEU786  VAL792 
 PHE793  MET794  SER795  GLU796  ALA797  LYS798  CYS799  TRP800  GLU811  SER814 

> <Gold.Protein.RotatedAtoms>
  152.4720  134.4936  159.9702 H   0  0  0  0  0  0  0  0  0  0  0  0  # atno 6907 bound_to 6896
  151.4960  133.3508  159.2869 H   0  0  0  0  0  0  0  0  0  0  0  0  # atno 6908 bound_to 6896
  150.8736  134.8142  159.7235 H   0  0  0  0  0  0  0  0  0  0  0  0  # atno 6909 bound_to 6896
  145.0537  139.3862  143.5041 H   0  0  0  0  0  0  0  0  0  0  0  0  # atno 7974 bound_to 7965
  156.1525  140.3157  155.8671 H   0  0  0  0  0  0  0  0  0  0  0  0  # atno 8008 bound_to 7997
  155.3944  140.0495  157.3056 H   0  0  0  0  0  0  0  0  0  0  0  0  # atno 8009 bound_to 7997
  154.5071  140.2151  155.9241 H   0  0  0  0  0  0  0  0  0  0  0  0  # atno 8010 bound_to 7997
  140.5034  144.0279  150.6342 H   0  0  0  0  0  0  0  0  0  0  0  0  # atno 10167 bound_to 10162
  157.6125  131.1032  150.7552 H   0  0  0  0  0  0  0  0  0  0  0  0  # atno 10718 bound_to 10713
  153.9021  135.3021  155.3448 H   0  0  0  0  0  0  0  0  0  0  0  0  # atno 10763 bound_to 10752
  154.7665  135.4908  153.9568 H   0  0  0  0  0  0  0  0  0  0  0  0  # atno 10764 bound_to 10752
  153.1239  135.6788  153.9390 H   0  0  0  0  0  0  0  0  0  0  0  0  # atno 10765 bound_to 10752
  139.9124  134.7943  156.1948 H   0  0  0  0  0  0  0  0  0  0  0  0  # atno 11005 bound_to 11000
  146.3520  140.0200  142.8659 LP  0  0  0  0  0  0  0  0  0  0  0  0  # atno 17320 bound_to 7965
  145.1495  140.9615  143.4441 LP  0  0  0  0  0  0  0  0  0  0  0  0  # atno 17321 bound_to 7965
  140.3581  143.2924  152.0414 LP  0  0  0  0  0  0  0  0  0  0  0  0  # atno 17342 bound_to 10162
  139.4877  144.6324  151.7044 LP  0  0  0  0  0  0  0  0  0  0  0  0  # atno 17343 bound_to 10162
  156.7926  130.4895  149.5382 LP  0  0  0  0  0  0  0  0  0  0  0  0  # atno 17370 bound_to 10713
  156.1233  130.6126  151.0227 LP  0  0  0  0  0  0  0  0  0  0  0  0  # atno 17371 bound_to 10713
  141.0561  133.6864  156.1864 LP  0  0  0  0  0  0  0  0  0  0  0  0  # atno 17394 bound_to 11000
  140.6734  134.4844  157.5588 LP  0  0  0  0  0  0  0  0  0  0  0  0  # atno 17395 bound_to 11000

$$$$
