AV-unprocessed.smi:1095|AV-procd|sdf|4748|dock8
  -GOLD-   22720 3283D 1   1.00000     0.00000
 Structure written by MMmdl.
 50 51  0  0  0  0  0  0  0  0  1 V2000
  153.6672  140.7663  160.9995 C   0  0  0  0  0  0  0  0  0  0  0  0
  153.0451  142.0415  161.5849 C   0  0  0  0  0  0  0  0  0  0  0  0
  152.4696  143.0049  160.5269 C   0  0  2  0  0  0  0  0  0  0  0  0
  151.0470  142.6081  160.0771 C   0  0  0  0  0  0  0  0  0  0  0  0
  150.5008  143.5585  158.9965 C   0  0  0  0  0  0  0  0  0  0  0  0
  151.4312  143.6633  157.7720 C   0  0  2  0  0  0  0  0  0  0  0  0
  151.3834  142.3909  156.8937 C   0  0  0  0  0  0  0  0  0  0  0  0
  150.2942  142.4325  155.9238 N   0  0  0  0  0  0  0  0  0  0  0  0
  150.0566  141.4986  154.9900 C   0  0  0  0  0  0  0  0  0  0  0  0
  150.7677  140.5067  154.8272 O   0  0  0  0  0  0  0  0  0  0  0  0
  148.8218  141.7100  154.1120 C   0  0  0  0  0  0  0  0  0  0  0  0
  147.7351  140.7423  154.5107 C   0  0  0  0  0  0  0  0  0  0  0  0
  147.1263  140.5942  155.7927 C   0  0  0  0  0  0  0  0  0  0  0  0
  147.4141  141.3458  157.0606 C   0  0  0  0  0  0  0  0  0  0  0  0
  146.2010  139.6497  155.8061 N   0  0  0  0  0  0  0  0  0  0  0  0
  146.1856  139.1639  154.5489 N   0  0  0  0  0  0  0  0  0  0  0  0
  145.2658  138.0944  154.2128 C   0  0  0  0  0  0  0  0  0  0  0  0
  147.1076  139.7998  153.7401 C   0  0  0  0  0  0  0  0  0  0  0  0
  147.2936  139.4355  152.3020 C   0  0  0  0  0  0  0  0  0  0  0  0
  152.8549  144.0489  158.2302 C   0  0  0  0  0  0  0  0  0  0  0  0
  153.4050  143.0954  159.3045 C   0  0  0  0  0  0  0  0  0  0  0  0
  153.9868  140.0942  161.7960 H   0  0  0  0  0  0  0  0  0  0  0  0
  154.5432  140.9868  160.3900 H   0  0  0  0  0  0  0  0  0  0  0  0
  152.9509  140.2267  160.3793 H   0  0  0  0  0  0  0  0  0  0  0  0
  152.2467  141.7435  162.2657 H   0  0  0  0  0  0  0  0  0  0  0  0
  153.7836  142.5603  162.1973 H   0  0  0  0  0  0  0  0  0  0  0  0
  152.4179  143.9992  160.9734 H   0  0  0  0  0  0  0  0  0  0  0  0
  151.0474  141.5838  159.7033 H   0  0  0  0  0  0  0  0  0  0  0  0
  150.3649  142.6203  160.9269 H   0  0  0  0  0  0  0  0  0  0  0  0
  149.5052  143.2386  158.6874 H   0  0  0  0  0  0  0  0  0  0  0  0
  150.3746  144.5504  159.4324 H   0  0  0  0  0  0  0  0  0  0  0  0
  151.0550  144.4829  157.1578 H   0  0  0  0  0  0  0  0  0  0  0  0
  152.3149  142.2646  156.3431 H   0  0  0  0  0  0  0  0  0  0  0  0
  151.2848  141.5035  157.5212 H   0  0  0  0  0  0  0  0  0  0  0  0
  149.6598  143.2155  155.9841 H   0  0  0  0  0  0  0  0  0  0  0  0
  148.4771  142.7416  154.1944 H   0  0  0  0  0  0  0  0  0  0  0  0
  149.1154  141.5782  153.0706 H   0  0  0  0  0  0  0  0  0  0  0  0
  147.9914  140.7322  157.7524 H   0  0  0  0  0  0  0  0  0  0  0  0
  146.4931  141.6396  157.5646 H   0  0  0  0  0  0  0  0  0  0  0  0
  147.9863  142.2526  156.8666 H   0  0  0  0  0  0  0  0  0  0  0  0
  144.7348  138.3406  153.2931 H   0  0  0  0  0  0  0  0  0  0  0  0
  144.5358  137.9497  155.0103 H   0  0  0  0  0  0  0  0  0  0  0  0
  145.8207  137.1675  154.0679 H   0  0  0  0  0  0  0  0  0  0  0  0
  148.2494  139.7978  151.9235 H   0  0  0  0  0  0  0  0  0  0  0  0
  146.5023  139.8679  151.6897 H   0  0  0  0  0  0  0  0  0  0  0  0
  147.2760  138.3541  152.1651 H   0  0  0  0  0  0  0  0  0  0  0  0
  153.5389  144.0863  157.3831 H   0  0  0  0  0  0  0  0  0  0  0  0
  152.8336  145.0607  158.6369 H   0  0  0  0  0  0  0  0  0  0  0  0
  154.3906  143.4414  159.6178 H   0  0  0  0  0  0  0  0  0  0  0  0
  153.5553  142.1036  158.8768 H   0  0  0  0  0  0  0  0  0  0  0  0
  1  2  1  0  0  0  0
  1 22  1  0  0  0  0
  1 23  1  0  0  0  0
  1 24  1  0  0  0  0
  2  3  1  0  0  0  0
  2 25  1  0  0  0  0
  2 26  1  0  0  0  0
  3 21  1  0  0  0  0
  3  4  1  0  0  0  0
  3 27  1  0  0  0  0
  4  5  1  0  0  0  0
  4 28  1  0  0  0  0
  4 29  1  0  0  0  0
  5  6  1  0  0  0  0
  5 30  1  0  0  0  0
  5 31  1  0  0  0  0
  6  7  1  0  0  0  0
  6 20  1  0  0  0  0
  6 32  1  0  0  0  0
  7  8  1  0  0  0  0
  7 33  1  0  0  0  0
  7 34  1  0  0  0  0
  8  9  1  0  0  0  0
  8 35  1  0  0  0  0
  9 10  2  0  0  0  0
  9 11  1  0  0  0  0
 11 12  1  0  0  0  0
 11 36  1  0  0  0  0
 11 37  1  0  0  0  0
 12 18  2  0  0  0  0
 12 13  1  0  0  0  0
 13 14  1  0  0  0  0
 13 15  2  0  0  0  0
 14 38  1  0  0  0  0
 14 39  1  0  0  0  0
 14 40  1  0  0  0  0
 15 16  1  0  0  0  0
 16 17  1  0  0  0  0
 16 18  1  0  0  0  0
 17 41  1  0  0  0  0
 17 42  1  0  0  0  0
 17 43  1  0  0  0  0
 18 19  1  0  0  0  0
 19 44  1  0  0  0  0
 19 45  1  0  0  0  0
 19 46  1  0  0  0  0
 20 21  1  0  0  0  0
 20 47  1  0  0  0  0
 20 48  1  0  0  0  0
 21 49  1  0  0  0  0
 21 50  1  0  0  0  0
M  END
> <s_m_source_file>
AV-unprocessed.smi

> <i_m_source_file_index>
1095

> <i_lp_mmshare_version>
43012

> <i_f3d_flags>
0

> <s_epik_input>
W0NIM11bQ0gyXVtDQEBIXTFbQ0gyXVtDSDJdW0NASF0oW0NIMl1bQ0gyXTEpW0NIMl1bTkhdQyg9TylbQ0gyXWMyYyhbQ0gzXSlubihbQ0gzXSljMltDSDNd

> <s_epik_cmdline>
J2VwaWtfcHl0aG9uJywgJy1waCcsICc3LjAnLCAnLXRuJywgJzgnLCAnLW1hJywgJzIwMCcsICctbWV0YWxfYmluZGluZycsICctaW1hZScsICc8aW5maWxlLm1hZT4nLCAnLW9tYWUnLCAnPG91dGZpbGUubWFlPic=

> <r_lp_tautomer_probability>
1

> <r_epik_Ionization_Penalty>
0.00317479

> <r_epik_Ionization_Penalty_Charging>
0

> <r_epik_Ionization_Penalty_Neutral>
0.00317479

> <r_epik_State_Penalty>
0.00223767

> <r_epik_Charging_Adjusted_Penalty>
0.00223767

> <i_epik_Tot_Q>
0

> <i_epik_Tot_abs_Q>
0

> <r_epik_Metal_State_Penalty>
-0

> <b_epik_Metal_Only>
0

> <s_lp_Force_Field>
OPLS_2005

> <r_lp_Energy>
8.21356

> <b_lp_Chiralities_Consistent>
1

> <s_lp_Variant>
AV-unprocessed.smi:1095-2

> <Gold.Version>
5.8.1

> <Gold.Id.Protein>
6NUR|6NUR_protein|mol2

> <Gold.PLP.Fitness>
44.6155

> <Gold.PLP.PLP>
-40.0542

> <Gold.PLP.part.hbond>
-1.9800

> <Gold.PLP.part.metal>
0.0000

> <Gold.PLP.part.buried>
-2.5932

> <Gold.PLP.part.nonpolar>
-35.3090

> <Gold.PLP.part.repulsive>
0.2198

> <Gold.PLP.ligand.clash>
0.0000

> <Gold.PLP.ligand.torsion>
0.7127

> <Gold.PLP.Chemscore.Hbond>
1.9833

> <Gold.PLP.Chemscore.CHOScore>
0.0000

> <Gold.PLP.Chemscore.Metal>
0.0000

> <Gold.Chemscore.Hbonds>
donor molecule, donor type, donor heavy atom, donor atom, acceptor molecule, acceptor atom, score
      L1  H     8    35       P1  8028  1.00
      P1  H  7989  7998       L1    10  1.00

> <Gold.PLP.Chemscore.Internal.Correction>
0.0368

> <Gold.Rescore>
     Score         DG    S(hbond)    S(metal)    S(lipo)     H(rot)  DE(clash)    DE(int)     intcor
     19.42     -20.07       0.95        0.00     128.83       1.43       0.23       0.41       ----

> <Gold.Chemscore.Fitness>
19.4250

> <Gold.Chemscore.DG>
-20.0669

> <Gold.Chemscore.ZeroCoef>
-5.4800

> <Gold.Chemscore.Hbond>
0.9531

> <Gold.Chemscore.Metal>
0.0000

> <Gold.Chemscore.Lipo>
128.8325

> <Gold.Chemscore.Internal_Hbond>
0.0000

> <Gold.Chemscore.DEClash>
0.2332

> <Gold.Chemscore.DEInternal>
0.4087

> <Gold.Chemscore.Rot>
1.4336

> <Gold.Chemscore.Internal.Correction>
   9.000000E+99

> <Gold.Chemscore.Hbonds>
donor molecule, donor type, donor heavy atom, donor atom, acceptor molecule, acceptor atom, score
      L1  H     8    35       P1  8028  1.00
      P1  H  7989  7998       L1    10  0.38

> <Gold.Chemscore.Hbond.Weighted>
-3.1835

> <Gold.Chemscore.Metal.Weighted>
-0.0000

> <Gold.Chemscore.Lipo.Weighted>
-15.0734

> <Gold.Chemscore.Internal_Hbond.Weighted>
0.0000

> <Gold.Chemscore.DEClash.Weighted>
0.2332

> <Gold.Chemscore.DEInternal.Weighted>
0.4087

> <Gold.Chemscore.Rot.Weighted>
3.6700

> <Gold.Chemscore.Internal.Correction.Weighted>
   9.000000E+99

> <Gold.Protein.RotatedTorsions>
[ 6907 6896 6895 6894 ] final   -4.10 input  -60.11 | X-H torsion
[ 7974 7965 7964 7962 ] final   51.24 input  175.53 | X-H torsion
[ 8008 7997 7996 7995 ] final  154.29 input   59.86 | X-H torsion
[ 10167 10162 10161 10158 ] final -126.86 input  -65.29 | X-H torsion
[ 10718 10713 10712 10709 ] final   32.46 input   66.30 | X-H torsion
[ 10763 10752 10751 10750 ] final  150.26 input  -60.55 | X-H torsion
[ 11005 11000 10999 10996 ] final  -32.60 input  -57.11 | X-H torsion

> <Gold.Protein.ActiveResidues>
 VAL166  LYS551  ARG553  GLY616  TRP617  ASP618  TYR619  PRO620  LYS621  CYS622 
 ASP623  PHE694  ASN695  SER759  ASP760  ASP761  ALA762  ILE779  LEU786  VAL792 
 PHE793  MET794  SER795  GLU796  ALA797  LYS798  CYS799  TRP800  GLU811  SER814 

> <Gold.Protein.RotatedAtoms>
  151.5032  135.1062  159.9834 H   0  0  0  0  0  0  0  0  0  0  0  0  # atno 6907 bound_to 6896
  152.4693  133.7989  159.6953 H   0  0  0  0  0  0  0  0  0  0  0  0  # atno 6908 bound_to 6896
  150.8693  133.7465  159.2992 H   0  0  0  0  0  0  0  0  0  0  0  0  # atno 6909 bound_to 6896
  145.9933  139.4361  143.0060 H   0  0  0  0  0  0  0  0  0  0  0  0  # atno 7974 bound_to 7965
  156.2539  140.1970  156.6623 H   0  0  0  0  0  0  0  0  0  0  0  0  # atno 8008 bound_to 7997
  154.6455  140.0578  156.9921 H   0  0  0  0  0  0  0  0  0  0  0  0  # atno 8009 bound_to 7997
  155.1497  140.3250  155.4436 H   0  0  0  0  0  0  0  0  0  0  0  0  # atno 8010 bound_to 7997
  139.9669  143.5888  152.2426 H   0  0  0  0  0  0  0  0  0  0  0  0  # atno 10167 bound_to 10162
  157.2855  130.7276  149.6580 H   0  0  0  0  0  0  0  0  0  0  0  0  # atno 10718 bound_to 10713
  154.0846  135.2857  155.3284 H   0  0  0  0  0  0  0  0  0  0  0  0  # atno 10763 bound_to 10752
  154.6661  135.5317  153.8082 H   0  0  0  0  0  0  0  0  0  0  0  0  # atno 10764 bound_to 10752
  153.0436  135.6546  154.1018 H   0  0  0  0  0  0  0  0  0  0  0  0  # atno 10765 bound_to 10752
  140.9566  133.7189  156.1302 H   0  0  0  0  0  0  0  0  0  0  0  0  # atno 11005 bound_to 11000
  145.7598  140.9940  143.1206 LP  0  0  0  0  0  0  0  0  0  0  0  0  # atno 17320 bound_to 7965
  144.6895  139.9316  143.7472 LP  0  0  0  0  0  0  0  0  0  0  0  0  # atno 17321 bound_to 7965
  139.6510  144.7660  151.2147 LP  0  0  0  0  0  0  0  0  0  0  0  0  # atno 17342 bound_to 10162
  140.7535  143.6160  150.8559 LP  0  0  0  0  0  0  0  0  0  0  0  0  # atno 17343 bound_to 10162
  155.9665  130.4325  150.4966 LP  0  0  0  0  0  0  0  0  0  0  0  0  # atno 17370 bound_to 10713
  157.2918  131.0628  151.2128 LP  0  0  0  0  0  0  0  0  0  0  0  0  # atno 17371 bound_to 10713
  140.7528  134.4026  157.5538 LP  0  0  0  0  0  0  0  0  0  0  0  0  # atno 17394 bound_to 11000
  139.8864  134.8911  156.2587 LP  0  0  0  0  0  0  0  0  0  0  0  0  # atno 17395 bound_to 11000

$$$$
