AV-unprocessed.smi:2060|AV-procd|sdf|8357|dock1
  -GOLD-   2272011 23D 1   1.00000     0.00000
 Structure written by MMmdl.
 46 47  0  0  0  0  0  0  0  0  2 V2000
  147.0962  140.2319  153.0124 C   0  0  0  0  0  0  0  0  0  0  0  0
  146.7787  138.8595  152.3915 C   0  0  0  0  0  0  0  0  0  0  0  0
  146.4983  137.7081  153.4059 C   0  0  2  0  0  0  0  0  0  0  0  0
  145.1502  138.0278  154.1044 C   0  0  0  0  0  0  0  0  0  0  0  0
  147.6430  137.6723  154.4666 C   0  0  0  0  0  0  0  0  0  0  0  0
  147.2605  137.0365  155.7273 N   0  0  0  0  0  0  0  0  0  0  0  0
  147.7512  137.3437  156.9372 C   0  0  0  0  0  0  0  0  0  0  0  0
  148.6112  138.2049  157.1235 O   0  0  0  0  0  0  0  0  0  0  0  0
  147.1868  136.5923  157.8976 N   0  0  0  0  0  0  0  0  0  0  0  0
  147.4594  136.6207  159.2889 C   0  0  0  0  0  0  0  0  0  0  0  0
  146.9920  135.5873  160.1436 C   0  0  0  0  0  0  0  0  0  0  0  0
  147.4512  135.9725  161.3716 C   0  0  0  0  0  0  0  0  0  0  0  0
  147.3378  135.3707  162.7305 C   0  0  0  0  0  0  0  0  0  0  0  0
  148.1434  137.1400  161.2738 O   0  0  0  0  0  0  0  0  0  0  0  0
  148.1452  137.5509  159.9356 N   0  0  0  0  0  0  0  0  0  0  0  0
  146.4011  136.3865  152.6838 N   0  3  0  0  0  0  0  0  0  0  0  0
  146.2872  135.1776  153.5489 C   0  0  0  0  0  0  0  0  0  0  0  0
  146.4061  133.8981  152.7051 C   0  0  0  0  0  0  0  0  0  0  0  0
  145.3963  133.8917  151.7060 O   0  0  0  0  0  0  0  0  0  0  0  0
  145.5320  134.9897  150.8151 C   0  0  0  0  0  0  0  0  0  0  0  0
  145.3907  136.3107  151.5901 C   0  0  0  0  0  0  0  0  0  0  0  0
  147.2780  140.9689  152.2301 H   0  0  0  0  0  0  0  0  0  0  0  0
  147.9888  140.1985  153.6364 H   0  0  0  0  0  0  0  0  0  0  0  0
  146.2725  140.6044  153.6213 H   0  0  0  0  0  0  0  0  0  0  0  0
  145.9451  138.9694  151.6983 H   0  0  0  0  0  0  0  0  0  0  0  0
  147.6218  138.5870  151.7556 H   0  0  0  0  0  0  0  0  0  0  0  0
  145.1001  139.0667  154.4317 H   0  0  0  0  0  0  0  0  0  0  0  0
  144.9966  137.4198  154.9961 H   0  0  0  0  0  0  0  0  0  0  0  0
  144.3004  137.8598  153.4425 H   0  0  0  0  0  0  0  0  0  0  0  0
  148.5328  137.1856  154.0665 H   0  0  0  0  0  0  0  0  0  0  0  0
  147.9524  138.6838  154.7271 H   0  0  0  0  0  0  0  0  0  0  0  0
  146.5580  136.3135  155.6734 H   0  0  0  0  0  0  0  0  0  0  0  0
  146.4859  135.9282  157.6036 H   0  0  0  0  0  0  0  0  0  0  0  0
  146.4144  134.7080  159.8998 H   0  0  0  0  0  0  0  0  0  0  0  0
  146.4687  134.7158  162.7940 H   0  0  0  0  0  0  0  0  0  0  0  0
  147.2330  136.1441  163.4918 H   0  0  0  0  0  0  0  0  0  0  0  0
  148.2239  134.7811  162.9660 H   0  0  0  0  0  0  0  0  0  0  0  0
  147.0666  135.1515  154.3075 H   0  0  0  0  0  0  0  0  0  0  0  0
  145.3299  135.1729  154.0704 H   0  0  0  0  0  0  0  0  0  0  0  0
  147.3937  133.8223  152.2470 H   0  0  0  0  0  0  0  0  0  0  0  0
  146.2802  133.0191  153.3376 H   0  0  0  0  0  0  0  0  0  0  0  0
  146.4933  134.9411  150.3009 H   0  0  0  0  0  0  0  0  0  0  0  0
  144.7587  134.9196  150.0499 H   0  0  0  0  0  0  0  0  0  0  0  0
  144.3831  136.3841  151.9999 H   0  0  0  0  0  0  0  0  0  0  0  0
  145.5071  137.1229  150.8754 H   0  0  0  0  0  0  0  0  0  0  0  0
  147.2925  136.2927  152.2181 H   0  0  0  0  0  0  0  0  0  0  0  0
  1  2  1  0  0  0  0
  1 22  1  0  0  0  0
  1 23  1  0  0  0  0
  1 24  1  0  0  0  0
  2  3  1  0  0  0  0
  2 25  1  0  0  0  0
  2 26  1  0  0  0  0
  3  4  1  0  0  0  0
  3  5  1  0  0  0  0
  3 16  1  0  0  0  0
  4 27  1  0  0  0  0
  4 28  1  0  0  0  0
  4 29  1  0  0  0  0
  5  6  1  0  0  0  0
  5 30  1  0  0  0  0
  5 31  1  0  0  0  0
  6  7  1  0  0  0  0
  6 32  1  0  0  0  0
  7  8  2  0  0  0  0
  7  9  1  0  0  0  0
  9 10  1  0  0  0  0
  9 33  1  0  0  0  0
 10 15  2  0  0  0  0
 10 11  1  0  0  0  0
 11 12  2  0  0  0  0
 11 34  1  0  0  0  0
 12 13  1  0  0  0  0
 12 14  1  0  0  0  0
 13 35  1  0  0  0  0
 13 36  1  0  0  0  0
 13 37  1  0  0  0  0
 14 15  1  0  0  0  0
 16 21  1  0  0  0  0
 16 17  1  0  0  0  0
 16 46  1  0  0  0  0
 17 18  1  0  0  0  0
 17 38  1  0  0  0  0
 17 39  1  0  0  0  0
 18 19  1  0  0  0  0
 18 40  1  0  0  0  0
 18 41  1  0  0  0  0
 19 20  1  0  0  0  0
 20 21  1  0  0  0  0
 20 42  1  0  0  0  0
 20 43  1  0  0  0  0
 21 44  1  0  0  0  0
 21 45  1  0  0  0  0
M  CHG  1  16   1
M  END
> <s_m_source_file>
AV-unprocessed.smi

> <i_m_source_file_index>
2060

> <i_lp_mmshare_version>
43012

> <i_f3d_flags>
0

> <s_epik_input>
W0NIMl0xW0NIMl1PW0NIMl1bQ0gyXU4xW0NAQF0oW0NIM10pKFtDSDJdW0NIM10pW0NIMl1bTkhdQyg9TylbTkhdYzJbY0hdYyhbQ0gzXSlvbjI=

> <s_epik_cmdline>
J2VwaWtfcHl0aG9uJywgJy1waCcsICc3LjAnLCAnLXRuJywgJzgnLCAnLW1hJywgJzIwMCcsICctbWV0YWxfYmluZGluZycsICctaW1hZScsICc8aW5maWxlLm1hZT4nLCAnLW9tYWUnLCAnPG91dGZpbGUubWFlPic=

> <r_epik_Ionization_Penalty>
0.563843

> <r_epik_Ionization_Penalty_Charging>
0.563819

> <r_epik_Ionization_Penalty_Neutral>
2.4442e-05

> <r_epik_State_Penalty>
0.575199

> <r_epik_Charging_Adjusted_Penalty>
1.13902

> <i_epik_Tot_Q>
1

> <i_epik_Tot_abs_Q>
1

> <r_epik_Metal_State_Penalty>
0.577669

> <b_epik_Metal_Only>
0

> <s_lp_Force_Field>
OPLS_2005

> <r_lp_Energy>
25.7644

> <b_lp_Chiralities_Consistent>
1

> <s_lp_Variant>
AV-unprocessed.smi:2060-4

> <Gold.Version>
5.8.1

> <Gold.Id.Protein>
6NUR|6NUR_protein|mol2

> <Gold.PLP.Fitness>
36.8773

> <Gold.PLP.PLP>
-28.9501

> <Gold.PLP.part.hbond>
-5.0000

> <Gold.PLP.part.metal>
0.0000

> <Gold.PLP.part.buried>
-0.2008

> <Gold.PLP.part.nonpolar>
-22.9267

> <Gold.PLP.part.repulsive>
0.1341

> <Gold.PLP.ligand.clash>
0.0000

> <Gold.PLP.ligand.torsion>
0.6589

> <Gold.PLP.Chemscore.Hbond>
3.0000

> <Gold.PLP.Chemscore.CHOScore>
0.0000

> <Gold.PLP.Chemscore.Metal>
0.0000

> <Gold.Chemscore.Hbonds>
donor molecule, donor type, donor heavy atom, donor atom, acceptor molecule, acceptor atom, score
      L1  H    16    46       P1  7948  2.00
      P1  H  6931  6943       L1    14  1.00

> <Gold.PLP.Chemscore.Internal.Correction>
0.2450

> <Gold.Rescore>
     Score         DG    S(hbond)    S(metal)    S(lipo)     H(rot)  DE(clash)    DE(int)     intcor
     11.47     -14.45       1.78        0.00      64.63       1.77       0.25       2.74       ----

> <Gold.Chemscore.Fitness>
11.4667

> <Gold.Chemscore.DG>
-14.4550

> <Gold.Chemscore.ZeroCoef>
-5.4800

> <Gold.Chemscore.Hbond>
1.7774

> <Gold.Chemscore.Metal>
0.0000

> <Gold.Chemscore.Lipo>
64.6334

> <Gold.Chemscore.Internal_Hbond>
0.0000

> <Gold.Chemscore.DEClash>
0.2469

> <Gold.Chemscore.DEInternal>
2.7414

> <Gold.Chemscore.Rot>
1.7670

> <Gold.Chemscore.Internal.Correction>
   9.000000E+99

> <Gold.Chemscore.Hbonds>
donor molecule, donor type, donor heavy atom, donor atom, acceptor molecule, acceptor atom, score
      L1  H    16    46       P1  7948  1.00
      P1  H  6931  6943       L1    14  0.24

> <Gold.Chemscore.Hbond.Weighted>
-5.9364

> <Gold.Chemscore.Metal.Weighted>
-0.0000

> <Gold.Chemscore.Lipo.Weighted>
-7.5621

> <Gold.Chemscore.Internal_Hbond.Weighted>
0.0000

> <Gold.Chemscore.DEClash.Weighted>
0.2469

> <Gold.Chemscore.DEInternal.Weighted>
2.7414

> <Gold.Chemscore.Rot.Weighted>
4.5235

> <Gold.Chemscore.Internal.Correction.Weighted>
   9.000000E+99

> <Gold.Protein.RotatedTorsions>
[ 6907 6896 6895 6894 ] final   58.99 input  -60.11 | X-H torsion
[ 7974 7965 7964 7962 ] final  -40.87 input  175.53 | X-H torsion
[ 8008 7997 7996 7995 ] final -121.35 input   59.86 | X-H torsion
[ 10167 10162 10161 10158 ] final -158.13 input  -65.29 | X-H torsion
[ 10718 10713 10712 10709 ] final   -8.09 input   66.30 | X-H torsion
[ 10763 10752 10751 10750 ] final   88.24 input  -60.55 | X-H torsion
[ 11005 11000 10999 10996 ] final  174.37 input  -57.11 | X-H torsion

> <Gold.Protein.ActiveResidues>
 VAL166  LYS551  ARG553  GLY616  TRP617  ASP618  TYR619  PRO620  LYS621  CYS622 
 ASP623  PHE694  ASN695  SER759  ASP760  ASP761  ALA762  ILE779  LEU786  VAL792 
 PHE793  MET794  SER795  GLU796  ALA797  LYS798  CYS799  TRP800  GLU811  SER814 

> <Gold.Protein.RotatedAtoms>
  152.3874  134.6495  160.0120 H   0  0  0  0  0  0  0  0  0  0  0  0  # atno 6907 bound_to 6896
  151.6739  133.3308  159.3211 H   0  0  0  0  0  0  0  0  0  0  0  0  # atno 6908 bound_to 6896
  150.7797  134.6775  159.6470 H   0  0  0  0  0  0  0  0  0  0  0  0  # atno 6909 bound_to 6896
  146.0264  140.6786  142.9153 H   0  0  0  0  0  0  0  0  0  0  0  0  # atno 7974 bound_to 7965
  155.1466  140.0403  157.2811 H   0  0  0  0  0  0  0  0  0  0  0  0  # atno 8008 bound_to 7997
  154.6434  140.2552  155.7269 H   0  0  0  0  0  0  0  0  0  0  0  0  # atno 8009 bound_to 7997
  156.2543  140.2851  156.0838 H   0  0  0  0  0  0  0  0  0  0  0  0  # atno 8010 bound_to 7997
  139.6716  143.9735  152.2287 H   0  0  0  0  0  0  0  0  0  0  0  0  # atno 10167 bound_to 10162
  156.7076  130.5112  149.5900 H   0  0  0  0  0  0  0  0  0  0  0  0  # atno 10718 bound_to 10713
  153.1748  135.4514  154.9951 H   0  0  0  0  0  0  0  0  0  0  0  0  # atno 10763 bound_to 10752
  154.7991  135.3249  154.7597 H   0  0  0  0  0  0  0  0  0  0  0  0  # atno 10764 bound_to 10752
  153.8069  135.6958  153.4902 H   0  0  0  0  0  0  0  0  0  0  0  0  # atno 10765 bound_to 10752
  140.3506  134.7198  157.4265 H   0  0  0  0  0  0  0  0  0  0  0  0  # atno 11005 bound_to 11000
  144.7011  140.3658  143.7155 LP  0  0  0  0  0  0  0  0  0  0  0  0  # atno 17320 bound_to 7965
  145.7110  139.1685  143.2538 LP  0  0  0  0  0  0  0  0  0  0  0  0  # atno 17321 bound_to 7965
  139.9501  144.6626  150.8181 LP  0  0  0  0  0  0  0  0  0  0  0  0  # atno 17342 bound_to 10162
  140.7620  143.3188  151.2670 LP  0  0  0  0  0  0  0  0  0  0  0  0  # atno 17343 bound_to 10162
  156.1684  130.6420  151.0807 LP  0  0  0  0  0  0  0  0  0  0  0  0  # atno 17370 bound_to 10713
  157.6949  131.0797  150.7000 LP  0  0  0  0  0  0  0  0  0  0  0  0  # atno 17371 bound_to 10713
  140.0706  134.5867  155.8646 LP  0  0  0  0  0  0  0  0  0  0  0  0  # atno 17394 bound_to 11000
  141.2013  133.6618  156.5944 LP  0  0  0  0  0  0  0  0  0  0  0  0  # atno 17395 bound_to 11000

$$$$
