AV-unprocessed.smi:2567|AV-procd|sdf|10084|dock9
  -GOLD-   2272014113D 1   1.00000     0.00000
 Structure written by MMmdl.
 33 34  0  0  0  0  0  0  0  0  3 V2000
  152.3825  145.1356  158.6282 C   0  0  0  0  0  0  0  0  0  0  0  0
  151.5956  144.0485  159.3825 C   0  0  0  0  0  0  0  0  0  0  0  0
  152.5964  143.2149  160.2108 C   0  0  0  0  0  0  0  0  0  0  0  0
  150.5784  144.6821  160.3493 C   0  0  0  0  0  0  0  0  0  0  0  0
  150.8637  143.1620  158.3790 C   0  0  0  0  0  0  0  0  0  0  0  0
  149.5401  142.9121  158.3771 N   0  5  0  0  0  0  0  0  0  0  0  0
  149.2306  142.1100  157.3799 N   0  0  0  0  0  0  0  0  0  0  0  0
  150.3879  141.8684  156.7481 C   0  0  0  0  0  0  0  0  0  0  0  0
  150.5351  140.9554  155.5490 C   0  0  2  0  0  0  0  0  0  0  0  0
  149.1619  140.4456  155.0697 C   0  0  0  0  0  0  0  0  0  0  0  0
  149.3267  139.5468  153.9111 N   0  3  0  0  0  0  0  0  0  0  0  0
  150.2580  138.4418  154.2094 C   0  0  0  0  0  0  0  0  0  0  0  0
  151.5964  139.0042  154.7161 C   0  0  0  0  0  0  0  0  0  0  0  0
  151.3665  139.8352  155.8479 O   0  0  0  0  0  0  0  0  0  0  0  0
  151.4019  142.4968  157.3586 N   0  0  0  0  0  0  0  0  0  0  0  0
  152.9273  145.7828  159.3164 H   0  0  0  0  0  0  0  0  0  0  0  0
  151.7185  145.7698  158.0397 H   0  0  0  0  0  0  0  0  0  0  0  0
  153.1078  144.6950  157.9435 H   0  0  0  0  0  0  0  0  0  0  0  0
  153.3437  142.7406  159.5735 H   0  0  0  0  0  0  0  0  0  0  0  0
  152.0918  142.4259  160.7696 H   0  0  0  0  0  0  0  0  0  0  0  0
  153.1296  143.8353  160.9319 H   0  0  0  0  0  0  0  0  0  0  0  0
  151.0719  145.3167  161.0857 H   0  0  0  0  0  0  0  0  0  0  0  0
  150.0190  143.9189  160.8917 H   0  0  0  0  0  0  0  0  0  0  0  0
  149.8562  145.3014  159.8161 H   0  0  0  0  0  0  0  0  0  0  0  0
  151.0068  141.5377  154.7552 H   0  0  0  0  0  0  0  0  0  0  0  0
  148.6556  139.9070  155.8724 H   0  0  0  0  0  0  0  0  0  0  0  0
  148.5190  141.2797  154.7863 H   0  0  0  0  0  0  0  0  0  0  0  0
  148.4275  139.1694  153.6482 H   0  0  0  0  0  0  0  0  0  0  0  0
  149.8132  137.7913  154.9635 H   0  0  0  0  0  0  0  0  0  0  0  0
  150.4074  137.8410  153.3121 H   0  0  0  0  0  0  0  0  0  0  0  0
  152.2615  138.1900  155.0046 H   0  0  0  0  0  0  0  0  0  0  0  0
  152.1048  139.5690  153.9330 H   0  0  0  0  0  0  0  0  0  0  0  0
  149.6980  140.0835  153.1403 H   0  0  0  0  0  0  0  0  0  0  0  0
  1  2  1  0  0  0  0
  1 16  1  0  0  0  0
  1 17  1  0  0  0  0
  1 18  1  0  0  0  0
  2  3  1  0  0  0  0
  2  4  1  0  0  0  0
  2  5  1  0  0  0  0
  3 19  1  0  0  0  0
  3 20  1  0  0  0  0
  3 21  1  0  0  0  0
  4 22  1  0  0  0  0
  4 23  1  0  0  0  0
  4 24  1  0  0  0  0
  5 15  2  0  0  0  0
  5  6  1  0  0  0  0
  6  7  1  0  0  0  0
  7  8  2  0  0  0  0
  8  9  1  0  0  0  0
  8 15  1  0  0  0  0
  9 14  1  0  0  0  0
  9 10  1  0  0  0  0
  9 25  1  0  0  0  0
 10 11  1  0  0  0  0
 10 26  1  0  0  0  0
 10 27  1  0  0  0  0
 11 12  1  0  0  0  0
 11 28  1  0  0  0  0
 11 33  1  0  0  0  0
 12 13  1  0  0  0  0
 12 29  1  0  0  0  0
 12 30  1  0  0  0  0
 13 14  1  0  0  0  0
 13 31  1  0  0  0  0
 13 32  1  0  0  0  0
M  CHG  1   6  -1
M  CHG  1  11   1
M  END
> <s_m_source_file>
AV-unprocessed.smi

> <i_m_source_file_index>
2567

> <i_lp_mmshare_version>
43012

> <i_f3d_flags>
0

> <s_epik_input>
W0NIM11DKFtDSDNdKShbQ0gzXSljMW5bbkhdYyhuMSlbQ0BASF0yW0NIMl1bTkhdW0NIMl1bQ0gyXU8y

> <s_epik_cmdline>
J2VwaWtfcHl0aG9uJywgJy1waCcsICc3LjAnLCAnLXRuJywgJzgnLCAnLW1hJywgJzIwMCcsICctbWV0YWxfYmluZGluZycsICctaW1hZScsICc8aW5maWxlLm1hZT4nLCAnLW9tYWUnLCAnPG91dGZpbGUubWFlPic=

> <r_lp_tautomer_probability>
0.948284

> <r_epik_Ionization_Penalty>
5.01189

> <r_epik_Ionization_Penalty_Charging>
5.01189

> <r_epik_Ionization_Penalty_Neutral>
8.99859e-14

> <r_epik_State_Penalty>
2.75157

> <r_epik_Charging_Adjusted_Penalty>
7.76346

> <i_epik_Tot_Q>
0

> <i_epik_Tot_abs_Q>
2

> <r_epik_Metal_State_Penalty>
0.54282

> <b_epik_Metal_Only>
1

> <s_lp_Force_Field>
OPLS_2005

> <r_lp_Energy>
6.85935

> <b_lp_Chiralities_Consistent>
1

> <s_lp_Variant>
AV-unprocessed.smi:2567-9

> <Gold.Version>
5.8.1

> <Gold.Id.Protein>
6NUR|6NUR_protein|mol2

> <Gold.PLP.Fitness>
33.5848

> <Gold.PLP.PLP>
-31.3097

> <Gold.PLP.part.hbond>
-1.0000

> <Gold.PLP.part.metal>
0.0000

> <Gold.PLP.part.buried>
-4.2145

> <Gold.PLP.part.nonpolar>
-26.4359

> <Gold.PLP.part.repulsive>
0.4758

> <Gold.PLP.ligand.clash>
0.0000

> <Gold.PLP.ligand.torsion>
0.0704

> <Gold.PLP.Chemscore.Hbond>
0.8000

> <Gold.PLP.Chemscore.CHOScore>
0.0000

> <Gold.PLP.Chemscore.Metal>
0.0000

> <Gold.Chemscore.Hbonds>
donor molecule, donor type, donor heavy atom, donor atom, acceptor molecule, acceptor atom, score
      L1  H    11    33       P1  7957  0.75

> <Gold.PLP.Chemscore.Internal.Correction>
0.0159

> <Gold.Rescore>
     Score         DG    S(hbond)    S(metal)    S(lipo)     H(rot)  DE(clash)    DE(int)     intcor
     13.77     -13.90       0.79        0.00      76.66       1.25       0.09       0.04       ----

> <Gold.Chemscore.Fitness>
13.7690

> <Gold.Chemscore.DG>
-13.9017

> <Gold.Chemscore.ZeroCoef>
-5.4800

> <Gold.Chemscore.Hbond>
0.7931

> <Gold.Chemscore.Metal>
0.0000

> <Gold.Chemscore.Lipo>
76.6587

> <Gold.Chemscore.Internal_Hbond>
0.0000

> <Gold.Chemscore.DEClash>
0.0924

> <Gold.Chemscore.DEInternal>
0.0404

> <Gold.Chemscore.Rot>
1.2486

> <Gold.Chemscore.Internal.Correction>
   9.000000E+99

> <Gold.Chemscore.Hbonds>
donor molecule, donor type, donor heavy atom, donor atom, acceptor molecule, acceptor atom, score
      L1  H    11    33       P1  7957  0.74

> <Gold.Chemscore.Hbond.Weighted>
-2.6491

> <Gold.Chemscore.Metal.Weighted>
-0.0000

> <Gold.Chemscore.Lipo.Weighted>
-8.9691

> <Gold.Chemscore.Internal_Hbond.Weighted>
0.0000

> <Gold.Chemscore.DEClash.Weighted>
0.0924

> <Gold.Chemscore.DEInternal.Weighted>
0.0404

> <Gold.Chemscore.Rot.Weighted>
3.1964

> <Gold.Chemscore.Internal.Correction.Weighted>
   9.000000E+99

> <Gold.Protein.RotatedTorsions>
[ 6907 6896 6895 6894 ] final  -93.52 input  -60.11 | X-H torsion
[ 7974 7965 7964 7962 ] final -146.31 input  175.53 | X-H torsion
[ 8008 7997 7996 7995 ] final  -67.71 input   59.86 | X-H torsion
[ 10167 10162 10161 10158 ] final  -18.10 input  -65.29 | X-H torsion
[ 10718 10713 10712 10709 ] final   48.34 input   66.30 | X-H torsion
[ 10763 10752 10751 10750 ] final  -22.97 input  -60.55 | X-H torsion
[ 11005 11000 10999 10996 ] final   32.67 input  -57.11 | X-H torsion

> <Gold.Protein.ActiveResidues>
 VAL166  LYS551  ARG553  GLY616  TRP617  ASP618  TYR619  PRO620  LYS621  CYS622 
 ASP623  PHE694  ASN695  SER759  ASP760  ASP761  ALA762  ILE779  LEU786  VAL792 
 PHE793  MET794  SER795  GLU796  ALA797  LYS798  CYS799  TRP800  GLU811  SER814 

> <Gold.Protein.RotatedAtoms>
  150.6924  134.1955  159.4301 H   0  0  0  0  0  0  0  0  0  0  0  0  # atno 6907 bound_to 6896
  151.9923  134.9970  160.0571 H   0  0  0  0  0  0  0  0  0  0  0  0  # atno 6908 bound_to 6896
  152.1655  133.4575  159.4919 H   0  0  0  0  0  0  0  0  0  0  0  0  # atno 6909 bound_to 6896
  144.8168  140.5472  143.5605 H   0  0  0  0  0  0  0  0  0  0  0  0  # atno 7974 bound_to 7965
  154.4818  140.0887  156.7396 H   0  0  0  0  0  0  0  0  0  0  0  0  # atno 8008 bound_to 7997
  155.4450  140.3455  155.4276 H   0  0  0  0  0  0  0  0  0  0  0  0  # atno 8009 bound_to 7997
  156.1203  140.1472  156.9202 H   0  0  0  0  0  0  0  0  0  0  0  0  # atno 8010 bound_to 7997
  140.7255  143.4950  150.9942 H   0  0  0  0  0  0  0  0  0  0  0  0  # atno 10167 bound_to 10162
  157.4676  130.8235  149.7953 H   0  0  0  0  0  0  0  0  0  0  0  0  # atno 10718 bound_to 10713
  153.6603  135.6976  153.5179 H   0  0  0  0  0  0  0  0  0  0  0  0  # atno 10763 bound_to 10752
  153.2637  135.4237  155.0918 H   0  0  0  0  0  0  0  0  0  0  0  0  # atno 10764 bound_to 10752
  154.8453  135.3561  154.6148 H   0  0  0  0  0  0  0  0  0  0  0  0  # atno 10765 bound_to 10752
  140.2710  134.3082  155.7828 H   0  0  0  0  0  0  0  0  0  0  0  0  # atno 11005 bound_to 11000
  145.5197  139.1477  143.3559 LP  0  0  0  0  0  0  0  0  0  0  0  0  # atno 17320 bound_to 7965
  146.2471  140.5338  142.8909 LP  0  0  0  0  0  0  0  0  0  0  0  0  # atno 17321 bound_to 7965
  139.8656  143.7258  152.3170 LP  0  0  0  0  0  0  0  0  0  0  0  0  # atno 17342 bound_to 10162
  139.7489  144.7540  151.0538 LP  0  0  0  0  0  0  0  0  0  0  0  0  # atno 17343 bound_to 10162
  156.0058  130.3856  150.2437 LP  0  0  0  0  0  0  0  0  0  0  0  0  # atno 17370 bound_to 10713
  157.0618  131.0092  151.3220 LP  0  0  0  0  0  0  0  0  0  0  0  0  # atno 17371 bound_to 10713
  141.2177  133.7467  156.9335 LP  0  0  0  0  0  0  0  0  0  0  0  0  # atno 17394 bound_to 11000
  140.1373  134.9317  157.2419 LP  0  0  0  0  0  0  0  0  0  0  0  0  # atno 17395 bound_to 11000

$$$$
