AV-unprocessed.smi:2973|AV-procd|sdf|11351|dock2
  -GOLD-   2272016263D 1   1.00000     0.00000
 Structure written by MMmdl.
 49 51  0  0  0  0  0  0  0  0  3 V2000
  149.0154  138.0018  158.9420 C   0  0  0  0  0  0  0  0  0  0  0  0
  148.5116  136.5770  158.6236 C   0  0  2  0  0  0  0  0  0  0  0  0
  148.3652  135.7467  159.9171 C   0  0  0  0  0  0  0  0  0  0  0  0
  147.7620  134.3615  159.6417 C   0  0  0  0  0  0  0  0  0  0  0  0
  148.5966  133.5901  158.6116 C   0  0  0  0  0  0  0  0  0  0  0  0
  148.7509  134.3920  157.3083 C   0  0  0  0  0  0  0  0  0  0  0  0
  149.3375  135.8089  157.5400 C   0  0  2  0  0  0  0  0  0  0  0  0
  150.7445  135.7152  157.8940 N   0  5  0  0  0  0  0  0  0  0  0  0
  151.4838  136.3109  156.9295 C   0  0  0  0  0  0  0  0  0  0  0  0
  152.7101  136.4051  156.8962 O   0  0  0  0  0  0  0  0  0  0  0  0
  150.6966  136.8105  155.9579 N   0  0  0  0  0  0  0  0  0  0  0  0
  151.1691  137.4920  154.7455 C   0  0  0  0  0  0  0  0  0  0  0  0
  151.8711  138.8180  155.0624 C   0  0  0  0  0  0  0  0  0  0  0  0
  153.0138  139.0342  154.6567 O   0  0  0  0  0  0  0  0  0  0  0  0
  151.1735  139.7012  155.7941 N   0  0  0  0  0  0  0  0  0  0  0  0
  151.6333  141.0362  156.1707 C   0  0  0  0  0  0  0  0  0  0  0  0
  150.6442  141.7627  157.1053 C   0  0  0  0  0  0  0  0  0  0  0  0
  151.2518  142.9318  157.8624 C   0  0  0  0  0  0  0  0  0  0  0  0
  152.3746  142.7799  158.7050 C   0  0  0  0  0  0  0  0  0  0  0  0
  152.8706  143.9013  159.4013 C   0  0  0  0  0  0  0  0  0  0  0  0
  152.2358  145.1498  159.2411 C   0  0  0  0  0  0  0  0  0  0  0  0
  151.1205  145.2459  158.3849 C   0  0  0  0  0  0  0  0  0  0  0  0
  150.6771  144.1495  157.7316 N   0  3  0  0  0  0  0  0  0  0  0  0
  149.4088  136.5620  156.2199 C   0  0  0  0  0  0  0  0  0  0  0  0
  148.4320  136.8679  155.5338 O   0  0  0  0  0  0  0  0  0  0  0  0
  150.0197  137.9869  159.3662 H   0  0  0  0  0  0  0  0  0  0  0  0
  148.3635  138.4904  159.6662 H   0  0  0  0  0  0  0  0  0  0  0  0
  149.0374  138.6346  158.0552 H   0  0  0  0  0  0  0  0  0  0  0  0
  147.5031  136.6986  158.2245 H   0  0  0  0  0  0  0  0  0  0  0  0
  149.3380  135.6327  160.3971 H   0  0  0  0  0  0  0  0  0  0  0  0
  147.7339  136.2776  160.6302 H   0  0  0  0  0  0  0  0  0  0  0  0
  147.7005  133.7924  160.5697 H   0  0  0  0  0  0  0  0  0  0  0  0
  146.7401  134.4725  159.2772 H   0  0  0  0  0  0  0  0  0  0  0  0
  149.5800  133.3689  159.0284 H   0  0  0  0  0  0  0  0  0  0  0  0
  148.1294  132.6279  158.4008 H   0  0  0  0  0  0  0  0  0  0  0  0
  149.3699  133.8295  156.6073 H   0  0  0  0  0  0  0  0  0  0  0  0
  147.7686  134.4765  156.8413 H   0  0  0  0  0  0  0  0  0  0  0  0
  151.8455  136.8340  154.1965 H   0  0  0  0  0  0  0  0  0  0  0  0
  150.3376  137.6923  154.0684 H   0  0  0  0  0  0  0  0  0  0  0  0
  150.2468  139.4356  156.0953 H   0  0  0  0  0  0  0  0  0  0  0  0
  152.5979  140.9357  156.6686 H   0  0  0  0  0  0  0  0  0  0  0  0
  151.8174  141.6394  155.2800 H   0  0  0  0  0  0  0  0  0  0  0  0
  149.7966  142.1257  156.5227 H   0  0  0  0  0  0  0  0  0  0  0  0
  150.2329  141.0543  157.8252 H   0  0  0  0  0  0  0  0  0  0  0  0
  152.8424  141.8146  158.8320 H   0  0  0  0  0  0  0  0  0  0  0  0
  153.7211  143.8015  160.0596 H   0  0  0  0  0  0  0  0  0  0  0  0
  152.5941  146.0179  159.7747 H   0  0  0  0  0  0  0  0  0  0  0  0
  150.5696  146.1582  158.2092 H   0  0  0  0  0  0  0  0  0  0  0  0
  149.8609  144.2409  157.1265 H   0  0  0  0  0  0  0  0  0  0  0  0
  1  2  1  0  0  0  0
  1 26  1  0  0  0  0
  1 27  1  0  0  0  0
  1 28  1  0  0  0  0
  2  7  1  0  0  0  0
  2  3  1  0  0  0  0
  2 29  1  0  0  0  0
  3  4  1  0  0  0  0
  3 30  1  0  0  0  0
  3 31  1  0  0  0  0
  4  5  1  0  0  0  0
  4 32  1  0  0  0  0
  4 33  1  0  0  0  0
  5  6  1  0  0  0  0
  5 34  1  0  0  0  0
  5 35  1  0  0  0  0
  6  7  1  0  0  0  0
  6 36  1  0  0  0  0
  6 37  1  0  0  0  0
  7 24  1  0  0  0  0
  7  8  1  0  0  0  0
  8  9  1  0  0  0  0
  9 10  2  0  0  0  0
  9 11  1  0  0  0  0
 11 12  1  0  0  0  0
 11 24  1  0  0  0  0
 12 13  1  0  0  0  0
 12 38  1  0  0  0  0
 12 39  1  0  0  0  0
 13 14  2  0  0  0  0
 13 15  1  0  0  0  0
 15 16  1  0  0  0  0
 15 40  1  0  0  0  0
 16 17  1  0  0  0  0
 16 41  1  0  0  0  0
 16 42  1  0  0  0  0
 17 18  1  0  0  0  0
 17 43  1  0  0  0  0
 17 44  1  0  0  0  0
 18 23  1  0  0  0  0
 18 19  2  0  0  0  0
 19 20  1  0  0  0  0
 19 45  1  0  0  0  0
 20 21  2  0  0  0  0
 20 46  1  0  0  0  0
 21 22  1  0  0  0  0
 21 47  1  0  0  0  0
 22 23  2  0  0  0  0
 22 48  1  0  0  0  0
 23 49  1  0  0  0  0
 24 25  2  0  0  0  0
M  CHG  1   8  -1
M  CHG  1  23   1
M  END
> <s_m_source_file>
AV-unprocessed.smi

> <i_m_source_file_index>
2973

> <i_lp_mmshare_version>
43012

> <i_f3d_flags>
0

> <s_epik_input>
W0NIMl0xW0NIMl1bQ0gyXVtDSDJdW0NAQEhdKFtDSDNdKVtDQF0xMltOSF1DKD1PKU4oQzI9TylbQ0gyXUMoPU8pW05IXVtDSDJdW0NIMl1jM1tjSF1bY0hdW2NIXVtjSF1uMw==

> <s_epik_cmdline>
J2VwaWtfcHl0aG9uJywgJy1waCcsICc3LjAnLCAnLXRuJywgJzgnLCAnLW1hJywgJzIwMCcsICctbWV0YWxfYmluZGluZycsICctaW1hZScsICc8aW5maWxlLm1hZT4nLCAnLW9tYWUnLCAnPG91dGZpbGUubWFlPic=

> <r_lp_tautomer_probability>
1

> <r_epik_Ionization_Penalty>
7.89073

> <r_epik_Ionization_Penalty_Charging>
7.89073

> <r_epik_Ionization_Penalty_Neutral>
1.56557e-07

> <r_epik_State_Penalty>
8.01193

> <r_epik_Charging_Adjusted_Penalty>
15.9027

> <i_epik_Tot_Q>
0

> <i_epik_Tot_abs_Q>
2

> <r_epik_Metal_State_Penalty>
3.98737

> <b_epik_Metal_Only>
1

> <s_lp_Force_Field>
OPLS_2005

> <r_lp_Energy>
16.8567

> <b_lp_Chiralities_Consistent>
1

> <s_lp_Variant>
AV-unprocessed.smi:2973-15

> <Gold.Version>
5.8.1

> <Gold.Id.Protein>
6NUR|6NUR_protein|mol2

> <Gold.PLP.Fitness>
55.0192

> <Gold.PLP.PLP>
-40.5829

> <Gold.PLP.part.hbond>
-4.0319

> <Gold.PLP.part.metal>
0.0000

> <Gold.PLP.part.buried>
-7.9896

> <Gold.PLP.part.nonpolar>
-30.0667

> <Gold.PLP.part.repulsive>
0.2531

> <Gold.PLP.ligand.clash>
0.0000

> <Gold.PLP.ligand.torsion>
0.1449

> <Gold.PLP.Chemscore.Hbond>
4.8882

> <Gold.PLP.Chemscore.CHOScore>
0.0000

> <Gold.PLP.Chemscore.Metal>
0.0000

> <Gold.Chemscore.Hbonds>
donor molecule, donor type, donor heavy atom, donor atom, acceptor molecule, acceptor atom, score
      L1  H    23    49       P1  8028  2.00
      P1  H  6896  6907       L1     8  1.02
      P1  H  7997  8010       L1    14  0.54
      P1  H 10752 10765       L1    10  0.96

> <Gold.PLP.Chemscore.Internal.Correction>
0.0616

> <Gold.Rescore>
     Score         DG    S(hbond)    S(metal)    S(lipo)     H(rot)  DE(clash)    DE(int)     intcor
     21.66     -22.50       3.15        0.00      97.56       1.92       0.78       0.06       ----

> <Gold.Chemscore.Fitness>
21.6599

> <Gold.Chemscore.DG>
-22.4995

> <Gold.Chemscore.ZeroCoef>
-5.4800

> <Gold.Chemscore.Hbond>
3.1478

> <Gold.Chemscore.Metal>
0.0000

> <Gold.Chemscore.Lipo>
97.5619

> <Gold.Chemscore.Internal_Hbond>
0.0000

> <Gold.Chemscore.DEClash>
0.7751

> <Gold.Chemscore.DEInternal>
0.0644

> <Gold.Chemscore.Rot>
1.9175

> <Gold.Chemscore.Internal.Correction>
   9.000000E+99

> <Gold.Chemscore.Hbonds>
donor molecule, donor type, donor heavy atom, donor atom, acceptor molecule, acceptor atom, score
      L1  H    23    49       P1  8028  0.60
      P1  H  6896  6907       L1     8  0.22
      P1  H  7997  8010       L1    14  0.54
      P1  H 10752 10765       L1    10  0.80

> <Gold.Chemscore.Hbond.Weighted>
-10.5135

> <Gold.Chemscore.Metal.Weighted>
-0.0000

> <Gold.Chemscore.Lipo.Weighted>
-11.4147

> <Gold.Chemscore.Internal_Hbond.Weighted>
0.0000

> <Gold.Chemscore.DEClash.Weighted>
0.7751

> <Gold.Chemscore.DEInternal.Weighted>
0.0644

> <Gold.Chemscore.Rot.Weighted>
4.9087

> <Gold.Chemscore.Internal.Correction.Weighted>
   9.000000E+99

> <Gold.Protein.RotatedTorsions>
[ 6907 6896 6895 6894 ] final  -64.98 input  -60.11 | X-H torsion
[ 7974 7965 7964 7962 ] final  -30.98 input  175.53 | X-H torsion
[ 8008 7997 7996 7995 ] final  107.71 input   59.86 | X-H torsion
[ 10167 10162 10161 10158 ] final  164.37 input  -65.29 | X-H torsion
[ 10718 10713 10712 10709 ] final  -60.54 input   66.30 | X-H torsion
[ 10763 10752 10751 10750 ] final -118.71 input  -60.55 | X-H torsion
[ 11005 11000 10999 10996 ] final   79.80 input  -57.11 | X-H torsion

> <Gold.Protein.ActiveResidues>
 VAL166  LYS551  ARG553  GLY616  TRP617  ASP618  TYR619  PRO620  LYS621  CYS622 
 ASP623  PHE694  ASN695  SER759  ASP760  ASP761  ALA762  ILE779  LEU786  VAL792 
 PHE793  MET794  SER795  GLU796  ALA797  LYS798  CYS799  TRP800  GLU811  SER814 

> <Gold.Protein.RotatedAtoms>
  150.7552  134.6223  159.6142 H   0  0  0  0  0  0  0  0  0  0  0  0  # atno 6907 bound_to 6896
  152.3526  134.6982  160.0241 H   0  0  0  0  0  0  0  0  0  0  0  0  # atno 6908 bound_to 6896
  151.7398  133.3285  159.3399 H   0  0  0  0  0  0  0  0  0  0  0  0  # atno 6909 bound_to 6896
  146.1102  140.5609  142.8781 H   0  0  0  0  0  0  0  0  0  0  0  0  # atno 7974 bound_to 7965
  156.1846  140.3090  155.9213 H   0  0  0  0  0  0  0  0  0  0  0  0  # atno 8008 bound_to 7997
  155.3310  140.0460  157.3059 H   0  0  0  0  0  0  0  0  0  0  0  0  # atno 8009 bound_to 7997
  154.5381  140.2252  155.8698 H   0  0  0  0  0  0  0  0  0  0  0  0  # atno 8010 bound_to 7997
  139.4888  144.4242  151.9149 H   0  0  0  0  0  0  0  0  0  0  0  0  # atno 10167 bound_to 10162
  156.0983  130.4190  150.0869 H   0  0  0  0  0  0  0  0  0  0  0  0  # atno 10718 bound_to 10713
  154.8596  135.4264  154.2182 H   0  0  0  0  0  0  0  0  0  0  0  0  # atno 10763 bound_to 10752
  153.3193  135.6981  153.7051 H   0  0  0  0  0  0  0  0  0  0  0  0  # atno 10764 bound_to 10752
  153.6112  135.3519  155.2953 H   0  0  0  0  0  0  0  0  0  0  0  0  # atno 10765 bound_to 10752
  139.9159  134.7871  156.1826 H   0  0  0  0  0  0  0  0  0  0  0  0  # atno 11005 bound_to 11000
  144.7505  140.5178  143.6805 LP  0  0  0  0  0  0  0  0  0  0  0  0  # atno 17320 bound_to 7965
  145.5679  139.1482  143.3304 LP  0  0  0  0  0  0  0  0  0  0  0  0  # atno 17321 bound_to 7965
  140.3688  144.2882  150.5923 LP  0  0  0  0  0  0  0  0  0  0  0  0  # atno 17342 bound_to 10162
  140.5338  143.2237  151.8196 LP  0  0  0  0  0  0  0  0  0  0  0  0  # atno 17343 bound_to 10162
  156.8862  130.9573  151.3594 LP  0  0  0  0  0  0  0  0  0  0  0  0  # atno 17370 bound_to 10713
  157.6149  130.8610  149.9011 LP  0  0  0  0  0  0  0  0  0  0  0  0  # atno 17371 bound_to 10713
  141.0633  133.6831  156.1995 LP  0  0  0  0  0  0  0  0  0  0  0  0  # atno 17394 bound_to 11000
  140.6626  134.4952  157.5584 LP  0  0  0  0  0  0  0  0  0  0  0  0  # atno 17395 bound_to 11000

$$$$
