AV-unprocessed.smi:655|AV-procd|sdf|3214|dock9
  -GOLD-   22720 0153D 1   1.00000     0.00000
 Structure written by MMmdl.
 35 36  0  0  0  0  0  0  0  0  1 V2000
  152.0856  143.9009  160.5775 C   0  0  0  0  0  0  0  0  0  0  0  0
  152.1555  143.1307  159.2513 C   0  0  2  0  0  0  0  0  0  0  0  0
  150.8696  143.3123  158.4263 C   0  0  0  0  0  0  0  0  0  0  0  0
  150.9323  142.5472  157.0924 C   0  0  0  0  0  0  0  0  0  0  0  0
  151.2476  141.0400  157.2681 C   0  0  1  0  0  0  0  0  0  0  0  0
  150.1736  140.4179  157.9503 O   0  0  0  0  0  0  0  0  0  0  0  0
  151.4538  140.2839  155.9233 C   0  0  0  0  0  0  0  0  0  0  0  0
  150.2725  140.1327  155.1013 N   0  0  0  0  0  0  0  0  0  0  0  0
  149.3232  141.1365  154.9730 C   0  0  0  0  0  0  0  0  0  0  0  0
  148.2025  141.0098  154.2225 C   0  0  0  0  0  0  0  0  0  0  0  0
  147.0638  142.3048  154.1215 Cl  0  0  0  0  0  0  0  0  0  0  0  0
  147.9476  139.7689  153.4926 C   0  0  0  0  0  0  0  0  0  0  0  0
  146.9669  139.5475  152.7848 O   0  0  0  0  0  0  0  0  0  0  0  0
  148.9312  138.7875  153.6459 N   0  0  0  0  0  0  0  0  0  0  0  0
  150.0876  138.9086  154.4172 C   0  0  0  0  0  0  0  0  0  0  0  0
  150.8854  137.9728  154.4719 O   0  0  0  0  0  0  0  0  0  0  0  0
  152.5023  140.8579  158.1562 C   0  0  0  0  0  0  0  0  0  0  0  0
  152.4275  141.6342  159.4834 C   0  0  0  0  0  0  0  0  0  0  0  0
  148.7940  137.9157  153.1549 H   0  0  0  0  0  0  0  0  0  0  0  0
  151.2634  143.5454  161.1995 H   0  0  0  0  0  0  0  0  0  0  0  0
  151.9355  144.9669  160.4049 H   0  0  0  0  0  0  0  0  0  0  0  0
  153.0080  143.7863  161.1475 H   0  0  0  0  0  0  0  0  0  0  0  0
  152.9870  143.5400  158.6755 H   0  0  0  0  0  0  0  0  0  0  0  0
  150.0088  142.9720  159.0034 H   0  0  0  0  0  0  0  0  0  0  0  0
  150.7030  144.3714  158.2269 H   0  0  0  0  0  0  0  0  0  0  0  0
  149.9877  142.6819  156.5638 H   0  0  0  0  0  0  0  0  0  0  0  0
  151.7000  143.0032  156.4665 H   0  0  0  0  0  0  0  0  0  0  0  0
  149.5695  140.0723  157.3112 H   0  0  0  0  0  0  0  0  0  0  0  0
  152.1506  140.8377  155.2920 H   0  0  0  0  0  0  0  0  0  0  0  0
  151.9137  139.3008  156.0488 H   0  0  0  0  0  0  0  0  0  0  0  0
  149.4776  142.0659  155.5029 H   0  0  0  0  0  0  0  0  0  0  0  0
  152.6714  139.7994  158.3602 H   0  0  0  0  0  0  0  0  0  0  0  0
  153.3824  141.2010  157.6104 H   0  0  0  0  0  0  0  0  0  0  0  0
  153.3636  141.5081  160.0284 H   0  0  0  0  0  0  0  0  0  0  0  0
  151.6472  141.2099  160.1167 H   0  0  0  0  0  0  0  0  0  0  0  0
  1  2  1  0  0  0  0
  1 20  1  0  0  0  0
  1 21  1  0  0  0  0
  1 22  1  0  0  0  0
  2 18  1  0  0  0  0
  2  3  1  0  0  0  0
  2 23  1  0  0  0  0
  3  4  1  0  0  0  0
  3 24  1  0  0  0  0
  3 25  1  0  0  0  0
  4  5  1  0  0  0  0
  4 26  1  0  0  0  0
  4 27  1  0  0  0  0
  5  6  1  0  0  0  0
  5  7  1  0  0  0  0
  5 17  1  0  0  0  0
  6 28  1  0  0  0  0
  7  8  1  0  0  0  0
  7 29  1  0  0  0  0
  7 30  1  0  0  0  0
  8 15  1  0  0  0  0
  8  9  1  0  0  0  0
  9 10  2  0  0  0  0
  9 31  1  0  0  0  0
 10 11  1  0  0  0  0
 10 12  1  0  0  0  0
 12 13  2  0  0  0  0
 12 14  1  0  0  0  0
 14 19  1  0  0  0  0
 14 15  1  0  0  0  0
 15 16  2  0  0  0  0
 17 18  1  0  0  0  0
 17 32  1  0  0  0  0
 17 33  1  0  0  0  0
 18 34  1  0  0  0  0
 18 35  1  0  0  0  0
M  END
> <s_m_source_file>
AV-unprocessed.smi

> <i_m_source_file_index>
655

> <i_lp_mmshare_version>
43012

> <i_f3d_flags>
0

> <s_epik_input>
W0NIMl0xW0NIMl1bQ0BIXShbQ0gzXSlbQ0gyXVtDSDJdW0NAQF0xKFtPSF0pW0NIMl1uMltjSF1jKENsKWMoPU8pW25IXWMyPU8=

> <s_epik_cmdline>
J2VwaWtfcHl0aG9uJywgJy1waCcsICc3LjAnLCAnLXRuJywgJzgnLCAnLW1hJywgJzIwMCcsICctbWV0YWxfYmluZGluZycsICctaW1hZScsICc8aW5maWxlLm1hZT4nLCAnLW9tYWUnLCAnPG91dGZpbGUubWFlPic=

> <r_lp_tautomer_probability>
0.999537

> <r_epik_Ionization_Penalty>
0.0114762

> <r_epik_Ionization_Penalty_Charging>
0.0114753

> <r_epik_Ionization_Penalty_Neutral>
8.25878e-07

> <r_epik_State_Penalty>
0.00883314

> <r_epik_Charging_Adjusted_Penalty>
0.0203085

> <i_epik_Tot_Q>
0

> <i_epik_Tot_abs_Q>
0

> <r_epik_Metal_State_Penalty>
1.64347

> <b_epik_Metal_Only>
0

> <s_lp_Force_Field>
OPLS_2005

> <r_lp_Energy>
18.0938

> <b_lp_Chiralities_Consistent>
1

> <s_lp_Variant>
AV-unprocessed.smi:655-1

> <Gold.Version>
5.8.1

> <Gold.Id.Protein>
6NUR|6NUR_protein|mol2

> <Gold.PLP.Fitness>
41.5829

> <Gold.PLP.PLP>
-38.1488

> <Gold.PLP.part.hbond>
-1.7748

> <Gold.PLP.part.metal>
0.0000

> <Gold.PLP.part.buried>
-2.3748

> <Gold.PLP.part.nonpolar>
-34.5262

> <Gold.PLP.part.repulsive>
0.9285

> <Gold.PLP.ligand.clash>
0.0000

> <Gold.PLP.ligand.torsion>
0.3688

> <Gold.PLP.Chemscore.Hbond>
0.8125

> <Gold.PLP.Chemscore.CHOScore>
0.5761

> <Gold.PLP.Chemscore.Metal>
0.0000

> <Gold.Chemscore.Hbonds>
donor molecule, donor type, donor heavy atom, donor atom, acceptor molecule, acceptor atom, score
      L1  H    14    19       P1  7948  0.81
      L1  C     9    31       P1  8028  0.52

> <Gold.PLP.Chemscore.Internal.Correction>
0.0060

> <Gold.Rescore>
     Score         DG    S(hbond)    S(metal)    S(lipo)     H(rot)  DE(clash)    DE(int)     intcor
     13.56     -14.20       0.86        0.00      90.13       1.84       0.24       0.39       ----

> <Gold.Chemscore.Fitness>
13.5602

> <Gold.Chemscore.DG>
-14.1973

> <Gold.Chemscore.ZeroCoef>
-5.4800

> <Gold.Chemscore.Hbond>
0.8648

> <Gold.Chemscore.Metal>
0.0000

> <Gold.Chemscore.Lipo>
90.1308

> <Gold.Chemscore.Internal_Hbond>
0.0000

> <Gold.Chemscore.DEClash>
0.2426

> <Gold.Chemscore.DEInternal>
0.3945

> <Gold.Chemscore.Rot>
1.8424

> <Gold.Chemscore.Internal.Correction>
   9.000000E+99

> <Gold.Chemscore.Hbonds>
donor molecule, donor type, donor heavy atom, donor atom, acceptor molecule, acceptor atom, score
      L1  H    14    19       P1  7948  0.79

> <Gold.Chemscore.Hbond.Weighted>
-2.8885

> <Gold.Chemscore.Metal.Weighted>
-0.0000

> <Gold.Chemscore.Lipo.Weighted>
-10.5453

> <Gold.Chemscore.Internal_Hbond.Weighted>
0.0000

> <Gold.Chemscore.DEClash.Weighted>
0.2426

> <Gold.Chemscore.DEInternal.Weighted>
0.3945

> <Gold.Chemscore.Rot.Weighted>
4.7164

> <Gold.Chemscore.Internal.Correction.Weighted>
   9.000000E+99

> <Gold.Protein.RotatedTorsions>
[ 6907 6896 6895 6894 ] final  -58.35 input  -60.11 | X-H torsion
[ 7974 7965 7964 7962 ] final   60.11 input  175.53 | X-H torsion
[ 8008 7997 7996 7995 ] final  -44.34 input   59.86 | X-H torsion
[ 10167 10162 10161 10158 ] final  160.87 input  -65.29 | X-H torsion
[ 10718 10713 10712 10709 ] final  -94.16 input   66.30 | X-H torsion
[ 10763 10752 10751 10750 ] final  -14.81 input  -60.55 | X-H torsion
[ 11005 11000 10999 10996 ] final  -57.06 input  -57.11 | X-H torsion

> <Gold.Protein.ActiveResidues>
 VAL166  LYS551  ARG553  GLY616  TRP617  ASP618  TYR619  PRO620  LYS621  CYS622 
 ASP623  PHE694  ASN695  SER759  ASP760  ASP761  ALA762  ILE779  LEU786  VAL792 
 PHE793  MET794  SER795  GLU796  ALA797  LYS798  CYS799  TRP800  GLU811  SER814 

> <Gold.Protein.RotatedAtoms>
  150.8014  134.7110  159.6603 H   0  0  0  0  0  0  0  0  0  0  0  0  # atno 6907 bound_to 6896
  152.4131  134.6086  160.0029 H   0  0  0  0  0  0  0  0  0  0  0  0  # atno 6908 bound_to 6896
  151.6323  133.3294  159.3147 H   0  0  0  0  0  0  0  0  0  0  0  0  # atno 6909 bound_to 6896
  145.8997  139.3572  143.0600 H   0  0  0  0  0  0  0  0  0  0  0  0  # atno 7974 bound_to 7965
  154.3997  140.1424  156.3668 H   0  0  0  0  0  0  0  0  0  0  0  0  # atno 8008 bound_to 7997
  155.8130  140.3472  155.5448 H   0  0  0  0  0  0  0  0  0  0  0  0  # atno 8009 bound_to 7997
  155.8367  140.0920  157.1750 H   0  0  0  0  0  0  0  0  0  0  0  0  # atno 8010 bound_to 7997
  139.4844  144.4592  151.8727 H   0  0  0  0  0  0  0  0  0  0  0  0  # atno 10167 bound_to 10162
  156.0023  130.5056  150.5885 H   0  0  0  0  0  0  0  0  0  0  0  0  # atno 10718 bound_to 10713
  153.5339  135.7014  153.5669 H   0  0  0  0  0  0  0  0  0  0  0  0  # atno 10763 bound_to 10752
  153.3665  135.3956  155.1757 H   0  0  0  0  0  0  0  0  0  0  0  0  # atno 10764 bound_to 10752
  154.8681  135.3801  154.4838 H   0  0  0  0  0  0  0  0  0  0  0  0  # atno 10765 bound_to 10752
  141.1148  133.6610  156.4713 H   0  0  0  0  0  0  0  0  0  0  0  0  # atno 11005 bound_to 11000
  145.8806  140.9365  143.0603 LP  0  0  0  0  0  0  0  0  0  0  0  0  # atno 17320 bound_to 7965
  144.6735  140.0775  143.7470 LP  0  0  0  0  0  0  0  0  0  0  0  0  # atno 17321 bound_to 7965
  140.4053  144.2440  150.5891 LP  0  0  0  0  0  0  0  0  0  0  0  0  # atno 17342 bound_to 10162
  140.5018  143.2316  151.8667 LP  0  0  0  0  0  0  0  0  0  0  0  0  # atno 17343 bound_to 10162
  157.3754  131.0772  151.1522 LP  0  0  0  0  0  0  0  0  0  0  0  0  # atno 17370 bound_to 10713
  157.2262  130.6504  149.5831 LP  0  0  0  0  0  0  0  0  0  0  0  0  # atno 17371 bound_to 10713
  140.4676  134.6783  157.5114 LP  0  0  0  0  0  0  0  0  0  0  0  0  # atno 17394 bound_to 11000
  140.0063  134.6758  155.9449 LP  0  0  0  0  0  0  0  0  0  0  0  0  # atno 17395 bound_to 11000

$$$$
