AV-unprocessed.smi:1228|AV-procd|sdf|5147|dock6
  -GOLD-   22720 4213D 1   1.00000     0.00000
 Structure written by MMmdl.
 44 46  0  0  0  0  0  0  0  0  2 V2000
  153.6748  141.1232  160.4219 C   0  0  0  0  0  0  0  0  0  0  0  0
  152.7258  141.8933  159.5520 C   0  0  0  0  0  0  0  0  0  0  0  0
  151.7513  141.3800  158.6474 C   0  0  0  0  0  0  0  0  0  0  0  0
  151.1865  142.5165  158.1363 C   0  0  0  0  0  0  0  0  0  0  0  0
  150.1874  142.6386  157.2221 N   0  0  0  0  0  0  0  0  0  0  0  0
  149.4097  141.6767  156.6949 C   0  0  0  0  0  0  0  0  0  0  0  0
  149.4900  140.4743  156.9465 O   0  0  0  0  0  0  0  0  0  0  0  0
  148.5155  142.1905  155.8372 N   0  0  0  0  0  0  0  0  0  0  0  0
  147.5155  141.4167  155.1065 C   0  0  2  0  0  0  0  0  0  0  0  0
  146.6401  140.5940  156.0706 C   0  0  0  0  0  0  0  0  0  0  0  0
  145.6484  139.7093  155.2972 C   0  0  0  0  0  0  0  0  0  0  0  0
  146.3573  138.8193  154.3443 N   0  3  1  0  0  0  0  0  0  0  0  0
  145.4352  137.8819  153.6668 C   0  0  0  0  0  0  0  0  0  0  0  0
  145.9530  136.4643  153.5944 C   0  0  0  0  0  0  0  0  0  0  0  0
  145.9697  137.3403  152.3613 C   0  0  0  0  0  0  0  0  0  0  0  0
  147.1798  139.5903  153.3788 C   0  0  0  0  0  0  0  0  0  0  0  0
  148.2065  140.4739  154.1077 C   0  0  0  0  0  0  0  0  0  0  0  0
  151.7936  143.6117  158.7100 N   0  0  0  0  0  0  0  0  0  0  0  0
  151.5415  145.0231  158.4934 C   0  0  0  0  0  0  0  0  0  0  0  0
  152.7472  143.2212  159.5830 N   0  0  0  0  0  0  0  0  0  0  0  0
  153.4273  140.0615  160.4304 H   0  0  0  0  0  0  0  0  0  0  0  0
  153.6425  141.4781  161.4524 H   0  0  0  0  0  0  0  0  0  0  0  0
  154.7003  141.2223  160.0656 H   0  0  0  0  0  0  0  0  0  0  0  0
  151.5218  140.3481  158.4283 H   0  0  0  0  0  0  0  0  0  0  0  0
  150.0096  143.5800  156.9046 H   0  0  0  0  0  0  0  0  0  0  0  0
  148.5192  143.1891  155.6886 H   0  0  0  0  0  0  0  0  0  0  0  0
  146.8782  142.1020  154.5435 H   0  0  0  0  0  0  0  0  0  0  0  0
  147.2710  139.9663  156.7020 H   0  0  0  0  0  0  0  0  0  0  0  0
  146.0914  141.2554  156.7425 H   0  0  0  0  0  0  0  0  0  0  0  0
  145.0724  139.1070  156.0008 H   0  0  0  0  0  0  0  0  0  0  0  0
  144.9344  140.3312  154.7545 H   0  0  0  0  0  0  0  0  0  0  0  0
  144.3709  138.0756  153.7909 H   0  0  0  0  0  0  0  0  0  0  0  0
  146.9098  136.2390  154.0622 H   0  0  0  0  0  0  0  0  0  0  0  0
  145.2207  135.6601  153.6240 H   0  0  0  0  0  0  0  0  0  0  0  0
  145.2481  137.1131  151.5791 H   0  0  0  0  0  0  0  0  0  0  0  0
  146.9371  137.6967  152.0119 H   0  0  0  0  0  0  0  0  0  0  0  0
  147.7008  138.9029  152.7113 H   0  0  0  0  0  0  0  0  0  0  0  0
  146.5297  140.2054  152.7545 H   0  0  0  0  0  0  0  0  0  0  0  0
  148.7770  141.0520  153.3798 H   0  0  0  0  0  0  0  0  0  0  0  0
  148.9241  139.8389  154.6298 H   0  0  0  0  0  0  0  0  0  0  0  0
  151.7842  145.2837  157.4631 H   0  0  0  0  0  0  0  0  0  0  0  0
  152.1502  145.6300  159.1650 H   0  0  0  0  0  0  0  0  0  0  0  0
  150.4895  145.2401  158.6789 H   0  0  0  0  0  0  0  0  0  0  0  0
  146.9949  138.2564  154.8889 H   0  0  0  0  0  0  0  0  0  0  0  0
  1  2  1  0  0  0  0
  1 21  1  0  0  0  0
  1 22  1  0  0  0  0
  1 23  1  0  0  0  0
  2 20  2  0  0  0  0
  2  3  1  0  0  0  0
  3  4  2  0  0  0  0
  3 24  1  0  0  0  0
  4  5  1  0  0  0  0
  4 18  1  0  0  0  0
  5  6  1  0  0  0  0
  5 25  1  0  0  0  0
  6  7  2  0  0  0  0
  6  8  1  0  0  0  0
  8  9  1  0  0  0  0
  8 26  1  0  0  0  0
  9 17  1  0  0  0  0
  9 10  1  0  0  0  0
  9 27  1  0  0  0  0
 10 11  1  0  0  0  0
 10 28  1  0  0  0  0
 10 29  1  0  0  0  0
 11 12  1  0  0  0  0
 11 30  1  0  0  0  0
 11 31  1  0  0  0  0
 12 13  1  0  0  0  0
 12 16  1  0  0  0  0
 12 44  1  0  0  0  0
 13 15  1  0  0  0  0
 13 14  1  0  0  0  0
 13 32  1  0  0  0  0
 14 15  1  0  0  0  0
 14 33  1  0  0  0  0
 14 34  1  0  0  0  0
 15 35  1  0  0  0  0
 15 36  1  0  0  0  0
 16 17  1  0  0  0  0
 16 37  1  0  0  0  0
 16 38  1  0  0  0  0
 17 39  1  0  0  0  0
 17 40  1  0  0  0  0
 18 19  1  0  0  0  0
 18 20  1  0  0  0  0
 19 41  1  0  0  0  0
 19 42  1  0  0  0  0
 19 43  1  0  0  0  0
M  CHG  1  12   1
M  END
> <s_m_source_file>
AV-unprocessed.smi

> <i_m_source_file_index>
1228

> <i_lp_mmshare_version>
43012

> <i_f3d_flags>
0

> <s_epik_input>
W0NIM11jMVtjSF1jKG4objEpW0NIM10pW05IXUMoPU8pW05IXVtDSF0yW0NIMl1bQ0gyXU4oW0NIMl1bQ0gyXTIpW0NIXTNbQ0gyXVtDSDJdMw==

> <s_epik_cmdline>
J2VwaWtfcHl0aG9uJywgJy1waCcsICc3LjAnLCAnLXRuJywgJzgnLCAnLW1hJywgJzIwMCcsICctbWV0YWxfYmluZGluZycsICctaW1hZScsICc8aW5maWxlLm1hZT4nLCAnLW9tYWUnLCAnPG91dGZpbGUubWFlPic=

> <r_lp_tautomer_probability>
1

> <r_epik_Ionization_Penalty>
0.11882

> <r_epik_Ionization_Penalty_Charging>
0.11874

> <r_epik_Ionization_Penalty_Neutral>
8.03064e-05

> <r_epik_State_Penalty>
0.108313

> <r_epik_Charging_Adjusted_Penalty>
0.227053

> <i_epik_Tot_Q>
1

> <i_epik_Tot_abs_Q>
1

> <r_epik_Metal_State_Penalty>
0.108316

> <b_epik_Metal_Only>
0

> <s_lp_Force_Field>
OPLS_2005

> <r_lp_Energy>
27.674

> <b_lp_Chiralities_Consistent>
1

> <s_lp_Variant>
AV-unprocessed.smi:1228-1

> <Gold.Version>
5.8.1

> <Gold.Id.Protein>
6NUR|6NUR_protein|mol2

> <Gold.PLP.Fitness>
37.7771

> <Gold.PLP.PLP>
-32.6594

> <Gold.PLP.part.hbond>
-1.9613

> <Gold.PLP.part.metal>
0.0000

> <Gold.PLP.part.buried>
-5.0417

> <Gold.PLP.part.nonpolar>
-26.9056

> <Gold.PLP.part.repulsive>
0.1346

> <Gold.PLP.ligand.clash>
0.0021

> <Gold.PLP.ligand.torsion>
0.9012

> <Gold.PLP.Chemscore.Hbond>
1.8873

> <Gold.PLP.Chemscore.CHOScore>
0.0000

> <Gold.PLP.Chemscore.Metal>
0.0000

> <Gold.Chemscore.Hbonds>
donor molecule, donor type, donor heavy atom, donor atom, acceptor molecule, acceptor atom, score
      L1  H     5    25       P1  8028  0.91
      L1  H     8    26       P1  8028  1.00

> <Gold.PLP.Chemscore.Internal.Correction>
1.2604

> <Gold.Rescore>
     Score         DG    S(hbond)    S(metal)    S(lipo)     H(rot)  DE(clash)    DE(int)     intcor
     14.18     -17.34       1.92        0.00      73.13       1.21       0.09       3.07       ----

> <Gold.Chemscore.Fitness>
14.1819

> <Gold.Chemscore.DG>
-17.3372

> <Gold.Chemscore.ZeroCoef>
-5.4800

> <Gold.Chemscore.Hbond>
1.9155

> <Gold.Chemscore.Metal>
0.0000

> <Gold.Chemscore.Lipo>
73.1300

> <Gold.Chemscore.Internal_Hbond>
0.0000

> <Gold.Chemscore.DEClash>
0.0873

> <Gold.Chemscore.DEInternal>
3.0681

> <Gold.Chemscore.Rot>
1.2097

> <Gold.Chemscore.Internal.Correction>
   9.000000E+99

> <Gold.Chemscore.Hbonds>
donor molecule, donor type, donor heavy atom, donor atom, acceptor molecule, acceptor atom, score
      L1  H     5    25       P1  8028  0.84
      L1  H     8    26       P1  8028  0.95

> <Gold.Chemscore.Hbond.Weighted>
-6.3979

> <Gold.Chemscore.Metal.Weighted>
-0.0000

> <Gold.Chemscore.Lipo.Weighted>
-8.5562

> <Gold.Chemscore.Internal_Hbond.Weighted>
0.0000

> <Gold.Chemscore.DEClash.Weighted>
0.0873

> <Gold.Chemscore.DEInternal.Weighted>
3.0681

> <Gold.Chemscore.Rot.Weighted>
3.0969

> <Gold.Chemscore.Internal.Correction.Weighted>
   9.000000E+99

> <Gold.Protein.RotatedTorsions>
[ 6907 6896 6895 6894 ] final  -20.27 input  -60.11 | X-H torsion
[ 7974 7965 7964 7962 ] final  104.20 input  175.53 | X-H torsion
[ 8008 7997 7996 7995 ] final   99.78 input   59.86 | X-H torsion
[ 10167 10162 10161 10158 ] final   -3.38 input  -65.29 | X-H torsion
[ 10718 10713 10712 10709 ] final   74.33 input   66.30 | X-H torsion
[ 10763 10752 10751 10750 ] final -157.12 input  -60.55 | X-H torsion
[ 11005 11000 10999 10996 ] final    5.46 input  -57.11 | X-H torsion

> <Gold.Protein.ActiveResidues>
 VAL166  LYS551  ARG553  GLY616  TRP617  ASP618  TYR619  PRO620  LYS621  CYS622 
 ASP623  PHE694  ASN695  SER759  ASP760  ASP761  ALA762  ILE779  LEU786  VAL792 
 PHE793  MET794  SER795  GLU796  ALA797  LYS798  CYS799  TRP800  GLU811  SER814 

> <Gold.Protein.RotatedAtoms>
  151.2507  135.0621  159.9060 H   0  0  0  0  0  0  0  0  0  0  0  0  # atno 6907 bound_to 6896
  152.5380  134.0335  159.8045 H   0  0  0  0  0  0  0  0  0  0  0  0  # atno 6908 bound_to 6896
  151.0543  133.5548  159.2671 H   0  0  0  0  0  0  0  0  0  0  0  0  # atno 6909 bound_to 6896
  145.3359  139.2474  143.3636 H   0  0  0  0  0  0  0  0  0  0  0  0  # atno 7974 bound_to 7965
  156.1139  140.3223  155.8111 H   0  0  0  0  0  0  0  0  0  0  0  0  # atno 8008 bound_to 7997
  155.4624  140.0540  157.3006 H   0  0  0  0  0  0  0  0  0  0  0  0  # atno 8009 bound_to 7997
  154.4779  140.2040  155.9848 H   0  0  0  0  0  0  0  0  0  0  0  0  # atno 8010 bound_to 7997
  140.6888  143.6547  150.8319 H   0  0  0  0  0  0  0  0  0  0  0  0  # atno 10167 bound_to 10162
  157.6587  130.9672  150.1195 H   0  0  0  0  0  0  0  0  0  0  0  0  # atno 10718 bound_to 10713
  154.7660  135.3131  154.8284 H   0  0  0  0  0  0  0  0  0  0  0  0  # atno 10763 bound_to 10752
  153.9032  135.6813  153.4758 H   0  0  0  0  0  0  0  0  0  0  0  0  # atno 10764 bound_to 10752
  153.1267  135.4798  154.9216 H   0  0  0  0  0  0  0  0  0  0  0  0  # atno 10765 bound_to 10752
  140.5704  134.0108  155.8006 H   0  0  0  0  0  0  0  0  0  0  0  0  # atno 11005 bound_to 11000
  146.3027  140.3946  142.8698 LP  0  0  0  0  0  0  0  0  0  0  0  0  # atno 17320 bound_to 7965
  144.8828  140.7423  143.5976 LP  0  0  0  0  0  0  0  0  0  0  0  0  # atno 17321 bound_to 7965
  140.0257  143.5496  152.2781 LP  0  0  0  0  0  0  0  0  0  0  0  0  # atno 17342 bound_to 10162
  139.6270  144.7638  151.2617 LP  0  0  0  0  0  0  0  0  0  0  0  0  # atno 17343 bound_to 10162
  156.2070  130.3664  149.8717 LP  0  0  0  0  0  0  0  0  0  0  0  0  # atno 17370 bound_to 10713
  156.6605  130.8780  151.3546 LP  0  0  0  0  0  0  0  0  0  0  0  0  # atno 17371 bound_to 10713
  141.1059  133.9694  157.2997 LP  0  0  0  0  0  0  0  0  0  0  0  0  # atno 17394 bound_to 11000
  139.9364  135.0196  156.8570 LP  0  0  0  0  0  0  0  0  0  0  0  0  # atno 17395 bound_to 11000

$$$$
