AV-unprocessed.smi:2729|AV-procd|sdf|10527|dock1
  -GOLD-   2272014573D 1   1.00000     0.00000
 Structure written by MMmdl.
 33 34  0  0  0  0  0  0  0  0  1 V2000
  156.8990  139.3313  161.6152 C   0  0  0  0  0  0  0  0  0  0  0  0
  155.4488  138.8059  161.5725 C   0  0  2  0  0  0  0  0  0  0  0  0
  154.4995  139.9239  161.4756 N   0  0  0  0  0  0  0  0  0  0  0  0
  154.1266  140.6095  160.3826 C   0  0  0  0  0  0  0  0  0  0  0  0
  154.5367  140.3704  159.2475 O   0  0  0  0  0  0  0  0  0  0  0  0
  153.2409  141.5692  160.6991 N   0  0  0  0  0  0  0  0  0  0  0  0
  152.6236  142.5204  159.8429 C   0  0  0  0  0  0  0  0  0  0  0  0
  152.3574  143.8635  160.2046 C   0  0  0  0  0  0  0  0  0  0  0  0
  151.7191  144.7042  159.2727 C   0  0  0  0  0  0  0  0  0  0  0  0
  151.3646  144.1712  158.0184 C   0  0  0  0  0  0  0  0  0  0  0  0
  151.5999  142.8901  157.6652 N   0  0  0  0  0  0  0  0  0  0  0  0
  152.2113  142.0897  158.5641 C   0  0  0  0  0  0  0  0  0  0  0  0
  155.1291  137.9063  162.7964 C   0  0  0  0  0  0  0  0  0  0  0  0
  153.8535  137.1009  162.5224 C   0  0  0  0  0  0  0  0  0  0  0  0
  153.8470  136.7878  160.7195 S   0  0  0  0  0  0  0  0  0  0  0  0
  154.2640  135.4024  160.4554 O   0  0  0  0  0  0  0  0  0  0  0  0
  152.6042  137.3276  160.1470 O   0  0  0  0  0  0  0  0  0  0  0  0
  155.2390  137.9176  160.3294 C   0  0  0  0  0  0  0  0  0  0  0  0
  157.6166  138.5102  161.6123 H   0  0  0  0  0  0  0  0  0  0  0  0
  157.0952  139.9199  162.5112 H   0  0  0  0  0  0  0  0  0  0  0  0
  157.1172  139.9591  160.7505 H   0  0  0  0  0  0  0  0  0  0  0  0
  154.0881  140.2162  162.3500 H   0  0  0  0  0  0  0  0  0  0  0  0
  152.9334  141.5905  161.6606 H   0  0  0  0  0  0  0  0  0  0  0  0
  152.6134  144.2594  161.1749 H   0  0  0  0  0  0  0  0  0  0  0  0
  151.5016  145.7335  159.5162 H   0  0  0  0  0  0  0  0  0  0  0  0
  150.8734  144.7888  157.2811 H   0  0  0  0  0  0  0  0  0  0  0  0
  152.3804  141.0705  158.2478 H   0  0  0  0  0  0  0  0  0  0  0  0
  155.9491  137.1995  162.9307 H   0  0  0  0  0  0  0  0  0  0  0  0
  155.0565  138.4597  163.7323 H   0  0  0  0  0  0  0  0  0  0  0  0
  153.8176  136.1595  163.0707 H   0  0  0  0  0  0  0  0  0  0  0  0
  152.9658  137.6838  162.7691 H   0  0  0  0  0  0  0  0  0  0  0  0
  155.0274  138.4767  159.4171 H   0  0  0  0  0  0  0  0  0  0  0  0
  156.1150  137.2945  160.1448 H   0  0  0  0  0  0  0  0  0  0  0  0
  1  2  1  0  0  0  0
  1 19  1  0  0  0  0
  1 20  1  0  0  0  0
  1 21  1  0  0  0  0
  2 18  1  0  0  0  0
  2  3  1  0  0  0  0
  2 13  1  0  0  0  0
  3  4  1  0  0  0  0
  3 22  1  0  0  0  0
  4  5  2  0  0  0  0
  4  6  1  0  0  0  0
  6  7  1  0  0  0  0
  6 23  1  0  0  0  0
  7 12  1  0  0  0  0
  7  8  2  0  0  0  0
  8  9  1  0  0  0  0
  8 24  1  0  0  0  0
  9 10  2  0  0  0  0
  9 25  1  0  0  0  0
 10 11  1  0  0  0  0
 10 26  1  0  0  0  0
 11 12  2  0  0  0  0
 12 27  1  0  0  0  0
 13 14  1  0  0  0  0
 13 28  1  0  0  0  0
 13 29  1  0  0  0  0
 14 15  1  0  0  0  0
 14 30  1  0  0  0  0
 14 31  1  0  0  0  0
 15 16  2  0  0  0  0
 15 17  2  0  0  0  0
 15 18  1  0  0  0  0
 18 32  1  0  0  0  0
 18 33  1  0  0  0  0
M  END
> <s_m_source_file>
AV-unprocessed.smi

> <i_m_source_file_index>
2729

> <i_lp_mmshare_version>
43012

> <i_f3d_flags>
0

> <s_epik_input>
Tz1TKD1PKShbQ0gyXTEpW0NIMl1bQ0gyXVtDQEBdMShbQ0gzXSlbTkhdQyg9TylbTkhdYzJbY0hdW2NIXVtjSF1uW2NIXTI=

> <s_epik_cmdline>
J2VwaWtfcHl0aG9uJywgJy1waCcsICc3LjAnLCAnLXRuJywgJzgnLCAnLW1hJywgJzIwMCcsICctbWV0YWxfYmluZGluZycsICctaW1hZScsICc8aW5maWxlLm1hZT4nLCAnLW9tYWUnLCAnPG91dGZpbGUubWFlPic=

> <r_epik_Ionization_Penalty>
0.00438887

> <r_epik_Ionization_Penalty_Charging>
0

> <r_epik_Ionization_Penalty_Neutral>
0.00438887

> <r_epik_State_Penalty>
0.00314315

> <r_epik_Charging_Adjusted_Penalty>
0.00314315

> <i_epik_Tot_Q>
0

> <i_epik_Tot_abs_Q>
0

> <r_epik_Metal_State_Penalty>
-0

> <b_epik_Metal_Only>
0

> <s_lp_Force_Field>
OPLS_2005

> <r_lp_Energy>
5.04322

> <b_lp_Chiralities_Consistent>
1

> <s_lp_Variant>
AV-unprocessed.smi:2729-2

> <Gold.Version>
5.8.1

> <Gold.Id.Protein>
6NUR|6NUR_protein|mol2

> <Gold.PLP.Fitness>
39.2958

> <Gold.PLP.PLP>
-32.3948

> <Gold.PLP.part.hbond>
-2.0000

> <Gold.PLP.part.metal>
0.0000

> <Gold.PLP.part.buried>
-3.3748

> <Gold.PLP.part.nonpolar>
-26.8244

> <Gold.PLP.part.repulsive>
0.1337

> <Gold.PLP.ligand.clash>
0.0000

> <Gold.PLP.ligand.torsion>
0.7792

> <Gold.PLP.Chemscore.Hbond>
1.8160

> <Gold.PLP.Chemscore.CHOScore>
0.9988

> <Gold.PLP.Chemscore.Metal>
0.0000

> <Gold.Chemscore.Hbonds>
donor molecule, donor type, donor heavy atom, donor atom, acceptor molecule, acceptor atom, score
      P1  H  6896  6908       L1    16  1.00
      P1  H  7997  8009       L1     5  0.83
      L1  C    10    26       P1  8028  1.00

> <Gold.PLP.Chemscore.Internal.Correction>
0.0150

> <Gold.Rescore>
     Score         DG    S(hbond)    S(metal)    S(lipo)     H(rot)  DE(clash)    DE(int)     intcor
     15.20     -18.84       1.82        0.00      84.19       1.00       0.35       3.29       ----

> <Gold.Chemscore.Fitness>
15.2009

> <Gold.Chemscore.DG>
-18.8387

> <Gold.Chemscore.ZeroCoef>
-5.4800

> <Gold.Chemscore.Hbond>
1.8168

> <Gold.Chemscore.Metal>
0.0000

> <Gold.Chemscore.Lipo>
84.1928

> <Gold.Chemscore.Internal_Hbond>
0.0000

> <Gold.Chemscore.DEClash>
0.3490

> <Gold.Chemscore.DEInternal>
3.2888

> <Gold.Chemscore.Rot>
1.0000

> <Gold.Chemscore.Internal.Correction>
   9.000000E+99

> <Gold.Chemscore.Hbonds>
donor molecule, donor type, donor heavy atom, donor atom, acceptor molecule, acceptor atom, score
      P1  H  6896  6908       L1    16  0.29
      P1  H  7997  8009       L1     5  0.79

> <Gold.Chemscore.Hbond.Weighted>
-6.0681

> <Gold.Chemscore.Metal.Weighted>
-0.0000

> <Gold.Chemscore.Lipo.Weighted>
-9.8506

> <Gold.Chemscore.Internal_Hbond.Weighted>
0.0000

> <Gold.Chemscore.DEClash.Weighted>
0.3490

> <Gold.Chemscore.DEInternal.Weighted>
3.2888

> <Gold.Chemscore.Rot.Weighted>
2.5600

> <Gold.Chemscore.Internal.Correction.Weighted>
   9.000000E+99

> <Gold.Protein.RotatedTorsions>
[ 6907 6896 6895 6894 ] final  -52.71 input  -60.11 | X-H torsion
[ 7974 7965 7964 7962 ] final -151.99 input  175.53 | X-H torsion
[ 8008 7997 7996 7995 ] final  126.31 input   59.86 | X-H torsion
[ 10167 10162 10161 10158 ] final  148.79 input  -65.29 | X-H torsion
[ 10718 10713 10712 10709 ] final  -14.93 input   66.30 | X-H torsion
[ 10763 10752 10751 10750 ] final   -0.07 input  -60.55 | X-H torsion
[ 11005 11000 10999 10996 ] final  -55.18 input  -57.11 | X-H torsion

> <Gold.Protein.ActiveResidues>
 VAL166  LYS551  ARG553  GLY616  TRP617  ASP618  TYR619  PRO620  LYS621  CYS622 
 ASP623  PHE694  ASN695  SER759  ASP760  ASP761  ALA762  ILE779  LEU786  VAL792 
 PHE793  MET794  SER795  GLU796  ALA797  LYS798  CYS799  TRP800  GLU811  SER814 

> <Gold.Protein.RotatedAtoms>
  150.8493  134.7813  159.6995 H   0  0  0  0  0  0  0  0  0  0  0  0  # atno 6907 bound_to 6896
  152.4562  134.5283  159.9813 H   0  0  0  0  0  0  0  0  0  0  0  0  # atno 6908 bound_to 6896
  151.5407  133.3395  159.2970 H   0  0  0  0  0  0  0  0  0  0  0  0  # atno 6909 bound_to 6896
  144.7819  140.4722  143.5833 H   0  0  0  0  0  0  0  0  0  0  0  0  # atno 7974 bound_to 7965
  156.2860  140.2696  156.2090 H   0  0  0  0  0  0  0  0  0  0  0  0  # atno 8008 bound_to 7997
  155.0283  140.0386  157.2482 H   0  0  0  0  0  0  0  0  0  0  0  0  # atno 8009 bound_to 7997
  154.7376  140.2719  155.6406 H   0  0  0  0  0  0  0  0  0  0  0  0  # atno 8010 bound_to 7997
  139.4870  144.5652  151.7158 H   0  0  0  0  0  0  0  0  0  0  0  0  # atno 10167 bound_to 10162
  156.6089  130.4844  149.6209 H   0  0  0  0  0  0  0  0  0  0  0  0  # atno 10718 bound_to 10713
  153.3272  135.6973  153.6979 H   0  0  0  0  0  0  0  0  0  0  0  0  # atno 10763 bound_to 10752
  153.5796  135.3500  155.2870 H   0  0  0  0  0  0  0  0  0  0  0  0  # atno 10764 bound_to 10752
  154.8610  135.4292  154.2451 H   0  0  0  0  0  0  0  0  0  0  0  0  # atno 10765 bound_to 10752
  141.1061  133.6613  156.4431 H   0  0  0  0  0  0  0  0  0  0  0  0  # atno 11005 bound_to 11000
  145.6028  139.1505  143.3119 LP  0  0  0  0  0  0  0  0  0  0  0  0  # atno 17320 bound_to 7965
  146.2031  140.6148  142.9093 LP  0  0  0  0  0  0  0  0  0  0  0  0  # atno 17321 bound_to 7965
  140.5229  144.0851  150.6028 LP  0  0  0  0  0  0  0  0  0  0  0  0  # atno 17342 bound_to 10162
  140.3815  143.2800  152.0165 LP  0  0  0  0  0  0  0  0  0  0  0  0  # atno 17343 bound_to 10162
  156.2406  130.6849  151.1552 LP  0  0  0  0  0  0  0  0  0  0  0  0  # atno 17370 bound_to 10713
  157.7259  131.0649  150.5930 LP  0  0  0  0  0  0  0  0  0  0  0  0  # atno 17371 bound_to 10713
  140.4897  134.6587  157.5205 LP  0  0  0  0  0  0  0  0  0  0  0  0  # atno 17394 bound_to 11000
  139.9933  134.6951  155.9653 LP  0  0  0  0  0  0  0  0  0  0  0  0  # atno 17395 bound_to 11000

$$$$
