AV-unprocessed.smi:3229|AV-procd|sdf|12328|dock6
  -GOLD-   2272018183D 1   1.00000     0.00000
 Structure written by MMmdl.
 35 36  0  0  0  0  0  0  0  0  1 V2000
  141.1059  144.2072  160.0714 C   0  0  0  0  0  0  0  0  0  0  0  0
  141.8374  142.8972  160.3842 C   0  0  0  0  0  0  0  0  0  0  0  0
  143.3176  143.0608  160.4945 C   0  0  0  0  0  0  0  0  0  0  0  0
  144.2883  142.4183  159.7661 C   0  0  0  0  0  0  0  0  0  0  0  0
  145.5905  142.7896  160.1082 N   0  0  0  0  0  0  0  0  0  0  0  0
  145.6208  143.7101  161.0755 C   0  0  0  0  0  0  0  0  0  0  0  0
  146.8828  144.2622  161.6565 C   0  0  0  0  0  0  0  0  0  0  0  0
  147.3754  145.5409  160.9591 C   0  0  0  0  0  0  0  0  0  0  0  0
  148.3919  145.2497  159.9559 N   0  0  0  0  0  0  0  0  0  0  0  0
  149.4937  144.5201  160.1791 C   0  0  0  0  0  0  0  0  0  0  0  0
  149.7550  144.0124  161.2702 O   0  0  0  0  0  0  0  0  0  0  0  0
  150.4322  144.3285  158.9832 C   0  0  1  0  0  0  0  0  0  0  0  0
  151.8376  144.9059  159.1784 C   0  0  0  0  0  0  0  0  0  0  0  0
  152.6519  144.0321  158.2514 C   0  0  0  0  0  0  0  0  0  0  0  0
  151.9884  142.6699  158.4328 C   0  0  0  0  0  0  0  0  0  0  0  0
  150.6275  142.9336  158.7652 O   0  0  0  0  0  0  0  0  0  0  0  0
  144.0209  144.1636  161.6498 S   0  0  0  0  0  0  0  0  0  0  0  0
  140.0297  144.0455  160.0073 H   0  0  0  0  0  0  0  0  0  0  0  0
  141.4360  144.6273  159.1208 H   0  0  0  0  0  0  0  0  0  0  0  0
  141.2853  144.9520  160.8474 H   0  0  0  0  0  0  0  0  0  0  0  0
  141.4468  142.4810  161.3135 H   0  0  0  0  0  0  0  0  0  0  0  0
  141.6128  142.1644  159.6086 H   0  0  0  0  0  0  0  0  0  0  0  0
  144.1414  141.6830  158.9886 H   0  0  0  0  0  0  0  0  0  0  0  0
  146.7231  144.4569  162.7179 H   0  0  0  0  0  0  0  0  0  0  0  0
  147.6542  143.4940  161.5994 H   0  0  0  0  0  0  0  0  0  0  0  0
  146.5348  146.0513  160.4868 H   0  0  0  0  0  0  0  0  0  0  0  0
  147.7909  146.2264  161.6995 H   0  0  0  0  0  0  0  0  0  0  0  0
  148.2422  145.6204  159.0282 H   0  0  0  0  0  0  0  0  0  0  0  0
  149.9900  144.7499  158.0785 H   0  0  0  0  0  0  0  0  0  0  0  0
  151.8986  145.9626  158.9165 H   0  0  0  0  0  0  0  0  0  0  0  0
  152.1907  144.7867  160.2039 H   0  0  0  0  0  0  0  0  0  0  0  0
  152.5360  144.3721  157.2213 H   0  0  0  0  0  0  0  0  0  0  0  0
  153.7154  144.0245  158.4913 H   0  0  0  0  0  0  0  0  0  0  0  0
  152.0673  142.0481  157.5409 H   0  0  0  0  0  0  0  0  0  0  0  0
  152.4471  142.1313  159.2627 H   0  0  0  0  0  0  0  0  0  0  0  0
  1  2  1  0  0  0  0
  1 18  1  0  0  0  0
  1 19  1  0  0  0  0
  1 20  1  0  0  0  0
  2  3  1  0  0  0  0
  2 21  1  0  0  0  0
  2 22  1  0  0  0  0
  3 17  1  0  0  0  0
  3  4  2  0  0  0  0
  4  5  1  0  0  0  0
  4 23  1  0  0  0  0
  5  6  2  0  0  0  0
  6  7  1  0  0  0  0
  6 17  1  0  0  0  0
  7  8  1  0  0  0  0
  7 24  1  0  0  0  0
  7 25  1  0  0  0  0
  8  9  1  0  0  0  0
  8 26  1  0  0  0  0
  8 27  1  0  0  0  0
  9 10  1  0  0  0  0
  9 28  1  0  0  0  0
 10 11  2  0  0  0  0
 10 12  1  0  0  0  0
 12 16  1  0  0  0  0
 12 13  1  0  0  0  0
 12 29  1  0  0  0  0
 13 14  1  0  0  0  0
 13 30  1  0  0  0  0
 13 31  1  0  0  0  0
 14 15  1  0  0  0  0
 14 32  1  0  0  0  0
 14 33  1  0  0  0  0
 15 16  1  0  0  0  0
 15 34  1  0  0  0  0
 15 35  1  0  0  0  0
M  END
> <s_m_source_file>
AV-unprocessed.smi

> <i_m_source_file_index>
3229

> <i_lp_mmshare_version>
43012

> <i_f3d_flags>
0

> <s_epik_input>
W0NIM11bQ0gyXWMxW2NIXW5jKHMxKVtDSDJdW0NIMl1bTkhdQyg9TylbQ0BASF0yW0NIMl1bQ0gyXVtDSDJdTzI=

> <s_epik_cmdline>
J2VwaWtfcHl0aG9uJywgJy1waCcsICc3LjAnLCAnLXRuJywgJzgnLCAnLW1hJywgJzIwMCcsICctbWV0YWxfYmluZGluZycsICctaW1hZScsICc8aW5maWxlLm1hZT4nLCAnLW9tYWUnLCAnPG91dGZpbGUubWFlPic=

> <r_epik_Ionization_Penalty>
0.000508191

> <r_epik_Ionization_Penalty_Charging>
0

> <r_epik_Ionization_Penalty_Neutral>
0.000508191

> <r_epik_State_Penalty>
0.000316483

> <r_epik_Charging_Adjusted_Penalty>
0.000316483

> <i_epik_Tot_Q>
0

> <i_epik_Tot_abs_Q>
0

> <r_epik_Metal_State_Penalty>
-0

> <b_epik_Metal_Only>
0

> <s_lp_Force_Field>
OPLS_2005

> <r_lp_Energy>
10.5911

> <b_lp_Chiralities_Consistent>
1

> <s_lp_Variant>
AV-unprocessed.smi:3229-2

> <Gold.Version>
5.8.1

> <Gold.Id.Protein>
6NUR|6NUR_protein|mol2

> <Gold.PLP.Fitness>
41.2533

> <Gold.PLP.PLP>
-36.5020

> <Gold.PLP.part.hbond>
-3.0000

> <Gold.PLP.part.metal>
0.0000

> <Gold.PLP.part.buried>
-7.9341

> <Gold.PLP.part.nonpolar>
-28.6787

> <Gold.PLP.part.repulsive>
1.0757

> <Gold.PLP.ligand.clash>
0.0000

> <Gold.PLP.ligand.torsion>
0.6856

> <Gold.PLP.Chemscore.Hbond>
2.0281

> <Gold.PLP.Chemscore.CHOScore>
0.0000

> <Gold.PLP.Chemscore.Metal>
0.0000

> <Gold.Chemscore.Hbonds>
donor molecule, donor type, donor heavy atom, donor atom, acceptor molecule, acceptor atom, score
      L1  H     9    28       P1  8029  1.00
      P1  H  6933  6944       L1    11  0.17
      P1  H  6934  6946       L1     5  0.05

> <Gold.PLP.Chemscore.Internal.Correction>
0.0382

> <Gold.Rescore>
     Score         DG    S(hbond)    S(metal)    S(lipo)     H(rot)  DE(clash)    DE(int)     intcor
     14.26     -16.46       1.47        0.00      86.87       1.60       0.04       2.17       ----

> <Gold.Chemscore.Fitness>
14.2566

> <Gold.Chemscore.DG>
-16.4617

> <Gold.Chemscore.ZeroCoef>
-5.4800

> <Gold.Chemscore.Hbond>
1.4744

> <Gold.Chemscore.Metal>
0.0000

> <Gold.Chemscore.Lipo>
86.8660

> <Gold.Chemscore.Internal_Hbond>
0.0000

> <Gold.Chemscore.DEClash>
0.0392

> <Gold.Chemscore.DEInternal>
2.1660

> <Gold.Chemscore.Rot>
1.6040

> <Gold.Chemscore.Internal.Correction>
   9.000000E+99

> <Gold.Chemscore.Hbonds>
donor molecule, donor type, donor heavy atom, donor atom, acceptor molecule, acceptor atom, score
      L1  H     9    28       P1  8029  1.00
      P1  H  6933  6944       L1    11  0.11
      P1  H  6934  6946       L1     5  0.06

> <Gold.Chemscore.Hbond.Weighted>
-4.9246

> <Gold.Chemscore.Metal.Weighted>
-0.0000

> <Gold.Chemscore.Lipo.Weighted>
-10.1633

> <Gold.Chemscore.Internal_Hbond.Weighted>
0.0000

> <Gold.Chemscore.DEClash.Weighted>
0.0392

> <Gold.Chemscore.DEInternal.Weighted>
2.1660

> <Gold.Chemscore.Rot.Weighted>
4.1062

> <Gold.Chemscore.Internal.Correction.Weighted>
   9.000000E+99

> <Gold.Protein.RotatedTorsions>
[ 6907 6896 6895 6894 ] final -124.94 input  -60.11 | X-H torsion
[ 7974 7965 7964 7962 ] final -116.41 input  175.53 | X-H torsion
[ 8008 7997 7996 7995 ] final -101.06 input   59.86 | X-H torsion
[ 10167 10162 10161 10158 ] final   80.17 input  -65.29 | X-H torsion
[ 10718 10713 10712 10709 ] final   75.62 input   66.30 | X-H torsion
[ 10763 10752 10751 10750 ] final -174.81 input  -60.55 | X-H torsion
[ 11005 11000 10999 10996 ] final    3.31 input  -57.11 | X-H torsion

> <Gold.Protein.ActiveResidues>
 VAL166  LYS551  ARG553  GLY616  TRP617  ASP618  TYR619  PRO620  LYS621  CYS622 
 ASP623  PHE694  ASN695  SER759  ASP760  ASP761  ALA762  ILE779  LEU786  VAL792 
 PHE793  MET794  SER795  GLU796  ALA797  LYS798  CYS799  TRP800  GLU811  SER814 

> <Gold.Protein.RotatedAtoms>
  150.8818  133.7361  159.2929 H   0  0  0  0  0  0  0  0  0  0  0  0  # atno 6907 bound_to 6896
  151.4940  135.1057  159.9821 H   0  0  0  0  0  0  0  0  0  0  0  0  # atno 6908 bound_to 6896
  152.4765  133.8104  159.7056 H   0  0  0  0  0  0  0  0  0  0  0  0  # atno 6909 bound_to 6896
  145.0971  140.8528  143.3948 H   0  0  0  0  0  0  0  0  0  0  0  0  # atno 7974 bound_to 7965
  154.8373  140.0437  157.1517 H   0  0  0  0  0  0  0  0  0  0  0  0  # atno 8008 bound_to 7997
  154.9086  140.3010  155.5258 H   0  0  0  0  0  0  0  0  0  0  0  0  # atno 8009 bound_to 7997
  156.2990  140.2362  156.4122 H   0  0  0  0  0  0  0  0  0  0  0  0  # atno 8010 bound_to 7997
  139.9526  144.6016  150.8147 H   0  0  0  0  0  0  0  0  0  0  0  0  # atno 10167 bound_to 10162
  157.6641  130.9735  150.1379 H   0  0  0  0  0  0  0  0  0  0  0  0  # atno 10718 bound_to 10713
  154.5918  135.2846  155.0627 H   0  0  0  0  0  0  0  0  0  0  0  0  # atno 10763 bound_to 10752
  154.1925  135.6438  153.5068 H   0  0  0  0  0  0  0  0  0  0  0  0  # atno 10764 bound_to 10752
  153.0124  135.5449  154.6606 H   0  0  0  0  0  0  0  0  0  0  0  0  # atno 10765 bound_to 10752
  140.5946  133.9892  155.8104 H   0  0  0  0  0  0  0  0  0  0  0  0  # atno 11005 bound_to 11000
  145.0998  139.2830  143.5692 LP  0  0  0  0  0  0  0  0  0  0  0  0  # atno 17320 bound_to 7965
  146.3530  140.0561  142.8632 LP  0  0  0  0  0  0  0  0  0  0  0  0  # atno 17321 bound_to 7965
  140.7578  143.3094  151.2882 LP  0  0  0  0  0  0  0  0  0  0  0  0  # atno 17342 bound_to 10162
  139.6617  144.0178  152.2696 LP  0  0  0  0  0  0  0  0  0  0  0  0  # atno 17343 bound_to 10162
  156.2209  130.3674  149.8557 LP  0  0  0  0  0  0  0  0  0  0  0  0  # atno 17370 bound_to 10713
  156.6410  130.8705  151.3514 LP  0  0  0  0  0  0  0  0  0  0  0  0  # atno 17371 bound_to 10713
  141.0912  133.9913  157.3233 LP  0  0  0  0  0  0  0  0  0  0  0  0  # atno 17394 bound_to 11000
  139.9259  135.0201  156.8232 LP  0  0  0  0  0  0  0  0  0  0  0  0  # atno 17395 bound_to 11000

$$$$
