#       Name:                AV-unprocessed.smi:648
#       Creating user name   scv26
#       Creation time:       Fri Mar 27 00:09:18 2020


#       File generated by GOLD software.
#

@<TRIPOS>MOLECULE
AV-unprocessed.smi:648
    50    51     1
SMALL
NO_CHARGES


@<TRIPOS>ATOM
      1 ****        -1.8569  -0.3045   3.3008 C.3            1 S1                 0.0000
      2 ****        -1.2222   0.1717   1.9861 C.3            1 S1                 0.0000
      3 ****        -1.6986   1.5909   1.6221 C.3            1 S1                 0.0000
      4 ****        -1.0972   2.1284   0.3017 C.3            1 S1                 0.0000
      5 ****        -1.8460   3.4196  -0.0868 C.3            1 S1                 0.0000
      6 ****         0.3885   2.5122   0.4888 C.3            1 S1                 0.0000
      7 ****        -1.3057   1.0862  -0.8342 C.3            1 S1                 0.0000
      8 ****        -0.8958  -0.3838  -0.5155 C.3            1 S1                 0.0000
      9 ****        -1.3810  -1.3410  -1.6406 C.3            1 S1                 0.0000
     10 ****        -2.7891  -1.3948  -1.7551 O.3            1 S1                 0.0000
     11 ****         0.5784  -0.5313  -0.3708 N.4            1 S1                 1.0000
     12 ****         1.4440  -0.2276  -1.5359 C.3            1 S1                 0.0000
     13 ****         2.9307  -0.3542  -1.1677 C.3            1 S1                 0.0000
     14 ****         3.3178  -1.7268  -0.8980 N.pl3          1 S1                 0.0000
     15 ****         3.8918  -2.6367  -1.6866 C.2            1 S1                 0.0000
     16 ****         4.0938  -3.8054  -1.0949 N.2            1 S1                 0.0000
     17 ****         3.5924  -3.5250   0.1445 C.2            1 S1                 0.0000
     18 ****         3.1115  -2.2932   0.3143 N.2            1 S1                 0.0000
     19 ****        -1.5303  -0.8058   0.8348 C.3            1 S1                 0.0000
     20 ****        -2.9434  -0.3573   3.2226 H              1 S1                 0.0000
     21 ****        -1.6153   0.3719   4.1210 H              1 S1                 0.0000
     22 ****        -1.4947  -1.2956   3.5756 H              1 S1                 0.0000
     23 ****        -0.1452   0.1937   2.1504 H              1 S1                 0.0000
     24 ****        -2.7869   1.5775   1.5416 H              1 S1                 0.0000
     25 ****        -1.4710   2.2777   2.4388 H              1 S1                 0.0000
     26 ****        -1.4595   3.8389  -1.0164 H              1 S1                 0.0000
     27 ****        -1.7472   4.1852   0.6837 H              1 S1                 0.0000
     28 ****        -2.9125   3.2405  -0.2291 H              1 S1                 0.0000
     29 ****         0.8303   2.8498  -0.4491 H              1 S1                 0.0000
     30 ****         1.0007   1.6955   0.8643 H              1 S1                 0.0000
     31 ****         0.4934   3.3277   1.2053 H              1 S1                 0.0000
     32 ****        -2.3721   1.0810  -1.0634 H              1 S1                 0.0000
     33 ****        -0.8377   1.4342  -1.7546 H              1 S1                 0.0000
     34 ****        -0.9956  -1.0333  -2.6124 H              1 S1                 0.0000
     35 ****        -1.0197  -2.3544  -1.4609 H              1 S1                 0.0000
     36 ****        -3.0146  -1.9968  -2.4483 H              1 S1                 0.0000
     37 ****         0.8652   0.0728   0.3861 H              1 S1                 0.0000
     38 ****         1.2214  -0.8949  -2.3679 H              1 S1                 0.0000
     39 ****         1.2623   0.7886  -1.8810 H              1 S1                 0.0000
     40 ****         3.5461   0.0150  -1.9891 H              1 S1                 0.0000
     41 ****         3.1695   0.2615  -0.2990 H              1 S1                 0.0000
     42 ****         4.1649  -2.4422  -2.7133 H              1 S1                 0.0000
     43 ****         3.5779  -4.2512   0.9436 H              1 S1                 0.0000
     44 ****        -1.1962  -1.8095   1.1027 H              1 S1                 0.0000
     45 ****        -2.6145  -0.8713   0.7360 H              1 S1                 0.0000
     46 ****         0.7661  -1.4844  -0.0932 H              1 S1                 0.0000
     47 ****        -3.1440  -0.4851  -1.9709 LP             1 S1                 0.0000
     48 ****        -3.1848  -1.7111  -0.8930 LP             1 S1                 0.0000
     49 ****         4.4966  -4.6481  -1.4522 LP             1 S1                 0.0000
     50 ****         2.7014  -1.8890   1.1319 LP             1 S1                 0.0000
@<TRIPOS>BOND
    1    1    2 1     
    2    1   20 1     
    3    1   21 1     
    4    1   22 1     
    5    2   19 1     
    6    2    3 1     
    7    2   23 1     
    8    3    4 1     
    9    3   24 1     
   10    3   25 1     
   11    4    5 1     
   12    4    6 1     
   13    4    7 1     
   14    5   26 1     
   15    5   27 1     
   16    5   28 1     
   17    6   29 1     
   18    6   30 1     
   19    6   31 1     
   20    7    8 1     
   21    7   32 1     
   22    7   33 1     
   23    8    9 1     
   24    8   11 1     
   25    8   19 1     
   26    9   10 1     
   27    9   34 1     
   28    9   35 1     
   29   10   36 1     
   30   11   12 1     
   31   11   37 1     
   32   11   46 1     
   33   12   13 1     
   34   12   38 1     
   35   12   39 1     
   36   13   14 1     
   37   13   40 1     
   38   13   41 1     
   39   14   18 1     
   40   14   15 1     
   41   15   16 2     
   42   15   42 1     
   43   16   17 1     
   44   17   18 2     
   45   17   43 1     
   46   19   44 1     
   47   19   45 1     
   48   10   47 1     
   49   10   48 1     
   50   16   49 1     
   51   18   50 1     
@<TRIPOS>SUBSTRUCTURE
      1 S1             1
@<TRIPOS>SET
LONE_PAIRS      STATIC     ATOMS    <user>   **** ""
4 47 48 49 50
DONOR_HYDROGENS      STATIC     ATOMS    <user>   **** ""
3 36 37 46
ATOM$BLUE        STATIC     ATOMS    COLORGROUP SYSTEM
4 47 48 49 50
ATOM$RED        STATIC     ATOMS    COLORGROUP SYSTEM
3 36 37 46
