#       Name:                AV-unprocessed.smi:3111
#       Creating user name   scv26
#       Creation time:       Fri Mar 27 17:20:49 2020


#       File generated by GOLD software.
#

@<TRIPOS>MOLECULE
AV-unprocessed.smi:3111
    34    34     1
SMALL
NO_CHARGES


@<TRIPOS>ATOM
      1 ****        -4.0934   2.0762  -0.9842 C.3            1 S1                 0.0000
      2 ****        -3.5384   1.1250  -0.0335 N.am           1 S1                 0.0000
      3 ****        -2.2338   1.0229   0.2558 C.2            1 S1                 0.0000
      4 ****        -1.3736   1.7425  -0.2546 O.2            1 S1                 0.0000
      5 ****        -1.8552  -0.0426   1.2928 C.3            1 S1                 0.0000
      6 ****        -0.4454  -0.4178   1.2273 N.am           1 S1                 0.0000
      7 ****         0.0821  -1.2991   0.3621 C.2            1 S1                 0.0000
      8 ****        -0.5953  -1.9340  -0.4473 O.2            1 S1                 0.0000
      9 ****         1.6082  -1.4717   0.4197 C.3            1 S1                 0.0000
     10 ****         2.0949  -2.7635  -0.2641 C.3            1 S1                 0.0000
     11 ****         2.2704  -0.2994  -0.1357 N.pl3          1 S1                 0.0000
     12 ****         3.1016   0.5855   0.5406 C.2            1 S1                 0.0000
     13 ****         3.4894   1.5405  -0.3716 C.2            1 S1                 0.0000
     14 ****         2.9120   1.2690  -1.6091 N.2            1 S1                 0.0000
     15 ****         2.2046   0.1678  -1.3927 C.2            1 S1                 0.0000
     16 ****        -5.1763   1.9630  -1.0343 H              1 S1                 0.0000
     17 ****        -3.6866   1.9093  -1.9825 H              1 S1                 0.0000
     18 ****        -3.8707   3.1008  -0.6839 H              1 S1                 0.0000
     19 ****        -4.1847   0.5023   0.4292 H              1 S1                 0.0000
     20 ****        -2.0583   0.3544   2.2876 H              1 S1                 0.0000
     21 ****        -2.4867  -0.9248   1.1716 H              1 S1                 0.0000
     22 ****         0.1828   0.0655   1.8529 H              1 S1                 0.0000
     23 ****         1.8836  -1.5361   1.4737 H              1 S1                 0.0000
     24 ****         1.6180  -3.6435   0.1689 H              1 S1                 0.0000
     25 ****         3.1719  -2.8838  -0.1429 H              1 S1                 0.0000
     26 ****         1.8825  -2.7623  -1.3340 H              1 S1                 0.0000
     27 ****         3.3418   0.4673   1.5870 H              1 S1                 0.0000
     28 ****         4.1333   2.3964  -0.2329 H              1 S1                 0.0000
     29 ****         1.6215  -0.3095  -2.1667 H              1 S1                 0.0000
     30 ****        -1.6369   2.4425  -0.9184 LP             1 S1                 0.0000
     31 ****        -0.4122   1.6264  -0.0050 LP             1 S1                 0.0000
     32 ****        -1.5863  -1.8042  -0.4806 LP             1 S1                 0.0000
     33 ****        -0.1543  -2.5793  -1.0711 LP             1 S1                 0.0000
     34 ****         3.0080   1.7834  -2.4612 LP             1 S1                 0.0000
@<TRIPOS>BOND
    1    1    2 1     
    2    1   16 1     
    3    1   17 1     
    4    1   18 1     
    5    2    3 am    
    6    2   19 1     
    7    3    4 2     
    8    3    5 1     
    9    5    6 1     
   10    5   20 1     
   11    5   21 1     
   12    6    7 am    
   13    6   22 1     
   14    7    8 2     
   15    7    9 1     
   16    9   10 1     
   17    9   11 1     
   18    9   23 1     
   19   10   24 1     
   20   10   25 1     
   21   10   26 1     
   22   11   15 1     
   23   11   12 1     
   24   12   13 2     
   25   12   27 1     
   26   13   14 1     
   27   13   28 1     
   28   14   15 2     
   29   15   29 1     
   30    4   30 1     
   31    4   31 1     
   32    8   32 1     
   33    8   33 1     
   34   14   34 1     
@<TRIPOS>SUBSTRUCTURE
      1 S1             1
@<TRIPOS>SET
LONE_PAIRS      STATIC     ATOMS    <user>   **** ""
5 30 31 32 33 34
DONOR_HYDROGENS      STATIC     ATOMS    <user>   **** ""
2 19 22
ATOM$BLUE        STATIC     ATOMS    COLORGROUP SYSTEM
5 30 31 32 33 34
ATOM$RED        STATIC     ATOMS    COLORGROUP SYSTEM
2 19 22
