AV-unprocessed.smi:1703|AV-procd|sdf|6861|dock3
  -GOLD-   22720 8 53D 1   1.00000     0.00000
 Structure written by MMmdl.
 49 51  0  0  0  0  0  0  0  0  2 V2000
  145.8754  134.7066  155.5085 C   0  0  0  0  0  0  0  0  0  0  0  0
  146.1622  135.5843  154.2855 C   0  0  2  0  0  0  0  0  0  0  0  0
  146.8210  136.9204  154.6741 C   0  0  0  0  0  0  0  0  0  0  0  0
  147.0014  137.7713  153.4739 N   0  3  2  0  0  0  0  0  0  0  0  0
  147.7350  139.0350  153.7396 C   0  0  0  0  0  0  0  0  0  0  0  0
  149.0469  138.7982  154.5130 C   0  0  1  0  0  0  0  0  0  0  0  0
  149.6824  137.6487  153.9860 O   0  0  0  0  0  0  0  0  0  0  0  0
  149.9992  140.0069  154.4117 C   0  0  0  0  0  0  0  0  0  0  0  0
  150.9394  140.0781  155.5230 N   0  0  0  0  0  0  0  0  0  0  0  0
  152.0674  139.3483  155.7148 C   0  0  0  0  0  0  0  0  0  0  0  0
  152.5140  138.2953  154.7475 C   0  0  0  0  0  0  0  0  0  0  0  0
  151.9158  137.0408  154.9933 O   0  0  0  0  0  0  0  0  0  0  0  0
  152.7547  139.6222  156.8239 N   0  0  0  0  0  0  0  0  0  0  0  0
  152.0003  140.6189  157.4110 C   0  0  0  0  0  0  0  0  0  0  0  0
  152.1997  141.3331  158.6141 C   0  0  0  0  0  0  0  0  0  0  0  0
  151.2807  142.3239  159.0168 C   0  0  0  0  0  0  0  0  0  0  0  0
  150.1505  142.6132  158.2251 C   0  0  0  0  0  0  0  0  0  0  0  0
  149.9326  141.9130  157.0229 C   0  0  0  0  0  0  0  0  0  0  0  0
  150.8544  140.9261  156.6239 C   0  0  0  0  0  0  0  0  0  0  0  0
  145.6997  137.9938  152.8022 C   0  0  0  0  0  0  0  0  0  0  0  0
  145.0185  136.6540  152.4599 C   0  0  1  0  0  0  0  0  0  0  0  0
  145.6787  135.9123  151.2838 C   0  0  0  0  0  0  0  0  0  0  0  0
  144.9229  135.8388  153.6282 O   0  0  0  0  0  0  0  0  0  0  0  0
  146.7938  134.4716  156.0474 H   0  0  0  0  0  0  0  0  0  0  0  0
  145.4149  133.7639  155.2113 H   0  0  0  0  0  0  0  0  0  0  0  0
  145.1973  135.2041  156.2023 H   0  0  0  0  0  0  0  0  0  0  0  0
  146.8245  135.0292  153.6212 H   0  0  0  0  0  0  0  0  0  0  0  0
  146.2065  137.4469  155.4062 H   0  0  0  0  0  0  0  0  0  0  0  0
  147.7816  136.7237  155.1490 H   0  0  0  0  0  0  0  0  0  0  0  0
  147.9741  139.5279  152.7957 H   0  0  0  0  0  0  0  0  0  0  0  0
  147.0855  139.7220  154.2843 H   0  0  0  0  0  0  0  0  0  0  0  0
  148.8332  138.6085  155.5639 H   0  0  0  0  0  0  0  0  0  0  0  0
  149.1273  137.2742  153.3187 H   0  0  0  0  0  0  0  0  0  0  0  0
  150.5666  139.9653  153.4810 H   0  0  0  0  0  0  0  0  0  0  0  0
  149.4295  140.9353  154.3715 H   0  0  0  0  0  0  0  0  0  0  0  0
  152.2922  138.6093  153.7281 H   0  0  0  0  0  0  0  0  0  0  0  0
  153.5968  138.1828  154.8121 H   0  0  0  0  0  0  0  0  0  0  0  0
  151.6997  136.9856  155.9116 H   0  0  0  0  0  0  0  0  0  0  0  0
  153.0622  141.1188  159.2277 H   0  0  0  0  0  0  0  0  0  0  0  0
  151.4437  142.8641  159.9380 H   0  0  0  0  0  0  0  0  0  0  0  0
  149.4515  143.3737  158.5411 H   0  0  0  0  0  0  0  0  0  0  0  0
  149.0684  142.1344  156.4154 H   0  0  0  0  0  0  0  0  0  0  0  0
  145.0552  138.5781  153.4609 H   0  0  0  0  0  0  0  0  0  0  0  0
  145.8385  138.5811  151.8934 H   0  0  0  0  0  0  0  0  0  0  0  0
  143.9931  136.8705  152.1586 H   0  0  0  0  0  0  0  0  0  0  0  0
  145.6202  136.5060  150.3714 H   0  0  0  0  0  0  0  0  0  0  0  0
  145.1761  134.9641  151.0910 H   0  0  0  0  0  0  0  0  0  0  0  0
  146.7325  135.7018  151.4640 H   0  0  0  0  0  0  0  0  0  0  0  0
  147.5696  137.2486  152.8219 H   0  0  0  0  0  0  0  0  0  0  0  0
  1  2  1  0  0  0  0
  1 24  1  0  0  0  0
  1 25  1  0  0  0  0
  1 26  1  0  0  0  0
  2 23  1  0  0  0  0
  2  3  1  0  0  0  0
  2 27  1  0  0  0  0
  3  4  1  0  0  0  0
  3 28  1  0  0  0  0
  3 29  1  0  0  0  0
  4  5  1  0  0  0  0
  4 20  1  0  0  0  0
  4 49  1  0  0  0  0
  5  6  1  0  0  0  0
  5 30  1  0  0  0  0
  5 31  1  0  0  0  0
  6  7  1  0  0  0  0
  6  8  1  0  0  0  0
  6 32  1  0  0  0  0
  7 33  1  0  0  0  0
  8  9  1  0  0  0  0
  8 34  1  0  0  0  0
  8 35  1  0  0  0  0
  9 19  1  0  0  0  0
  9 10  1  0  0  0  0
 10 11  1  0  0  0  0
 10 13  2  0  0  0  0
 11 12  1  0  0  0  0
 11 36  1  0  0  0  0
 11 37  1  0  0  0  0
 12 38  1  0  0  0  0
 13 14  1  0  0  0  0
 14 19  2  0  0  0  0
 14 15  1  0  0  0  0
 15 16  2  0  0  0  0
 15 39  1  0  0  0  0
 16 17  1  0  0  0  0
 16 40  1  0  0  0  0
 17 18  2  0  0  0  0
 17 41  1  0  0  0  0
 18 19  1  0  0  0  0
 18 42  1  0  0  0  0
 20 21  1  0  0  0  0
 20 43  1  0  0  0  0
 20 44  1  0  0  0  0
 21 22  1  0  0  0  0
 21 23  1  0  0  0  0
 21 45  1  0  0  0  0
 22 46  1  0  0  0  0
 22 47  1  0  0  0  0
 22 48  1  0  0  0  0
M  CHG  1   4   1
M  END
> <s_m_source_file>
AV-unprocessed.smi

> <i_m_source_file_index>
1703

> <i_lp_mmshare_version>
43012

> <i_f3d_flags>
0

> <s_epik_input>
W0NIM11bQ0BASF0xW0NIMl1OKFtDSDJdW0NASF0oTzEpW0NIM10pW0NIMl1bQ0BIXShbT0hdKVtDSDJdbihjKG4yKVtDSDJdW09IXSljKGMyMylbY0hdW2NIXVtjSF1bY0hdMw==

> <s_epik_cmdline>
J2VwaWtfcHl0aG9uJywgJy1waCcsICc3LjAnLCAnLXRuJywgJzgnLCAnLW1hJywgJzIwMCcsICctbWV0YWxfYmluZGluZycsICctaW1hZScsICc8aW5maWxlLm1hZT4nLCAnLW9tYWUnLCAnPG91dGZpbGUubWFlPic=

> <r_epik_Ionization_Penalty>
0.655661

> <r_epik_Ionization_Penalty_Charging>
0.608065

> <r_epik_Ionization_Penalty_Neutral>
0.0475963

> <r_epik_State_Penalty>
0.695267

> <r_epik_Charging_Adjusted_Penalty>
1.30333

> <i_epik_Tot_Q>
1

> <i_epik_Tot_abs_Q>
1

> <r_epik_Metal_State_Penalty>
0.653591

> <b_epik_Metal_Only>
0

> <s_lp_Force_Field>
OPLS_2005

> <r_lp_Energy>
24.4185

> <b_lp_Chiralities_Consistent>
1

> <s_lp_Variant>
AV-unprocessed.smi:1703-9

> <Gold.Version>
5.8.1

> <Gold.Id.Protein>
6NUR|6NUR_protein|mol2

> <Gold.PLP.Fitness>
48.6508

> <Gold.PLP.PLP>
-35.8160

> <Gold.PLP.part.hbond>
-4.3895

> <Gold.PLP.part.metal>
0.0000

> <Gold.PLP.part.buried>
-0.5193

> <Gold.PLP.part.nonpolar>
-31.4874

> <Gold.PLP.part.repulsive>
0.0743

> <Gold.PLP.ligand.clash>
0.0000

> <Gold.PLP.ligand.torsion>
1.0371

> <Gold.PLP.Chemscore.Hbond>
4.9440

> <Gold.PLP.Chemscore.CHOScore>
0.0000

> <Gold.PLP.Chemscore.Metal>
0.0000

> <Gold.Chemscore.Hbonds>
donor molecule, donor type, donor heavy atom, donor atom, acceptor molecule, acceptor atom, score
      L1  H     4    49       P1  7948  2.00
      L1  H     7    33       P1  7948  0.96
      P1  H  7997  8010       L1    13  1.00
      P1  H 10752 10765       L1    12  1.00

> <Gold.PLP.Chemscore.Internal.Correction>
0.0771

> <Gold.Rescore>
     Score         DG    S(hbond)    S(metal)    S(lipo)     H(rot)  DE(clash)    DE(int)     intcor
     18.51     -19.84       3.62        0.00      84.24       2.96       0.24       1.08       ----

> <Gold.Chemscore.Fitness>
18.5144

> <Gold.Chemscore.DG>
-19.8374

> <Gold.Chemscore.ZeroCoef>
-5.4800

> <Gold.Chemscore.Hbond>
3.6171

> <Gold.Chemscore.Metal>
0.0000

> <Gold.Chemscore.Lipo>
84.2437

> <Gold.Chemscore.Internal_Hbond>
0.0000

> <Gold.Chemscore.DEClash>
0.2423

> <Gold.Chemscore.DEInternal>
1.0807

> <Gold.Chemscore.Rot>
2.9611

> <Gold.Chemscore.Internal.Correction>
   9.000000E+99

> <Gold.Chemscore.Hbonds>
donor molecule, donor type, donor heavy atom, donor atom, acceptor molecule, acceptor atom, score
      L1  H     4    49       P1  7948  0.99
      L1  H     7    33       P1  7948  0.92
      P1  H  7997  8010       L1    13  0.67
      P1  H 10752 10765       L1    12  0.59

> <Gold.Chemscore.Hbond.Weighted>
-12.0812

> <Gold.Chemscore.Metal.Weighted>
-0.0000

> <Gold.Chemscore.Lipo.Weighted>
-9.8565

> <Gold.Chemscore.Internal_Hbond.Weighted>
0.0000

> <Gold.Chemscore.DEClash.Weighted>
0.2423

> <Gold.Chemscore.DEInternal.Weighted>
1.0807

> <Gold.Chemscore.Rot.Weighted>
7.5803

> <Gold.Chemscore.Internal.Correction.Weighted>
   9.000000E+99

> <Gold.Protein.RotatedTorsions>
[ 6907 6896 6895 6894 ] final  -29.99 input  -60.11 | X-H torsion
[ 7974 7965 7964 7962 ] final -106.53 input  175.53 | X-H torsion
[ 8008 7997 7996 7995 ] final   72.10 input   59.86 | X-H torsion
[ 10167 10162 10161 10158 ] final  -77.00 input  -65.29 | X-H torsion
[ 10718 10713 10712 10709 ] final -145.92 input   66.30 | X-H torsion
[ 10763 10752 10751 10750 ] final  177.02 input  -60.55 | X-H torsion
[ 11005 11000 10999 10996 ] final   48.90 input  -57.11 | X-H torsion

> <Gold.Protein.ActiveResidues>
 VAL166  LYS551  ARG553  GLY616  TRP617  ASP618  TYR619  PRO620  LYS621  CYS622 
 ASP623  PHE694  ASN695  SER759  ASP760  ASP761  ALA762  ILE779  LEU786  VAL792 
 PHE793  MET794  SER795  GLU796  ALA797  LYS798  CYS799  TRP800  GLU811  SER814 

> <Gold.Protein.RotatedAtoms>
  151.1117  135.0030  159.8496 H   0  0  0  0  0  0  0  0  0  0  0  0  # atno 6907 bound_to 6896
  152.5443  134.1828  159.8652 H   0  0  0  0  0  0  0  0  0  0  0  0  # atno 6908 bound_to 6896
  151.1879  133.4640  159.2628 H   0  0  0  0  0  0  0  0  0  0  0  0  # atno 6909 bound_to 6896
  145.2167  140.9118  143.3283 H   0  0  0  0  0  0  0  0  0  0  0  0  # atno 7974 bound_to 7965
  155.7637  140.3486  155.5211 H   0  0  0  0  0  0  0  0  0  0  0  0  # atno 8008 bound_to 7997
  155.8889  140.1014  157.1454 H   0  0  0  0  0  0  0  0  0  0  0  0  # atno 8009 bound_to 7997
  154.4031  140.1308  156.4277 H   0  0  0  0  0  0  0  0  0  0  0  0  # atno 8010 bound_to 7997
  140.4808  143.2403  151.8061 H   0  0  0  0  0  0  0  0  0  0  0  0  # atno 10167 bound_to 10162
  156.3884  130.7873  151.2073 H   0  0  0  0  0  0  0  0  0  0  0  0  # atno 10718 bound_to 10713
  154.4889  135.2778  155.1512 H   0  0  0  0  0  0  0  0  0  0  0  0  # atno 10763 bound_to 10752
  154.3191  135.6213  153.5503 H   0  0  0  0  0  0  0  0  0  0  0  0  # atno 10764 bound_to 10752
  152.9885  135.5738  154.5307 H   0  0  0  0  0  0  0  0  0  0  0  0  # atno 10765 bound_to 10752
  140.1150  134.4905  155.8645 H   0  0  0  0  0  0  0  0  0  0  0  0  # atno 11005 bound_to 11000
  144.9804  139.3789  143.6265 LP  0  0  0  0  0  0  0  0  0  0  0  0  # atno 17320 bound_to 7965
  146.3385  139.8942  142.8804 LP  0  0  0  0  0  0  0  0  0  0  0  0  # atno 17321 bound_to 7965
  139.4833  144.4775  151.9349 LP  0  0  0  0  0  0  0  0  0  0  0  0  # atno 17342 bound_to 10162
  140.3860  144.2676  150.5904 LP  0  0  0  0  0  0  0  0  0  0  0  0  # atno 17343 bound_to 10162
  157.7497  131.0323  150.4220 LP  0  0  0  0  0  0  0  0  0  0  0  0  # atno 17370 bound_to 10713
  156.4477  130.4005  149.6656 LP  0  0  0  0  0  0  0  0  0  0  0  0  # atno 17371 bound_to 10713
  141.2139  133.6740  156.6778 LP  0  0  0  0  0  0  0  0  0  0  0  0  # atno 17394 bound_to 11000
  140.3041  134.8140  157.4122 LP  0  0  0  0  0  0  0  0  0  0  0  0  # atno 17395 bound_to 11000

$$$$
