AV-unprocessed.smi:104|AV-procd|sdf|1004|dock7
  -GOLD-   2262017593D 1   1.00000     0.00000
 Structure written by MMmdl.
 47 49  0  0  0  0  0  0  0  0  1 V2000
  145.8233  135.7287  161.8335 C   0  0  0  0  0  0  0  0  0  0  0  0
  147.0452  135.9004  160.9409 C   0  0  0  0  0  0  0  0  0  0  0  0
  147.6892  136.9497  160.9238 O   0  0  0  0  0  0  0  0  0  0  0  0
  147.3024  134.8047  160.2138 O   0  0  0  0  0  0  0  0  0  0  0  0
  148.2404  134.8681  159.1528 C   0  0  0  0  0  0  0  0  0  0  0  0
  147.4822  134.9996  157.8288 C   0  0  1  0  0  0  0  0  0  0  0  0
  146.7676  136.2263  157.7911 O   0  0  0  0  0  0  0  0  0  0  0  0
  146.4311  136.5160  156.4730 C   0  0  2  0  0  0  0  0  0  0  0  0
  145.0719  135.9515  156.1506 N   0  0  0  0  0  0  0  0  0  0  0  0
  144.2127  135.1374  156.8712 C   0  0  0  0  0  0  0  0  0  0  0  0
  144.5661  134.4636  158.6200 Br  0  0  0  0  0  0  0  0  0  0  0  0
  143.0757  134.8339  156.3094 N   0  0  0  0  0  0  0  0  0  0  0  0
  143.1195  135.5347  155.1139 C   0  0  0  0  0  0  0  0  0  0  0  0
  142.2252  135.6817  154.0239 C   0  0  0  0  0  0  0  0  0  0  0  0
  141.0366  135.0656  153.9657 N   0  0  0  0  0  0  0  0  0  0  0  0
  142.5844  136.4849  152.9956 N   0  0  0  0  0  0  0  0  0  0  0  0
  143.7617  137.1169  153.0340 C   0  0  0  0  0  0  0  0  0  0  0  0
  144.7011  137.0744  153.9823 N   0  0  0  0  0  0  0  0  0  0  0  0
  144.3442  136.2546  155.0149 C   0  0  0  0  0  0  0  0  0  0  0  0
  147.5078  135.8444  155.5989 C   0  0  1  0  0  0  0  0  0  0  0  0
  148.2412  136.8350  154.8901 O   0  0  0  0  0  0  0  0  0  0  0  0
  148.9524  137.7632  155.5540 C   0  0  0  0  0  0  0  0  0  0  0  0
  149.6568  138.7380  154.6192 C   0  0  0  0  0  0  0  0  0  0  0  0
  149.0538  137.8639  156.7767 O   0  0  0  0  0  0  0  0  0  0  0  0
  148.3924  135.1236  156.6114 C   0  0  2  0  0  0  0  0  0  0  0  0
  148.7534  133.8325  156.1384 O   0  0  0  0  0  0  0  0  0  0  0  0
  149.7227  133.1308  156.7498 C   0  0  0  0  0  0  0  0  0  0  0  0
  150.0919  131.8648  155.9886 C   0  0  0  0  0  0  0  0  0  0  0  0
  150.2816  133.4316  157.8047 O   0  0  0  0  0  0  0  0  0  0  0  0
  144.9212  135.6510  161.2264 H   0  0  0  0  0  0  0  0  0  0  0  0
  145.7164  136.5807  162.5054 H   0  0  0  0  0  0  0  0  0  0  0  0
  145.9154  134.8239  162.4345 H   0  0  0  0  0  0  0  0  0  0  0  0
  148.9246  135.7073  159.2862 H   0  0  0  0  0  0  0  0  0  0  0  0
  148.8345  133.9533  159.1531 H   0  0  0  0  0  0  0  0  0  0  0  0
  146.7886  134.1671  157.6935 H   0  0  0  0  0  0  0  0  0  0  0  0
  146.3189  137.5892  156.3150 H   0  0  0  0  0  0  0  0  0  0  0  0
  140.7443  134.4641  154.7224 H   0  0  0  0  0  0  0  0  0  0  0  0
  140.4369  135.2018  153.1649 H   0  0  0  0  0  0  0  0  0  0  0  0
  143.9842  137.7440  152.1834 H   0  0  0  0  0  0  0  0  0  0  0  0
  147.0271  135.1225  154.9373 H   0  0  0  0  0  0  0  0  0  0  0  0
  149.1802  139.7169  154.6694 H   0  0  0  0  0  0  0  0  0  0  0  0
  149.6179  138.3873  153.5877 H   0  0  0  0  0  0  0  0  0  0  0  0
  150.7025  138.8468  154.9069 H   0  0  0  0  0  0  0  0  0  0  0  0
  149.2586  135.7351  156.8713 H   0  0  0  0  0  0  0  0  0  0  0  0
  149.3587  131.0818  156.1818 H   0  0  0  0  0  0  0  0  0  0  0  0
  151.0728  131.5048  156.2995 H   0  0  0  0  0  0  0  0  0  0  0  0
  150.1205  132.0578  154.9160 H   0  0  0  0  0  0  0  0  0  0  0  0
  1  2  1  0  0  0  0
  1 30  1  0  0  0  0
  1 31  1  0  0  0  0
  1 32  1  0  0  0  0
  2  3  2  0  0  0  0
  2  4  1  0  0  0  0
  4  5  1  0  0  0  0
  5  6  1  0  0  0  0
  5 33  1  0  0  0  0
  5 34  1  0  0  0  0
  6 25  1  0  0  0  0
  6  7  1  0  0  0  0
  6 35  1  0  0  0  0
  7  8  1  0  0  0  0
  8  9  1  0  0  0  0
  8 20  1  0  0  0  0
  8 36  1  0  0  0  0
  9 19  1  0  0  0  0
  9 10  1  0  0  0  0
 10 11  1  0  0  0  0
 10 12  2  0  0  0  0
 12 13  1  0  0  0  0
 13 19  2  0  0  0  0
 13 14  1  0  0  0  0
 14 15  1  0  0  0  0
 14 16  2  0  0  0  0
 15 37  1  0  0  0  0
 15 38  1  0  0  0  0
 16 17  1  0  0  0  0
 17 18  2  0  0  0  0
 17 39  1  0  0  0  0
 18 19  1  0  0  0  0
 20 21  1  0  0  0  0
 20 25  1  0  0  0  0
 20 40  1  0  0  0  0
 21 22  1  0  0  0  0
 22 23  1  0  0  0  0
 22 24  2  0  0  0  0
 23 41  1  0  0  0  0
 23 42  1  0  0  0  0
 23 43  1  0  0  0  0
 25 26  1  0  0  0  0
 25 44  1  0  0  0  0
 26 27  1  0  0  0  0
 27 28  1  0  0  0  0
 27 29  2  0  0  0  0
 28 45  1  0  0  0  0
 28 46  1  0  0  0  0
 28 47  1  0  0  0  0
M  END
> <s_m_source_file>
AV-unprocessed.smi

> <i_m_source_file_index>
104

> <i_lp_mmshare_version>
43012

> <i_f3d_flags>
0

> <s_epik_input>
W0NIM11DKD1PKU9bQ0gyXVtDQEBIXTFPW0NASF0oW0NAQEhdKE9DKD1PKVtDSDNdKVtDQEhdMU9DKD1PKVtDSDNdKW4oYyhCciluMiljKGMyMyluW2NIXW5jM1tOSDJd

> <s_epik_cmdline>
J2VwaWtfcHl0aG9uJywgJy1waCcsICc3LjAnLCAnLXRuJywgJzgnLCAnLW1hJywgJzIwMCcsICctbWV0YWxfYmluZGluZycsICctaW1hZScsICc8aW5maWxlLm1hZT4nLCAnLW9tYWUnLCAnPG91dGZpbGUubWFlPic=

> <r_lp_tautomer_probability>
1

> <r_epik_Ionization_Penalty>
7.36622e-05

> <r_epik_Ionization_Penalty_Charging>
0

> <r_epik_Ionization_Penalty_Neutral>
7.36622e-05

> <r_epik_State_Penalty>
-0

> <r_epik_Charging_Adjusted_Penalty>
0

> <i_epik_Tot_Q>
0

> <i_epik_Tot_abs_Q>
0

> <r_epik_Metal_State_Penalty>
-0

> <b_epik_Metal_Only>
0

> <s_epik_Chemistry_Notes>
This compound has an ester and may undergo hydrolysis at high or low pH. This compound contains an acetal/aminal-like group ( X-CH(R)-Y where X, Y are N, S, or O) that may be acid/base labile, releasing an aldehyde.

> <s_lp_Force_Field>
OPLS_2005

> <r_lp_Energy>
12.8289

> <b_lp_Chiralities_Consistent>
1

> <s_lp_Variant>
AV-unprocessed.smi:104-12

> <Gold.Version>
5.8.1

> <Gold.Id.Protein>
6NUR|6NUR_protein|mol2

> <Gold.PLP.Fitness>
36.0738

> <Gold.PLP.PLP>
-20.6607

> <Gold.PLP.part.hbond>
-4.9818

> <Gold.PLP.part.metal>
0.0000

> <Gold.PLP.part.buried>
-4.9845

> <Gold.PLP.part.nonpolar>
-12.3975

> <Gold.PLP.part.repulsive>
0.6001

> <Gold.PLP.ligand.clash>
0.0000

> <Gold.PLP.ligand.torsion>
0.8371

> <Gold.PLP.Chemscore.Hbond>
3.8336

> <Gold.PLP.Chemscore.CHOScore>
1.8068

> <Gold.PLP.Chemscore.Metal>
0.0000

> <Gold.Chemscore.Hbonds>
donor molecule, donor type, donor heavy atom, donor atom, acceptor molecule, acceptor atom, score
      L1  H    15    37       P1 11000  1.00
      P1  H  6896  6908       L1    29  1.00
      P1  H  6931  6943       L1     3  0.78
      P1  H  6934  6947       L1     3  0.71
      P1  H 11000 11005       L1    12  0.19
      L1  C    17    39       P1 10171  1.00
      L1  C    17    39       P1 10175  0.40

> <Gold.PLP.Chemscore.Internal.Correction>
0.1661

> <Gold.Rescore>
     Score         DG    S(hbond)    S(metal)    S(lipo)     H(rot)  DE(clash)    DE(int)     intcor
      5.39     -10.40       3.91        0.00      24.53       4.31       0.00       5.00       ----

> <Gold.Chemscore.Fitness>
5.3894

> <Gold.Chemscore.DG>
-10.3973

> <Gold.Chemscore.ZeroCoef>
-5.4800

> <Gold.Chemscore.Hbond>
3.9140

> <Gold.Chemscore.Metal>
0.0000

> <Gold.Chemscore.Lipo>
24.5326

> <Gold.Chemscore.Internal_Hbond>
0.0000

> <Gold.Chemscore.DEClash>
0.0038

> <Gold.Chemscore.DEInternal>
5.0041

> <Gold.Chemscore.Rot>
4.3070

> <Gold.Chemscore.Internal.Correction>
   9.000000E+99

> <Gold.Chemscore.Hbonds>
donor molecule, donor type, donor heavy atom, donor atom, acceptor molecule, acceptor atom, score
      L1  H    15    37       P1 11000  0.23
      P1  H  6896  6908       L1    29  0.95
      P1  H  6931  6943       L1     3  0.73
      P1  H  6934  6947       L1     3  0.68
      P1  H 11000 11005       L1    12  0.19

> <Gold.Chemscore.Hbond.Weighted>
-13.0728

> <Gold.Chemscore.Metal.Weighted>
-0.0000

> <Gold.Chemscore.Lipo.Weighted>
-2.8703

> <Gold.Chemscore.Internal_Hbond.Weighted>
0.0000

> <Gold.Chemscore.DEClash.Weighted>
0.0038

> <Gold.Chemscore.DEInternal.Weighted>
5.0041

> <Gold.Chemscore.Rot.Weighted>
11.0259

> <Gold.Chemscore.Internal.Correction.Weighted>
   9.000000E+99

> <Gold.Protein.RotatedTorsions>
[ 6907 6896 6895 6894 ] final  121.44 input  -60.11 | X-H torsion
[ 7974 7965 7964 7962 ] final   67.59 input  175.53 | X-H torsion
[ 8008 7997 7996 7995 ] final  157.16 input   59.86 | X-H torsion
[ 10167 10162 10161 10158 ] final   55.60 input  -65.29 | X-H torsion
[ 10718 10713 10712 10709 ] final  147.78 input   66.30 | X-H torsion
[ 10763 10752 10751 10750 ] final -148.93 input  -60.55 | X-H torsion
[ 11005 11000 10999 10996 ] final  -92.83 input  -57.11 | X-H torsion

> <Gold.Protein.ActiveResidues>
 VAL166  LYS551  ARG553  GLY616  TRP617  ASP618  TYR619  PRO620  LYS621  CYS622 
 ASP623  PHE694  ASN695  SER759  ASP760  ASP761  ALA762  ILE779  LEU786  VAL792 
 PHE793  MET794  SER795  GLU796  ALA797  LYS798  CYS799  TRP800  GLU811  SER814 

> <Gold.Protein.RotatedAtoms>
  152.4321  133.7297  159.6579 H   0  0  0  0  0  0  0  0  0  0  0  0  # atno 6907 bound_to 6896
  150.8202  133.8256  159.3148 H   0  0  0  0  0  0  0  0  0  0  0  0  # atno 6908 bound_to 6896
  151.5941  135.1054  160.0097 H   0  0  0  0  0  0  0  0  0  0  0  0  # atno 6909 bound_to 6896
  145.8129  139.3042  143.1089 H   0  0  0  0  0  0  0  0  0  0  0  0  # atno 7974 bound_to 7965
  156.2380  140.1893  156.7065 H   0  0  0  0  0  0  0  0  0  0  0  0  # atno 8008 bound_to 7997
  154.6144  140.0617  156.9562 H   0  0  0  0  0  0  0  0  0  0  0  0  # atno 8009 bound_to 7997
  155.1964  140.3288  155.4353 H   0  0  0  0  0  0  0  0  0  0  0  0  # atno 8010 bound_to 7997
  140.2178  144.3821  150.6463 H   0  0  0  0  0  0  0  0  0  0  0  0  # atno 10167 bound_to 10162
  157.3168  131.0897  151.1272 H   0  0  0  0  0  0  0  0  0  0  0  0  # atno 10718 bound_to 10713
  154.8206  135.3322  154.7050 H   0  0  0  0  0  0  0  0  0  0  0  0  # atno 10763 bound_to 10752
  153.7683  135.6927  153.4916 H   0  0  0  0  0  0  0  0  0  0  0  0  # atno 10764 bound_to 10752
  153.2062  135.4498  155.0274 H   0  0  0  0  0  0  0  0  0  0  0  0  # atno 10765 bound_to 10752
  141.1512  133.7847  157.0074 H   0  0  0  0  0  0  0  0  0  0  0  0  # atno 11005 bound_to 11000
  145.9758  140.8723  143.0139 LP  0  0  0  0  0  0  0  0  0  0  0  0  # atno 17320 bound_to 7965
  144.6755  140.2010  143.7387 LP  0  0  0  0  0  0  0  0  0  0  0  0  # atno 17321 bound_to 7965
  140.6277  143.2183  151.6561 LP  0  0  0  0  0  0  0  0  0  0  0  0  # atno 17342 bound_to 10162
  139.5156  144.3375  152.0771 LP  0  0  0  0  0  0  0  0  0  0  0  0  # atno 17343 bound_to 10162
  157.2573  130.6642  149.5958 LP  0  0  0  0  0  0  0  0  0  0  0  0  # atno 17370 bound_to 10713
  155.9682  130.4519  150.5755 LP  0  0  0  0  0  0  0  0  0  0  0  0  # atno 17371 bound_to 10713
  140.0900  134.9598  157.1761 LP  0  0  0  0  0  0  0  0  0  0  0  0  # atno 17394 bound_to 11000
  140.3459  134.2652  155.7205 LP  0  0  0  0  0  0  0  0  0  0  0  0  # atno 17395 bound_to 11000

$$$$
