AV-unprocessed.smi:281|AV-procd|sdf|2116|dock3
  -GOLD-   2262021413D 1   1.00000     0.00000
 Structure written by MMmdl.
 55 59  0  0  0  0  0  0  0  0  1 V2000
  148.9098  141.3990  153.7586 C   0  0  0  0  0  0  0  0  0  0  0  0
  149.0388  140.2021  154.7058 C   0  0  1  0  0  0  0  0  0  0  0  0
  148.2427  138.9850  154.2099 C   0  0  0  0  0  0  0  0  0  0  0  0
  148.4822  137.8571  155.0970 N   0  0  0  0  0  0  0  0  0  0  0  0
  147.6898  136.7835  154.8984 C   0  0  0  0  0  0  0  0  0  0  0  0
  147.8570  135.7347  155.7402 N   0  0  0  0  0  0  0  0  0  0  0  0
  147.1120  134.6351  155.5925 C   0  0  0  0  0  0  0  0  0  0  0  0
  146.1671  134.3822  154.6843 N   0  0  0  0  0  0  0  0  0  0  0  0
  146.0018  135.4347  153.8321 C   0  0  0  0  0  0  0  0  0  0  0  0
  146.7190  136.6638  153.8638 C   0  0  0  0  0  0  0  0  0  0  0  0
  146.2934  137.4867  152.8279 N   0  0  0  0  0  0  0  0  0  0  0  0
  145.3728  136.7870  152.2231 C   0  0  0  0  0  0  0  0  0  0  0  0
  145.1254  135.5461  152.7662 N   0  0  0  0  0  0  0  0  0  0  0  0
  144.1616  134.5621  152.2964 C   0  0  0  0  0  0  0  0  0  0  0  0
  144.5226  133.9372  150.9264 C   0  0  2  0  0  0  0  0  0  0  0  0
  144.2703  134.8848  149.9053 O   0  0  0  0  0  0  0  0  0  0  0  0
  143.7181  132.6679  150.6380 C   0  0  0  0  0  0  0  0  0  0  0  0
  144.7424  131.5512  150.7962 C   0  0  0  0  0  0  0  0  0  0  0  0
  145.9257  132.1476  150.2968 O   0  0  0  0  0  0  0  0  0  0  0  0
  145.9871  133.4630  150.8289 C   0  0  0  0  0  0  0  0  0  0  0  0
  149.8929  137.5173  155.2103 C   0  0  0  0  0  0  0  0  0  0  0  0
  150.7233  138.7459  155.6499 C   0  0  1  0  0  0  0  0  0  0  0  0
  150.5147  139.1283  157.1220 C   0  0  0  0  0  0  0  0  0  0  0  0
  151.8018  138.6966  157.8111 C   0  0  0  0  0  0  0  0  0  0  0  0
  152.7755  138.9267  156.8106 O   0  0  0  0  0  0  0  0  0  0  0  0
  152.2383  138.4304  155.5934 C   0  0  2  0  0  0  0  0  0  0  0  0
  153.0027  139.0115  154.3950 C   0  0  0  0  0  0  0  0  0  0  0  0
  150.4218  139.8551  154.7920 O   0  0  0  0  0  0  0  0  0  0  0  0
  147.8703  141.7131  153.6616 H   0  0  0  0  0  0  0  0  0  0  0  0
  149.2813  141.1553  152.7627 H   0  0  0  0  0  0  0  0  0  0  0  0
  149.4813  142.2506  154.1282 H   0  0  0  0  0  0  0  0  0  0  0  0
  148.6700  140.5003  155.6877 H   0  0  0  0  0  0  0  0  0  0  0  0
  147.1768  139.2156  154.1811 H   0  0  0  0  0  0  0  0  0  0  0  0
  148.5504  138.7351  153.1942 H   0  0  0  0  0  0  0  0  0  0  0  0
  147.3008  133.8441  156.3032 H   0  0  0  0  0  0  0  0  0  0  0  0
  144.8466  137.1617  151.3572 H   0  0  0  0  0  0  0  0  0  0  0  0
  144.0781  133.7811  153.0533 H   0  0  0  0  0  0  0  0  0  0  0  0
  143.1831  135.0419  152.2456 H   0  0  0  0  0  0  0  0  0  0  0  0
  144.7780  134.6475  149.1444 H   0  0  0  0  0  0  0  0  0  0  0  0
  142.8573  132.5385  151.2949 H   0  0  0  0  0  0  0  0  0  0  0  0
  143.3478  132.6631  149.6114 H   0  0  0  0  0  0  0  0  0  0  0  0
  144.8762  131.2854  151.8461 H   0  0  0  0  0  0  0  0  0  0  0  0
  144.4763  130.6517  150.2406 H   0  0  0  0  0  0  0  0  0  0  0  0
  146.6171  134.1103  150.2174 H   0  0  0  0  0  0  0  0  0  0  0  0
  146.4458  133.3943  151.8155 H   0  0  0  0  0  0  0  0  0  0  0  0
  150.0248  136.6982  155.9191 H   0  0  0  0  0  0  0  0  0  0  0  0
  150.2482  137.1602  154.2424 H   0  0  0  0  0  0  0  0  0  0  0  0
  150.4188  140.2101  157.2216 H   0  0  0  0  0  0  0  0  0  0  0  0
  149.6296  138.6765  157.5713 H   0  0  0  0  0  0  0  0  0  0  0  0
  152.0081  139.2679  158.7163 H   0  0  0  0  0  0  0  0  0  0  0  0
  151.7756  137.6363  158.0672 H   0  0  0  0  0  0  0  0  0  0  0  0
  152.3854  137.3485  155.6062 H   0  0  0  0  0  0  0  0  0  0  0  0
  152.5861  138.6518  153.4538 H   0  0  0  0  0  0  0  0  0  0  0  0
  154.0523  138.7191  154.4277 H   0  0  0  0  0  0  0  0  0  0  0  0
  152.9654  140.1011  154.3872 H   0  0  0  0  0  0  0  0  0  0  0  0
  1  2  1  0  0  0  0
  1 29  1  0  0  0  0
  1 30  1  0  0  0  0
  1 31  1  0  0  0  0
  2 28  1  0  0  0  0
  2  3  1  0  0  0  0
  2 32  1  0  0  0  0
  3  4  1  0  0  0  0
  3 33  1  0  0  0  0
  3 34  1  0  0  0  0
  4  5  1  0  0  0  0
  4 21  1  0  0  0  0
  5 10  1  0  0  0  0
  5  6  2  0  0  0  0
  6  7  1  0  0  0  0
  7  8  2  0  0  0  0
  7 35  1  0  0  0  0
  8  9  1  0  0  0  0
  9 13  1  0  0  0  0
  9 10  2  0  0  0  0
 10 11  1  0  0  0  0
 11 12  2  0  0  0  0
 12 13  1  0  0  0  0
 12 36  1  0  0  0  0
 13 14  1  0  0  0  0
 14 15  1  0  0  0  0
 14 37  1  0  0  0  0
 14 38  1  0  0  0  0
 15 20  1  0  0  0  0
 15 16  1  0  0  0  0
 15 17  1  0  0  0  0
 16 39  1  0  0  0  0
 17 18  1  0  0  0  0
 17 40  1  0  0  0  0
 17 41  1  0  0  0  0
 18 19  1  0  0  0  0
 18 42  1  0  0  0  0
 18 43  1  0  0  0  0
 19 20  1  0  0  0  0
 20 44  1  0  0  0  0
 20 45  1  0  0  0  0
 21 22  1  0  0  0  0
 21 46  1  0  0  0  0
 21 47  1  0  0  0  0
 22 26  1  0  0  0  0
 22 23  1  0  0  0  0
 22 28  1  0  0  0  0
 23 24  1  0  0  0  0
 23 48  1  0  0  0  0
 23 49  1  0  0  0  0
 24 25  1  0  0  0  0
 24 50  1  0  0  0  0
 24 51  1  0  0  0  0
 25 26  1  0  0  0  0
 26 27  1  0  0  0  0
 26 52  1  0  0  0  0
 27 53  1  0  0  0  0
 27 54  1  0  0  0  0
 27 55  1  0  0  0  0
M  END
> <s_m_source_file>
AV-unprocessed.smi

> <i_m_source_file_index>
281

> <i_lp_mmshare_version>
43012

> <i_f3d_flags>
0

> <s_epik_input>
W0NIM11bQ0BASF0xT1tDSDJdW0NIMl1bQ0BAXTEyW0NIMl1OKFtDSDJdW0NASF0oTzIpW0NIM10pYyhuW2NIXW4zKWMoYzM0KW5bY0hdbjRbQ0gyXVtDQEBdNShbT0hdKVtDSDJdW0NIMl1PW0NIMl01

> <s_epik_cmdline>
J2VwaWtfcHl0aG9uJywgJy1waCcsICc3LjAnLCAnLXRuJywgJzgnLCAnLW1hJywgJzIwMCcsICctbWV0YWxfYmluZGluZycsICctaW1hZScsICc8aW5maWxlLm1hZT4nLCAnLW9tYWUnLCAnPG91dGZpbGUubWFlPic=

> <r_lp_tautomer_probability>
1

> <r_epik_Ionization_Penalty>
0.00571331

> <r_epik_Ionization_Penalty_Charging>
0

> <r_epik_Ionization_Penalty_Neutral>
0.00571331

> <r_epik_State_Penalty>
0.00399586

> <r_epik_Charging_Adjusted_Penalty>
0.00399586

> <i_epik_Tot_Q>
0

> <i_epik_Tot_abs_Q>
0

> <r_epik_Metal_State_Penalty>
-0

> <b_epik_Metal_Only>
0

> <s_lp_Force_Field>
OPLS_2005

> <r_lp_Energy>
55.1206

> <b_lp_Chiralities_Consistent>
1

> <s_lp_Variant>
AV-unprocessed.smi:281-16

> <Gold.Version>
5.8.1

> <Gold.Id.Protein>
6NUR|6NUR_protein|mol2

> <Gold.PLP.Fitness>
41.9052

> <Gold.PLP.PLP>
-30.4321

> <Gold.PLP.part.hbond>
-3.0011

> <Gold.PLP.part.metal>
0.0000

> <Gold.PLP.part.buried>
-1.0149

> <Gold.PLP.part.nonpolar>
-26.5580

> <Gold.PLP.part.repulsive>
0.9107

> <Gold.PLP.ligand.clash>
0.0000

> <Gold.PLP.ligand.torsion>
0.3115

> <Gold.PLP.Chemscore.Hbond>
2.9750

> <Gold.PLP.Chemscore.CHOScore>
1.0000

> <Gold.PLP.Chemscore.Metal>
0.0000

> <Gold.Chemscore.Hbonds>
donor molecule, donor type, donor heavy atom, donor atom, acceptor molecule, acceptor atom, score
      L1  H    16    39       P1  7921  0.99
      P1  H  7989  7998       L1    28  0.98
      P1  H  7997  8008       L1    25  1.00
      L1  C    12    36       P1 10171  1.00

> <Gold.PLP.Chemscore.Internal.Correction>
0.1710

> <Gold.Rescore>
     Score         DG    S(hbond)    S(metal)    S(lipo)     H(rot)  DE(clash)    DE(int)     intcor
     16.56     -19.84       2.74        0.00      90.26       2.09       1.70       1.58       ----

> <Gold.Chemscore.Fitness>
16.5580

> <Gold.Chemscore.DG>
-19.8387

> <Gold.Chemscore.ZeroCoef>
-5.4800

> <Gold.Chemscore.Hbond>
2.7413

> <Gold.Chemscore.Metal>
0.0000

> <Gold.Chemscore.Lipo>
90.2578

> <Gold.Chemscore.Internal_Hbond>
0.0000

> <Gold.Chemscore.DEClash>
1.6986

> <Gold.Chemscore.DEInternal>
1.5821

> <Gold.Chemscore.Rot>
2.0927

> <Gold.Chemscore.Internal.Correction>
   9.000000E+99

> <Gold.Chemscore.Hbonds>
donor molecule, donor type, donor heavy atom, donor atom, acceptor molecule, acceptor atom, score
      L1  H    16    39       P1  7921  0.92
      P1  H  7989  7998       L1    28  0.80
      P1  H  7997  8008       L1    25  0.93

> <Gold.Chemscore.Hbond.Weighted>
-9.1559

> <Gold.Chemscore.Metal.Weighted>
-0.0000

> <Gold.Chemscore.Lipo.Weighted>
-10.5602

> <Gold.Chemscore.Internal_Hbond.Weighted>
0.0000

> <Gold.Chemscore.DEClash.Weighted>
1.6986

> <Gold.Chemscore.DEInternal.Weighted>
1.5821

> <Gold.Chemscore.Rot.Weighted>
5.3573

> <Gold.Chemscore.Internal.Correction.Weighted>
   9.000000E+99

> <Gold.Protein.RotatedTorsions>
[ 6907 6896 6895 6894 ] final  -39.61 input  -60.11 | X-H torsion
[ 7974 7965 7964 7962 ] final  118.26 input  175.53 | X-H torsion
[ 8008 7997 7996 7995 ] final  -64.92 input   59.86 | X-H torsion
[ 10167 10162 10161 10158 ] final -114.36 input  -65.29 | X-H torsion
[ 10718 10713 10712 10709 ] final  -11.99 input   66.30 | X-H torsion
[ 10763 10752 10751 10750 ] final  -33.65 input  -60.55 | X-H torsion
[ 11005 11000 10999 10996 ] final   11.13 input  -57.11 | X-H torsion

> <Gold.Protein.ActiveResidues>
 VAL166  LYS551  ARG553  GLY616  TRP617  ASP618  TYR619  PRO620  LYS621  CYS622 
 ASP623  PHE694  ASN695  SER759  ASP760  ASP761  ALA762  ILE779  LEU786  VAL792 
 PHE793  MET794  SER795  GLU796  ALA797  LYS798  CYS799  TRP800  GLU811  SER814 

> <Gold.Protein.RotatedAtoms>
  150.9883  134.9224  159.7884 H   0  0  0  0  0  0  0  0  0  0  0  0  # atno 6907 bound_to 6896
  152.5243  134.3316  159.9195 H   0  0  0  0  0  0  0  0  0  0  0  0  # atno 6908 bound_to 6896
  151.3322  133.3955  159.2698 H   0  0  0  0  0  0  0  0  0  0  0  0  # atno 6909 bound_to 6896
  145.1574  139.3175  143.4535 H   0  0  0  0  0  0  0  0  0  0  0  0  # atno 7974 bound_to 7965
  154.4640  140.0944  156.6971 H   0  0  0  0  0  0  0  0  0  0  0  0  # atno 8008 bound_to 7997
  155.4910  140.3470  155.4336 H   0  0  0  0  0  0  0  0  0  0  0  0  # atno 8009 bound_to 7997
  156.0923  140.1400  156.9564 H   0  0  0  0  0  0  0  0  0  0  0  0  # atno 8010 bound_to 7997
  140.1018  143.4606  152.1807 H   0  0  0  0  0  0  0  0  0  0  0  0  # atno 10167 bound_to 10162
  156.6510  130.4955  149.6062 H   0  0  0  0  0  0  0  0  0  0  0  0  # atno 10718 bound_to 10713
  153.8338  135.6864  153.4811 H   0  0  0  0  0  0  0  0  0  0  0  0  # atno 10763 bound_to 10752
  153.1495  135.4624  154.9614 H   0  0  0  0  0  0  0  0  0  0  0  0  # atno 10764 bound_to 10752
  154.7875  135.3290  154.7798 H   0  0  0  0  0  0  0  0  0  0  0  0  # atno 10765 bound_to 10752
  140.5066  134.0693  155.7807 H   0  0  0  0  0  0  0  0  0  0  0  0  # atno 11005 bound_to 11000
  146.3487  140.1671  142.8590 LP  0  0  0  0  0  0  0  0  0  0  0  0  # atno 17320 bound_to 7965
  145.0367  140.8913  143.5077 LP  0  0  0  0  0  0  0  0  0  0  0  0  # atno 17321 bound_to 7965
  139.5667  144.7439  151.4003 LP  0  0  0  0  0  0  0  0  0  0  0  0  # atno 17342 bound_to 10162
  140.6974  143.7716  150.7348 LP  0  0  0  0  0  0  0  0  0  0  0  0  # atno 17343 bound_to 10162
  156.2084  130.6664  151.1243 LP  0  0  0  0  0  0  0  0  0  0  0  0  # atno 17370 bound_to 10713
  157.7141  131.0719  150.6393 LP  0  0  0  0  0  0  0  0  0  0  0  0  # atno 17371 bound_to 10713
  141.1407  133.9143  157.2331 LP  0  0  0  0  0  0  0  0  0  0  0  0  # atno 17394 bound_to 11000
  139.9682  135.0136  156.9444 LP  0  0  0  0  0  0  0  0  0  0  0  0  # atno 17395 bound_to 11000

$$$$
