#       Name:                AV-unprocessed.smi:1971
#       Creating user name   scv26
#       Creation time:       Fri Mar 27 10:14:34 2020


#       File generated by GOLD software.
#

@<TRIPOS>MOLECULE
AV-unprocessed.smi:1971
    48    49     1
SMALL
NO_CHARGES


@<TRIPOS>ATOM
      1 ****        -4.9797  -2.8122   0.0377 C.3            1 S1                 0.0000
      2 ****        -3.9835  -2.0889  -0.8803 C.3            1 S1                 0.0000
      3 ****        -3.9027  -0.6572  -0.5806 N.3            1 S1                 0.0000
      4 ****        -3.2823  -0.3293   0.7082 C.3            1 S1                 0.0000
      5 ****        -1.7664  -0.6180   0.7182 C.3            1 S1                 0.0000
      6 ****        -1.0930   0.1349  -0.3684 N.4            1 S1                 1.0000
      7 ****         0.3954   0.0638  -0.3179 C.3            1 S1                 0.0000
      8 ****         0.9600  -1.2598  -0.8788 C.3            1 S1                 0.0000
      9 ****         1.0183   1.3110  -0.9863 C.3            1 S1                 0.0000
     10 ****         2.4722   1.3420  -0.8662 N.am           1 S1                 0.0000
     11 ****         3.1591   1.6635   0.2390 C.2            1 S1                 0.0000
     12 ****         2.5558   1.9886   1.2643 O.2            1 S1                 0.0000
     13 ****         4.4996   1.5812   0.0878 N.pl3          1 S1                -1.0000
     14 ****         5.3104   1.8457   1.1252 C.2            1 S1                 0.0000
     15 ****         5.8631   0.8885   1.8792 N.2            1 S1                 0.0000
     16 ****         6.6762   1.3855   2.8994 C.2            1 S1                 0.0000
     17 ****         6.7508   2.7531   2.9174 C.2            1 S1                 0.0000
     18 ****         5.7959   3.4615   1.6463 S.3            1 S1                 0.0000
     19 ****        -1.7119  -0.1860  -1.6805 C.3            1 S1                 0.0000
     20 ****        -3.2278   0.0998  -1.6385 C.3            1 S1                 0.0000
     21 ****        -5.1147  -3.8443  -0.2859 H              1 S1                 0.0000
     22 ****        -5.9580  -2.3309   0.0171 H              1 S1                 0.0000
     23 ****        -4.6377  -2.8433   1.0719 H              1 S1                 0.0000
     24 ****        -3.0067  -2.5683  -0.8281 H              1 S1                 0.0000
     25 ****        -4.3298  -2.2061  -1.9080 H              1 S1                 0.0000
     26 ****        -3.4472   0.7306   0.9070 H              1 S1                 0.0000
     27 ****        -3.7763  -0.8626   1.5194 H              1 S1                 0.0000
     28 ****        -1.3582  -0.3103   1.6814 H              1 S1                 0.0000
     29 ****        -1.5694  -1.6859   0.6256 H              1 S1                 0.0000
     30 ****         0.6706   0.1062   0.7366 H              1 S1                 0.0000
     31 ****         2.0290  -1.3441  -0.6813 H              1 S1                 0.0000
     32 ****         0.8264  -1.3325  -1.9582 H              1 S1                 0.0000
     33 ****         0.4856  -2.1277  -0.4213 H              1 S1                 0.0000
     34 ****         0.7836   1.3340  -2.0500 H              1 S1                 0.0000
     35 ****         0.5982   2.2231  -0.5591 H              1 S1                 0.0000
     36 ****         3.0060   1.0855  -1.6839 H              1 S1                 0.0000
     37 ****         7.1657   0.6922   3.5669 H              1 S1                 0.0000
     38 ****         7.3062   3.3834   3.5953 H              1 S1                 0.0000
     39 ****        -1.2603   0.4216  -2.4640 H              1 S1                 0.0000
     40 ****        -1.5309  -1.2267  -1.9497 H              1 S1                 0.0000
     41 ****        -3.6840  -0.1278  -2.6026 H              1 S1                 0.0000
     42 ****        -3.3937   1.1640  -1.4660 H              1 S1                 0.0000
     43 ****        -1.3138   1.1039  -0.1881 H              1 S1                 0.0000
     44 ****        -4.8625  -0.3822  -0.5248 LP             1 S1                 0.0000
     45 ****         1.5561   2.0119   1.2700 LP             1 S1                 0.0000
     46 ****         3.0663   2.2288   2.0899 LP             1 S1                 0.0000
     47 ****         4.8879   1.3232  -0.7969 LP             1 S1                 0.0000
     48 ****         5.7088  -0.0877   1.7268 LP             1 S1                 0.0000
@<TRIPOS>BOND
    1    1    2 1     
    2    1   21 1     
    3    1   22 1     
    4    1   23 1     
    5    2    3 1     
    6    2   24 1     
    7    2   25 1     
    8    3   20 1     
    9    3    4 1     
   10    4    5 1     
   11    4   26 1     
   12    4   27 1     
   13    5    6 1     
   14    5   28 1     
   15    5   29 1     
   16    6    7 1     
   17    6   19 1     
   18    6   43 1     
   19    7    8 1     
   20    7    9 1     
   21    7   30 1     
   22    8   31 1     
   23    8   32 1     
   24    8   33 1     
   25    9   10 1     
   26    9   34 1     
   27    9   35 1     
   28   10   11 am    
   29   10   36 1     
   30   11   12 2     
   31   11   13 1     
   32   13   14 1     
   33   14   18 1     
   34   14   15 2     
   35   15   16 1     
   36   16   17 2     
   37   16   37 1     
   38   17   18 1     
   39   17   38 1     
   40   19   20 1     
   41   19   39 1     
   42   19   40 1     
   43   20   41 1     
   44   20   42 1     
   45    3   44 1     
   46   12   45 1     
   47   12   46 1     
   48   13   47 1     
   49   15   48 1     
@<TRIPOS>SUBSTRUCTURE
      1 S1             1
@<TRIPOS>SET
LONE_PAIRS      STATIC     ATOMS    <user>   **** ""
5 44 45 46 47 48
DONOR_HYDROGENS      STATIC     ATOMS    <user>   **** ""
2 43 36
ATOM$BLUE        STATIC     ATOMS    COLORGROUP SYSTEM
5 44 45 46 47 48
ATOM$RED        STATIC     ATOMS    COLORGROUP SYSTEM
2 43 36
