AV-unprocessed.smi:520|AV-procd|sdf|2798|dock2
  -GOLD-   2262023273D 1   1.00000     0.00000
 Structure written by MMmdl.
 40 42  0  0  0  0  0  0  0  0  2 V2000
  151.4997  144.5677  159.3844 C   0  0  0  0  0  0  0  0  0  0  0  0
  152.1593  143.2461  159.7319 C   0  0  0  0  0  0  0  0  0  0  0  0
  152.8942  143.1282  160.9304 C   0  0  0  0  0  0  0  0  0  0  0  0
  153.5164  141.9116  161.2641 C   0  0  0  0  0  0  0  0  0  0  0  0
  153.4048  140.8085  160.3993 C   0  0  0  0  0  0  0  0  0  0  0  0
  152.6704  140.9198  159.2034 C   0  0  0  0  0  0  0  0  0  0  0  0
  152.0382  142.1412  158.8568 C   0  0  0  0  0  0  0  0  0  0  0  0
  151.3010  142.3213  157.7052 O   0  0  0  0  0  0  0  0  0  0  0  0
  150.6153  141.2055  157.1531 C   0  0  0  0  0  0  0  0  0  0  0  0
  151.2827  140.7962  155.8319 C   0  0  0  0  0  0  0  0  0  0  0  0
  150.3862  140.0066  154.9739 N   0  0  0  0  0  0  0  0  0  0  0  0
  150.5322  138.7436  154.4805 C   0  0  0  0  0  0  0  0  0  0  0  0
  151.6896  137.8262  154.7160 C   0  0  0  0  0  0  0  0  0  0  0  0
  151.5282  136.5577  154.1157 O   0  0  0  0  0  0  0  0  0  0  0  0
  149.4252  138.4750  153.7302 N   0  3  0  0  0  0  0  0  0  0  0  0
  148.5678  139.5754  153.7388 C   0  0  0  0  0  0  0  0  0  0  0  0
  147.3369  139.7764  153.1219 C   0  0  0  0  0  0  0  0  0  0  0  0
  146.7215  141.0282  153.3304 C   0  0  0  0  0  0  0  0  0  0  0  0
  147.3283  142.0208  154.1269 C   0  0  0  0  0  0  0  0  0  0  0  0
  148.5746  141.8036  154.7501 C   0  0  0  0  0  0  0  0  0  0  0  0
  149.1779  140.5641  154.5374 C   0  0  0  0  0  0  0  0  0  0  0  0
  151.7165  145.3314  160.1317 H   0  0  0  0  0  0  0  0  0  0  0  0
  150.4178  144.4468  159.3258 H   0  0  0  0  0  0  0  0  0  0  0  0
  151.8590  144.9280  158.4201 H   0  0  0  0  0  0  0  0  0  0  0  0
  152.9844  143.9712  161.5996 H   0  0  0  0  0  0  0  0  0  0  0  0
  154.0786  141.8251  162.1822 H   0  0  0  0  0  0  0  0  0  0  0  0
  153.8826  139.8738  160.6535 H   0  0  0  0  0  0  0  0  0  0  0  0
  152.6062  140.0495  158.5685 H   0  0  0  0  0  0  0  0  0  0  0  0
  150.6422  140.3660  157.8496 H   0  0  0  0  0  0  0  0  0  0  0  0
  149.5703  141.4580  156.9680 H   0  0  0  0  0  0  0  0  0  0  0  0
  151.5803  141.6843  155.2739 H   0  0  0  0  0  0  0  0  0  0  0  0
  152.1958  140.2295  156.0137 H   0  0  0  0  0  0  0  0  0  0  0  0
  152.5971  138.2875  154.3259 H   0  0  0  0  0  0  0  0  0  0  0  0
  151.8274  137.6940  155.7893 H   0  0  0  0  0  0  0  0  0  0  0  0
  151.3703  136.6802  153.1919 H   0  0  0  0  0  0  0  0  0  0  0  0
  146.8709  139.0178  152.5102 H   0  0  0  0  0  0  0  0  0  0  0  0
  145.7661  141.2316  152.8691 H   0  0  0  0  0  0  0  0  0  0  0  0
  146.8288  142.9693  154.2615 H   0  0  0  0  0  0  0  0  0  0  0  0
  149.0332  142.5743  155.3517 H   0  0  0  0  0  0  0  0  0  0  0  0
  149.2769  137.5994  153.2450 H   0  0  0  0  0  0  0  0  0  0  0  0
  1  2  1  0  0  0  0
  1 22  1  0  0  0  0
  1 23  1  0  0  0  0
  1 24  1  0  0  0  0
  2  7  1  0  0  0  0
  2  3  2  0  0  0  0
  3  4  1  0  0  0  0
  3 25  1  0  0  0  0
  4  5  2  0  0  0  0
  4 26  1  0  0  0  0
  5  6  1  0  0  0  0
  5 27  1  0  0  0  0
  6  7  2  0  0  0  0
  6 28  1  0  0  0  0
  7  8  1  0  0  0  0
  8  9  1  0  0  0  0
  9 10  1  0  0  0  0
  9 29  1  0  0  0  0
  9 30  1  0  0  0  0
 10 11  1  0  0  0  0
 10 31  1  0  0  0  0
 10 32  1  0  0  0  0
 11 21  1  0  0  0  0
 11 12  1  0  0  0  0
 12 13  1  0  0  0  0
 12 15  2  0  0  0  0
 13 14  1  0  0  0  0
 13 33  1  0  0  0  0
 13 34  1  0  0  0  0
 14 35  1  0  0  0  0
 15 16  1  0  0  0  0
 15 40  1  0  0  0  0
 16 21  2  0  0  0  0
 16 17  1  0  0  0  0
 17 18  2  0  0  0  0
 17 36  1  0  0  0  0
 18 19  1  0  0  0  0
 18 37  1  0  0  0  0
 19 20  2  0  0  0  0
 19 38  1  0  0  0  0
 20 21  1  0  0  0  0
 20 39  1  0  0  0  0
M  CHG  1  15   1
M  END
> <s_m_source_file>
AV-unprocessed.smi

> <i_m_source_file_index>
520

> <i_lp_mmshare_version>
43012

> <i_f3d_flags>
0

> <s_epik_input>
W0NIM11jMVtjSF1bY0hdW2NIXVtjSF1jMU9bQ0gyXVtDSDJdbihjKG4yKVtDSDJdW09IXSljKGMyMylbY0hdW2NIXVtjSF1bY0hdMw==

> <s_epik_cmdline>
J2VwaWtfcHl0aG9uJywgJy1waCcsICc3LjAnLCAnLXRuJywgJzgnLCAnLW1hJywgJzIwMCcsICctbWV0YWxfYmluZGluZycsICctaW1hZScsICc8aW5maWxlLm1hZT4nLCAnLW9tYWUnLCAnPG91dGZpbGUubWFlPic=

> <r_lp_tautomer_probability>
1

> <r_epik_Ionization_Penalty>
1.50718

> <r_epik_Ionization_Penalty_Charging>
1.50632

> <r_epik_Ionization_Penalty_Neutral>
0.000855784

> <r_epik_State_Penalty>
1.59697

> <r_epik_Charging_Adjusted_Penalty>
3.1033

> <i_epik_Tot_Q>
1

> <i_epik_Tot_abs_Q>
1

> <r_epik_Metal_State_Penalty>
5.64835

> <b_epik_Metal_Only>
0

> <s_lp_Force_Field>
OPLS_2005

> <r_lp_Energy>
16.7784

> <b_lp_Chiralities_Consistent>
1

> <s_lp_Variant>
AV-unprocessed.smi:520-2

> <Gold.Version>
5.8.1

> <Gold.Id.Protein>
6NUR|6NUR_protein|mol2

> <Gold.PLP.Fitness>
62.3804

> <Gold.PLP.PLP>
-51.9788

> <Gold.PLP.part.hbond>
-4.0000

> <Gold.PLP.part.metal>
0.0000

> <Gold.PLP.part.buried>
0.8475

> <Gold.PLP.part.nonpolar>
-48.9962

> <Gold.PLP.part.repulsive>
0.1121

> <Gold.PLP.ligand.clash>
0.0000

> <Gold.PLP.ligand.torsion>
0.8346

> <Gold.PLP.Chemscore.Hbond>
4.0000

> <Gold.PLP.Chemscore.CHOScore>
0.0000

> <Gold.PLP.Chemscore.Metal>
0.0000

> <Gold.Chemscore.Hbonds>
donor molecule, donor type, donor heavy atom, donor atom, acceptor molecule, acceptor atom, score
      L1  H    14    35       P1  7949  1.00
      L1  H    15    40       P1  7948  2.00
      P1  H 10752 10765       L1    14  1.00

> <Gold.PLP.Chemscore.Internal.Correction>
0.0709

> <Gold.Rescore>
     Score         DG    S(hbond)    S(metal)    S(lipo)     H(rot)  DE(clash)    DE(int)     intcor
     23.20     -24.55       2.68        0.00     135.12       2.23       0.52       0.84       ----

> <Gold.Chemscore.Fitness>
23.1955

> <Gold.Chemscore.DG>
-24.5534

> <Gold.Chemscore.ZeroCoef>
-5.4800

> <Gold.Chemscore.Hbond>
2.6834

> <Gold.Chemscore.Metal>
0.0000

> <Gold.Chemscore.Lipo>
135.1206

> <Gold.Chemscore.Internal_Hbond>
0.0000

> <Gold.Chemscore.DEClash>
0.5225

> <Gold.Chemscore.DEInternal>
0.8355

> <Gold.Chemscore.Rot>
2.2258

> <Gold.Chemscore.Internal.Correction>
   9.000000E+99

> <Gold.Chemscore.Hbonds>
donor molecule, donor type, donor heavy atom, donor atom, acceptor molecule, acceptor atom, score
      L1  H    14    35       P1  7949  0.74
      L1  H    15    40       P1  7948  0.97
      P1  H 10752 10765       L1    14  0.55

> <Gold.Chemscore.Hbond.Weighted>
-8.9625

> <Gold.Chemscore.Metal.Weighted>
-0.0000

> <Gold.Chemscore.Lipo.Weighted>
-15.8091

> <Gold.Chemscore.Internal_Hbond.Weighted>
0.0000

> <Gold.Chemscore.DEClash.Weighted>
0.5225

> <Gold.Chemscore.DEInternal.Weighted>
0.8355

> <Gold.Chemscore.Rot.Weighted>
5.6982

> <Gold.Chemscore.Internal.Correction.Weighted>
   9.000000E+99

> <Gold.Protein.RotatedTorsions>
[ 6907 6896 6895 6894 ] final   54.80 input  -60.11 | X-H torsion
[ 7974 7965 7964 7962 ] final -133.84 input  175.53 | X-H torsion
[ 8008 7997 7996 7995 ] final   98.88 input   59.86 | X-H torsion
[ 10167 10162 10161 10158 ] final  -51.91 input  -65.29 | X-H torsion
[ 10718 10713 10712 10709 ] final  170.79 input   66.30 | X-H torsion
[ 10763 10752 10751 10750 ] final  168.78 input  -60.55 | X-H torsion
[ 11005 11000 10999 10996 ] final  -64.21 input  -57.11 | X-H torsion

> <Gold.Protein.ActiveResidues>
 VAL166  LYS551  ARG553  GLY616  TRP617  ASP618  TYR619  PRO620  LYS621  CYS622 
 ASP623  PHE694  ASN695  SER759  ASP760  ASP761  ALA762  ILE779  LEU786  VAL792 
 PHE793  MET794  SER795  GLU796  ALA797  LYS798  CYS799  TRP800  GLU811  SER814 

> <Gold.Protein.RotatedAtoms>
  152.3476  134.7050  160.0245 H   0  0  0  0  0  0  0  0  0  0  0  0  # atno 6907 bound_to 6896
  151.7415  133.3317  159.3375 H   0  0  0  0  0  0  0  0  0  0  0  0  # atno 6908 bound_to 6896
  150.7519  134.6207  159.6179 H   0  0  0  0  0  0  0  0  0  0  0  0  # atno 6909 bound_to 6896
  144.9156  140.6951  143.4997 H   0  0  0  0  0  0  0  0  0  0  0  0  # atno 7974 bound_to 7965
  156.1049  140.3237  155.7992 H   0  0  0  0  0  0  0  0  0  0  0  0  # atno 8008 bound_to 7997
  155.4773  140.0551  157.2989 H   0  0  0  0  0  0  0  0  0  0  0  0  # atno 8009 bound_to 7997
  154.4721  140.2016  155.9983 H   0  0  0  0  0  0  0  0  0  0  0  0  # atno 8010 bound_to 7997
  140.6564  143.2602  151.4571 H   0  0  0  0  0  0  0  0  0  0  0  0  # atno 10167 bound_to 10162
  157.0030  131.0181  151.2825 H   0  0  0  0  0  0  0  0  0  0  0  0  # atno 10718 bound_to 10713
  154.3735  135.2753  155.2253 H   0  0  0  0  0  0  0  0  0  0  0  0  # atno 10763 bound_to 10752
  154.4390  135.5959  153.6120 H   0  0  0  0  0  0  0  0  0  0  0  0  # atno 10764 bound_to 10752
  152.9837  135.6014  154.3969 H   0  0  0  0  0  0  0  0  0  0  0  0  # atno 10765 bound_to 10752
  141.1418  133.6662  156.5799 H   0  0  0  0  0  0  0  0  0  0  0  0  # atno 11005 bound_to 11000
  145.3380  139.1740  143.4501 LP  0  0  0  0  0  0  0  0  0  0  0  0  # atno 17320 bound_to 7965
  146.3180  140.3418  142.8648 LP  0  0  0  0  0  0  0  0  0  0  0  0  # atno 17321 bound_to 7965
  139.5788  144.1757  152.1940 LP  0  0  0  0  0  0  0  0  0  0  0  0  # atno 17342 bound_to 10162
  140.1076  144.5485  150.6947 LP  0  0  0  0  0  0  0  0  0  0  0  0  # atno 17343 bound_to 10162
  157.5376  130.8099  149.7991 LP  0  0  0  0  0  0  0  0  0  0  0  0  # atno 17370 bound_to 10713
  156.0164  130.3812  150.2098 LP  0  0  0  0  0  0  0  0  0  0  0  0  # atno 17371 bound_to 10713
  140.3846  134.7493  157.4683 LP  0  0  0  0  0  0  0  0  0  0  0  0  # atno 17394 bound_to 11000
  140.0612  134.5993  155.8747 LP  0  0  0  0  0  0  0  0  0  0  0  0  # atno 17395 bound_to 11000

$$$$
