AV-unprocessed.smi:81|AV-procd|sdf|793|dock8
  -GOLD-   2262017173D 1   1.00000     0.00000
 Structure written by MMmdl.
 64 67  0  0  0  0  0  0  0  0  2 V2000
  143.4996  135.1653  155.4374 C   0  0  0  0  0  0  0  0  0  0  0  0
  143.2352  136.0800  154.2302 C   0  0  0  0  0  0  0  0  0  0  0  0
  141.7321  136.3526  154.0808 C   0  0  0  0  0  0  0  0  0  0  0  0
  143.8075  135.4855  152.9223 C   0  0  0  0  0  0  0  0  0  0  0  0
  145.2569  135.2572  152.9412 N   0  0  0  0  0  0  0  0  0  0  0  0
  145.9570  135.9935  153.8386 C   0  0  0  0  0  0  0  0  0  0  0  0
  146.2138  135.4250  155.0432 N   0  0  0  0  0  0  0  0  0  0  0  0
  146.8760  136.1083  155.9805 C   0  0  0  0  0  0  0  0  0  0  0  0
  147.3529  137.3527  155.9240 N   0  0  0  0  0  0  0  0  0  0  0  0
  147.0769  137.9390  154.7233 C   0  0  0  0  0  0  0  0  0  0  0  0
  146.3903  137.3351  153.6329 C   0  0  0  0  0  0  0  0  0  0  0  0
  146.3109  138.2305  152.5745 N   0  0  0  0  0  0  0  0  0  0  0  0
  146.9145  139.3003  153.0136 C   0  0  0  0  0  0  0  0  0  0  0  0
  147.3832  139.2251  154.3081 N   0  0  0  0  0  0  0  0  0  0  0  0
  148.1072  140.2464  155.0595 C   0  0  0  0  0  0  0  0  0  0  0  0
  149.6261  140.3605  154.7515 C   0  0  2  0  0  0  0  0  0  0  0  0
  149.7654  140.8601  153.4321 O   0  0  0  0  0  0  0  0  0  0  0  0
  150.3360  139.0172  154.8113 C   0  0  0  0  0  0  0  0  0  0  0  0
  151.7974  139.4211  154.9471 C   0  0  0  0  0  0  0  0  0  0  0  0
  151.7703  140.5859  155.7601 O   0  0  0  0  0  0  0  0  0  0  0  0
  150.5006  141.2389  155.6847 C   0  0  2  0  0  0  0  0  0  0  0  0
  150.0308  141.3545  157.1440 C   0  0  0  0  0  0  0  0  0  0  0  0
  145.8941  134.9252  151.6551 C   0  0  2  0  0  0  0  0  0  0  0  0
  145.2738  135.5946  150.4053 C   0  0  0  0  0  0  0  0  0  0  0  0
  144.1320  134.7876  149.7568 C   0  0  0  0  0  0  0  0  0  0  0  0
  144.5460  133.3903  149.4921 N   0  3  2  0  0  0  0  0  0  0  0  0
  143.5219  132.6360  148.7380 C   0  0  0  0  0  0  0  0  0  0  0  0
  144.9534  132.6958  150.7353 C   0  0  0  0  0  0  0  0  0  0  0  0
  146.1322  133.4151  151.4162 C   0  0  0  0  0  0  0  0  0  0  0  0
  143.0438  134.1845  155.2986 H   0  0  0  0  0  0  0  0  0  0  0  0
  143.0912  135.5955  156.3521 H   0  0  0  0  0  0  0  0  0  0  0  0
  144.5674  135.0152  155.5981 H   0  0  0  0  0  0  0  0  0  0  0  0
  143.7069  137.0428  154.4279 H   0  0  0  0  0  0  0  0  0  0  0  0
  141.1777  135.4320  153.8953 H   0  0  0  0  0  0  0  0  0  0  0  0
  141.5372  137.0323  153.2507 H   0  0  0  0  0  0  0  0  0  0  0  0
  141.3242  136.8114  154.9819 H   0  0  0  0  0  0  0  0  0  0  0  0
  143.3060  134.5382  152.7214 H   0  0  0  0  0  0  0  0  0  0  0  0
  143.5545  136.1331  152.0837 H   0  0  0  0  0  0  0  0  0  0  0  0
  147.0446  135.5845  156.9101 H   0  0  0  0  0  0  0  0  0  0  0  0
  147.0315  140.1738  152.3903 H   0  0  0  0  0  0  0  0  0  0  0  0
  147.6283  141.2080  154.8740 H   0  0  0  0  0  0  0  0  0  0  0  0
  147.9581  140.0454  156.1211 H   0  0  0  0  0  0  0  0  0  0  0  0
  149.4706  140.1946  152.8290 H   0  0  0  0  0  0  0  0  0  0  0  0
  150.0299  138.4678  155.7028 H   0  0  0  0  0  0  0  0  0  0  0  0
  150.1464  138.3809  153.9459 H   0  0  0  0  0  0  0  0  0  0  0  0
  152.4111  138.6374  155.3916 H   0  0  0  0  0  0  0  0  0  0  0  0
  152.2213  139.6747  153.9745 H   0  0  0  0  0  0  0  0  0  0  0  0
  150.6306  142.2430  155.2773 H   0  0  0  0  0  0  0  0  0  0  0  0
  149.1437  141.9767  157.2358 H   0  0  0  0  0  0  0  0  0  0  0  0
  150.8015  141.8202  157.7585 H   0  0  0  0  0  0  0  0  0  0  0  0
  149.8124  140.3772  157.5748 H   0  0  0  0  0  0  0  0  0  0  0  0
  146.8850  135.3709  151.7491 H   0  0  0  0  0  0  0  0  0  0  0  0
  144.9492  136.6106  150.6317 H   0  0  0  0  0  0  0  0  0  0  0  0
  146.0622  135.7025  149.6593 H   0  0  0  0  0  0  0  0  0  0  0  0
  143.2394  134.7844  150.3807 H   0  0  0  0  0  0  0  0  0  0  0  0
  143.8483  135.2650  148.8181 H   0  0  0  0  0  0  0  0  0  0  0  0
  142.5999  132.5457  149.3141 H   0  0  0  0  0  0  0  0  0  0  0  0
  143.8776  131.6329  148.5010 H   0  0  0  0  0  0  0  0  0  0  0  0
  143.2900  133.1365  147.7975 H   0  0  0  0  0  0  0  0  0  0  0  0
  144.0968  132.6203  151.4018 H   0  0  0  0  0  0  0  0  0  0  0  0
  145.2500  131.6734  150.4983 H   0  0  0  0  0  0  0  0  0  0  0  0
  147.0009  133.3124  150.7646 H   0  0  0  0  0  0  0  0  0  0  0  0
  146.4020  132.9061  152.3416 H   0  0  0  0  0  0  0  0  0  0  0  0
  145.3643  133.4350  148.9015 H   0  0  0  0  0  0  0  0  0  0  0  0
  1  2  1  0  0  0  0
  1 30  1  0  0  0  0
  1 31  1  0  0  0  0
  1 32  1  0  0  0  0
  2  3  1  0  0  0  0
  2  4  1  0  0  0  0
  2 33  1  0  0  0  0
  3 34  1  0  0  0  0
  3 35  1  0  0  0  0
  3 36  1  0  0  0  0
  4  5  1  0  0  0  0
  4 37  1  0  0  0  0
  4 38  1  0  0  0  0
  5  6  1  0  0  0  0
  5 23  1  0  0  0  0
  6 11  1  0  0  0  0
  6  7  2  0  0  0  0
  7  8  1  0  0  0  0
  8  9  2  0  0  0  0
  8 39  1  0  0  0  0
  9 10  1  0  0  0  0
 10 14  1  0  0  0  0
 10 11  2  0  0  0  0
 11 12  1  0  0  0  0
 12 13  2  0  0  0  0
 13 14  1  0  0  0  0
 13 40  1  0  0  0  0
 14 15  1  0  0  0  0
 15 16  1  0  0  0  0
 15 41  1  0  0  0  0
 15 42  1  0  0  0  0
 16 21  1  0  0  0  0
 16 17  1  0  0  0  0
 16 18  1  0  0  0  0
 17 43  1  0  0  0  0
 18 19  1  0  0  0  0
 18 44  1  0  0  0  0
 18 45  1  0  0  0  0
 19 20  1  0  0  0  0
 19 46  1  0  0  0  0
 19 47  1  0  0  0  0
 20 21  1  0  0  0  0
 21 22  1  0  0  0  0
 21 48  1  0  0  0  0
 22 49  1  0  0  0  0
 22 50  1  0  0  0  0
 22 51  1  0  0  0  0
 23 29  1  0  0  0  0
 23 24  1  0  0  0  0
 23 52  1  0  0  0  0
 24 25  1  0  0  0  0
 24 53  1  0  0  0  0
 24 54  1  0  0  0  0
 25 26  1  0  0  0  0
 25 55  1  0  0  0  0
 25 56  1  0  0  0  0
 26 27  1  0  0  0  0
 26 28  1  0  0  0  0
 26 64  1  0  0  0  0
 27 57  1  0  0  0  0
 27 58  1  0  0  0  0
 27 59  1  0  0  0  0
 28 29  1  0  0  0  0
 28 60  1  0  0  0  0
 28 61  1  0  0  0  0
 29 62  1  0  0  0  0
 29 63  1  0  0  0  0
M  CHG  1  26   1
M  END
> <s_m_source_file>
AV-unprocessed.smi

> <i_m_source_file_index>
81

> <i_lp_mmshare_version>
43012

> <i_f3d_flags>
0

> <s_epik_input>
W0NIMl0xW0NIMl1OKFtDSDNdKVtDSDJdW0NIMl1bQ0hdMU4oW0NIMl1bQ0hdKFtDSDNdKVtDSDNdKWMobltjSF1uMiljKGMyMyluW2NIXW4zW0NIMl1bQ0BAXTQoW09IXSlbQ0gyXVtDSDJdT1tDQEhdNFtDSDNd

> <s_epik_cmdline>
J2VwaWtfcHl0aG9uJywgJy1waCcsICc3LjAnLCAnLXRuJywgJzgnLCAnLW1hJywgJzIwMCcsICctbWV0YWxfYmluZGluZycsICctaW1hZScsICc8aW5maWxlLm1hZT4nLCAnLW9tYWUnLCAnPG91dGZpbGUubWFlPic=

> <r_lp_tautomer_probability>
1

> <r_epik_Ionization_Penalty>
0.00272708

> <r_epik_Ionization_Penalty_Charging>
0.00158983

> <r_epik_Ionization_Penalty_Neutral>
0.00113725

> <r_epik_State_Penalty>
-0

> <r_epik_Charging_Adjusted_Penalty>
0.00158983

> <i_epik_Tot_Q>
1

> <i_epik_Tot_abs_Q>
1

> <r_epik_Metal_State_Penalty>
-0

> <b_epik_Metal_Only>
0

> <s_lp_Force_Field>
OPLS_2005

> <r_lp_Energy>
52.2974

> <b_lp_Chiralities_Consistent>
1

> <s_lp_Variant>
AV-unprocessed.smi:81-8

> <Gold.Version>
5.8.1

> <Gold.Id.Protein>
6NUR|6NUR_protein|mol2

> <Gold.PLP.Fitness>
45.3525

> <Gold.PLP.PLP>
-39.9833

> <Gold.PLP.part.hbond>
-4.0334

> <Gold.PLP.part.metal>
0.0000

> <Gold.PLP.part.buried>
0.7394

> <Gold.PLP.part.nonpolar>
-35.9259

> <Gold.PLP.part.repulsive>
0.4832

> <Gold.PLP.ligand.clash>
0.0000

> <Gold.PLP.ligand.torsion>
2.2961

> <Gold.PLP.Chemscore.Hbond>
2.7104

> <Gold.PLP.Chemscore.CHOScore>
0.1507

> <Gold.PLP.Chemscore.Metal>
0.0000

> <Gold.Chemscore.Hbonds>
donor molecule, donor type, donor heavy atom, donor atom, acceptor molecule, acceptor atom, score
      L1  H    17    43       P1  7957  0.64
      L1  H    26    64       P1  7921  0.72
      P1  H  7989  7998       L1    17  0.23
      P1  H  8011  8017       L1    17  1.00
      L1  C    13    40       P1  7957  0.14

> <Gold.PLP.Chemscore.Internal.Correction>
1.3782

> <Gold.Rescore>
     Score         DG    S(hbond)    S(metal)    S(lipo)     H(rot)  DE(clash)    DE(int)     intcor
     11.47     -16.90       1.65        0.00     101.22       2.32       1.94       3.50       ----

> <Gold.Chemscore.Fitness>
11.4696

> <Gold.Chemscore.DG>
-16.9036

> <Gold.Chemscore.ZeroCoef>
-5.4800

> <Gold.Chemscore.Hbond>
1.6500

> <Gold.Chemscore.Metal>
0.0000

> <Gold.Chemscore.Lipo>
101.2169

> <Gold.Chemscore.Internal_Hbond>
0.0000

> <Gold.Chemscore.DEClash>
1.9373

> <Gold.Chemscore.DEInternal>
3.4968

> <Gold.Chemscore.Rot>
2.3163

> <Gold.Chemscore.Internal.Correction>
   9.000000E+99

> <Gold.Chemscore.Hbonds>
donor molecule, donor type, donor heavy atom, donor atom, acceptor molecule, acceptor atom, score
      L1  H    17    43       P1  7957  0.64
      L1  H    26    64       P1  7921  0.27
      P1  H  7989  7998       L1    17  0.02
      P1  H  8011  8017       L1    17  0.34

> <Gold.Chemscore.Hbond.Weighted>
-5.5110

> <Gold.Chemscore.Metal.Weighted>
-0.0000

> <Gold.Chemscore.Lipo.Weighted>
-11.8424

> <Gold.Chemscore.Internal_Hbond.Weighted>
0.0000

> <Gold.Chemscore.DEClash.Weighted>
1.9373

> <Gold.Chemscore.DEInternal.Weighted>
3.4968

> <Gold.Chemscore.Rot.Weighted>
5.9297

> <Gold.Chemscore.Internal.Correction.Weighted>
   9.000000E+99

> <Gold.Protein.RotatedTorsions>
[ 6907 6896 6895 6894 ] final  -49.69 input  -60.11 | X-H torsion
[ 7974 7965 7964 7962 ] final   22.73 input  175.53 | X-H torsion
[ 8008 7997 7996 7995 ] final  -33.98 input   59.86 | X-H torsion
[ 10167 10162 10161 10158 ] final  150.77 input  -65.29 | X-H torsion
[ 10718 10713 10712 10709 ] final  -73.61 input   66.30 | X-H torsion
[ 10763 10752 10751 10750 ] final   34.94 input  -60.55 | X-H torsion
[ 11005 11000 10999 10996 ] final  -35.58 input  -57.11 | X-H torsion

> <Gold.Protein.ActiveResidues>
 VAL166  LYS551  ARG553  GLY616  TRP617  ASP618  TYR619  PRO620  LYS621  CYS622 
 ASP623  PHE694  ASN695  SER759  ASP760  ASP761  ALA762  ILE779  LEU786  VAL792 
 PHE793  MET794  SER795  GLU796  ALA797  LYS798  CYS799  TRP800  GLU811  SER814 

> <Gold.Protein.RotatedAtoms>
  150.8780  134.8166  159.7203 H   0  0  0  0  0  0  0  0  0  0  0  0  # atno 6907 bound_to 6896
  152.4759  134.4841  159.9684 H   0  0  0  0  0  0  0  0  0  0  0  0  # atno 6908 bound_to 6896
  151.4920  133.3484  159.2890 H   0  0  0  0  0  0  0  0  0  0  0  0  # atno 6909 bound_to 6896
  146.2016  139.7844  142.8757 H   0  0  0  0  0  0  0  0  0  0  0  0  # atno 7974 bound_to 7965
  154.4133  140.1696  156.1975 H   0  0  0  0  0  0  0  0  0  0  0  0  # atno 8008 bound_to 7997
  155.9552  140.3398  155.6418 H   0  0  0  0  0  0  0  0  0  0  0  0  # atno 8009 bound_to 7997
  155.6819  140.0723  157.2472 H   0  0  0  0  0  0  0  0  0  0  0  0  # atno 8010 bound_to 7997
  139.4847  144.5496  151.7425 H   0  0  0  0  0  0  0  0  0  0  0  0  # atno 10167 bound_to 10162
  156.0274  130.4398  150.2768 H   0  0  0  0  0  0  0  0  0  0  0  0  # atno 10718 bound_to 10713
  153.0141  135.6347  154.1748 H   0  0  0  0  0  0  0  0  0  0  0  0  # atno 10763 bound_to 10752
  154.1488  135.2830  155.3142 H   0  0  0  0  0  0  0  0  0  0  0  0  # atno 10764 bound_to 10752
  154.6069  135.5569  153.7493 H   0  0  0  0  0  0  0  0  0  0  0  0  # atno 10765 bound_to 10752
  140.9807  133.7058  156.1679 H   0  0  0  0  0  0  0  0  0  0  0  0  # atno 11005 bound_to 11000
  145.3465  141.0298  143.3363 LP  0  0  0  0  0  0  0  0  0  0  0  0  # atno 17320 bound_to 7965
  144.8696  139.5058  143.6774 LP  0  0  0  0  0  0  0  0  0  0  0  0  # atno 17321 bound_to 7965
  140.5047  144.1115  150.5980 LP  0  0  0  0  0  0  0  0  0  0  0  0  # atno 17342 bound_to 10162
  140.4021  143.2699  151.9935 LP  0  0  0  0  0  0  0  0  0  0  0  0  # atno 17343 bound_to 10162
  157.0871  131.0159  151.3135 LP  0  0  0  0  0  0  0  0  0  0  0  0  # atno 17370 bound_to 10713
  157.4883  130.7806  149.7482 LP  0  0  0  0  0  0  0  0  0  0  0  0  # atno 17371 bound_to 10713
  140.7190  134.4378  157.5576 LP  0  0  0  0  0  0  0  0  0  0  0  0  # atno 17394 bound_to 11000
  139.8949  134.8695  156.2156 LP  0  0  0  0  0  0  0  0  0  0  0  0  # atno 17395 bound_to 11000

$$$$
