#       Name:                AV-unprocessed.smi:2410
#       Creating user name   scv26
#       Creation time:       Fri Mar 27 13:16:02 2020


#       File generated by GOLD software.
#

@<TRIPOS>MOLECULE
AV-unprocessed.smi:2410
    52    54     1
SMALL
NO_CHARGES


@<TRIPOS>ATOM
      1 ****        -2.6643   4.0926   2.7763 C.3            1 S1                 0.0000
      2 ****        -2.5898   3.0315   1.6916 C.ar           1 S1                 0.0000
      3 ****        -3.2243   3.2857   0.4542 C.ar           1 S1                 0.0000
      4 ****        -3.1361   2.2972  -0.5191 C.ar           1 S1                 0.0000
      5 ****        -3.6412   2.2430  -1.8206 N.pl3          1 S1                 1.0000
      6 ****        -3.2889   1.0596  -2.3964 C.2            1 S1                 0.0000
      7 ****        -2.5675   0.3583  -1.4805 N.pl3          1 S1                 0.0000
      8 ****        -1.9415  -0.9661  -1.5744 C.3            1 S1                 0.0000
      9 ****        -0.4212  -0.8832  -1.8138 C.3            1 S1                 0.0000
     10 ****        -0.2048  -0.3028  -3.0853 O.3            1 S1                 0.0000
     11 ****         0.2479  -2.2746  -1.7740 C.3            1 S1                 0.0000
     12 ****         1.6306  -2.2026  -1.2746 N.am           1 S1                 0.0000
     13 ****         2.6461  -2.2314  -2.2438 C.2            1 S1                 0.0000
     14 ****         3.8961  -2.1725  -1.9187 N.2            1 S1                 0.0000
     15 ****         4.2632  -2.0729  -0.5733 C.2            1 S1                 0.0000
     16 ****         5.7564  -2.0172  -0.3033 C.3            1 S1                 0.0000
     17 ****         3.3268  -2.0284   0.4137 C.2            1 S1                 0.0000
     18 ****         3.6665  -1.9204   1.8950 C.3            1 S1                 0.0000
     19 ****         1.8998  -2.0870   0.0585 C.2            1 S1                 0.0000
     20 ****         0.9976  -2.0302   0.8974 O.2            1 S1                 0.0000
     21 ****        -2.4485   1.0895  -0.2944 C.ar           1 S1                 0.0000
     22 ****        -1.8198   0.8211   0.9190 C.ar           1 S1                 0.0000
     23 ****        -1.8965   1.8144   1.9208 C.ar           1 S1                 0.0000
     24 ****        -1.2152   1.5517   3.2531 C.3            1 S1                 0.0000
     25 ****        -3.2120   4.9724   2.4370 H              1 S1                 0.0000
     26 ****        -1.6642   4.4152   3.0670 H              1 S1                 0.0000
     27 ****        -3.1732   3.7031   3.6583 H              1 S1                 0.0000
     28 ****        -3.7533   4.2098   0.2727 H              1 S1                 0.0000
     29 ****        -3.5334   0.7385  -3.3987 H              1 S1                 0.0000
     30 ****        -2.1625  -1.5063  -0.6529 H              1 S1                 0.0000
     31 ****        -2.4318  -1.5137  -2.3805 H              1 S1                 0.0000
     32 ****         0.0203  -0.2290  -1.0614 H              1 S1                 0.0000
     33 ****        -0.5807  -0.8684  -3.7424 H              1 S1                 0.0000
     34 ****        -0.3135  -2.9322  -1.1075 H              1 S1                 0.0000
     35 ****         0.1798  -2.7666  -2.7466 H              1 S1                 0.0000
     36 ****         2.3070  -2.3029  -3.2786 H              1 S1                 0.0000
     37 ****         6.0644  -2.8593   0.3169 H              1 S1                 0.0000
     38 ****         6.0180  -1.0910   0.2091 H              1 S1                 0.0000
     39 ****         6.3292  -2.0582  -1.2308 H              1 S1                 0.0000
     40 ****         3.2165  -1.0225   2.3200 H              1 S1                 0.0000
     41 ****         4.7371  -1.8719   2.0872 H              1 S1                 0.0000
     42 ****         3.2750  -2.7837   2.4343 H              1 S1                 0.0000
     43 ****        -1.2899  -0.1047   1.0914 H              1 S1                 0.0000
     44 ****        -0.7583   0.5618   3.2794 H              1 S1                 0.0000
     45 ****        -1.9347   1.6071   4.0703 H              1 S1                 0.0000
     46 ****        -0.4293   2.2859   3.4316 H              1 S1                 0.0000
     47 ****        -4.1842   2.9599  -2.2849 H              1 S1                 0.0000
     48 ****         0.7770  -0.2035  -3.2477 LP             1 S1                 0.0000
     49 ****        -0.6416   0.5959  -3.1243 LP             1 S1                 0.0000
     50 ****         4.5997  -2.1981  -2.6288 LP             1 S1                 0.0000
     51 ****         0.0416  -2.0687   0.6069 LP             1 S1                 0.0000
     52 ****         1.2222  -1.9456   1.8682 LP             1 S1                 0.0000
@<TRIPOS>BOND
    1    1    2 1     
    2    1   25 1     
    3    1   26 1     
    4    1   27 1     
    5    2   23 ar    
    6    2    3 ar    
    7    3    4 ar    
    8    3   28 1     
    9    4   21 ar    
   10    4    5 1     
   11    5    6 2     
   12    5   47 1     
   13    6    7 1     
   14    6   29 1     
   15    7    8 1     
   16    7   21 1     
   17    8    9 1     
   18    8   30 1     
   19    8   31 1     
   20    9   10 1     
   21    9   11 1     
   22    9   32 1     
   23   10   33 1     
   24   11   12 1     
   25   11   34 1     
   26   11   35 1     
   27   12   19 am    
   28   12   13 1     
   29   13   14 2     
   30   13   36 1     
   31   14   15 1     
   32   15   16 1     
   33   15   17 2     
   34   16   37 1     
   35   16   38 1     
   36   16   39 1     
   37   17   18 1     
   38   17   19 1     
   39   18   40 1     
   40   18   41 1     
   41   18   42 1     
   42   19   20 2     
   43   21   22 ar    
   44   22   23 ar    
   45   22   43 1     
   46   23   24 1     
   47   24   44 1     
   48   24   45 1     
   49   24   46 1     
   50   10   48 1     
   51   10   49 1     
   52   14   50 1     
   53   20   51 1     
   54   20   52 1     
@<TRIPOS>SUBSTRUCTURE
      1 S1             1
@<TRIPOS>SET
LONE_PAIRS      STATIC     ATOMS    <user>   **** ""
5 48 49 50 51 52
DONOR_HYDROGENS      STATIC     ATOMS    <user>   **** ""
2 47 33
ATOM$BLUE        STATIC     ATOMS    COLORGROUP SYSTEM
5 48 49 50 51 52
ATOM$RED        STATIC     ATOMS    COLORGROUP SYSTEM
2 47 33
