AV-unprocessed.smi:434|AV-procd|sdf|2555|dock2
  -GOLD-   2262022523D 1   1.00000     0.00000
 Structure written by MMmdl.
 40 42  0  0  0  0  0  0  0  0  2 V2000
  150.0468  141.3327  155.6399 C   0  0  0  0  0  0  0  0  0  0  0  0
  150.7368  141.8218  156.8689 C   0  0  0  0  0  0  0  0  0  0  0  0
  150.7892  143.1141  157.2980 N   0  3  0  0  0  0  0  0  0  0  0  0
  151.5202  143.1882  158.4844 C   0  0  0  0  0  0  0  0  0  0  0  0
  151.8430  144.2773  159.2879 C   0  0  0  0  0  0  0  0  0  0  0  0
  152.6141  144.0093  160.4379 C   0  0  0  0  0  0  0  0  0  0  0  0
  153.0339  142.7001  160.7510 C   0  0  0  0  0  0  0  0  0  0  0  0
  152.6986  141.6035  159.9297 C   0  0  0  0  0  0  0  0  0  0  0  0
  151.9347  141.8763  158.7948 C   0  0  0  0  0  0  0  0  0  0  0  0
  151.4261  141.0669  157.7711 N   0  0  0  0  0  0  0  0  0  0  0  0
  151.6778  139.6166  157.7900 C   0  0  0  0  0  0  0  0  0  0  0  0
  150.4741  138.8056  158.3106 C   0  0  1  0  0  0  0  0  0  0  0  0
  149.3812  138.9734  157.4299 O   0  0  0  0  0  0  0  0  0  0  0  0
  150.7918  137.3055  158.4063 C   0  0  0  0  0  0  0  0  0  0  0  0
  150.1024  136.7611  159.5193 O   0  0  0  0  0  0  0  0  0  0  0  0
  148.6961  136.7600  159.3452 C   0  0  0  0  0  0  0  0  0  0  0  0
  148.1158  136.1721  160.5863 C   0  0  0  0  0  0  0  0  0  0  0  0
  147.8088  134.8952  160.9676 C   0  0  0  0  0  0  0  0  0  0  0  0
  147.2829  134.9861  162.2861 C   0  0  0  0  0  0  0  0  0  0  0  0
  147.3086  136.3126  162.6107 C   0  0  0  0  0  0  0  0  0  0  0  0
  147.8144  137.0499  161.5846 O   0  0  0  0  0  0  0  0  0  0  0  0
  149.6644  142.1699  155.0556 H   0  0  0  0  0  0  0  0  0  0  0  0
  149.2107  140.6878  155.9109 H   0  0  0  0  0  0  0  0  0  0  0  0
  150.7387  140.7645  155.0183 H   0  0  0  0  0  0  0  0  0  0  0  0
  151.5251  145.2813  159.0481 H   0  0  0  0  0  0  0  0  0  0  0  0
  152.8908  144.8240  161.0915 H   0  0  0  0  0  0  0  0  0  0  0  0
  153.6270  142.5331  161.6384 H   0  0  0  0  0  0  0  0  0  0  0  0
  153.0322  140.6065  160.1762 H   0  0  0  0  0  0  0  0  0  0  0  0
  151.9791  139.2873  156.7953 H   0  0  0  0  0  0  0  0  0  0  0  0
  152.5417  139.4520  158.4353 H   0  0  0  0  0  0  0  0  0  0  0  0
  150.1927  139.1812  159.2953 H   0  0  0  0  0  0  0  0  0  0  0  0
  149.1768  138.1334  157.0473 H   0  0  0  0  0  0  0  0  0  0  0  0
  150.5323  136.7864  157.4816 H   0  0  0  0  0  0  0  0  0  0  0  0
  151.8621  137.1657  158.5662 H   0  0  0  0  0  0  0  0  0  0  0  0
  148.3247  137.7746  159.1930 H   0  0  0  0  0  0  0  0  0  0  0  0
  148.4157  136.1629  158.4763 H   0  0  0  0  0  0  0  0  0  0  0  0
  147.9472  134.0056  160.3713 H   0  0  0  0  0  0  0  0  0  0  0  0
  146.9311  134.1833  162.9170 H   0  0  0  0  0  0  0  0  0  0  0  0
  147.0202  136.8765  163.4856 H   0  0  0  0  0  0  0  0  0  0  0  0
  150.3560  143.8884  156.8113 H   0  0  0  0  0  0  0  0  0  0  0  0
  1  2  1  0  0  0  0
  1 22  1  0  0  0  0
  1 23  1  0  0  0  0
  1 24  1  0  0  0  0
  2 10  1  0  0  0  0
  2  3  2  0  0  0  0
  3  4  1  0  0  0  0
  3 40  1  0  0  0  0
  4  9  2  0  0  0  0
  4  5  1  0  0  0  0
  5  6  2  0  0  0  0
  5 25  1  0  0  0  0
  6  7  1  0  0  0  0
  6 26  1  0  0  0  0
  7  8  2  0  0  0  0
  7 27  1  0  0  0  0
  8  9  1  0  0  0  0
  8 28  1  0  0  0  0
  9 10  1  0  0  0  0
 10 11  1  0  0  0  0
 11 12  1  0  0  0  0
 11 29  1  0  0  0  0
 11 30  1  0  0  0  0
 12 13  1  0  0  0  0
 12 14  1  0  0  0  0
 12 31  1  0  0  0  0
 13 32  1  0  0  0  0
 14 15  1  0  0  0  0
 14 33  1  0  0  0  0
 14 34  1  0  0  0  0
 15 16  1  0  0  0  0
 16 17  1  0  0  0  0
 16 35  1  0  0  0  0
 16 36  1  0  0  0  0
 17 21  1  0  0  0  0
 17 18  2  0  0  0  0
 18 19  1  0  0  0  0
 18 37  1  0  0  0  0
 19 20  2  0  0  0  0
 19 38  1  0  0  0  0
 20 21  1  0  0  0  0
 20 39  1  0  0  0  0
M  CHG  1   3   1
M  END
> <s_m_source_file>
AV-unprocessed.smi

> <i_m_source_file_index>
434

> <i_lp_mmshare_version>
43012

> <i_f3d_flags>
0

> <s_epik_input>
W2NIXTFbY0hdW2NIXVtjSF1jKGMxMiluKGMobjIpW0NIM10pW0NIMl1bQ0BIXShbT0hdKVtDSDJdT1tDSDJdYzNbY0hdW2NIXVtjSF1vMw==

> <s_epik_cmdline>
J2VwaWtfcHl0aG9uJywgJy1waCcsICc3LjAnLCAnLXRuJywgJzgnLCAnLW1hJywgJzIwMCcsICctbWV0YWxfYmluZGluZycsICctaW1hZScsICc8aW5maWxlLm1hZT4nLCAnLW9tYWUnLCAnPG91dGZpbGUubWFlPic=

> <r_epik_Ionization_Penalty>
0.976413

> <r_epik_Ionization_Penalty_Charging>
0.976412

> <r_epik_Ionization_Penalty_Neutral>
9.34185e-07

> <r_epik_State_Penalty>
1.02286

> <r_epik_Charging_Adjusted_Penalty>
1.99927

> <i_epik_Tot_Q>
1

> <i_epik_Tot_abs_Q>
1

> <r_epik_Metal_State_Penalty>
4.99966

> <b_epik_Metal_Only>
0

> <s_lp_Force_Field>
OPLS_2005

> <r_lp_Energy>
13.0994

> <b_lp_Chiralities_Consistent>
1

> <s_lp_Variant>
AV-unprocessed.smi:434-4

> <Gold.Version>
5.8.1

> <Gold.Id.Protein>
6NUR|6NUR_protein|mol2

> <Gold.PLP.Fitness>
62.4715

> <Gold.PLP.PLP>
-50.4563

> <Gold.PLP.part.hbond>
-4.0000

> <Gold.PLP.part.metal>
0.0000

> <Gold.PLP.part.buried>
-5.7813

> <Gold.PLP.part.nonpolar>
-40.5313

> <Gold.PLP.part.repulsive>
0.0374

> <Gold.PLP.ligand.clash>
0.0000

> <Gold.PLP.ligand.torsion>
1.1189

> <Gold.PLP.Chemscore.Hbond>
4.7273

> <Gold.PLP.Chemscore.CHOScore>
0.0000

> <Gold.PLP.Chemscore.Metal>
0.0000

> <Gold.Chemscore.Hbonds>
donor molecule, donor type, donor heavy atom, donor atom, acceptor molecule, acceptor atom, score
      L1  H     3    40       P1  8028  2.00
      P1  H  6896  6909       L1    15  1.00
      P1  H  6931  6943       L1    21  1.00
      P1  H  6934  6947       L1    21  0.49

> <Gold.PLP.Chemscore.Internal.Correction>
0.0713

> <Gold.Rescore>
     Score         DG    S(hbond)    S(metal)    S(lipo)     H(rot)  DE(clash)    DE(int)     intcor
     20.31     -22.48       2.83        0.00     118.10       2.45       0.00       2.17       ----

> <Gold.Chemscore.Fitness>
20.3084

> <Gold.Chemscore.DG>
-22.4822

> <Gold.Chemscore.ZeroCoef>
-5.4800

> <Gold.Chemscore.Hbond>
2.8344

> <Gold.Chemscore.Metal>
0.0000

> <Gold.Chemscore.Lipo>
118.1037

> <Gold.Chemscore.Internal_Hbond>
0.0000

> <Gold.Chemscore.DEClash>
0.0000

> <Gold.Chemscore.DEInternal>
2.1739

> <Gold.Chemscore.Rot>
2.4543

> <Gold.Chemscore.Internal.Correction>
   9.000000E+99

> <Gold.Chemscore.Hbonds>
donor molecule, donor type, donor heavy atom, donor atom, acceptor molecule, acceptor atom, score
      L1  H     3    40       P1  8028  0.91
      P1  H  6896  6909       L1    15  0.40
      P1  H  6931  6943       L1    21  0.87
      P1  H  6934  6947       L1    21  0.44

> <Gold.Chemscore.Hbond.Weighted>
-9.4670

> <Gold.Chemscore.Metal.Weighted>
-0.0000

> <Gold.Chemscore.Lipo.Weighted>
-13.8181

> <Gold.Chemscore.Internal_Hbond.Weighted>
0.0000

> <Gold.Chemscore.DEClash.Weighted>
0.0000

> <Gold.Chemscore.DEInternal.Weighted>
2.1739

> <Gold.Chemscore.Rot.Weighted>
6.2829

> <Gold.Chemscore.Internal.Correction.Weighted>
   9.000000E+99

> <Gold.Protein.RotatedTorsions>
[ 6907 6896 6895 6894 ] final   78.77 input  -60.11 | X-H torsion
[ 7974 7965 7964 7962 ] final  -33.03 input  175.53 | X-H torsion
[ 8008 7997 7996 7995 ] final -131.79 input   59.86 | X-H torsion
[ 10167 10162 10161 10158 ] final   21.90 input  -65.29 | X-H torsion
[ 10718 10713 10712 10709 ] final   19.11 input   66.30 | X-H torsion
[ 10763 10752 10751 10750 ] final  -67.50 input  -60.55 | X-H torsion
[ 11005 11000 10999 10996 ] final   11.52 input  -57.11 | X-H torsion

> <Gold.Protein.ActiveResidues>
 VAL166  LYS551  ARG553  GLY616  TRP617  ASP618  TYR619  PRO620  LYS621  CYS622 
 ASP623  PHE694  ASN695  SER759  ASP760  ASP761  ALA762  ILE779  LEU786  VAL792 
 PHE793  MET794  SER795  GLU796  ALA797  LYS798  CYS799  TRP800  GLU811  SER814 

> <Gold.Protein.RotatedAtoms>
  152.5173  134.3613  159.9285 H   0  0  0  0  0  0  0  0  0  0  0  0  # atno 6907 bound_to 6896
  151.3565  133.3899  159.2693 H   0  0  0  0  0  0  0  0  0  0  0  0  # atno 6908 bound_to 6896
  150.9686  134.9081  159.7832 H   0  0  0  0  0  0  0  0  0  0  0  0  # atno 6909 bound_to 6896
  146.0943  140.5866  142.8850 H   0  0  0  0  0  0  0  0  0  0  0  0  # atno 7974 bound_to 7965
  155.3182  140.0461  157.3038 H   0  0  0  0  0  0  0  0  0  0  0  0  # atno 8008 bound_to 7997
  154.5395  140.2283  155.8632 H   0  0  0  0  0  0  0  0  0  0  0  0  # atno 8009 bound_to 7997
  156.1867  140.3061  155.9258 H   0  0  0  0  0  0  0  0  0  0  0  0  # atno 8010 bound_to 7997
  140.5391  143.9709  150.6508 H   0  0  0  0  0  0  0  0  0  0  0  0  # atno 10167 bound_to 10162
  157.1058  130.6487  149.5884 H   0  0  0  0  0  0  0  0  0  0  0  0  # atno 10718 bound_to 10713
  154.3754  135.6086  153.5762 H   0  0  0  0  0  0  0  0  0  0  0  0  # atno 10763 bound_to 10752
  152.9789  135.5848  154.4472 H   0  0  0  0  0  0  0  0  0  0  0  0  # atno 10764 bound_to 10752
  154.4233  135.2846  155.1939 H   0  0  0  0  0  0  0  0  0  0  0  0  # atno 10765 bound_to 10752
  140.5024  134.0733  155.7797 H   0  0  0  0  0  0  0  0  0  0  0  0  # atno 11005 bound_to 11000
  144.7383  140.4872  143.6887 LP  0  0  0  0  0  0  0  0  0  0  0  0  # atno 17320 bound_to 7965
  145.5979  139.1501  143.3146 LP  0  0  0  0  0  0  0  0  0  0  0  0  # atno 17321 bound_to 7965
  140.3104  143.3201  152.0884 LP  0  0  0  0  0  0  0  0  0  0  0  0  # atno 17342 bound_to 10162
  139.4982  144.6640  151.6400 LP  0  0  0  0  0  0  0  0  0  0  0  0  # atno 17343 bound_to 10162
  155.9862  130.4896  150.7069 LP  0  0  0  0  0  0  0  0  0  0  0  0  # atno 17370 bound_to 10713
  157.4602  131.0882  151.0754 LP  0  0  0  0  0  0  0  0  0  0  0  0  # atno 17371 bound_to 10713
  141.1429  133.9107  157.2284 LP  0  0  0  0  0  0  0  0  0  0  0  0  # atno 17394 bound_to 11000
  139.9706  135.0129  156.9501 LP  0  0  0  0  0  0  0  0  0  0  0  0  # atno 17395 bound_to 11000

$$$$
