AV-unprocessed.smi:1702|AV-procd|sdf|6852|dock7
  -GOLD-   22720 8 33D 1   1.00000     0.00000
 Structure written by MMmdl.
 45 47  0  0  0  0  0  0  0  0  3 V2000
  151.3036  138.3959  156.6612 C   0  0  0  0  0  0  0  0  0  0  0  0
  151.1931  137.7109  155.2873 C   0  0  2  0  0  0  0  0  0  0  0  0
  150.6720  138.6561  154.1896 C   0  0  0  0  0  0  0  0  0  0  0  0
  149.1645  138.9353  154.3282 C   0  0  0  0  0  0  0  0  0  0  0  0
  148.3823  137.6704  154.3427 N   0  3  2  0  0  0  0  0  0  0  0  0
  146.9121  137.8876  154.3478 C   0  0  0  0  0  0  0  0  0  0  0  0
  146.1295  136.6576  153.8460 C   0  0  1  0  0  0  0  0  0  0  0  0
  144.8145  136.7090  154.3660 O   0  0  0  0  0  0  0  0  0  0  0  0
  146.0624  136.6107  152.3065 C   0  0  0  0  0  0  0  0  0  0  0  0
  145.1913  135.5390  151.8039 N   0  0  0  0  0  0  0  0  0  0  0  0
  144.0955  135.6055  150.9986 C   0  0  0  0  0  0  0  0  0  0  0  0
  143.6382  134.3350  150.8208 N   0  3  0  0  0  0  0  0  0  0  0  0
  144.4530  133.4433  151.5218 C   0  0  0  0  0  0  0  0  0  0  0  0
  144.3934  132.0590  151.6478 C   0  0  0  0  0  0  0  0  0  0  0  0
  145.3856  131.4504  152.4445 C   0  0  0  0  0  0  0  0  0  0  0  0
  145.3732  130.1058  152.6021 F   0  0  0  0  0  0  0  0  0  0  0  0
  146.3879  132.2146  153.0791 C   0  0  0  0  0  0  0  0  0  0  0  0
  147.3220  131.5909  153.8352 F   0  0  0  0  0  0  0  0  0  0  0  0
  146.4384  133.6179  152.9435 C   0  0  0  0  0  0  0  0  0  0  0  0
  145.4531  134.2104  152.1552 C   0  0  0  0  0  0  0  0  0  0  0  0
  148.8227  136.7674  155.4371 C   0  0  0  0  0  0  0  0  0  0  0  0
  150.3229  136.4417  155.3230 C   0  0  0  0  0  0  0  0  0  0  0  0
  150.3370  138.7363  157.0318 H   0  0  0  0  0  0  0  0  0  0  0  0
  151.9613  139.2642  156.6124 H   0  0  0  0  0  0  0  0  0  0  0  0
  151.7188  137.7144  157.4042 H   0  0  0  0  0  0  0  0  0  0  0  0
  152.2044  137.4095  155.0107 H   0  0  0  0  0  0  0  0  0  0  0  0
  151.2303  139.5931  154.2014 H   0  0  0  0  0  0  0  0  0  0  0  0
  150.8589  138.2066  153.2132 H   0  0  0  0  0  0  0  0  0  0  0  0
  148.9650  139.5008  155.2392 H   0  0  0  0  0  0  0  0  0  0  0  0
  148.8488  139.5657  153.4977 H   0  0  0  0  0  0  0  0  0  0  0  0
  146.5745  138.1207  155.3591 H   0  0  0  0  0  0  0  0  0  0  0  0
  146.6773  138.7650  153.7432 H   0  0  0  0  0  0  0  0  0  0  0  0
  146.5968  135.7403  154.2022 H   0  0  0  0  0  0  0  0  0  0  0  0
  144.6352  137.5923  154.6517 H   0  0  0  0  0  0  0  0  0  0  0  0
  145.6795  137.5538  151.9138 H   0  0  0  0  0  0  0  0  0  0  0  0
  147.0556  136.4788  151.8751 H   0  0  0  0  0  0  0  0  0  0  0  0
  143.6645  136.5030  150.5783 H   0  0  0  0  0  0  0  0  0  0  0  0
  143.6283  131.4700  151.1637 H   0  0  0  0  0  0  0  0  0  0  0  0
  147.2104  134.1921  153.4333 H   0  0  0  0  0  0  0  0  0  0  0  0
  148.6003  137.2242  156.4024 H   0  0  0  0  0  0  0  0  0  0  0  0
  148.2571  135.8359  155.3933 H   0  0  0  0  0  0  0  0  0  0  0  0
  150.4907  135.8683  154.4100 H   0  0  0  0  0  0  0  0  0  0  0  0
  150.6303  135.7948  156.1453 H   0  0  0  0  0  0  0  0  0  0  0  0
  148.5910  137.1851  153.4814 H   0  0  0  0  0  0  0  0  0  0  0  0
  142.8285  134.0974  150.2613 H   0  0  0  0  0  0  0  0  0  0  0  0
  1  2  1  0  0  0  0
  1 23  1  0  0  0  0
  1 24  1  0  0  0  0
  1 25  1  0  0  0  0
  2 22  1  0  0  0  0
  2  3  1  0  0  0  0
  2 26  1  0  0  0  0
  3  4  1  0  0  0  0
  3 27  1  0  0  0  0
  3 28  1  0  0  0  0
  4  5  1  0  0  0  0
  4 29  1  0  0  0  0
  4 30  1  0  0  0  0
  5  6  1  0  0  0  0
  5 21  1  0  0  0  0
  5 44  1  0  0  0  0
  6  7  1  0  0  0  0
  6 31  1  0  0  0  0
  6 32  1  0  0  0  0
  7  8  1  0  0  0  0
  7  9  1  0  0  0  0
  7 33  1  0  0  0  0
  8 34  1  0  0  0  0
  9 10  1  0  0  0  0
  9 35  1  0  0  0  0
  9 36  1  0  0  0  0
 10 20  1  0  0  0  0
 10 11  1  0  0  0  0
 11 12  2  0  0  0  0
 11 37  1  0  0  0  0
 12 13  1  0  0  0  0
 12 45  1  0  0  0  0
 13 20  2  0  0  0  0
 13 14  1  0  0  0  0
 14 15  2  0  0  0  0
 14 38  1  0  0  0  0
 15 16  1  0  0  0  0
 15 17  1  0  0  0  0
 17 18  1  0  0  0  0
 17 19  2  0  0  0  0
 19 20  1  0  0  0  0
 19 39  1  0  0  0  0
 21 22  1  0  0  0  0
 21 40  1  0  0  0  0
 21 41  1  0  0  0  0
 22 42  1  0  0  0  0
 22 43  1  0  0  0  0
M  CHG  1   5   1
M  CHG  1  12   1
M  END
> <s_m_source_file>
AV-unprocessed.smi

> <i_m_source_file_index>
1702

> <i_lp_mmshare_version>
43012

> <i_f3d_flags>
0

> <s_epik_input>
W0NIM11bQ0hdMVtDSDJdW0NIMl1OKFtDSDJdW0NIMl0xKVtDSDJdW0NASF0oW09IXSlbQ0gyXW4oW2NIXW4yKWMoYzIzKVtjSF1jKEYpYyhGKVtjSF0z

> <s_epik_cmdline>
J2VwaWtfcHl0aG9uJywgJy1waCcsICc3LjAnLCAnLXRuJywgJzgnLCAnLW1hJywgJzIwMCcsICctbWV0YWxfYmluZGluZycsICctaW1hZScsICc8aW5maWxlLm1hZT4nLCAnLW9tYWUnLCAnPG91dGZpbGUubWFlPic=

> <r_epik_Ionization_Penalty>
2.33291

> <r_epik_Ionization_Penalty_Charging>
2.33291

> <r_epik_Ionization_Penalty_Neutral>
6.90208e-07

> <r_epik_State_Penalty>
2.4838

> <r_epik_Charging_Adjusted_Penalty>
4.81672

> <i_epik_Tot_Q>
2

> <i_epik_Tot_abs_Q>
2

> <r_epik_Metal_State_Penalty>
6.56754

> <b_epik_Metal_Only>
0

> <s_lp_Force_Field>
OPLS_2005

> <r_lp_Energy>
31.9784

> <b_lp_Chiralities_Consistent>
1

> <s_lp_Variant>
AV-unprocessed.smi:1702-8

> <Gold.Version>
5.8.1

> <Gold.Id.Protein>
6NUR|6NUR_protein|mol2

> <Gold.PLP.Fitness>
47.9952

> <Gold.PLP.PLP>
-33.8058

> <Gold.PLP.part.hbond>
-2.0000

> <Gold.PLP.part.metal>
0.0000

> <Gold.PLP.part.buried>
-3.3325

> <Gold.PLP.part.nonpolar>
-28.5389

> <Gold.PLP.part.repulsive>
0.0043

> <Gold.PLP.ligand.clash>
0.0000

> <Gold.PLP.ligand.torsion>
0.4197

> <Gold.PLP.Chemscore.Hbond>
4.0000

> <Gold.PLP.Chemscore.CHOScore>
1.0000

> <Gold.PLP.Chemscore.Metal>
0.0000

> <Gold.Chemscore.Hbonds>
donor molecule, donor type, donor heavy atom, donor atom, acceptor molecule, acceptor atom, score
      L1  H     5    44       P1  7948  2.00
      L1  H    12    45       P1 10186  2.00
      L1  C    11    37       P1 10171  1.00

> <Gold.PLP.Chemscore.Internal.Correction>
0.0288

> <Gold.Rescore>
     Score         DG    S(hbond)    S(metal)    S(lipo)     H(rot)  DE(clash)    DE(int)     intcor
     13.96     -15.51       1.95        0.00      80.92       2.32       0.97       0.58       ----

> <Gold.Chemscore.Fitness>
13.9600

> <Gold.Chemscore.DG>
-15.5058

> <Gold.Chemscore.ZeroCoef>
-5.4800

> <Gold.Chemscore.Hbond>
1.9461

> <Gold.Chemscore.Metal>
0.0000

> <Gold.Chemscore.Lipo>
80.9192

> <Gold.Chemscore.Internal_Hbond>
0.0000

> <Gold.Chemscore.DEClash>
0.9683

> <Gold.Chemscore.DEInternal>
0.5775

> <Gold.Chemscore.Rot>
2.3210

> <Gold.Chemscore.Internal.Correction>
   9.000000E+99

> <Gold.Chemscore.Hbonds>
donor molecule, donor type, donor heavy atom, donor atom, acceptor molecule, acceptor atom, score
      L1  H     5    44       P1  7948  1.00
      L1  H    12    45       P1 10186  0.89

> <Gold.Chemscore.Hbond.Weighted>
-6.4999

> <Gold.Chemscore.Metal.Weighted>
-0.0000

> <Gold.Chemscore.Lipo.Weighted>
-9.4676

> <Gold.Chemscore.Internal_Hbond.Weighted>
0.0000

> <Gold.Chemscore.DEClash.Weighted>
0.9683

> <Gold.Chemscore.DEInternal.Weighted>
0.5775

> <Gold.Chemscore.Rot.Weighted>
5.9416

> <Gold.Chemscore.Internal.Correction.Weighted>
   9.000000E+99

> <Gold.Protein.RotatedTorsions>
[ 6907 6896 6895 6894 ] final  -53.88 input  -60.11 | X-H torsion
[ 7974 7965 7964 7962 ] final -133.11 input  175.53 | X-H torsion
[ 8008 7997 7996 7995 ] final   66.62 input   59.86 | X-H torsion
[ 10167 10162 10161 10158 ] final   28.51 input  -65.29 | X-H torsion
[ 10718 10713 10712 10709 ] final  134.61 input   66.30 | X-H torsion
[ 10763 10752 10751 10750 ] final   29.57 input  -60.55 | X-H torsion
[ 11005 11000 10999 10996 ] final -117.69 input  -57.11 | X-H torsion

> <Gold.Protein.ActiveResidues>
 VAL166  LYS551  ARG553  GLY616  TRP617  ASP618  TYR619  PRO620  LYS621  CYS622 
 ASP623  PHE694  ASN695  SER759  ASP760  ASP761  ALA762  ILE779  LEU786  VAL792 
 PHE793  MET794  SER795  GLU796  ALA797  LYS798  CYS799  TRP800  GLU811  SER814 

> <Gold.Protein.RotatedAtoms>
  150.8387  134.7670  159.6913 H   0  0  0  0  0  0  0  0  0  0  0  0  # atno 6907 bound_to 6896
  152.4479  134.5453  159.9861 H   0  0  0  0  0  0  0  0  0  0  0  0  # atno 6908 bound_to 6896
  151.5598  133.3367  159.3004 H   0  0  0  0  0  0  0  0  0  0  0  0  # atno 6909 bound_to 6896
  144.9223  140.7029  143.4957 H   0  0  0  0  0  0  0  0  0  0  0  0  # atno 7974 bound_to 7965
  155.6801  140.3496  155.4852 H   0  0  0  0  0  0  0  0  0  0  0  0  # atno 8008 bound_to 7997
  155.9614  140.1138  157.0915 H   0  0  0  0  0  0  0  0  0  0  0  0  # atno 8009 bound_to 7997
  154.4144  140.1175  156.5170 H   0  0  0  0  0  0  0  0  0  0  0  0  # atno 8010 bound_to 7997
  140.4846  144.0563  150.6276 H   0  0  0  0  0  0  0  0  0  0  0  0  # atno 10167 bound_to 10162
  157.4655  131.1076  150.9867 H   0  0  0  0  0  0  0  0  0  0  0  0  # atno 10718 bound_to 10713
  153.0422  135.6485  154.0911 H   0  0  0  0  0  0  0  0  0  0  0  0  # atno 10763 bound_to 10752
  154.0616  135.2887  155.3325 H   0  0  0  0  0  0  0  0  0  0  0  0  # atno 10764 bound_to 10752
  154.6654  135.5376  153.8135 H   0  0  0  0  0  0  0  0  0  0  0  0  # atno 10765 bound_to 10752
  141.0337  133.9941  157.3103 H   0  0  0  0  0  0  0  0  0  0  0  0  # atno 11005 bound_to 11000
  145.3276  139.1769  143.4554 LP  0  0  0  0  0  0  0  0  0  0  0  0  # atno 17320 bound_to 7965
  146.3210  140.3301  142.8640 LP  0  0  0  0  0  0  0  0  0  0  0  0  # atno 17321 bound_to 7965
  140.3814  143.2800  152.0165 LP  0  0  0  0  0  0  0  0  0  0  0  0  # atno 17342 bound_to 10162
  139.4839  144.6151  151.7361 LP  0  0  0  0  0  0  0  0  0  0  0  0  # atno 17343 bound_to 10162
  157.0649  130.5840  149.5392 LP  0  0  0  0  0  0  0  0  0  0  0  0  # atno 17370 bound_to 10713
  156.0048  130.5134  150.7793 LP  0  0  0  0  0  0  0  0  0  0  0  0  # atno 17371 bound_to 10713
  139.9226  135.0201  156.8119 LP  0  0  0  0  0  0  0  0  0  0  0  0  # atno 17394 bound_to 11000
  140.6360  133.9862  155.7684 LP  0  0  0  0  0  0  0  0  0  0  0  0  # atno 17395 bound_to 11000

$$$$
