AV-unprocessed.smi:719|AV-procd|sdf|3493|dock8
  -GOLD-   22720 0483D 1   1.00000     0.00000
 Structure written by MMmdl.
 41 43  0  0  0  0  0  0  0  0  1 V2000
  144.3318  146.4188  157.1296 C   0  0  0  0  0  0  0  0  0  0  0  0
  144.1513  144.9215  157.4020 C   0  0  0  0  0  0  0  0  0  0  0  0
  144.9397  144.0716  156.4497 C   0  0  0  0  0  0  0  0  0  0  0  0
  145.9253  143.2164  156.9509 N   0  0  0  0  0  0  0  0  0  0  0  0
  146.5458  142.5260  155.9916 C   0  0  0  0  0  0  0  0  0  0  0  0
  147.5931  141.4939  156.2599 C   0  0  0  0  0  0  0  0  0  0  0  0
  148.3735  141.7186  157.5690 C   0  0  0  0  0  0  0  0  0  0  0  0
  149.4561  142.6884  157.4196 N   0  0  0  0  0  0  0  0  0  0  0  0
  150.5547  142.7561  158.1880 C   0  0  0  0  0  0  0  0  0  0  0  0
  150.7668  142.0029  159.1384 O   0  0  0  0  0  0  0  0  0  0  0  0
  151.4742  143.8766  157.8359 C   0  0  2  0  0  0  0  0  0  0  0  0
  152.8211  144.0077  158.5290 C   0  0  2  0  0  0  0  0  0  0  0  0
  153.2285  143.2983  159.8052 C   0  0  0  0  0  0  0  0  0  0  0  0
  152.1695  143.6481  160.8635 C   0  0  0  0  0  0  0  0  0  0  0  0
  151.4451  144.9004  160.3422 C   0  0  0  0  0  0  0  0  0  0  0  0
  151.7240  144.9809  158.8535 C   0  0  2  0  0  0  0  0  0  0  0  0
  145.9438  142.8883  154.3809 S   0  0  0  0  0  0  0  0  0  0  0  0
  144.8202  144.0254  155.0802 C   0  0  0  0  0  0  0  0  0  0  0  0
  143.8821  144.8008  154.2164 C   0  0  0  0  0  0  0  0  0  0  0  0
  143.7488  147.0152  157.8315 H   0  0  0  0  0  0  0  0  0  0  0  0
  144.0050  146.6764  156.1217 H   0  0  0  0  0  0  0  0  0  0  0  0
  145.3766  146.7150  157.2289 H   0  0  0  0  0  0  0  0  0  0  0  0
  144.4507  144.7052  158.4284 H   0  0  0  0  0  0  0  0  0  0  0  0
  143.0916  144.6711  157.3452 H   0  0  0  0  0  0  0  0  0  0  0  0
  147.1132  140.5154  156.2835 H   0  0  0  0  0  0  0  0  0  0  0  0
  148.2859  141.4738  155.4176 H   0  0  0  0  0  0  0  0  0  0  0  0
  147.6894  142.0262  158.3617 H   0  0  0  0  0  0  0  0  0  0  0  0
  148.8098  140.7751  157.8974 H   0  0  0  0  0  0  0  0  0  0  0  0
  149.3596  143.3657  156.6769 H   0  0  0  0  0  0  0  0  0  0  0  0
  151.4063  144.2090  156.8019 H   0  0  0  0  0  0  0  0  0  0  0  0
  153.6453  144.3358  157.8986 H   0  0  0  0  0  0  0  0  0  0  0  0
  153.3173  142.2237  159.6439 H   0  0  0  0  0  0  0  0  0  0  0  0
  154.2045  143.6731  160.1143 H   0  0  0  0  0  0  0  0  0  0  0  0
  151.4590  142.8260  160.9553 H   0  0  0  0  0  0  0  0  0  0  0  0
  152.6071  143.8053  161.8496 H   0  0  0  0  0  0  0  0  0  0  0  0
  150.3732  144.8752  160.5396 H   0  0  0  0  0  0  0  0  0  0  0  0
  151.8520  145.7928  160.8187 H   0  0  0  0  0  0  0  0  0  0  0  0
  151.7825  145.9898  158.4497 H   0  0  0  0  0  0  0  0  0  0  0  0
  143.9325  145.8649  154.4473 H   0  0  0  0  0  0  0  0  0  0  0  0
  142.8552  144.4694  154.3701 H   0  0  0  0  0  0  0  0  0  0  0  0
  144.1215  144.6750  153.1603 H   0  0  0  0  0  0  0  0  0  0  0  0
  1  2  1  0  0  0  0
  1 20  1  0  0  0  0
  1 21  1  0  0  0  0
  1 22  1  0  0  0  0
  2  3  1  0  0  0  0
  2 23  1  0  0  0  0
  2 24  1  0  0  0  0
  3 18  2  0  0  0  0
  3  4  1  0  0  0  0
  4  5  2  0  0  0  0
  5  6  1  0  0  0  0
  5 17  1  0  0  0  0
  6  7  1  0  0  0  0
  6 25  1  0  0  0  0
  6 26  1  0  0  0  0
  7  8  1  0  0  0  0
  7 27  1  0  0  0  0
  7 28  1  0  0  0  0
  8  9  1  0  0  0  0
  8 29  1  0  0  0  0
  9 10  2  0  0  0  0
  9 11  1  0  0  0  0
 11 16  1  0  0  0  0
 11 12  1  0  0  0  0
 11 30  1  0  0  0  0
 12 16  1  0  0  0  0
 12 13  1  0  0  0  0
 12 31  1  0  0  0  0
 13 14  1  0  0  0  0
 13 32  1  0  0  0  0
 13 33  1  0  0  0  0
 14 15  1  0  0  0  0
 14 34  1  0  0  0  0
 14 35  1  0  0  0  0
 15 16  1  0  0  0  0
 15 36  1  0  0  0  0
 15 37  1  0  0  0  0
 16 38  1  0  0  0  0
 17 18  1  0  0  0  0
 18 19  1  0  0  0  0
 19 39  1  0  0  0  0
 19 40  1  0  0  0  0
 19 41  1  0  0  0  0
M  END
> <s_m_source_file>
AV-unprocessed.smi

> <i_m_source_file_index>
719

> <i_lp_mmshare_version>
43012

> <i_f3d_flags>
0

> <s_epik_input>
W0NIM11bQ0gyXWMxbmMoc2MxW0NIM10pW0NIMl1bQ0gyXVtOSF1DKD1PKVtDQEhdMltDQEhdKFtDQEBIXTIzKVtDSDJdW0NIMl1bQ0gyXTM=

> <s_epik_cmdline>
J2VwaWtfcHl0aG9uJywgJy1waCcsICc3LjAnLCAnLXRuJywgJzgnLCAnLW1hJywgJzIwMCcsICctbWV0YWxfYmluZGluZycsICctaW1hZScsICc8aW5maWxlLm1hZT4nLCAnLW9tYWUnLCAnPG91dGZpbGUubWFlPic=

> <r_epik_Ionization_Penalty>
0.00247473

> <r_epik_Ionization_Penalty_Charging>
0

> <r_epik_Ionization_Penalty_Neutral>
0.00247473

> <r_epik_State_Penalty>
0.00171502

> <r_epik_Charging_Adjusted_Penalty>
0.00171502

> <i_epik_Tot_Q>
0

> <i_epik_Tot_abs_Q>
0

> <r_epik_Metal_State_Penalty>
-0

> <b_epik_Metal_Only>
0

> <s_lp_Force_Field>
OPLS_2005

> <r_lp_Energy>
22.4904

> <b_lp_Chiralities_Consistent>
1

> <s_lp_Variant>
AV-unprocessed.smi:719-1

> <Gold.Version>
5.8.1

> <Gold.Id.Protein>
6NUR|6NUR_protein|mol2

> <Gold.PLP.Fitness>
44.1649

> <Gold.PLP.PLP>
-42.4468

> <Gold.PLP.part.hbond>
-1.8520

> <Gold.PLP.part.metal>
0.0000

> <Gold.PLP.part.buried>
-5.8308

> <Gold.PLP.part.nonpolar>
-35.4940

> <Gold.PLP.part.repulsive>
0.2107

> <Gold.PLP.ligand.clash>
0.0000

> <Gold.PLP.ligand.torsion>
0.6943

> <Gold.PLP.Chemscore.Hbond>
1.0000

> <Gold.PLP.Chemscore.CHOScore>
0.0000

> <Gold.PLP.Chemscore.Metal>
0.0000

> <Gold.Chemscore.Hbonds>
donor molecule, donor type, donor heavy atom, donor atom, acceptor molecule, acceptor atom, score
      L1  H     8    29       P1  8028  1.00

> <Gold.PLP.Chemscore.Internal.Correction>
0.1068

> <Gold.Rescore>
     Score         DG    S(hbond)    S(metal)    S(lipo)     H(rot)  DE(clash)    DE(int)     intcor
     15.01     -18.44       1.00        0.00     113.43       1.42       0.06       3.37       ----

> <Gold.Chemscore.Fitness>
15.0148

> <Gold.Chemscore.DG>
-18.4440

> <Gold.Chemscore.ZeroCoef>
-5.4800

> <Gold.Chemscore.Hbond>
0.9969

> <Gold.Chemscore.Metal>
0.0000

> <Gold.Chemscore.Lipo>
113.4344

> <Gold.Chemscore.Internal_Hbond>
0.0000

> <Gold.Chemscore.DEClash>
0.0626

> <Gold.Chemscore.DEInternal>
3.3667

> <Gold.Chemscore.Rot>
1.4209

> <Gold.Chemscore.Internal.Correction>
   9.000000E+99

> <Gold.Chemscore.Hbonds>
donor molecule, donor type, donor heavy atom, donor atom, acceptor molecule, acceptor atom, score
      L1  H     8    29       P1  8028  0.99

> <Gold.Chemscore.Hbond.Weighted>
-3.3297

> <Gold.Chemscore.Metal.Weighted>
-0.0000

> <Gold.Chemscore.Lipo.Weighted>
-13.2718

> <Gold.Chemscore.Internal_Hbond.Weighted>
0.0000

> <Gold.Chemscore.DEClash.Weighted>
0.0626

> <Gold.Chemscore.DEInternal.Weighted>
3.3667

> <Gold.Chemscore.Rot.Weighted>
3.6376

> <Gold.Chemscore.Internal.Correction.Weighted>
   9.000000E+99

> <Gold.Protein.RotatedTorsions>
[ 6907 6896 6895 6894 ] final   51.81 input  -60.11 | X-H torsion
[ 7974 7965 7964 7962 ] final  -75.82 input  175.53 | X-H torsion
[ 8008 7997 7996 7995 ] final   55.68 input   59.86 | X-H torsion
[ 10167 10162 10161 10158 ] final   83.25 input  -65.29 | X-H torsion
[ 10718 10713 10712 10709 ] final   33.39 input   66.30 | X-H torsion
[ 10763 10752 10751 10750 ] final  -36.68 input  -60.55 | X-H torsion
[ 11005 11000 10999 10996 ] final  -49.22 input  -57.11 | X-H torsion

> <Gold.Protein.ActiveResidues>
 VAL166  LYS551  ARG553  GLY616  TRP617  ASP618  TYR619  PRO620  LYS621  CYS622 
 ASP623  PHE694  ASN695  SER759  ASP760  ASP761  ALA762  ILE779  LEU786  VAL792 
 PHE793  MET794  SER795  GLU796  ALA797  LYS798  CYS799  TRP800  GLU811  SER814 

> <Gold.Protein.RotatedAtoms>
  152.3166  134.7432  160.0323 H   0  0  0  0  0  0  0  0  0  0  0  0  # atno 6907 bound_to 6896
  151.7895  133.3352  159.3503 H   0  0  0  0  0  0  0  0  0  0  0  0  # atno 6908 bound_to 6896
  150.7348  134.5787  159.5972 H   0  0  0  0  0  0  0  0  0  0  0  0  # atno 6909 bound_to 6896
  145.6209  140.9363  143.1138 H   0  0  0  0  0  0  0  0  0  0  0  0  # atno 7974 bound_to 7965
  155.5050  140.3475  155.4378 H   0  0  0  0  0  0  0  0  0  0  0  0  # atno 8008 bound_to 7997
  156.0888  140.1405  156.9647 H   0  0  0  0  0  0  0  0  0  0  0  0  # atno 8009 bound_to 7997
  154.4622  140.0930  156.6901 H   0  0  0  0  0  0  0  0  0  0  0  0  # atno 8010 bound_to 7997
  139.9204  144.6216  150.8446 H   0  0  0  0  0  0  0  0  0  0  0  0  # atno 10167 bound_to 10162
  157.2973  130.7333  149.6646 H   0  0  0  0  0  0  0  0  0  0  0  0  # atno 10718 bound_to 10713
  153.8837  135.6819  153.4765 H   0  0  0  0  0  0  0  0  0  0  0  0  # atno 10763 bound_to 10752
  153.1219  135.4736  154.9207 H   0  0  0  0  0  0  0  0  0  0  0  0  # atno 10764 bound_to 10752
  154.7656  135.3223  154.8245 H   0  0  0  0  0  0  0  0  0  0  0  0  # atno 10765 bound_to 10752
  141.0746  133.6669  156.3554 H   0  0  0  0  0  0  0  0  0  0  0  0  # atno 11005 bound_to 11000
  144.7231  139.7963  143.7374 LP  0  0  0  0  0  0  0  0  0  0  0  0  # atno 17320 bound_to 7965
  146.1431  139.4494  143.0096 LP  0  0  0  0  0  0  0  0  0  0  0  0  # atno 17321 bound_to 7965
  140.7664  143.3301  151.2429 LP  0  0  0  0  0  0  0  0  0  0  0  0  # atno 17342 bound_to 10162
  139.6867  143.9762  152.2837 LP  0  0  0  0  0  0  0  0  0  0  0  0  # atno 17343 bound_to 10162
  155.9670  130.4290  150.4816 LP  0  0  0  0  0  0  0  0  0  0  0  0  # atno 17370 bound_to 10713
  157.2790  131.0603  151.2210 LP  0  0  0  0  0  0  0  0  0  0  0  0  # atno 17371 bound_to 10713
  140.5600  134.5944  157.5431 LP  0  0  0  0  0  0  0  0  0  0  0  0  # atno 17394 bound_to 11000
  139.9559  134.7536  156.0343 LP  0  0  0  0  0  0  0  0  0  0  0  0  # atno 17395 bound_to 11000

$$$$
