AV-unprocessed.smi:224|AV-procd|sdf|1720|dock1
  -GOLD-   2262020193D 1   1.00000     0.00000
 Structure written by MMmdl.
 56 59  0  0  0  0  0  0  0  0  2 V2000
  152.2884  144.7347  159.0187 C   0  0  0  0  0  0  0  0  0  0  0  0
  151.0682  144.4976  158.1193 C   0  0  1  0  0  0  0  0  0  0  0  0
  151.5138  144.4989  156.7778 O   0  0  0  0  0  0  0  0  0  0  0  0
  150.3816  143.1526  158.4320 C   0  0  0  0  0  0  0  0  0  0  0  0
  149.6735  142.5778  157.2579 N   0  3  2  0  0  0  0  0  0  0  0  0
  148.3401  142.0012  157.5807 C   0  0  0  0  0  0  0  0  0  0  0  0
  147.6065  141.5615  156.3010 C   0  0  0  0  0  0  0  0  0  0  0  0
  148.4373  140.6704  155.4936 N   0  0  0  0  0  0  0  0  0  0  0  0
  148.3410  139.3246  155.6677 C   0  0  0  0  0  0  0  0  0  0  0  0
  148.8683  138.4872  154.7348 N   0  0  0  0  0  0  0  0  0  0  0  0
  148.7652  137.1628  154.8752 C   0  0  0  0  0  0  0  0  0  0  0  0
  148.1902  136.4721  155.8600 N   0  0  0  0  0  0  0  0  0  0  0  0
  147.6758  137.3018  156.8118 C   0  0  0  0  0  0  0  0  0  0  0  0
  147.7041  138.7256  156.7931 C   0  0  0  0  0  0  0  0  0  0  0  0
  147.0844  139.2218  157.9346 N   0  0  0  0  0  0  0  0  0  0  0  0
  146.7015  138.1554  158.5818 C   0  0  0  0  0  0  0  0  0  0  0  0
  147.0270  136.9588  157.9852 N   0  0  0  0  0  0  0  0  0  0  0  0
  146.7291  135.6262  158.4873 C   0  0  0  0  0  0  0  0  0  0  0  0
  147.5951  135.2031  159.7018 C   0  0  2  0  0  0  0  0  0  0  0  0
  148.4474  134.1356  159.3333 O   0  0  0  0  0  0  0  0  0  0  0  0
  146.7468  134.7858  160.8921 C   0  0  0  0  0  0  0  0  0  0  0  0
  146.4509  136.1158  161.5822 C   0  0  0  0  0  0  0  0  0  0  0  0
  147.5372  136.9785  161.2572 O   0  0  0  0  0  0  0  0  0  0  0  0
  148.4087  136.3434  160.3273 C   0  0  0  0  0  0  0  0  0  0  0  0
  149.7559  141.2106  155.1665 C   0  0  0  0  0  0  0  0  0  0  0  0
  150.5202  141.6679  156.4293 C   0  0  2  0  0  0  0  0  0  0  0  0
  151.0990  140.4772  157.2245 C   0  0  0  0  0  0  0  0  0  0  0  0
  151.9999  144.7650  160.0697 H   0  0  0  0  0  0  0  0  0  0  0  0
  152.7721  145.6837  158.7841 H   0  0  0  0  0  0  0  0  0  0  0  0
  153.0312  143.9447  158.9005 H   0  0  0  0  0  0  0  0  0  0  0  0
  150.3791  145.3304  158.2544 H   0  0  0  0  0  0  0  0  0  0  0  0
  150.7642  144.4825  156.2032 H   0  0  0  0  0  0  0  0  0  0  0  0
  151.1415  142.4526  158.7837 H   0  0  0  0  0  0  0  0  0  0  0  0
  149.6726  143.2709  159.2531 H   0  0  0  0  0  0  0  0  0  0  0  0
  148.4574  141.1581  158.2619 H   0  0  0  0  0  0  0  0  0  0  0  0
  147.7243  142.7329  158.1016 H   0  0  0  0  0  0  0  0  0  0  0  0
  146.6475  141.1010  156.5417 H   0  0  0  0  0  0  0  0  0  0  0  0
  147.3721  142.4389  155.6971 H   0  0  0  0  0  0  0  0  0  0  0  0
  149.2059  136.5717  154.0859 H   0  0  0  0  0  0  0  0  0  0  0  0
  146.1753  138.2124  159.5239 H   0  0  0  0  0  0  0  0  0  0  0  0
  145.6701  135.5952  158.7458 H   0  0  0  0  0  0  0  0  0  0  0  0
  146.8608  134.9177  157.6685 H   0  0  0  0  0  0  0  0  0  0  0  0
  148.2659  133.9018  158.4359 H   0  0  0  0  0  0  0  0  0  0  0  0
  145.8456  134.2365  160.6173 H   0  0  0  0  0  0  0  0  0  0  0  0
  147.3254  134.1558  161.5702 H   0  0  0  0  0  0  0  0  0  0  0  0
  145.5306  136.5544  161.1953 H   0  0  0  0  0  0  0  0  0  0  0  0
  146.3427  136.0050  162.6613 H   0  0  0  0  0  0  0  0  0  0  0  0
  149.2500  135.9429  160.8953 H   0  0  0  0  0  0  0  0  0  0  0  0
  148.8164  137.0509  159.6065 H   0  0  0  0  0  0  0  0  0  0  0  0
  150.3663  140.5067  154.6037 H   0  0  0  0  0  0  0  0  0  0  0  0
  149.6046  142.0657  154.5069 H   0  0  0  0  0  0  0  0  0  0  0  0
  151.3710  142.2554  156.0817 H   0  0  0  0  0  0  0  0  0  0  0  0
  151.6901  139.8314  156.5746 H   0  0  0  0  0  0  0  0  0  0  0  0
  150.3210  139.8604  157.6724 H   0  0  0  0  0  0  0  0  0  0  0  0
  151.7583  140.8082  158.0267 H   0  0  0  0  0  0  0  0  0  0  0  0
  149.4864  143.3643  156.6528 H   0  0  0  0  0  0  0  0  0  0  0  0
  1  2  1  0  0  0  0
  1 28  1  0  0  0  0
  1 29  1  0  0  0  0
  1 30  1  0  0  0  0
  2  3  1  0  0  0  0
  2  4  1  0  0  0  0
  2 31  1  0  0  0  0
  3 32  1  0  0  0  0
  4  5  1  0  0  0  0
  4 33  1  0  0  0  0
  4 34  1  0  0  0  0
  5 26  1  0  0  0  0
  5  6  1  0  0  0  0
  5 56  1  0  0  0  0
  6  7  1  0  0  0  0
  6 35  1  0  0  0  0
  6 36  1  0  0  0  0
  7  8  1  0  0  0  0
  7 37  1  0  0  0  0
  7 38  1  0  0  0  0
  8  9  1  0  0  0  0
  8 25  1  0  0  0  0
  9 14  1  0  0  0  0
  9 10  2  0  0  0  0
 10 11  1  0  0  0  0
 11 12  2  0  0  0  0
 11 39  1  0  0  0  0
 12 13  1  0  0  0  0
 13 17  1  0  0  0  0
 13 14  2  0  0  0  0
 14 15  1  0  0  0  0
 15 16  2  0  0  0  0
 16 17  1  0  0  0  0
 16 40  1  0  0  0  0
 17 18  1  0  0  0  0
 18 19  1  0  0  0  0
 18 41  1  0  0  0  0
 18 42  1  0  0  0  0
 19 24  1  0  0  0  0
 19 20  1  0  0  0  0
 19 21  1  0  0  0  0
 20 43  1  0  0  0  0
 21 22  1  0  0  0  0
 21 44  1  0  0  0  0
 21 45  1  0  0  0  0
 22 23  1  0  0  0  0
 22 46  1  0  0  0  0
 22 47  1  0  0  0  0
 23 24  1  0  0  0  0
 24 48  1  0  0  0  0
 24 49  1  0  0  0  0
 25 26  1  0  0  0  0
 25 50  1  0  0  0  0
 25 51  1  0  0  0  0
 26 27  1  0  0  0  0
 26 52  1  0  0  0  0
 27 53  1  0  0  0  0
 27 54  1  0  0  0  0
 27 55  1  0  0  0  0
M  CHG  1   5   1
M  END
> <s_m_source_file>
AV-unprocessed.smi

> <i_m_source_file_index>
224

> <i_lp_mmshare_version>
43012

> <i_f3d_flags>
0

> <s_epik_input>
W0NIM11bQ0BIXShbT0hdKVtDSDJdTjFbQ0gyXVtDSDJdTihbQ0gyXVtDQEhdMVtDSDNdKWMobltjSF1uMiljKGMyMyluW2NIXW4zW0NIMl1bQ0BAXTQoW09IXSlbQ0gyXVtDSDJdT1tDSDJdNA==

> <s_epik_cmdline>
J2VwaWtfcHl0aG9uJywgJy1waCcsICc3LjAnLCAnLXRuJywgJzgnLCAnLW1hJywgJzIwMCcsICctbWV0YWxfYmluZGluZycsICctaW1hZScsICc8aW5maWxlLm1hZT4nLCAnLW9tYWUnLCAnPG91dGZpbGUubWFlPic=

> <r_lp_tautomer_probability>
1

> <r_epik_Ionization_Penalty>
0.00516958

> <r_epik_Ionization_Penalty_Charging>
0.00509693

> <r_epik_Ionization_Penalty_Neutral>
7.26542e-05

> <r_epik_State_Penalty>
-0

> <r_epik_Charging_Adjusted_Penalty>
0.00509693

> <i_epik_Tot_Q>
1

> <i_epik_Tot_abs_Q>
1

> <r_epik_Metal_State_Penalty>
-0

> <b_epik_Metal_Only>
0

> <s_lp_Force_Field>
OPLS_2005

> <r_lp_Energy>
52.1704

> <b_lp_Chiralities_Consistent>
1

> <s_lp_Variant>
AV-unprocessed.smi:224-14

> <Gold.Version>
5.8.1

> <Gold.Id.Protein>
6NUR|6NUR_protein|mol2

> <Gold.PLP.Fitness>
47.3003

> <Gold.PLP.PLP>
-32.2395

> <Gold.PLP.part.hbond>
-5.6839

> <Gold.PLP.part.metal>
0.0000

> <Gold.PLP.part.buried>
-0.3275

> <Gold.PLP.part.nonpolar>
-26.4796

> <Gold.PLP.part.repulsive>
0.2027

> <Gold.PLP.ligand.clash>
0.0000

> <Gold.PLP.ligand.torsion>
2.5200

> <Gold.PLP.Chemscore.Hbond>
5.5171

> <Gold.PLP.Chemscore.CHOScore>
1.0000

> <Gold.PLP.Chemscore.Metal>
0.0000

> <Gold.Chemscore.Hbonds>
donor molecule, donor type, donor heavy atom, donor atom, acceptor molecule, acceptor atom, score
      L1  H     3    32       P1  8028  1.00
      L1  H     5    56       P1  8028  2.00
      P1  H  6896  6908       L1    20  0.63
      P1  H  6931  6943       L1    23  0.55
      P1  H  6934  6947       L1    23  0.78
      L1  C    11    39       P1  7948  1.00

> <Gold.PLP.Chemscore.Internal.Correction>
0.5494

> <Gold.Rescore>
     Score         DG    S(hbond)    S(metal)    S(lipo)     H(rot)  DE(clash)    DE(int)     intcor
     14.11     -20.60       3.77        0.00      87.65       3.02       1.23       5.26       ----

> <Gold.Chemscore.Fitness>
14.1121

> <Gold.Chemscore.DG>
-20.6008

> <Gold.Chemscore.ZeroCoef>
-5.4800

> <Gold.Chemscore.Hbond>
3.7740

> <Gold.Chemscore.Metal>
0.0000

> <Gold.Chemscore.Lipo>
87.6472

> <Gold.Chemscore.Internal_Hbond>
0.0000

> <Gold.Chemscore.DEClash>
1.2278

> <Gold.Chemscore.DEInternal>
5.2608

> <Gold.Chemscore.Rot>
3.0231

> <Gold.Chemscore.Internal.Correction>
   9.000000E+99

> <Gold.Chemscore.Hbonds>
donor molecule, donor type, donor heavy atom, donor atom, acceptor molecule, acceptor atom, score
      L1  H     3    32       P1  8028  0.98
      L1  H     5    56       P1  8028  1.00
      P1  H  6896  6908       L1    20  0.29
      P1  H  6931  6943       L1    23  0.04
      P1  H  6934  6947       L1    23  0.68

> <Gold.Chemscore.Hbond.Weighted>
-12.6051

> <Gold.Chemscore.Metal.Weighted>
-0.0000

> <Gold.Chemscore.Lipo.Weighted>
-10.2547

> <Gold.Chemscore.Internal_Hbond.Weighted>
0.0000

> <Gold.Chemscore.DEClash.Weighted>
1.2278

> <Gold.Chemscore.DEInternal.Weighted>
5.2608

> <Gold.Chemscore.Rot.Weighted>
7.7391

> <Gold.Chemscore.Internal.Correction.Weighted>
   9.000000E+99

> <Gold.Protein.RotatedTorsions>
[ 6907 6896 6895 6894 ] final  149.40 input  -60.11 | X-H torsion
[ 7974 7965 7964 7962 ] final -174.33 input  175.53 | X-H torsion
[ 8008 7997 7996 7995 ] final  -62.16 input   59.86 | X-H torsion
[ 10167 10162 10161 10158 ] final  -98.64 input  -65.29 | X-H torsion
[ 10718 10713 10712 10709 ] final  -68.84 input   66.30 | X-H torsion
[ 10763 10752 10751 10750 ] final  -17.74 input  -60.55 | X-H torsion
[ 11005 11000 10999 10996 ] final    3.67 input  -57.11 | X-H torsion

> <Gold.Protein.ActiveResidues>
 VAL166  LYS551  ARG553  GLY616  TRP617  ASP618  TYR619  PRO620  LYS621  CYS622 
 ASP623  PHE694  ASN695  SER759  ASP760  ASP761  ALA762  ILE779  LEU786  VAL792 
 PHE793  MET794  SER795  GLU796  ALA797  LYS798  CYS799  TRP800  GLU811  SER814 

> <Gold.Protein.RotatedAtoms>
  152.1285  133.4394  159.4709 H   0  0  0  0  0  0  0  0  0  0  0  0  # atno 6907 bound_to 6896
  150.6876  134.2449  159.4496 H   0  0  0  0  0  0  0  0  0  0  0  0  # atno 6908 bound_to 6896
  152.0331  134.9755  160.0623 H   0  0  0  0  0  0  0  0  0  0  0  0  # atno 6909 bound_to 6896
  144.7132  140.1487  143.6386 H   0  0  0  0  0  0  0  0  0  0  0  0  # atno 7974 bound_to 7965
  154.4485  140.1002  156.6543 H   0  0  0  0  0  0  0  0  0  0  0  0  # atno 8008 bound_to 7997
  155.5363  140.3482  155.4418 H   0  0  0  0  0  0  0  0  0  0  0  0  # atno 8009 bound_to 7997
  156.0629  140.1330  156.9909 H   0  0  0  0  0  0  0  0  0  0  0  0  # atno 8010 bound_to 7997
  140.2708  143.3345  152.0536 H   0  0  0  0  0  0  0  0  0  0  0  0  # atno 10167 bound_to 10162
  156.0485  130.4302  150.2059 H   0  0  0  0  0  0  0  0  0  0  0  0  # atno 10718 bound_to 10713
  153.5785  135.7005  153.5474 H   0  0  0  0  0  0  0  0  0  0  0  0  # atno 10763 bound_to 10752
  153.3282  135.4055  155.1473 H   0  0  0  0  0  0  0  0  0  0  0  0  # atno 10764 bound_to 10752
  154.8621  135.3712  154.5311 H   0  0  0  0  0  0  0  0  0  0  0  0  # atno 10765 bound_to 10752
  140.5905  133.9928  155.8087 H   0  0  0  0  0  0  0  0  0  0  0  0  # atno 11005 bound_to 11000
  145.9136  139.2502  143.1423 LP  0  0  0  0  0  0  0  0  0  0  0  0  # atno 17320 bound_to 7965
  145.9692  140.8774  143.0171 LP  0  0  0  0  0  0  0  0  0  0  0  0  # atno 17321 bound_to 7965
  139.4989  144.6657  151.6361 LP  0  0  0  0  0  0  0  0  0  0  0  0  # atno 17342 bound_to 10162
  140.5891  143.9812  150.6313 LP  0  0  0  0  0  0  0  0  0  0  0  0  # atno 17343 bound_to 10162
  157.0146  130.9961  151.3356 LP  0  0  0  0  0  0  0  0  0  0  0  0  # atno 17370 bound_to 10713
  157.5387  130.8105  149.8002 LP  0  0  0  0  0  0  0  0  0  0  0  0  # atno 17371 bound_to 10713
  141.0938  133.9876  157.3194 LP  0  0  0  0  0  0  0  0  0  0  0  0  # atno 17394 bound_to 11000
  139.9276  135.0201  156.8289 LP  0  0  0  0  0  0  0  0  0  0  0  0  # atno 17395 bound_to 11000

$$$$
