AV-unprocessed.smi:3289|AV-procd|sdf|12609|dock10
  -GOLD-   2272018543D 1   1.00000     0.00000
 Structure written by MMmdl.
 39 40  0  0  0  0  0  0  0  0  1 V2000
  153.7710  138.4720  154.9061 C   0  0  0  0  0  0  0  0  0  0  0  0
  152.4383  138.0848  155.5628 C   0  0  0  0  0  0  0  0  0  0  0  0
  151.5536  137.2538  154.6213 C   0  0  0  0  0  0  0  0  0  0  0  0
  151.7090  139.2935  156.0852 C   0  0  0  0  0  0  0  0  0  0  0  0
  151.3076  140.2940  155.3042 N   0  0  0  0  0  0  0  0  0  0  0  0
  150.6880  141.1959  156.1599 C   0  0  0  0  0  0  0  0  0  0  0  0
  150.7424  140.7128  157.4437 C   0  0  0  0  0  0  0  0  0  0  0  0
  151.4078  139.4937  157.3882 N   0  0  0  0  0  0  0  0  0  0  0  0
  151.6944  138.6475  158.5399 C   0  0  0  0  0  0  0  0  0  0  0  0
  150.8242  137.3849  158.5824 C   0  0  0  0  0  0  0  0  0  0  0  0
  151.2609  136.3006  158.1939 O   0  0  0  0  0  0  0  0  0  0  0  0
  149.5841  137.5444  159.0689 N   0  0  0  0  0  0  0  0  0  0  0  0
  148.5863  136.4875  159.1912 C   0  0  0  0  0  0  0  0  0  0  0  0
  148.6759  135.7801  160.5539 C   0  0  2  0  0  0  0  0  0  0  0  0
  147.6032  134.7112  160.7585 C   0  0  0  0  0  0  0  0  0  0  0  0
  147.5141  134.6507  162.2661 C   0  0  0  0  0  0  0  0  0  0  0  0
  147.6684  136.1206  162.6424 C   0  0  0  0  0  0  0  0  0  0  0  0
  148.4822  136.7006  161.6264 O   0  0  0  0  0  0  0  0  0  0  0  0
  154.4120  139.0058  155.6083 H   0  0  0  0  0  0  0  0  0  0  0  0
  153.6149  139.1167  154.0405 H   0  0  0  0  0  0  0  0  0  0  0  0
  154.3143  137.5889  154.5691 H   0  0  0  0  0  0  0  0  0  0  0  0
  152.6806  137.4327  156.3997 H   0  0  0  0  0  0  0  0  0  0  0  0
  150.6383  136.9374  155.1226 H   0  0  0  0  0  0  0  0  0  0  0  0
  152.0724  136.3556  154.2858 H   0  0  0  0  0  0  0  0  0  0  0  0
  151.2685  137.8226  153.7358 H   0  0  0  0  0  0  0  0  0  0  0  0
  150.2561  142.1137  155.7892 H   0  0  0  0  0  0  0  0  0  0  0  0
  150.3747  141.1268  158.3709 H   0  0  0  0  0  0  0  0  0  0  0  0
  152.7497  138.3748  158.5400 H   0  0  0  0  0  0  0  0  0  0  0  0
  151.5283  139.2335  159.4452 H   0  0  0  0  0  0  0  0  0  0  0  0
  149.3077  138.4683  159.3679 H   0  0  0  0  0  0  0  0  0  0  0  0
  147.5810  136.8780  159.0241 H   0  0  0  0  0  0  0  0  0  0  0  0
  148.7720  135.7669  158.3944 H   0  0  0  0  0  0  0  0  0  0  0  0
  149.6589  135.3229  160.6782 H   0  0  0  0  0  0  0  0  0  0  0  0
  146.6487  135.0379  160.3431 H   0  0  0  0  0  0  0  0  0  0  0  0
  147.8638  133.7541  160.3056 H   0  0  0  0  0  0  0  0  0  0  0  0
  146.5827  134.2134  162.6263 H   0  0  0  0  0  0  0  0  0  0  0  0
  148.3449  134.0690  162.6677 H   0  0  0  0  0  0  0  0  0  0  0  0
  146.6990  136.6205  162.6350 H   0  0  0  0  0  0  0  0  0  0  0  0
  148.1100  136.2527  163.6304 H   0  0  0  0  0  0  0  0  0  0  0  0
  1  2  1  0  0  0  0
  1 19  1  0  0  0  0
  1 20  1  0  0  0  0
  1 21  1  0  0  0  0
  2  3  1  0  0  0  0
  2  4  1  0  0  0  0
  2 22  1  0  0  0  0
  3 23  1  0  0  0  0
  3 24  1  0  0  0  0
  3 25  1  0  0  0  0
  4  8  1  0  0  0  0
  4  5  2  0  0  0  0
  5  6  1  0  0  0  0
  6  7  2  0  0  0  0
  6 26  1  0  0  0  0
  7  8  1  0  0  0  0
  7 27  1  0  0  0  0
  8  9  1  0  0  0  0
  9 10  1  0  0  0  0
  9 28  1  0  0  0  0
  9 29  1  0  0  0  0
 10 11  2  0  0  0  0
 10 12  1  0  0  0  0
 12 13  1  0  0  0  0
 12 30  1  0  0  0  0
 13 14  1  0  0  0  0
 13 31  1  0  0  0  0
 13 32  1  0  0  0  0
 14 18  1  0  0  0  0
 14 15  1  0  0  0  0
 14 33  1  0  0  0  0
 15 16  1  0  0  0  0
 15 34  1  0  0  0  0
 15 35  1  0  0  0  0
 16 17  1  0  0  0  0
 16 36  1  0  0  0  0
 16 37  1  0  0  0  0
 17 18  1  0  0  0  0
 17 38  1  0  0  0  0
 17 39  1  0  0  0  0
M  END
> <s_m_source_file>
AV-unprocessed.smi

> <i_m_source_file_index>
3289

> <i_lp_mmshare_version>
43012

> <i_f3d_flags>
0

> <s_epik_input>
W0NIM11bQ0hdKFtDSDNdKWMxbltjSF1bY0hdbjFbQ0gyXUMoPU8pW05IXVtDSDJdW0NAQEhdMltDSDJdW0NIMl1bQ0gyXU8y

> <s_epik_cmdline>
J2VwaWtfcHl0aG9uJywgJy1waCcsICc3LjAnLCAnLXRuJywgJzgnLCAnLW1hJywgJzIwMCcsICctbWV0YWxfYmluZGluZycsICctaW1hZScsICc8aW5maWxlLm1hZT4nLCAnLW9tYWUnLCAnPG91dGZpbGUubWFlPic=

> <r_lp_tautomer_probability>
1

> <r_epik_Ionization_Penalty>
0.587725

> <r_epik_Ionization_Penalty_Charging>
0.587725

> <r_epik_Ionization_Penalty_Neutral>
1.43432e-07

> <r_epik_State_Penalty>
0.601029

> <r_epik_Charging_Adjusted_Penalty>
1.18875

> <i_epik_Tot_Q>
0

> <i_epik_Tot_abs_Q>
0

> <r_epik_Metal_State_Penalty>
0.297663

> <b_epik_Metal_Only>
0

> <s_lp_Force_Field>
OPLS_2005

> <r_lp_Energy>
18.7222

> <b_lp_Chiralities_Consistent>
1

> <s_lp_Variant>
AV-unprocessed.smi:3289-3

> <Gold.Version>
5.8.1

> <Gold.Id.Protein>
6NUR|6NUR_protein|mol2

> <Gold.PLP.Fitness>
44.9325

> <Gold.PLP.PLP>
-36.6809

> <Gold.PLP.part.hbond>
-3.3395

> <Gold.PLP.part.metal>
0.0000

> <Gold.PLP.part.buried>
-6.1808

> <Gold.PLP.part.nonpolar>
-29.1617

> <Gold.PLP.part.repulsive>
0.2883

> <Gold.PLP.ligand.clash>
0.0000

> <Gold.PLP.ligand.torsion>
0.6430

> <Gold.PLP.Chemscore.Hbond>
2.1605

> <Gold.PLP.Chemscore.CHOScore>
1.0000

> <Gold.PLP.Chemscore.Metal>
0.0000

> <Gold.Chemscore.Hbonds>
donor molecule, donor type, donor heavy atom, donor atom, acceptor molecule, acceptor atom, score
      P1  H  6896  6909       L1    11  0.26
      P1  H  6931  6943       L1    18  1.00
      P1  H  7989  7998       L1     5  1.00

> <Gold.PLP.Chemscore.Internal.Correction>
0.0561

> <Gold.Rescore>
     Score         DG    S(hbond)    S(metal)    S(lipo)     H(rot)  DE(clash)    DE(int)     intcor
     15.58     -16.52       1.95        0.00      76.27       1.72       0.08       0.86       ----

> <Gold.Chemscore.Fitness>
15.5789

> <Gold.Chemscore.DG>
-16.5196

> <Gold.Chemscore.ZeroCoef>
-5.4800

> <Gold.Chemscore.Hbond>
1.9498

> <Gold.Chemscore.Metal>
0.0000

> <Gold.Chemscore.Lipo>
76.2729

> <Gold.Chemscore.Internal_Hbond>
0.0000

> <Gold.Chemscore.DEClash>
0.0780

> <Gold.Chemscore.DEInternal>
0.8628

> <Gold.Chemscore.Rot>
1.7175

> <Gold.Chemscore.Internal.Correction>
   9.000000E+99

> <Gold.Chemscore.Hbonds>
donor molecule, donor type, donor heavy atom, donor atom, acceptor molecule, acceptor atom, score
      P1  H  6896  6909       L1    11  0.19
      P1  H  6931  6943       L1    18  0.94
      P1  H  7989  7998       L1     5  0.89

> <Gold.Chemscore.Hbond.Weighted>
-6.5124

> <Gold.Chemscore.Metal.Weighted>
-0.0000

> <Gold.Chemscore.Lipo.Weighted>
-8.9239

> <Gold.Chemscore.Internal_Hbond.Weighted>
0.0000

> <Gold.Chemscore.DEClash.Weighted>
0.0780

> <Gold.Chemscore.DEInternal.Weighted>
0.8628

> <Gold.Chemscore.Rot.Weighted>
4.3967

> <Gold.Chemscore.Internal.Correction.Weighted>
   9.000000E+99

> <Gold.Protein.RotatedTorsions>
[ 6907 6896 6895 6894 ] final   60.15 input  -60.11 | X-H torsion
[ 7974 7965 7964 7962 ] final   39.25 input  175.53 | X-H torsion
[ 8008 7997 7996 7995 ] final  -75.25 input   59.86 | X-H torsion
[ 10167 10162 10161 10158 ] final  113.72 input  -65.29 | X-H torsion
[ 10718 10713 10712 10709 ] final  118.34 input   66.30 | X-H torsion
[ 10763 10752 10751 10750 ] final  145.54 input  -60.55 | X-H torsion
[ 11005 11000 10999 10996 ] final -169.70 input  -57.11 | X-H torsion

> <Gold.Protein.ActiveResidues>
 VAL166  LYS551  ARG553  GLY616  TRP617  ASP618  TYR619  PRO620  LYS621  CYS622 
 ASP623  PHE694  ASN695  SER759  ASP760  ASP761  ALA762  ILE779  LEU786  VAL792 
 PHE793  MET794  SER795  GLU796  ALA797  LYS798  CYS799  TRP800  GLU811  SER814 

> <Gold.Protein.RotatedAtoms>
  152.3978  134.6337  160.0081 H   0  0  0  0  0  0  0  0  0  0  0  0  # atno 6907 bound_to 6896
  151.6551  133.3313  159.3169 H   0  0  0  0  0  0  0  0  0  0  0  0  # atno 6908 bound_to 6896
  150.7883  134.6928  159.6551 H   0  0  0  0  0  0  0  0  0  0  0  0  # atno 6909 bound_to 6896
  146.0999  139.5674  142.9421 H   0  0  0  0  0  0  0  0  0  0  0  0  # atno 7974 bound_to 7965
  154.5401  140.0747  156.8495 H   0  0  0  0  0  0  0  0  0  0  0  0  # atno 8008 bound_to 7997
  155.3199  140.3395  155.4223 H   0  0  0  0  0  0  0  0  0  0  0  0  # atno 8009 bound_to 7997
  156.1866  140.1671  156.8160 H   0  0  0  0  0  0  0  0  0  0  0  0  # atno 8010 bound_to 7997
  139.6441  144.7125  151.2178 H   0  0  0  0  0  0  0  0  0  0  0  0  # atno 10167 bound_to 10162
  157.6037  131.1047  150.7742 H   0  0  0  0  0  0  0  0  0  0  0  0  # atno 10718 bound_to 10713
  154.0071  135.2918  155.3396 H   0  0  0  0  0  0  0  0  0  0  0  0  # atno 10763 bound_to 10752
  154.7125  135.5143  153.8691 H   0  0  0  0  0  0  0  0  0  0  0  0  # atno 10764 bound_to 10752
  153.0740  135.6657  154.0306 H   0  0  0  0  0  0  0  0  0  0  0  0  # atno 10765 bound_to 10752
  140.5278  134.5646  157.5066 H   0  0  0  0  0  0  0  0  0  0  0  0  # atno 11005 bound_to 11000
  145.5876  141.0374  143.2088 LP  0  0  0  0  0  0  0  0  0  0  0  0  # atno 17320 bound_to 7965
  144.7424  139.7412  143.7305 LP  0  0  0  0  0  0  0  0  0  0  0  0  # atno 17321 bound_to 7965
  140.7505  143.6262  150.8466 LP  0  0  0  0  0  0  0  0  0  0  0  0  # atno 17342 bound_to 10162
  139.9902  143.5855  152.2912 LP  0  0  0  0  0  0  0  0  0  0  0  0  # atno 17343 bound_to 10162
  156.8135  130.4960  149.5352 LP  0  0  0  0  0  0  0  0  0  0  0  0  # atno 17370 bound_to 10713
  156.1117  130.6045  151.0057 LP  0  0  0  0  0  0  0  0  0  0  0  0  # atno 17371 bound_to 10713
  139.9571  134.7516  156.0318 LP  0  0  0  0  0  0  0  0  0  0  0  0  # atno 17394 bound_to 11000
  141.1299  133.6589  156.3435 LP  0  0  0  0  0  0  0  0  0  0  0  0  # atno 17395 bound_to 11000

$$$$
