AV-unprocessed.smi:2889|AV-procd|sdf|11109|dock8
  -GOLD-   2272015573D 1   1.00000     0.00000
 Structure written by MMmdl.
 36 37  0  0  0  0  0  0  0  0  1 V2000
  152.1597  145.3176  158.6265 C   0  0  0  0  0  0  0  0  0  0  0  0
  151.5311  143.6288  158.8284 S   0  0  0  0  0  0  0  0  0  0  0  0
  152.8634  142.8615  159.8070 C   0  0  1  0  0  0  0  0  0  0  0  0
  152.5311  142.9157  161.3103 C   0  0  0  0  0  0  0  0  0  0  0  0
  153.6465  142.2951  162.1637 C   0  0  0  0  0  0  0  0  0  0  0  0
  153.9275  140.8485  161.7357 C   0  0  0  0  0  0  0  0  0  0  0  0
  154.2801  140.7654  160.2418 C   0  0  0  0  0  0  0  0  0  0  0  0
  153.2110  141.4242  159.3439 C   0  0  1  0  0  0  0  0  0  0  0  0
  152.0057  140.5874  159.2602 N   0  0  0  0  0  0  0  0  0  0  0  0
  152.1011  139.0197  158.5406 S   0  0  0  0  0  0  0  0  0  0  0  0
  153.0776  139.0840  157.4416 O   0  0  0  0  0  0  0  0  0  0  0  0
  152.2770  138.0530  159.6350 O   0  0  0  0  0  0  0  0  0  0  0  0
  150.4102  138.8103  157.8309 C   0  0  0  0  0  0  0  0  0  0  0  0
  150.4667  138.8616  156.3301 C   0  0  0  0  0  0  0  0  0  0  0  0
  150.0734  137.8610  155.3991 C   0  0  0  0  0  0  0  0  0  0  0  0
  150.3302  138.4337  154.1872 C   0  0  0  0  0  0  0  0  0  0  0  0
  150.8492  139.6767  154.3501 O   0  0  0  0  0  0  0  0  0  0  0  0
  150.9377  139.9389  155.7219 N   0  0  0  0  0  0  0  0  0  0  0  0
  151.4051  145.9387  158.1443 H   0  0  0  0  0  0  0  0  0  0  0  0
  153.0529  145.3268  158.0023 H   0  0  0  0  0  0  0  0  0  0  0  0
  152.4009  145.7561  159.5948 H   0  0  0  0  0  0  0  0  0  0  0  0
  153.7482  143.4807  159.6522 H   0  0  0  0  0  0  0  0  0  0  0  0
  152.3713  143.9499  161.6169 H   0  0  0  0  0  0  0  0  0  0  0  0
  151.5938  142.3912  161.5005 H   0  0  0  0  0  0  0  0  0  0  0  0
  154.5558  142.8898  162.0689 H   0  0  0  0  0  0  0  0  0  0  0  0
  153.3662  142.3226  163.2169 H   0  0  0  0  0  0  0  0  0  0  0  0
  154.7431  140.4373  162.3309 H   0  0  0  0  0  0  0  0  0  0  0  0
  153.0542  140.2284  161.9413 H   0  0  0  0  0  0  0  0  0  0  0  0
  155.2311  141.2748  160.0815 H   0  0  0  0  0  0  0  0  0  0  0  0
  154.4484  139.7283  159.9511 H   0  0  0  0  0  0  0  0  0  0  0  0
  153.6313  141.4945  158.3414 H   0  0  0  0  0  0  0  0  0  0  0  0
  151.5192  140.5528  160.1557 H   0  0  0  0  0  0  0  0  0  0  0  0
  150.0216  137.8497  158.1695 H   0  0  0  0  0  0  0  0  0  0  0  0
  149.7624  139.5877  158.2351 H   0  0  0  0  0  0  0  0  0  0  0  0
  149.6599  136.8820  155.5901 H   0  0  0  0  0  0  0  0  0  0  0  0
  150.2056  138.1003  153.1676 H   0  0  0  0  0  0  0  0  0  0  0  0
  1  2  1  0  0  0  0
  1 19  1  0  0  0  0
  1 20  1  0  0  0  0
  1 21  1  0  0  0  0
  2  3  1  0  0  0  0
  3  8  1  0  0  0  0
  3  4  1  0  0  0  0
  3 22  1  0  0  0  0
  4  5  1  0  0  0  0
  4 23  1  0  0  0  0
  4 24  1  0  0  0  0
  5  6  1  0  0  0  0
  5 25  1  0  0  0  0
  5 26  1  0  0  0  0
  6  7  1  0  0  0  0
  6 27  1  0  0  0  0
  6 28  1  0  0  0  0
  7  8  1  0  0  0  0
  7 29  1  0  0  0  0
  7 30  1  0  0  0  0
  8  9  1  0  0  0  0
  8 31  1  0  0  0  0
  9 10  1  0  0  0  0
  9 32  1  0  0  0  0
 10 11  2  0  0  0  0
 10 12  2  0  0  0  0
 10 13  1  0  0  0  0
 13 14  1  0  0  0  0
 13 33  1  0  0  0  0
 13 34  1  0  0  0  0
 14 18  2  0  0  0  0
 14 15  1  0  0  0  0
 15 16  2  0  0  0  0
 15 35  1  0  0  0  0
 16 17  1  0  0  0  0
 16 36  1  0  0  0  0
 17 18  1  0  0  0  0
M  END
> <s_m_source_file>
AV-unprocessed.smi

> <i_m_source_file_index>
2889

> <i_lp_mmshare_version>
43012

> <i_f3d_flags>
0

> <s_epik_input>
W0NIM11TW0NAQEhdMVtDSDJdW0NIMl1bQ0gyXVtDSDJdW0NASF0xW05IXVMoPU8pKD1PKVtDSDJdYzJbY0hdW2NIXW9uMg==

> <s_epik_cmdline>
J2VwaWtfcHl0aG9uJywgJy1waCcsICc3LjAnLCAnLXRuJywgJzgnLCAnLW1hJywgJzIwMCcsICctbWV0YWxfYmluZGluZycsICctaW1hZScsICc8aW5maWxlLm1hZT4nLCAnLW9tYWUnLCAnPG91dGZpbGUubWFlPic=

> <r_lp_tautomer_probability>
1

> <r_epik_Ionization_Penalty>
0.000229547

> <r_epik_Ionization_Penalty_Charging>
0

> <r_epik_Ionization_Penalty_Neutral>
0.000229547

> <r_epik_State_Penalty>
-0

> <r_epik_Charging_Adjusted_Penalty>
0

> <i_epik_Tot_Q>
0

> <i_epik_Tot_abs_Q>
0

> <r_epik_Metal_State_Penalty>
0.145979

> <b_epik_Metal_Only>
0

> <s_lp_Force_Field>
OPLS_2005

> <r_lp_Energy>
4.05076

> <b_lp_Chiralities_Consistent>
1

> <s_lp_Variant>
AV-unprocessed.smi:2889-2

> <Gold.Version>
5.8.1

> <Gold.Id.Protein>
6NUR|6NUR_protein|mol2

> <Gold.PLP.Fitness>
45.9833

> <Gold.PLP.PLP>
-37.0926

> <Gold.PLP.part.hbond>
-2.0000

> <Gold.PLP.part.metal>
0.0000

> <Gold.PLP.part.buried>
-5.4071

> <Gold.PLP.part.nonpolar>
-29.5204

> <Gold.PLP.part.repulsive>
0.1395

> <Gold.PLP.ligand.clash>
0.0000

> <Gold.PLP.ligand.torsion>
1.2593

> <Gold.PLP.Chemscore.Hbond>
2.0000

> <Gold.PLP.Chemscore.CHOScore>
1.7480

> <Gold.PLP.Chemscore.Metal>
0.0000

> <Gold.Chemscore.Hbonds>
donor molecule, donor type, donor heavy atom, donor atom, acceptor molecule, acceptor atom, score
      P1  H  7989  7998       L1    17  1.00
      P1  H  7997  8008       L1    11  1.00
      L1  C    16    36       P1  7948  0.95
      L1  C    16    36       P1  7949  0.05
      L1  C    16    36       P1  7957  0.20

> <Gold.PLP.Chemscore.Internal.Correction>
0.1652

> <Gold.Rescore>
     Score         DG    S(hbond)    S(metal)    S(lipo)     H(rot)  DE(clash)    DE(int)     intcor
     18.55     -20.30       1.97        0.00     109.80       1.81       0.12       1.63       ----

> <Gold.Chemscore.Fitness>
18.5489

> <Gold.Chemscore.DG>
-20.2994

> <Gold.Chemscore.ZeroCoef>
-5.4800

> <Gold.Chemscore.Hbond>
1.9749

> <Gold.Chemscore.Metal>
0.0000

> <Gold.Chemscore.Lipo>
109.7957

> <Gold.Chemscore.Internal_Hbond>
0.0000

> <Gold.Chemscore.DEClash>
0.1245

> <Gold.Chemscore.DEInternal>
1.6260

> <Gold.Chemscore.Rot>
1.8058

> <Gold.Chemscore.Internal.Correction>
   9.000000E+99

> <Gold.Chemscore.Hbonds>
donor molecule, donor type, donor heavy atom, donor atom, acceptor molecule, acceptor atom, score
      P1  H  7989  7998       L1    17  0.74
      P1  H  7997  8008       L1    11  1.00

> <Gold.Chemscore.Hbond.Weighted>
-6.5961

> <Gold.Chemscore.Metal.Weighted>
-0.0000

> <Gold.Chemscore.Lipo.Weighted>
-12.8461

> <Gold.Chemscore.Internal_Hbond.Weighted>
0.0000

> <Gold.Chemscore.DEClash.Weighted>
0.1245

> <Gold.Chemscore.DEInternal.Weighted>
1.6260

> <Gold.Chemscore.Rot.Weighted>
4.6228

> <Gold.Chemscore.Internal.Correction.Weighted>
   9.000000E+99

> <Gold.Protein.RotatedTorsions>
[ 6907 6896 6895 6894 ] final    5.24 input  -60.11 | X-H torsion
[ 7974 7965 7964 7962 ] final   78.57 input  175.53 | X-H torsion
[ 8008 7997 7996 7995 ] final  -69.39 input   59.86 | X-H torsion
[ 10167 10162 10161 10158 ] final   92.19 input  -65.29 | X-H torsion
[ 10718 10713 10712 10709 ] final -127.82 input   66.30 | X-H torsion
[ 10763 10752 10751 10750 ] final   16.62 input  -60.55 | X-H torsion
[ 11005 11000 10999 10996 ] final   25.15 input  -57.11 | X-H torsion

> <Gold.Protein.ActiveResidues>
 VAL166  LYS551  ARG553  GLY616  TRP617  ASP618  TYR619  PRO620  LYS621  CYS622 
 ASP623  PHE694  ASN695  SER759  ASP760  ASP761  ALA762  ILE779  LEU786  VAL792 
 PHE793  MET794  SER795  GLU796  ALA797  LYS798  CYS799  TRP800  GLU811  SER814 

> <Gold.Protein.RotatedAtoms>
  151.6543  135.0997  160.0166 H   0  0  0  0  0  0  0  0  0  0  0  0  # atno 6907 bound_to 6896
  152.3983  133.6775  159.6303 H   0  0  0  0  0  0  0  0  0  0  0  0  # atno 6908 bound_to 6896
  150.7886  133.8753  159.3311 H   0  0  0  0  0  0  0  0  0  0  0  0  # atno 6909 bound_to 6896
  145.6754  139.2508  143.1844 H   0  0  0  0  0  0  0  0  0  0  0  0  # atno 7974 bound_to 7965
  154.4935  140.0854  156.7647 H   0  0  0  0  0  0  0  0  0  0  0  0  # atno 8008 bound_to 7997
  155.4172  140.3444  155.4250 H   0  0  0  0  0  0  0  0  0  0  0  0  # atno 8009 bound_to 7997
  156.1363  140.1516  156.8978 H   0  0  0  0  0  0  0  0  0  0  0  0  # atno 8010 bound_to 7997
  139.8300  144.6691  150.9411 H   0  0  0  0  0  0  0  0  0  0  0  0  # atno 10167 bound_to 10162
  156.1893  130.6784  151.0404 H   0  0  0  0  0  0  0  0  0  0  0  0  # atno 10718 bound_to 10713
  153.1414  135.6760  153.9022 H   0  0  0  0  0  0  0  0  0  0  0  0  # atno 10763 bound_to 10752
  153.8477  135.3097  155.3431 H   0  0  0  0  0  0  0  0  0  0  0  0  # atno 10764 bound_to 10752
  154.7790  135.4898  153.9889 H   0  0  0  0  0  0  0  0  0  0  0  0  # atno 10765 bound_to 10752
  140.3509  134.2230  155.7680 H   0  0  0  0  0  0  0  0  0  0  0  0  # atno 11005 bound_to 11000
  146.1010  140.7544  142.9549 LP  0  0  0  0  0  0  0  0  0  0  0  0  # atno 17320 bound_to 7965
  144.7043  140.3787  143.7131 LP  0  0  0  0  0  0  0  0  0  0  0  0  # atno 17321 bound_to 7965
  140.7807  143.4009  151.1150 LP  0  0  0  0  0  0  0  0  0  0  0  0  # atno 17342 bound_to 10162
  139.7664  143.8559  152.3111 LP  0  0  0  0  0  0  0  0  0  0  0  0  # atno 17343 bound_to 10162
  157.6919  131.0807  150.7083 LP  0  0  0  0  0  0  0  0  0  0  0  0  # atno 17370 bound_to 10713
  156.7140  130.4660  149.5540 LP  0  0  0  0  0  0  0  0  0  0  0  0  # atno 17371 bound_to 10713
  141.2012  133.7968  157.0451 LP  0  0  0  0  0  0  0  0  0  0  0  0  # atno 17394 bound_to 11000
  140.0704  134.9705  157.1457 LP  0  0  0  0  0  0  0  0  0  0  0  0  # atno 17395 bound_to 11000

$$$$
