#       Name:                AV-unprocessed.smi:2391
#       Creating user name   scv26
#       Creation time:       Fri Mar 27 13:11:29 2020


#       File generated by GOLD software.
#

@<TRIPOS>MOLECULE
AV-unprocessed.smi:2391
    39    40     1
SMALL
NO_CHARGES


@<TRIPOS>ATOM
      1 ****        -0.1784   1.7507  -0.7231 O.2            1 S1                 0.0000
      2 ****        -0.7626   0.6647  -0.7780 C.2            1 S1                 0.0000
      3 ****        -2.1293   0.4118  -0.7757 N.2            1 S1                 0.0000
      4 ****        -3.0175   1.3627  -0.7836 C.2            1 S1                 0.0000
      5 ****        -4.4372   1.0538  -0.7713 C.2            1 S1                 0.0000
      6 ****        -5.3713   2.0326  -0.7807 C.2            1 S1                 0.0000
      7 ****        -4.9275   3.4124  -0.8055 C.2            1 S1                 0.0000
      8 ****        -3.6770   3.7330  -0.8167 N.2            1 S1                 0.0000
      9 ****        -2.7541   2.7497  -0.8059 N.pl3          1 S1                 0.0000
     10 ****        -0.0897  -0.4939  -0.8500 N.am           1 S1                 0.0000
     11 ****         1.3658  -0.6594  -0.8794 C.3            1 S1                 0.0000
     12 ****         1.8357  -1.3403   0.4319 C.3            1 S1                 0.0000
     13 ****         1.4006  -0.6184   1.7138 C.3            1 S1                 0.0000
     14 ****         2.2985  -1.2041   2.8022 C.3            1 S1                 0.0000
     15 ****         3.6281  -1.5214   2.1078 C.3            1 S1                 0.0000
     16 ****         3.3591  -1.4452   0.5977 C.3            1 S1                 0.0000
     17 ****         1.7511  -1.4365  -2.1591 C.3            1 S1                 0.0000
     18 ****         1.2682  -0.8078  -3.2318 F              1 S1                 0.0000
     19 ****         3.0747  -1.5100  -2.2942 F              1 S1                 0.0000
     20 ****         1.2506  -2.6723  -2.1274 F              1 S1                 0.0000
     21 ****        -4.7854   0.0312  -0.7530 H              1 S1                 0.0000
     22 ****        -6.4268   1.8036  -0.7698 H              1 S1                 0.0000
     23 ****        -5.7190   4.1617  -0.8142 H              1 S1                 0.0000
     24 ****        -0.6344  -1.3431  -0.8945 H              1 S1                 0.0000
     25 ****         1.8454   0.3189  -0.9390 H              1 S1                 0.0000
     26 ****         1.4245  -2.3504   0.4709 H              1 S1                 0.0000
     27 ****         1.5860   0.4530   1.6221 H              1 S1                 0.0000
     28 ****         0.3420  -0.7545   1.9381 H              1 S1                 0.0000
     29 ****         2.4199  -0.5274   3.6485 H              1 S1                 0.0000
     30 ****         1.8557  -2.1267   3.1802 H              1 S1                 0.0000
     31 ****         4.3969  -0.8013   2.3906 H              1 S1                 0.0000
     32 ****         3.9854  -2.5101   2.3980 H              1 S1                 0.0000
     33 ****         3.7691  -2.3073   0.0707 H              1 S1                 0.0000
     34 ****         3.8424  -0.5546   0.1933 H              1 S1                 0.0000
     35 ****        -1.7882   3.0455  -0.8137 H              1 S1                 0.0000
     36 ****        -0.7046   2.5993  -0.6681 LP             1 S1                 0.0000
     37 ****         0.8210   1.7819  -0.7335 LP             1 S1                 0.0000
     38 ****        -2.4422  -0.5380  -0.7676 LP             1 S1                 0.0000
     39 ****        -3.3978   4.6931  -0.8331 LP             1 S1                 0.0000
@<TRIPOS>BOND
    1    1    2 2     
    2    2    3 1     
    3    2   10 am    
    4    3    4 2     
    5    4    9 1     
    6    4    5 1     
    7    5    6 2     
    8    5   21 1     
    9    6    7 1     
   10    6   22 1     
   11    7    8 2     
   12    7   23 1     
   13    8    9 1     
   14    9   35 1     
   15   10   11 1     
   16   10   24 1     
   17   11   12 1     
   18   11   17 1     
   19   11   25 1     
   20   12   16 1     
   21   12   13 1     
   22   12   26 1     
   23   13   14 1     
   24   13   27 1     
   25   13   28 1     
   26   14   15 1     
   27   14   29 1     
   28   14   30 1     
   29   15   16 1     
   30   15   31 1     
   31   15   32 1     
   32   16   33 1     
   33   16   34 1     
   34   17   18 1     
   35   17   19 1     
   36   17   20 1     
   37    1   36 1     
   38    1   37 1     
   39    3   38 1     
   40    8   39 1     
@<TRIPOS>SUBSTRUCTURE
      1 S1             1
@<TRIPOS>SET
LONE_PAIRS      STATIC     ATOMS    <user>   **** ""
4 36 37 38 39
DONOR_HYDROGENS      STATIC     ATOMS    <user>   **** ""
2 35 24
ATOM$BLUE        STATIC     ATOMS    COLORGROUP SYSTEM
4 36 37 38 39
ATOM$RED        STATIC     ATOMS    COLORGROUP SYSTEM
2 35 24
