AV-unprocessed.smi:651|AV-procd|sdf|3188|dock3
  -GOLD-   22720 0113D 1   1.00000     0.00000
 Structure written by MMmdl.
 39 40  0  0  0  0  0  0  0  0  2 V2000
  153.7818  142.8609  163.6634 C   0  0  0  0  0  0  0  0  0  0  0  0
  153.1709  143.0569  162.2920 C   0  0  0  0  0  0  0  0  0  0  0  0
  153.5272  142.2532  161.1880 C   0  0  0  0  0  0  0  0  0  0  0  0
  152.9114  142.4844  159.9407 C   0  0  0  0  0  0  0  0  0  0  0  0
  151.9489  143.5119  159.8221 C   0  0  0  0  0  0  0  0  0  0  0  0
  151.2502  143.7708  158.4986 C   0  0  0  0  0  0  0  0  0  0  0  0
  150.5456  142.5022  158.0167 C   0  0  0  0  0  0  0  0  0  0  0  0
  150.6727  141.4518  158.6446 O   0  0  0  0  0  0  0  0  0  0  0  0
  149.8200  142.6119  156.8931 N   0  0  0  0  0  0  0  0  0  0  0  0
  149.1162  141.5160  156.2327 C   0  0  2  0  0  0  0  0  0  0  0  0
  149.5288  141.3660  154.7572 C   0  0  0  0  0  0  0  0  0  0  0  0
  148.2542  140.9601  154.0245 C   0  0  0  0  0  0  0  0  0  0  0  0
  147.1520  141.7217  154.7554 C   0  0  0  0  0  0  0  0  0  0  0  0
  147.5841  141.7669  156.2339 C   0  0  1  0  0  0  0  0  0  0  0  0
  146.8284  140.7379  157.0914 C   0  0  0  0  0  0  0  0  0  0  0  0
  145.9496  139.9511  156.4652 N   0  0  0  0  0  0  0  0  0  0  0  0
  147.0366  140.6509  158.3003 O   0  0  0  0  0  0  0  0  0  0  0  0
  151.6363  144.2867  160.9603 C   0  0  0  0  0  0  0  0  0  0  0  0
  152.2490  144.0337  162.1374 N   0  3  0  0  0  0  0  0  0  0  0  0
  154.6976  142.2723  163.6020 H   0  0  0  0  0  0  0  0  0  0  0  0
  153.0826  142.3381  164.3166 H   0  0  0  0  0  0  0  0  0  0  0  0
  154.0263  143.8214  164.1177 H   0  0  0  0  0  0  0  0  0  0  0  0
  154.2600  141.4664  161.2936 H   0  0  0  0  0  0  0  0  0  0  0  0
  153.1707  141.8733  159.0886 H   0  0  0  0  0  0  0  0  0  0  0  0
  150.5244  144.5765  158.6192 H   0  0  0  0  0  0  0  0  0  0  0  0
  151.9684  144.1016  157.7470 H   0  0  0  0  0  0  0  0  0  0  0  0
  149.7674  143.5168  156.4491 H   0  0  0  0  0  0  0  0  0  0  0  0
  149.3526  140.5862  156.7552 H   0  0  0  0  0  0  0  0  0  0  0  0
  149.8760  142.3212  154.3598 H   0  0  0  0  0  0  0  0  0  0  0  0
  150.3341  140.6432  154.6215 H   0  0  0  0  0  0  0  0  0  0  0  0
  148.2899  141.1904  152.9593 H   0  0  0  0  0  0  0  0  0  0  0  0
  148.0944  139.8861  154.1297 H   0  0  0  0  0  0  0  0  0  0  0  0
  147.0936  142.7386  154.3656 H   0  0  0  0  0  0  0  0  0  0  0  0
  146.1733  141.2652  154.5998 H   0  0  0  0  0  0  0  0  0  0  0  0
  147.3568  142.7626  156.6205 H   0  0  0  0  0  0  0  0  0  0  0  0
  145.4258  139.2621  156.9850 H   0  0  0  0  0  0  0  0  0  0  0  0
  145.8098  140.0519  155.4702 H   0  0  0  0  0  0  0  0  0  0  0  0
  150.9125  145.0891  160.9666 H   0  0  0  0  0  0  0  0  0  0  0  0
  152.0024  144.6037  162.9471 H   0  0  0  0  0  0  0  0  0  0  0  0
  1  2  1  0  0  0  0
  1 20  1  0  0  0  0
  1 21  1  0  0  0  0
  1 22  1  0  0  0  0
  2 19  1  0  0  0  0
  2  3  2  0  0  0  0
  3  4  1  0  0  0  0
  3 23  1  0  0  0  0
  4  5  2  0  0  0  0
  4 24  1  0  0  0  0
  5  6  1  0  0  0  0
  5 18  1  0  0  0  0
  6  7  1  0  0  0  0
  6 25  1  0  0  0  0
  6 26  1  0  0  0  0
  7  8  2  0  0  0  0
  7  9  1  0  0  0  0
  9 10  1  0  0  0  0
  9 27  1  0  0  0  0
 10 14  1  0  0  0  0
 10 11  1  0  0  0  0
 10 28  1  0  0  0  0
 11 12  1  0  0  0  0
 11 29  1  0  0  0  0
 11 30  1  0  0  0  0
 12 13  1  0  0  0  0
 12 31  1  0  0  0  0
 12 32  1  0  0  0  0
 13 14  1  0  0  0  0
 13 33  1  0  0  0  0
 13 34  1  0  0  0  0
 14 15  1  0  0  0  0
 14 35  1  0  0  0  0
 15 16  1  0  0  0  0
 15 17  2  0  0  0  0
 16 36  1  0  0  0  0
 16 37  1  0  0  0  0
 18 19  2  0  0  0  0
 18 38  1  0  0  0  0
 19 39  1  0  0  0  0
M  CHG  1  19   1
M  END
> <s_m_source_file>
AV-unprocessed.smi

> <i_m_source_file_index>
651

> <i_lp_mmshare_version>
43012

> <i_f3d_flags>
0

> <s_epik_input>
W0NIM11jMVtjSF1bY0hdYyhbY0hdbjEpW0NIMl1DKD1PKVtOSF1bQ0BASF0yW0NIMl1bQ0gyXVtDSDJdW0NASF0yQyg9TylbTkgyXQ==

> <s_epik_cmdline>
J2VwaWtfcHl0aG9uJywgJy1waCcsICc3LjAnLCAnLXRuJywgJzgnLCAnLW1hJywgJzIwMCcsICctbWV0YWxfYmluZGluZycsICctaW1hZScsICc8aW5maWxlLm1hZT4nLCAnLW9tYWUnLCAnPG91dGZpbGUubWFlPic=

> <r_epik_Ionization_Penalty>
2.14971

> <r_epik_Ionization_Penalty_Charging>
2.14971

> <r_epik_Ionization_Penalty_Neutral>
1.65229e-07

> <r_epik_State_Penalty>
2.28946

> <r_epik_Charging_Adjusted_Penalty>
4.43917

> <i_epik_Tot_Q>
1

> <i_epik_Tot_abs_Q>
1

> <r_epik_Metal_State_Penalty>
2.30508

> <b_epik_Metal_Only>
0

> <s_lp_Force_Field>
OPLS_2005

> <r_lp_Energy>
20.422

> <b_lp_Chiralities_Consistent>
1

> <s_lp_Variant>
AV-unprocessed.smi:651-5

> <Gold.Version>
5.8.1

> <Gold.Id.Protein>
6NUR|6NUR_protein|mol2

> <Gold.PLP.Fitness>
45.9724

> <Gold.PLP.PLP>
-43.3616

> <Gold.PLP.part.hbond>
-3.3896

> <Gold.PLP.part.metal>
0.0000

> <Gold.PLP.part.buried>
-4.9495

> <Gold.PLP.part.nonpolar>
-34.4697

> <Gold.PLP.part.repulsive>
0.1029

> <Gold.PLP.ligand.clash>
0.3857

> <Gold.PLP.ligand.torsion>
0.0490

> <Gold.PLP.Chemscore.Hbond>
1.0286

> <Gold.PLP.Chemscore.CHOScore>
0.0000

> <Gold.PLP.Chemscore.Metal>
0.0000

> <Gold.Chemscore.Hbonds>
donor molecule, donor type, donor heavy atom, donor atom, acceptor molecule, acceptor atom, score
      L1  H     9    27       P1  8028  1.00
      P1  H  6934  6946       L1    17  0.01

> <Gold.PLP.Chemscore.Internal.Correction>
0.0087

> <Gold.Rescore>
     Score         DG    S(hbond)    S(metal)    S(lipo)     H(rot)  DE(clash)    DE(int)     intcor
     14.69     -16.03       0.96        0.00     107.35       2.04       0.02       1.32       ----

> <Gold.Chemscore.Fitness>
14.6947

> <Gold.Chemscore.DG>
-16.0342

> <Gold.Chemscore.ZeroCoef>
-5.4800

> <Gold.Chemscore.Hbond>
0.9619

> <Gold.Chemscore.Metal>
0.0000

> <Gold.Chemscore.Lipo>
107.3521

> <Gold.Chemscore.Internal_Hbond>
0.0000

> <Gold.Chemscore.DEClash>
0.0156

> <Gold.Chemscore.DEInternal>
1.3239

> <Gold.Chemscore.Rot>
2.0386

> <Gold.Chemscore.Internal.Correction>
   9.000000E+99

> <Gold.Chemscore.Hbonds>
donor molecule, donor type, donor heavy atom, donor atom, acceptor molecule, acceptor atom, score
      L1  H     9    27       P1  8028  0.95
      P1  H  6934  6946       L1    17  0.02

> <Gold.Chemscore.Hbond.Weighted>
-3.2128

> <Gold.Chemscore.Metal.Weighted>
-0.0000

> <Gold.Chemscore.Lipo.Weighted>
-12.5602

> <Gold.Chemscore.Internal_Hbond.Weighted>
0.0000

> <Gold.Chemscore.DEClash.Weighted>
0.0156

> <Gold.Chemscore.DEInternal.Weighted>
1.3239

> <Gold.Chemscore.Rot.Weighted>
5.2188

> <Gold.Chemscore.Internal.Correction.Weighted>
   9.000000E+99

> <Gold.Protein.RotatedTorsions>
[ 6907 6896 6895 6894 ] final  -86.42 input  -60.11 | X-H torsion
[ 7974 7965 7964 7962 ] final  100.97 input  175.53 | X-H torsion
[ 8008 7997 7996 7995 ] final  -90.85 input   59.86 | X-H torsion
[ 10167 10162 10161 10158 ] final  135.99 input  -65.29 | X-H torsion
[ 10718 10713 10712 10709 ] final  -32.51 input   66.30 | X-H torsion
[ 10763 10752 10751 10750 ] final -154.39 input  -60.55 | X-H torsion
[ 11005 11000 10999 10996 ] final -178.70 input  -57.11 | X-H torsion

> <Gold.Protein.ActiveResidues>
 VAL166  LYS551  ARG553  GLY616  TRP617  ASP618  TYR619  PRO620  LYS621  CYS622 
 ASP623  PHE694  ASN695  SER759  ASP760  ASP761  ALA762  ILE779  LEU786  VAL792 
 PHE793  MET794  SER795  GLU796  ALA797  LYS798  CYS799  TRP800  GLU811  SER814 

> <Gold.Protein.RotatedAtoms>
  150.6867  134.3053  159.4723 H   0  0  0  0  0  0  0  0  0  0  0  0  # atno 6907 bound_to 6896
  152.0944  134.9382  160.0580 H   0  0  0  0  0  0  0  0  0  0  0  0  # atno 6908 bound_to 6896
  152.0685  133.4061  159.4486 H   0  0  0  0  0  0  0  0  0  0  0  0  # atno 6909 bound_to 6896
  145.3786  139.2384  143.3416 H   0  0  0  0  0  0  0  0  0  0  0  0  # atno 7974 bound_to 7965
  154.7035  140.0526  157.0481 H   0  0  0  0  0  0  0  0  0  0  0  0  # atno 8008 bound_to 7997
  155.0652  140.3193  155.4629 H   0  0  0  0  0  0  0  0  0  0  0  0  # atno 8009 bound_to 7997
  156.2767  140.2091  156.5779 H   0  0  0  0  0  0  0  0  0  0  0  0  # atno 8010 bound_to 7997
  139.5196  144.6488  151.5362 H   0  0  0  0  0  0  0  0  0  0  0  0  # atno 10167 bound_to 10162
  156.3740  130.4344  149.7522 H   0  0  0  0  0  0  0  0  0  0  0  0  # atno 10718 bound_to 10713
  154.7862  135.3191  154.7880 H   0  0  0  0  0  0  0  0  0  0  0  0  # atno 10763 bound_to 10752
  153.8580  135.6856  153.4790 H   0  0  0  0  0  0  0  0  0  0  0  0  # atno 10764 bound_to 10752
  153.1515  135.4697  154.9582 H   0  0  0  0  0  0  0  0  0  0  0  0  # atno 10765 bound_to 10752
  140.4269  134.6555  157.4692 H   0  0  0  0  0  0  0  0  0  0  0  0  # atno 11005 bound_to 11000
  146.2852  140.4449  142.8760 LP  0  0  0  0  0  0  0  0  0  0  0  0  # atno 17320 bound_to 7965
  144.8524  140.7021  143.6159 LP  0  0  0  0  0  0  0  0  0  0  0  0  # atno 17321 bound_to 7965
  140.6284  143.9124  150.6584 LP  0  0  0  0  0  0  0  0  0  0  0  0  # atno 17342 bound_to 10162
  140.2420  143.3657  152.1478 LP  0  0  0  0  0  0  0  0  0  0  0  0  # atno 17343 bound_to 10162
  156.4638  130.7964  151.2984 LP  0  0  0  0  0  0  0  0  0  0  0  0  # atno 17370 bound_to 10713
  157.7486  131.0057  150.3124 LP  0  0  0  0  0  0  0  0  0  0  0  0  # atno 17371 bound_to 10713
  140.0161  134.6617  155.9308 LP  0  0  0  0  0  0  0  0  0  0  0  0  # atno 17394 bound_to 11000
  141.1761  133.6540  156.4836 LP  0  0  0  0  0  0  0  0  0  0  0  0  # atno 17395 bound_to 11000

$$$$
