AV-unprocessed.smi:1374|AV-procd|sdf|5587|dock6
  -GOLD-   22720 5183D 1   1.00000     0.00000
 Structure written by MMmdl.
 43 44  0  0  0  0  0  0  0  0  1 V2000
  146.7615  129.0909  152.0345 C   0  0  0  0  0  0  0  0  0  0  0  0
  146.2951  130.5411  152.2009 C   0  0  0  0  0  0  0  0  0  0  0  0
  146.9956  131.2547  153.3646 C   0  0  0  0  0  0  0  0  0  0  0  0
  148.5198  131.3289  153.1737 C   0  0  0  0  0  0  0  0  0  0  0  0
  149.1500  132.2484  154.0998 N   0  0  0  0  0  0  0  0  0  0  0  0
  148.9908  133.6362  154.0400 C   0  0  0  0  0  0  0  0  0  0  0  0
  148.2014  134.1557  153.0244 N   0  0  0  0  0  0  0  0  0  0  0  0
  149.6301  134.4712  154.9138 C   0  0  0  0  0  0  0  0  0  0  0  0
  149.4580  135.8711  154.8599 N   0  0  0  0  0  0  0  0  0  0  0  0
  148.0906  136.3663  155.0577 C   0  0  0  0  0  0  0  0  0  0  0  0
  150.4693  136.7740  154.6965 C   0  0  0  0  0  0  0  0  0  0  0  0
  151.5923  136.4067  154.3434 O   0  0  0  0  0  0  0  0  0  0  0  0
  150.1701  138.1779  154.9991 C   0  0  0  0  0  0  0  0  0  0  0  0
  150.6227  139.1350  154.1567 C   0  0  0  0  0  0  0  0  0  0  0  0
  150.4537  140.4810  154.3658 O   0  0  0  0  0  0  0  0  0  0  0  0
  149.9837  140.8287  155.6629 C   0  0  0  0  0  0  0  0  0  0  0  0
  148.9138  139.8321  156.1297 C   0  0  0  0  0  0  0  0  0  0  0  0
  149.4464  138.5139  156.1219 O   0  0  0  0  0  0  0  0  0  0  0  0
  150.4813  133.9225  155.9808 C   0  0  0  0  0  0  0  0  0  0  0  0
  151.0617  134.5767  156.8462 O   0  0  0  0  0  0  0  0  0  0  0  0
  150.6184  132.5373  155.9677 N   0  0  0  0  0  0  0  0  0  0  0  0
  150.0094  131.6726  155.0659 C   0  0  0  0  0  0  0  0  0  0  0  0
  150.2362  130.4645  155.1415 O   0  0  0  0  0  0  0  0  0  0  0  0
  151.2146  132.1256  156.6707 H   0  0  0  0  0  0  0  0  0  0  0  0
  146.2469  128.6103  151.2022 H   0  0  0  0  0  0  0  0  0  0  0  0
  146.5591  128.5066  152.9325 H   0  0  0  0  0  0  0  0  0  0  0  0
  147.8324  129.0418  151.8362 H   0  0  0  0  0  0  0  0  0  0  0  0
  146.4787  131.0856  151.2739 H   0  0  0  0  0  0  0  0  0  0  0  0
  145.2163  130.5558  152.3596 H   0  0  0  0  0  0  0  0  0  0  0  0
  146.5889  132.2615  153.4683 H   0  0  0  0  0  0  0  0  0  0  0  0
  146.7706  130.7344  154.2967 H   0  0  0  0  0  0  0  0  0  0  0  0
  148.9902  130.3572  153.3212 H   0  0  0  0  0  0  0  0  0  0  0  0
  148.7946  131.6237  152.1593 H   0  0  0  0  0  0  0  0  0  0  0  0
  147.7513  133.5596  152.3444 H   0  0  0  0  0  0  0  0  0  0  0  0
  147.9810  135.1398  152.9721 H   0  0  0  0  0  0  0  0  0  0  0  0
  147.7669  136.9607  154.2022 H   0  0  0  0  0  0  0  0  0  0  0  0
  148.0289  136.9883  155.9520 H   0  0  0  0  0  0  0  0  0  0  0  0
  147.3749  135.5525  155.1832 H   0  0  0  0  0  0  0  0  0  0  0  0
  151.1885  138.9425  153.2563 H   0  0  0  0  0  0  0  0  0  0  0  0
  150.8242  140.8368  156.3581 H   0  0  0  0  0  0  0  0  0  0  0  0
  149.5782  141.8400  155.6364 H   0  0  0  0  0  0  0  0  0  0  0  0
  148.5751  140.0733  157.1373 H   0  0  0  0  0  0  0  0  0  0  0  0
  148.0398  139.8715  155.4779 H   0  0  0  0  0  0  0  0  0  0  0  0
  1  2  1  0  0  0  0
  1 25  1  0  0  0  0
  1 26  1  0  0  0  0
  1 27  1  0  0  0  0
  2  3  1  0  0  0  0
  2 28  1  0  0  0  0
  2 29  1  0  0  0  0
  3  4  1  0  0  0  0
  3 30  1  0  0  0  0
  3 31  1  0  0  0  0
  4  5  1  0  0  0  0
  4 32  1  0  0  0  0
  4 33  1  0  0  0  0
  5 22  1  0  0  0  0
  5  6  1  0  0  0  0
  6  7  1  0  0  0  0
  6  8  2  0  0  0  0
  7 34  1  0  0  0  0
  7 35  1  0  0  0  0
  8  9  1  0  0  0  0
  8 19  1  0  0  0  0
  9 10  1  0  0  0  0
  9 11  1  0  0  0  0
 10 36  1  0  0  0  0
 10 37  1  0  0  0  0
 10 38  1  0  0  0  0
 11 12  2  0  0  0  0
 11 13  1  0  0  0  0
 13 18  1  0  0  0  0
 13 14  2  0  0  0  0
 14 15  1  0  0  0  0
 14 39  1  0  0  0  0
 15 16  1  0  0  0  0
 16 17  1  0  0  0  0
 16 40  1  0  0  0  0
 16 41  1  0  0  0  0
 17 18  1  0  0  0  0
 17 42  1  0  0  0  0
 17 43  1  0  0  0  0
 19 20  2  0  0  0  0
 19 21  1  0  0  0  0
 21 24  1  0  0  0  0
 21 22  1  0  0  0  0
 22 23  2  0  0  0  0
M  END
> <s_m_source_file>
AV-unprocessed.smi

> <i_m_source_file_index>
1374

> <i_lp_mmshare_version>
43012

> <i_f3d_flags>
0

> <s_epik_input>
W0NIM11bQ0gyXVtDSDJdW0NIMl1uMWMoW05IMl0pYyhjKD1PKVtuSF1jMT1PKU4oW0NIM10pQyg9TylDMj1bQ0hdT1tDSDJdW0NIMl1PMg==

> <s_epik_cmdline>
J2VwaWtfcHl0aG9uJywgJy1waCcsICc3LjAnLCAnLXRuJywgJzgnLCAnLW1hJywgJzIwMCcsICctbWV0YWxfYmluZGluZycsICctaW1hZScsICc8aW5maWxlLm1hZT4nLCAnLW9tYWUnLCAnPG91dGZpbGUubWFlPic=

> <r_lp_tautomer_probability>
1

> <r_epik_Ionization_Penalty>
3.28524e-05

> <r_epik_Ionization_Penalty_Charging>
2.39265e-05

> <r_epik_Ionization_Penalty_Neutral>
8.92594e-06

> <r_epik_State_Penalty>
-0

> <r_epik_Charging_Adjusted_Penalty>
2.39265e-05

> <i_epik_Tot_Q>
0

> <i_epik_Tot_abs_Q>
0

> <r_epik_Metal_State_Penalty>
0.0232519

> <b_epik_Metal_Only>
0

> <s_epik_Chemistry_Notes>
This compound has an imine and may undergo hydrolysis.

> <s_lp_Force_Field>
OPLS_2005

> <r_lp_Energy>
27.3757

> <b_lp_Chiralities_Consistent>
1

> <s_lp_Variant>
AV-unprocessed.smi:1374-1

> <Gold.Version>
5.8.1

> <Gold.Id.Protein>
6NUR|6NUR_protein|mol2

> <Gold.PLP.Fitness>
40.7170

> <Gold.PLP.PLP>
-32.0250

> <Gold.PLP.part.hbond>
-3.9075

> <Gold.PLP.part.metal>
0.0000

> <Gold.PLP.part.buried>
-2.7855

> <Gold.PLP.part.nonpolar>
-25.0070

> <Gold.PLP.part.repulsive>
0.3067

> <Gold.PLP.ligand.clash>
0.0000

> <Gold.PLP.ligand.torsion>
2.0318

> <Gold.PLP.Chemscore.Hbond>
3.1200

> <Gold.PLP.Chemscore.CHOScore>
0.0000

> <Gold.PLP.Chemscore.Metal>
0.0000

> <Gold.Chemscore.Hbonds>
donor molecule, donor type, donor heavy atom, donor atom, acceptor molecule, acceptor atom, score
      L1  H     7    35       P1  7948  0.37
      P1  H  7989  7998       L1    15  0.69
      P1  H 10752 10764       L1    12  1.00
      L1  C    14    39       P1  7957  0.14

> <Gold.PLP.Chemscore.Internal.Correction>
3.3957

> <Gold.Rescore>
     Score         DG    S(hbond)    S(metal)    S(lipo)     H(rot)  DE(clash)    DE(int)     intcor
     16.04     -19.73       3.46        0.00      55.47       1.49       0.05       3.64       ----

> <Gold.Chemscore.Fitness>
16.0376

> <Gold.Chemscore.DG>
-19.7288

> <Gold.Chemscore.ZeroCoef>
-5.4800

> <Gold.Chemscore.Hbond>
3.4630

> <Gold.Chemscore.Metal>
0.0000

> <Gold.Chemscore.Lipo>
55.4744

> <Gold.Chemscore.Internal_Hbond>
0.0000

> <Gold.Chemscore.DEClash>
0.0476

> <Gold.Chemscore.DEInternal>
3.6437

> <Gold.Chemscore.Rot>
1.4875

> <Gold.Chemscore.Internal.Correction>
   9.000000E+99

> <Gold.Chemscore.Hbonds>
donor molecule, donor type, donor heavy atom, donor atom, acceptor molecule, acceptor atom, score
      L1  H     7    35       P1  7948  0.36
      P1  H  7989  7998       L1    15  0.08
      P1  H 10752 10764       L1    12  0.93

> <Gold.Chemscore.Hbond.Weighted>
-11.5664

> <Gold.Chemscore.Metal.Weighted>
-0.0000

> <Gold.Chemscore.Lipo.Weighted>
-6.4905

> <Gold.Chemscore.Internal_Hbond.Weighted>
0.0000

> <Gold.Chemscore.DEClash.Weighted>
0.0476

> <Gold.Chemscore.DEInternal.Weighted>
3.6437

> <Gold.Chemscore.Rot.Weighted>
3.8081

> <Gold.Chemscore.Internal.Correction.Weighted>
   9.000000E+99

> <Gold.Protein.RotatedTorsions>
[ 6907 6896 6895 6894 ] final  132.07 input  -60.11 | X-H torsion
[ 7974 7965 7964 7962 ] final -104.25 input  175.53 | X-H torsion
[ 8008 7997 7996 7995 ] final   80.44 input   59.86 | X-H torsion
[ 10167 10162 10161 10158 ] final  125.89 input  -65.29 | X-H torsion
[ 10718 10713 10712 10709 ] final -124.72 input   66.30 | X-H torsion
[ 10763 10752 10751 10750 ] final  -74.64 input  -60.55 | X-H torsion
[ 11005 11000 10999 10996 ] final  160.26 input  -57.11 | X-H torsion

> <Gold.Protein.ActiveResidues>
 VAL166  LYS551  ARG553  GLY616  TRP617  ASP618  TYR619  PRO620  LYS621  CYS622 
 ASP623  PHE694  ASN695  SER759  ASP760  ASP761  ALA762  ILE779  LEU786  VAL792 
 PHE793  MET794  SER795  GLU796  ALA797  LYS798  CYS799  TRP800  GLU811  SER814 

> <Gold.Protein.RotatedAtoms>
  152.3361  133.6013  159.5843 H   0  0  0  0  0  0  0  0  0  0  0  0  # atno 6907 bound_to 6896
  150.7451  133.9793  159.3580 H   0  0  0  0  0  0  0  0  0  0  0  0  # atno 6908 bound_to 6896
  151.7663  135.0798  160.0404 H   0  0  0  0  0  0  0  0  0  0  0  0  # atno 6909 bound_to 6896
  145.2456  140.9220  143.3125 H   0  0  0  0  0  0  0  0  0  0  0  0  # atno 7974 bound_to 7965
  155.8835  140.3443  155.5905 H   0  0  0  0  0  0  0  0  0  0  0  0  # atno 8008 bound_to 7997
  155.7692  140.0843  157.2135 H   0  0  0  0  0  0  0  0  0  0  0  0  # atno 8009 bound_to 7997
  154.4026  140.1521  156.2910 H   0  0  0  0  0  0  0  0  0  0  0  0  # atno 8010 bound_to 7997
  139.5661  144.6912  151.3908 H   0  0  0  0  0  0  0  0  0  0  0  0  # atno 10167 bound_to 10162
  156.1612  130.6603  151.0052 H   0  0  0  0  0  0  0  0  0  0  0  0  # atno 10718 bound_to 10713
  154.4759  135.5857  153.6354 H   0  0  0  0  0  0  0  0  0  0  0  0  # atno 10763 bound_to 10752
  152.9841  135.6078  154.3308 H   0  0  0  0  0  0  0  0  0  0  0  0  # atno 10764 bound_to 10752
  154.3194  135.2844  155.2506 H   0  0  0  0  0  0  0  0  0  0  0  0  # atno 10765 bound_to 10752
  140.2042  134.8316  157.3050 H   0  0  0  0  0  0  0  0  0  0  0  0  # atno 11005 bound_to 11000
  144.9550  139.4042  143.6384 LP  0  0  0  0  0  0  0  0  0  0  0  0  # atno 17320 bound_to 7965
  146.3317  139.8575  142.8862 LP  0  0  0  0  0  0  0  0  0  0  0  0  # atno 17321 bound_to 7965
  140.6944  143.7784  150.7304 LP  0  0  0  0  0  0  0  0  0  0  0  0  # atno 17342 bound_to 10162
  140.1276  143.4555  152.2274 LP  0  0  0  0  0  0  0  0  0  0  0  0  # atno 17343 bound_to 10162
  157.6734  131.0856  150.7556 LP  0  0  0  0  0  0  0  0  0  0  0  0  # atno 17370 bound_to 10713
  156.7618  130.4801  149.5435 LP  0  0  0  0  0  0  0  0  0  0  0  0  # atno 17371 bound_to 10713
  140.2021  134.4241  155.7657 LP  0  0  0  0  0  0  0  0  0  0  0  0  # atno 17394 bound_to 11000
  141.2227  133.7077  156.8201 LP  0  0  0  0  0  0  0  0  0  0  0  0  # atno 17395 bound_to 11000

$$$$
