AV-unprocessed.smi:1250|AV-procd|sdf|5255|dock6
  -GOLD-   22720 4363D 1   1.00000     0.00000
 Structure written by MMmdl.
 41 42  0  0  0  0  0  0  0  0  1 V2000
  144.6963  142.1377  155.8631 C   0  0  0  0  0  0  0  0  0  0  0  0
  146.0845  142.6717  155.4580 C   0  0  0  0  0  0  0  0  0  0  0  0
  145.9873  143.3576  154.0830 C   0  0  0  0  0  0  0  0  0  0  0  0
  147.1731  141.5660  155.4893 C   0  0  1  0  0  0  0  0  0  0  0  0
  147.1970  140.6986  154.2165 C   0  0  0  0  0  0  0  0  0  0  0  0
  148.4961  142.1613  155.6751 N   0  0  0  0  0  0  0  0  0  0  0  0
  149.5640  141.5428  156.2040 C   0  0  0  0  0  0  0  0  0  0  0  0
  149.5472  140.3790  156.6046 O   0  0  0  0  0  0  0  0  0  0  0  0
  150.8528  142.3610  156.2917 C   0  0  0  0  0  0  0  0  0  0  0  0
  151.1478  142.7172  157.7205 C   0  0  0  0  0  0  0  0  0  0  0  0
  150.6109  143.7586  158.4385 C   0  0  0  0  0  0  0  0  0  0  0  0
  151.2266  143.8171  160.0665 S   0  0  0  0  0  0  0  0  0  0  0  0
  152.2191  142.4011  159.7059 C   0  0  0  0  0  0  0  0  0  0  0  0
  153.1246  141.7549  160.5996 N   0  0  0  0  0  0  0  0  0  0  0  0
  153.2804  142.1895  161.9844 C   0  0  0  0  0  0  0  0  0  0  0  0
  154.1401  141.1201  162.6668 C   0  0  0  0  0  0  0  0  0  0  0  0
  154.7561  140.3099  161.5280 C   0  0  0  0  0  0  0  0  0  0  0  0
  153.9411  140.7250  160.3143 C   0  0  0  0  0  0  0  0  0  0  0  0
  154.0660  140.1544  159.2316 O   0  0  0  0  0  0  0  0  0  0  0  0
  152.0641  141.9555  158.4543 N   0  0  0  0  0  0  0  0  0  0  0  0
  144.3788  141.3271  155.2067 H   0  0  0  0  0  0  0  0  0  0  0  0
  143.9419  142.9229  155.8076 H   0  0  0  0  0  0  0  0  0  0  0  0
  144.6861  141.7616  156.8861 H   0  0  0  0  0  0  0  0  0  0  0  0
  146.3588  143.4379  156.1846 H   0  0  0  0  0  0  0  0  0  0  0  0
  145.7847  142.6339  153.2930 H   0  0  0  0  0  0  0  0  0  0  0  0
  146.9045  143.8870  153.8271 H   0  0  0  0  0  0  0  0  0  0  0  0
  145.1847  144.0956  154.0681 H   0  0  0  0  0  0  0  0  0  0  0  0
  146.9595  140.9152  156.3396 H   0  0  0  0  0  0  0  0  0  0  0  0
  146.2727  140.1353  154.0925 H   0  0  0  0  0  0  0  0  0  0  0  0
  148.0063  139.9685  154.2530 H   0  0  0  0  0  0  0  0  0  0  0  0
  147.3422  141.3076  153.3237 H   0  0  0  0  0  0  0  0  0  0  0  0
  148.6083  143.1184  155.3728 H   0  0  0  0  0  0  0  0  0  0  0  0
  151.6717  141.7922  155.8488 H   0  0  0  0  0  0  0  0  0  0  0  0
  150.7462  143.2640  155.6894 H   0  0  0  0  0  0  0  0  0  0  0  0
  149.8880  144.4900  158.1084 H   0  0  0  0  0  0  0  0  0  0  0  0
  153.7820  143.1583  162.0022 H   0  0  0  0  0  0  0  0  0  0  0  0
  152.3160  142.2967  162.4830 H   0  0  0  0  0  0  0  0  0  0  0  0
  154.8980  141.5614  163.3147 H   0  0  0  0  0  0  0  0  0  0  0  0
  153.5150  140.4738  163.2844 H   0  0  0  0  0  0  0  0  0  0  0  0
  155.8014  140.5767  161.3699 H   0  0  0  0  0  0  0  0  0  0  0  0
  154.6913  139.2357  161.7047 H   0  0  0  0  0  0  0  0  0  0  0  0
  1  2  1  0  0  0  0
  1 21  1  0  0  0  0
  1 22  1  0  0  0  0
  1 23  1  0  0  0  0
  2  3  1  0  0  0  0
  2  4  1  0  0  0  0
  2 24  1  0  0  0  0
  3 25  1  0  0  0  0
  3 26  1  0  0  0  0
  3 27  1  0  0  0  0
  4  5  1  0  0  0  0
  4  6  1  0  0  0  0
  4 28  1  0  0  0  0
  5 29  1  0  0  0  0
  5 30  1  0  0  0  0
  5 31  1  0  0  0  0
  6  7  1  0  0  0  0
  6 32  1  0  0  0  0
  7  8  2  0  0  0  0
  7  9  1  0  0  0  0
  9 10  1  0  0  0  0
  9 33  1  0  0  0  0
  9 34  1  0  0  0  0
 10 20  1  0  0  0  0
 10 11  2  0  0  0  0
 11 12  1  0  0  0  0
 11 35  1  0  0  0  0
 12 13  1  0  0  0  0
 13 14  1  0  0  0  0
 13 20  2  0  0  0  0
 14 18  1  0  0  0  0
 14 15  1  0  0  0  0
 15 16  1  0  0  0  0
 15 36  1  0  0  0  0
 15 37  1  0  0  0  0
 16 17  1  0  0  0  0
 16 38  1  0  0  0  0
 16 39  1  0  0  0  0
 17 18  1  0  0  0  0
 17 40  1  0  0  0  0
 17 41  1  0  0  0  0
 18 19  2  0  0  0  0
M  END
> <s_m_source_file>
AV-unprocessed.smi

> <i_m_source_file_index>
1250

> <i_lp_mmshare_version>
43012

> <i_f3d_flags>
0

> <s_epik_input>
W0NIM11bQ0hdKFtDSDNdKVtDQEhdKFtDSDNdKVtOSF1DKD1PKVtDSDJdYzFbY0hdc2MobjEpTjJbQ0gyXVtDSDJdW0NIMl1DMj1P

> <s_epik_cmdline>
J2VwaWtfcHl0aG9uJywgJy1waCcsICc3LjAnLCAnLXRuJywgJzgnLCAnLW1hJywgJzIwMCcsICctbWV0YWxfYmluZGluZycsICctaW1hZScsICc8aW5maWxlLm1hZT4nLCAnLW9tYWUnLCAnPG91dGZpbGUubWFlPic=

> <r_lp_tautomer_probability>
1

> <r_epik_Ionization_Penalty>
3.03552e-05

> <r_epik_Ionization_Penalty_Charging>
0

> <r_epik_Ionization_Penalty_Neutral>
3.03552e-05

> <r_epik_State_Penalty>
-0

> <r_epik_Charging_Adjusted_Penalty>
0

> <i_epik_Tot_Q>
0

> <i_epik_Tot_abs_Q>
0

> <r_epik_Metal_State_Penalty>
-0

> <b_epik_Metal_Only>
0

> <s_lp_Force_Field>
OPLS_2005

> <r_lp_Energy>
19.4329

> <b_lp_Chiralities_Consistent>
1

> <s_lp_Variant>
AV-unprocessed.smi:1250-2

> <Gold.Version>
5.8.1

> <Gold.Id.Protein>
6NUR|6NUR_protein|mol2

> <Gold.PLP.Fitness>
47.6731

> <Gold.PLP.PLP>
-40.9586

> <Gold.PLP.part.hbond>
-2.0000

> <Gold.PLP.part.metal>
0.0000

> <Gold.PLP.part.buried>
-3.8916

> <Gold.PLP.part.nonpolar>
-34.1584

> <Gold.PLP.part.repulsive>
0.1362

> <Gold.PLP.ligand.clash>
0.0000

> <Gold.PLP.ligand.torsion>
1.1776

> <Gold.PLP.Chemscore.Hbond>
1.8968

> <Gold.PLP.Chemscore.CHOScore>
1.1149

> <Gold.PLP.Chemscore.Metal>
0.0000

> <Gold.Chemscore.Hbonds>
donor molecule, donor type, donor heavy atom, donor atom, acceptor molecule, acceptor atom, score
      L1  H     6    32       P1  8028  1.00
      P1  H  7997  8008       L1    19  0.70
      L1  C    11    35       P1  8028  0.45
      L1  C    11    35       P1  8029  0.57

> <Gold.PLP.Chemscore.Internal.Correction>
0.0346

> <Gold.Rescore>
     Score         DG    S(hbond)    S(metal)    S(lipo)     H(rot)  DE(clash)    DE(int)     intcor
     15.67     -18.09       1.88        0.00      88.56       1.58       0.05       2.37       ----

> <Gold.Chemscore.Fitness>
15.6684

> <Gold.Chemscore.DG>
-18.0886

> <Gold.Chemscore.ZeroCoef>
-5.4800

> <Gold.Chemscore.Hbond>
1.8819

> <Gold.Chemscore.Metal>
0.0000

> <Gold.Chemscore.Lipo>
88.5604

> <Gold.Chemscore.Internal_Hbond>
0.0000

> <Gold.Chemscore.DEClash>
0.0464

> <Gold.Chemscore.DEInternal>
2.3738

> <Gold.Chemscore.Rot>
1.5775

> <Gold.Chemscore.Internal.Correction>
   9.000000E+99

> <Gold.Chemscore.Hbonds>
donor molecule, donor type, donor heavy atom, donor atom, acceptor molecule, acceptor atom, score
      L1  H     6    32       P1  8028  0.96
      P1  H  7997  8008       L1    19  0.67

> <Gold.Chemscore.Hbond.Weighted>
-6.2855

> <Gold.Chemscore.Metal.Weighted>
-0.0000

> <Gold.Chemscore.Lipo.Weighted>
-10.3616

> <Gold.Chemscore.Internal_Hbond.Weighted>
0.0000

> <Gold.Chemscore.DEClash.Weighted>
0.0464

> <Gold.Chemscore.DEInternal.Weighted>
2.3738

> <Gold.Chemscore.Rot.Weighted>
4.0385

> <Gold.Chemscore.Internal.Correction.Weighted>
   9.000000E+99

> <Gold.Protein.RotatedTorsions>
[ 6907 6896 6895 6894 ] final  167.09 input  -60.11 | X-H torsion
[ 7974 7965 7964 7962 ] final  152.49 input  175.53 | X-H torsion
[ 8008 7997 7996 7995 ] final -109.94 input   59.86 | X-H torsion
[ 10167 10162 10161 10158 ] final    7.12 input  -65.29 | X-H torsion
[ 10718 10713 10712 10709 ] final   60.18 input   66.30 | X-H torsion
[ 10763 10752 10751 10750 ] final  175.72 input  -60.55 | X-H torsion
[ 11005 11000 10999 10996 ] final  103.89 input  -57.11 | X-H torsion

> <Gold.Protein.ActiveResidues>
 VAL166  LYS551  ARG553  GLY616  TRP617  ASP618  TYR619  PRO620  LYS621  CYS622 
 ASP623  PHE694  ASN695  SER759  ASP760  ASP761  ALA762  ILE779  LEU786  VAL792 
 PHE793  MET794  SER795  GLU796  ALA797  LYS798  CYS799  TRP800  GLU811  SER814 

> <Gold.Protein.RotatedAtoms>
  151.8687  133.3471  159.3727 H   0  0  0  0  0  0  0  0  0  0  0  0  # atno 6907 bound_to 6896
  150.7159  134.5134  159.5628 H   0  0  0  0  0  0  0  0  0  0  0  0  # atno 6908 bound_to 6896
  152.2662  134.7982  160.0473 H   0  0  0  0  0  0  0  0  0  0  0  0  # atno 6909 bound_to 6896
  144.8219  139.6675  143.6097 H   0  0  0  0  0  0  0  0  0  0  0  0  # atno 7974 bound_to 7965
  154.9669  140.0398  157.2216 H   0  0  0  0  0  0  0  0  0  0  0  0  # atno 8008 bound_to 7997
  154.7837  140.2823  155.6022 H   0  0  0  0  0  0  0  0  0  0  0  0  # atno 8009 bound_to 7997
  156.2940  140.2587  156.2668 H   0  0  0  0  0  0  0  0  0  0  0  0  # atno 8010 bound_to 7997
  140.6389  143.7820  150.7400 H   0  0  0  0  0  0  0  0  0  0  0  0  # atno 10167 bound_to 10162
  157.5733  130.8924  149.9304 H   0  0  0  0  0  0  0  0  0  0  0  0  # atno 10718 bound_to 10713
  154.4714  135.2771  155.1639 H   0  0  0  0  0  0  0  0  0  0  0  0  # atno 10763 bound_to 10752
  154.3387  135.6175  153.5589 H   0  0  0  0  0  0  0  0  0  0  0  0  # atno 10764 bound_to 10752
  152.9864  135.5783  154.5096 H   0  0  0  0  0  0  0  0  0  0  0  0  # atno 10765 bound_to 10752
  139.8787  134.9280  156.5278 H   0  0  0  0  0  0  0  0  0  0  0  0  # atno 11005 bound_to 11000
  146.2524  139.6229  142.9418 LP  0  0  0  0  0  0  0  0  0  0  0  0  # atno 17320 bound_to 7965
  145.5086  141.0436  143.2500 LP  0  0  0  0  0  0  0  0  0  0  0  0  # atno 17321 bound_to 7965
  140.1447  143.4410  152.2170 LP  0  0  0  0  0  0  0  0  0  0  0  0  # atno 17342 bound_to 10162
  139.5599  144.7398  151.4186 LP  0  0  0  0  0  0  0  0  0  0  0  0  # atno 17343 bound_to 10162
  156.0778  130.3676  150.0642 LP  0  0  0  0  0  0  0  0  0  0  0  0  # atno 17370 bound_to 10713
  156.8791  130.9550  151.3601 LP  0  0  0  0  0  0  0  0  0  0  0  0  # atno 17371 bound_to 10713
  140.8403  133.8210  155.9069 LP  0  0  0  0  0  0  0  0  0  0  0  0  # atno 17394 bound_to 11000
  140.9243  134.2102  157.4906 LP  0  0  0  0  0  0  0  0  0  0  0  0  # atno 17395 bound_to 11000

$$$$
