#       Name:                AV-unprocessed.smi:51
#       Creating user name   scv26
#       Creation time:       Thu Mar 26 16:37:22 2020


#       File generated by GOLD software.
#

@<TRIPOS>MOLECULE
AV-unprocessed.smi:51
    34    35     1
SMALL
NO_CHARGES


@<TRIPOS>ATOM
      1 ****        -3.0992   0.2667  -1.0975 O.co2          1 S1                 0.0000
      2 ****        -2.1261  -0.5063  -1.2342 C.2            1 S1                 0.0000
      3 ****        -2.2031  -1.7353  -1.4582 O.co2          1 S1                -1.0000
      4 ****        -0.7279   0.1118  -1.1032 C.3            1 S1                 0.0000
      5 ****         0.2045  -0.2472  -2.2770 C.3            1 S1                 0.0000
      6 ****         1.1031  -1.3420  -1.7056 C.3            1 S1                 0.0000
      7 ****         2.3516  -1.4170  -2.3614 O.3            1 S1                 0.0000
      8 ****         1.2343  -0.9229  -0.2435 C.3            1 S1                 0.0000
      9 ****        -0.0772  -0.3948   0.1059 N.3            1 S1                 0.0000
     10 ****        -0.1171   0.4512   1.2229 C.ar           1 S1                 0.0000
     11 ****        -0.7900   0.0338   2.3900 C.ar           1 S1                 0.0000
     12 ****        -0.7922   0.9369   3.4716 C.ar           1 S1                 0.0000
     13 ****        -0.1780   2.1376   3.3979 N.ar           1 S1                 0.0000
     14 ****         0.4300   2.4298   2.2453 C.ar           1 S1                 0.0000
     15 ****         0.4972   1.6573   1.1586 N.ar           1 S1                 0.0000
     16 ****        -0.8434   1.1962  -1.0623 H              1 S1                 0.0000
     17 ****        -0.3199  -0.5632  -3.1801 H              1 S1                 0.0000
     18 ****         0.7998   0.6299  -2.5361 H              1 S1                 0.0000
     19 ****         0.5983  -2.3070  -1.7716 H              1 S1                 0.0000
     20 ****         2.1996  -1.6524  -3.2637 H              1 S1                 0.0000
     21 ****         1.5019  -1.7665   0.3935 H              1 S1                 0.0000
     22 ****         2.0029  -0.1563  -0.1297 H              1 S1                 0.0000
     23 ****        -1.2838  -0.9250   2.4502 H              1 S1                 0.0000
     24 ****        -1.2874   0.6941   4.4000 H              1 S1                 0.0000
     25 ****         0.9213   3.3897   2.1872 H              1 S1                 0.0000
     26 ****        -4.0321  -0.0869  -1.1656 LP             1 S1                 0.0000
     27 ****        -2.9446   1.2386  -0.9199 LP             1 S1                 0.0000
     28 ****        -3.0982  -2.1732  -1.5415 LP             1 S1                 0.0000
     29 ****        -1.3695  -2.2793  -1.5538 LP             1 S1                 0.0000
     30 ****         2.9228  -2.1107  -1.9226 LP             1 S1                 0.0000
     31 ****         2.8110  -0.5299  -2.3162 LP             1 S1                 0.0000
     32 ****        -0.6291  -1.1528   0.4535 LP             1 S1                 0.0000
     33 ****        -0.1785   2.7758   4.1678 LP             1 S1                 0.0000
     34 ****         0.9790   1.9552   0.3346 LP             1 S1                 0.0000
@<TRIPOS>BOND
    1    1    2 ar    
    2    2    3 ar    
    3    2    4 1     
    4    4    9 1     
    5    4    5 1     
    6    4   16 1     
    7    5    6 1     
    8    5   17 1     
    9    5   18 1     
   10    6    7 1     
   11    6    8 1     
   12    6   19 1     
   13    7   20 1     
   14    8    9 1     
   15    8   21 1     
   16    8   22 1     
   17    9   10 1     
   18   10   15 ar    
   19   10   11 ar    
   20   11   12 ar    
   21   11   23 1     
   22   12   13 ar    
   23   12   24 1     
   24   13   14 ar    
   25   14   15 ar    
   26   14   25 1     
   27    1   26 1     
   28    1   27 1     
   29    3   28 1     
   30    3   29 1     
   31    7   30 1     
   32    7   31 1     
   33    9   32 1     
   34   13   33 1     
   35   15   34 1     
@<TRIPOS>SUBSTRUCTURE
      1 S1             1
@<TRIPOS>SET
LONE_PAIRS      STATIC     ATOMS    <user>   **** ""
9 26 27 28 29 30 31 32 33 34
DONOR_HYDROGENS      STATIC     ATOMS    <user>   **** ""
1 20
ATOM$BLUE        STATIC     ATOMS    COLORGROUP SYSTEM
9 26 27 28 29 30 31 32 33 34
ATOM$RED        STATIC     ATOMS    COLORGROUP SYSTEM
1 20
