AV-unprocessed.smi:2336|AV-procd|sdf|9327|dock1
  -GOLD-   2272012543D 1   1.00000     0.00000
 Structure written by MMmdl.
 50 51  0  0  0  0  0  0  0  0  2 V2000
  146.7745  141.1240  156.1616 C   0  0  0  0  0  0  0  0  0  0  0  0
  147.5025  141.0631  154.8067 C   0  0  0  0  0  0  0  0  0  0  0  0
  146.7859  141.9294  153.7554 C   0  0  0  0  0  0  0  0  0  0  0  0
  147.8056  139.6056  154.3123 C   0  0  2  0  0  0  0  0  0  0  0  0
  146.5392  138.8552  153.7869 C   0  0  0  0  0  0  0  0  0  0  0  0
  146.8507  137.6203  153.0771 N   0  0  0  0  0  0  0  0  0  0  0  0
  145.9391  136.7265  152.6664 C   0  0  0  0  0  0  0  0  0  0  0  0
  144.7292  136.8663  152.8476 O   0  0  0  0  0  0  0  0  0  0  0  0
  146.5262  135.6770  152.0664 N   0  0  0  0  0  0  0  0  0  0  0  0
  145.9319  134.5027  151.5269 C   0  0  0  0  0  0  0  0  0  0  0  0
  144.6438  134.4534  150.9401 C   0  0  0  0  0  0  0  0  0  0  0  0
  144.1796  133.2226  150.4339 C   0  0  0  0  0  0  0  0  0  0  0  0
  144.9014  132.0828  150.4694 N   0  0  0  0  0  0  0  0  0  0  0  0
  146.1337  132.1361  151.0170 C   0  0  0  0  0  0  0  0  0  0  0  0
  146.6918  133.3138  151.5532 C   0  0  0  0  0  0  0  0  0  0  0  0
  147.9379  133.2985  152.0854 F   0  0  0  0  0  0  0  0  0  0  0  0
  148.5189  138.8618  155.3795 N   0  0  0  0  0  0  0  0  0  0  0  0
  149.2784  137.6653  154.9864 C   0  0  0  0  0  0  0  0  0  0  0  0
  150.5213  138.0257  154.1449 C   0  0  0  0  0  0  0  0  0  0  0  0
  151.4312  138.8884  154.9305 N   0  3  0  0  0  0  0  0  0  0  0  0
  152.6740  139.2223  154.2028 C   0  0  0  0  0  0  0  0  0  0  0  0
  150.7146  140.0876  155.4205 C   0  0  0  0  0  0  0  0  0  0  0  0
  149.4367  139.6832  156.1907 C   0  0  0  0  0  0  0  0  0  0  0  0
  145.7502  140.7581  156.0913 H   0  0  0  0  0  0  0  0  0  0  0  0
  146.7260  142.1491  156.5299 H   0  0  0  0  0  0  0  0  0  0  0  0
  147.2937  140.5311  156.9150 H   0  0  0  0  0  0  0  0  0  0  0  0
  148.4402  141.5867  154.9712 H   0  0  0  0  0  0  0  0  0  0  0  0
  145.7423  141.6490  153.6244 H   0  0  0  0  0  0  0  0  0  0  0  0
  147.2780  141.8628  152.7848 H   0  0  0  0  0  0  0  0  0  0  0  0
  146.7947  142.9787  154.0519 H   0  0  0  0  0  0  0  0  0  0  0  0
  148.4878  139.6757  153.4671 H   0  0  0  0  0  0  0  0  0  0  0  0
  145.8680  138.5697  154.5956 H   0  0  0  0  0  0  0  0  0  0  0  0
  145.9510  139.4959  153.1300 H   0  0  0  0  0  0  0  0  0  0  0  0
  147.8257  137.4313  152.8941 H   0  0  0  0  0  0  0  0  0  0  0  0
  147.5356  135.6879  152.0486 H   0  0  0  0  0  0  0  0  0  0  0  0
  144.0104  135.3221  150.8563 H   0  0  0  0  0  0  0  0  0  0  0  0
  143.2014  133.1546  149.9811 H   0  0  0  0  0  0  0  0  0  0  0  0
  146.6935  131.2125  151.0272 H   0  0  0  0  0  0  0  0  0  0  0  0
  149.5982  137.1469  155.8915 H   0  0  0  0  0  0  0  0  0  0  0  0
  148.6446  136.9467  154.4685 H   0  0  0  0  0  0  0  0  0  0  0  0
  151.0466  137.1123  153.8646 H   0  0  0  0  0  0  0  0  0  0  0  0
  150.2437  138.5277  153.2172 H   0  0  0  0  0  0  0  0  0  0  0  0
  152.4577  139.7994  153.3027 H   0  0  0  0  0  0  0  0  0  0  0  0
  153.2031  138.3151  153.9090 H   0  0  0  0  0  0  0  0  0  0  0  0
  153.3427  139.8089  154.8334 H   0  0  0  0  0  0  0  0  0  0  0  0
  151.3733  140.6450  156.0872 H   0  0  0  0  0  0  0  0  0  0  0  0
  150.4854  140.7548  154.5892 H   0  0  0  0  0  0  0  0  0  0  0  0
  148.9566  140.5776  156.5798 H   0  0  0  0  0  0  0  0  0  0  0  0
  149.7207  139.1074  157.0728 H   0  0  0  0  0  0  0  0  0  0  0  0
  151.7007  138.3572  155.7462 H   0  0  0  0  0  0  0  0  0  0  0  0
  1  2  1  0  0  0  0
  1 24  1  0  0  0  0
  1 25  1  0  0  0  0
  1 26  1  0  0  0  0
  2  3  1  0  0  0  0
  2  4  1  0  0  0  0
  2 27  1  0  0  0  0
  3 28  1  0  0  0  0
  3 29  1  0  0  0  0
  3 30  1  0  0  0  0
  4  5  1  0  0  0  0
  4 17  1  0  0  0  0
  4 31  1  0  0  0  0
  5  6  1  0  0  0  0
  5 32  1  0  0  0  0
  5 33  1  0  0  0  0
  6  7  1  0  0  0  0
  6 34  1  0  0  0  0
  7  8  2  0  0  0  0
  7  9  1  0  0  0  0
  9 10  1  0  0  0  0
  9 35  1  0  0  0  0
 10 15  1  0  0  0  0
 10 11  2  0  0  0  0
 11 12  1  0  0  0  0
 11 36  1  0  0  0  0
 12 13  2  0  0  0  0
 12 37  1  0  0  0  0
 13 14  1  0  0  0  0
 14 15  2  0  0  0  0
 14 38  1  0  0  0  0
 15 16  1  0  0  0  0
 17 23  1  0  0  0  0
 17 18  1  0  0  0  0
 18 19  1  0  0  0  0
 18 39  1  0  0  0  0
 18 40  1  0  0  0  0
 19 20  1  0  0  0  0
 19 41  1  0  0  0  0
 19 42  1  0  0  0  0
 20 21  1  0  0  0  0
 20 22  1  0  0  0  0
 20 50  1  0  0  0  0
 21 43  1  0  0  0  0
 21 44  1  0  0  0  0
 21 45  1  0  0  0  0
 22 23  1  0  0  0  0
 22 46  1  0  0  0  0
 22 47  1  0  0  0  0
 23 48  1  0  0  0  0
 23 49  1  0  0  0  0
M  CHG  1  20   1
M  END
> <s_m_source_file>
AV-unprocessed.smi

> <i_m_source_file_index>
2336

> <i_lp_mmshare_version>
43012

> <i_f3d_flags>
0

> <s_epik_input>
W0NIMl0xW0NIMl1OKFtDSDNdKVtDSDJdW0NIMl1OMVtDQEhdKFtDSF0oW0NIM10pW0NIM10pW0NIMl1bTkhdQyg9TylbTkhdYzJbY0hdW2NIXW5bY0hdYzJG

> <s_epik_cmdline>
J2VwaWtfcHl0aG9uJywgJy1waCcsICc3LjAnLCAnLXRuJywgJzgnLCAnLW1hJywgJzIwMCcsICctbWV0YWxfYmluZGluZycsICctaW1hZScsICc8aW5maWxlLm1hZT4nLCAnLW9tYWUnLCAnPG91dGZpbGUubWFlPic=

> <r_epik_Ionization_Penalty>
0.0313013

> <r_epik_Ionization_Penalty_Charging>
0.0272987

> <r_epik_Ionization_Penalty_Neutral>
0.00400259

> <r_epik_State_Penalty>
0.0776825

> <r_epik_Charging_Adjusted_Penalty>
0.104981

> <i_epik_Tot_Q>
1

> <i_epik_Tot_abs_Q>
1

> <r_epik_Metal_State_Penalty>
0.0776139

> <b_epik_Metal_Only>
0

> <s_lp_Force_Field>
OPLS_2005

> <r_lp_Energy>
31.6665

> <b_lp_Chiralities_Consistent>
1

> <s_lp_Variant>
AV-unprocessed.smi:2336-1

> <Gold.Version>
5.8.1

> <Gold.Id.Protein>
6NUR|6NUR_protein|mol2

> <Gold.PLP.Fitness>
43.5181

> <Gold.PLP.PLP>
-33.8628

> <Gold.PLP.part.hbond>
-1.8402

> <Gold.PLP.part.metal>
0.0000

> <Gold.PLP.part.buried>
-5.4098

> <Gold.PLP.part.nonpolar>
-26.6694

> <Gold.PLP.part.repulsive>
0.5872

> <Gold.PLP.ligand.clash>
0.0102

> <Gold.PLP.ligand.torsion>
0.7079

> <Gold.PLP.Chemscore.Hbond>
1.8000

> <Gold.PLP.Chemscore.CHOScore>
1.7831

> <Gold.PLP.Chemscore.Metal>
0.0000

> <Gold.Chemscore.Hbonds>
donor molecule, donor type, donor heavy atom, donor atom, acceptor molecule, acceptor atom, score
      L1  H     6    34       P1  7948  0.82
      L1  H     9    35       P1  7948  0.93
      L1  C    12    37       P1 10186  0.90
      L1  C    14    38       P1 10747  0.96

> <Gold.PLP.Chemscore.Internal.Correction>
0.3321

> <Gold.Rescore>
     Score         DG    S(hbond)    S(metal)    S(lipo)     H(rot)  DE(clash)    DE(int)     intcor
     16.69     -17.88       1.88        0.00      89.03       1.67       0.33       0.87       ----

> <Gold.Chemscore.Fitness>
16.6856

> <Gold.Chemscore.DG>
-17.8841

> <Gold.Chemscore.ZeroCoef>
-5.4800

> <Gold.Chemscore.Hbond>
1.8782

> <Gold.Chemscore.Metal>
0.0000

> <Gold.Chemscore.Lipo>
89.0269

> <Gold.Chemscore.Internal_Hbond>
0.0000

> <Gold.Chemscore.DEClash>
0.3304

> <Gold.Chemscore.DEInternal>
0.8680

> <Gold.Chemscore.Rot>
1.6739

> <Gold.Chemscore.Internal.Correction>
   9.000000E+99

> <Gold.Chemscore.Hbonds>
donor molecule, donor type, donor heavy atom, donor atom, acceptor molecule, acceptor atom, score
      L1  H     6    34       P1  7948  0.81
      L1  H     9    35       P1  7948  0.88

> <Gold.Chemscore.Hbond.Weighted>
-6.2731

> <Gold.Chemscore.Metal.Weighted>
-0.0000

> <Gold.Chemscore.Lipo.Weighted>
-10.4162

> <Gold.Chemscore.Internal_Hbond.Weighted>
0.0000

> <Gold.Chemscore.DEClash.Weighted>
0.3304

> <Gold.Chemscore.DEInternal.Weighted>
0.8680

> <Gold.Chemscore.Rot.Weighted>
4.2851

> <Gold.Chemscore.Internal.Correction.Weighted>
   9.000000E+99

> <Gold.Protein.RotatedTorsions>
[ 6907 6896 6895 6894 ] final   98.99 input  -60.11 | X-H torsion
[ 7974 7965 7964 7962 ] final    3.43 input  175.53 | X-H torsion
[ 8008 7997 7996 7995 ] final -117.67 input   59.86 | X-H torsion
[ 10167 10162 10161 10158 ] final  -90.22 input  -65.29 | X-H torsion
[ 10718 10713 10712 10709 ] final -154.90 input   66.30 | X-H torsion
[ 10763 10752 10751 10750 ] final   -0.47 input  -60.55 | X-H torsion
[ 11005 11000 10999 10996 ] final   -7.63 input  -57.11 | X-H torsion

> <Gold.Protein.ActiveResidues>
 VAL166  LYS551  ARG553  GLY616  TRP617  ASP618  TYR619  PRO620  LYS621  CYS622 
 ASP623  PHE694  ASN695  SER759  ASP760  ASP761  ALA762  ILE779  LEU786  VAL792 
 PHE793  MET794  SER795  GLU796  ALA797  LYS798  CYS799  TRP800  GLU811  SER814 

> <Gold.Protein.RotatedAtoms>
  152.5400  134.0496  159.8103 H   0  0  0  0  0  0  0  0  0  0  0  0  # atno 6907 bound_to 6896
  151.0640  133.5513  159.2639 H   0  0  0  0  0  0  0  0  0  0  0  0  # atno 6908 bound_to 6896
  151.2401  135.0594  159.9075 H   0  0  0  0  0  0  0  0  0  0  0  0  # atno 6909 bound_to 6896
  146.2445  140.0686  142.8364 H   0  0  0  0  0  0  0  0  0  0  0  0  # atno 7974 bound_to 7965
  155.0874  140.0394  157.2658 H   0  0  0  0  0  0  0  0  0  0  0  0  # atno 8008 bound_to 7997
  154.6858  140.2643  155.6837 H   0  0  0  0  0  0  0  0  0  0  0  0  # atno 8009 bound_to 7997
  156.2711  140.2769  156.1419 H   0  0  0  0  0  0  0  0  0  0  0  0  # atno 8010 bound_to 7997
  140.3571  143.2861  151.9659 H   0  0  0  0  0  0  0  0  0  0  0  0  # atno 10167 bound_to 10162
  156.5056  130.8411  151.2626 H   0  0  0  0  0  0  0  0  0  0  0  0  # atno 10718 bound_to 10713
  153.3323  135.6976  153.6937 H   0  0  0  0  0  0  0  0  0  0  0  0  # atno 10763 bound_to 10752
  153.5734  135.3512  155.2847 H   0  0  0  0  0  0  0  0  0  0  0  0  # atno 10764 bound_to 10752
  154.8620  135.4278  154.2515 H   0  0  0  0  0  0  0  0  0  0  0  0  # atno 10765 bound_to 10752
  140.7148  133.8878  155.8777 H   0  0  0  0  0  0  0  0  0  0  0  0  # atno 11005 bound_to 11000
  145.0836  140.9237  143.4811 LP  0  0  0  0  0  0  0  0  0  0  0  0  # atno 17320 bound_to 7965
  145.0844  139.2936  143.5767 LP  0  0  0  0  0  0  0  0  0  0  0  0  # atno 17321 bound_to 7965
  139.4819  144.6026  151.7579 LP  0  0  0  0  0  0  0  0  0  0  0  0  # atno 17342 bound_to 10162
  140.5163  144.0947  150.6009 LP  0  0  0  0  0  0  0  0  0  0  0  0  # atno 17343 bound_to 10162
  157.7457  130.9967  150.2789 LP  0  0  0  0  0  0  0  0  0  0  0  0  # atno 17370 bound_to 10713
  156.3290  130.3797  149.7508 LP  0  0  0  0  0  0  0  0  0  0  0  0  # atno 17371 bound_to 10713
  141.0054  134.1094  157.4276 LP  0  0  0  0  0  0  0  0  0  0  0  0  # atno 17394 bound_to 11000
  139.8862  135.0080  156.6487 LP  0  0  0  0  0  0  0  0  0  0  0  0  # atno 17395 bound_to 11000

$$$$
