AV-unprocessed.smi:1210|AV-procd|sdf|5077|dock1
  -GOLD-   22720 4123D 1   1.00000     0.00000
 Structure written by MMmdl.
 44 45  0  0  0  0  0  0  0  0  1 V2000
  152.5171  139.5030  158.0883 C   0  0  0  0  0  0  0  0  0  0  0  0
  151.8132  139.5870  156.7641 C   0  0  0  0  0  0  0  0  0  0  0  0
  152.5247  139.5972  155.6495 N   0  0  0  0  0  0  0  0  0  0  0  0
  151.5989  139.6705  154.6043 O   0  0  0  0  0  0  0  0  0  0  0  0
  150.3511  139.6994  155.1374 C   0  0  0  0  0  0  0  0  0  0  0  0
  149.2121  139.7727  154.1775 C   0  0  0  0  0  0  0  0  0  0  0  0
  150.4135  139.6500  156.5028 C   0  0  0  0  0  0  0  0  0  0  0  0
  149.2774  139.6557  157.4933 C   0  0  0  0  0  0  0  0  0  0  0  0
  149.2813  138.3491  158.2868 C   0  0  0  0  0  0  0  0  0  0  0  0
  150.3085  137.9744  158.8523 O   0  0  0  0  0  0  0  0  0  0  0  0
  148.1217  137.6760  158.3351 N   0  0  0  0  0  0  0  0  0  0  0  0
  147.8968  136.4461  159.0828 C   0  0  0  0  0  0  0  0  0  0  0  0
  148.2344  136.6290  160.5742 C   0  0  0  0  0  0  0  0  0  0  0  0
  147.0366  136.4905  161.4152 N   0  0  0  0  0  0  0  0  0  0  0  0
  147.1480  135.5377  162.5304 C   0  0  0  0  0  0  0  0  0  0  0  0
  146.1838  134.3434  162.3913 C   0  0  0  0  0  0  0  0  0  0  0  0
  144.7488  134.6409  162.8519 C   0  0  0  0  0  0  0  0  0  0  0  0
  144.0294  135.7182  162.0278 C   0  0  0  0  0  0  0  0  0  0  0  0
  144.7145  137.0928  162.0974 C   0  0  0  0  0  0  0  0  0  0  0  0
  145.9157  137.2034  161.1499 C   0  0  0  0  0  0  0  0  0  0  0  0
  145.8235  137.9588  160.1814 O   0  0  0  0  0  0  0  0  0  0  0  0
  152.5768  138.4699  158.4309 H   0  0  0  0  0  0  0  0  0  0  0  0
  151.9893  140.0750  158.8514 H   0  0  0  0  0  0  0  0  0  0  0  0
  153.5337  139.8935  158.0290 H   0  0  0  0  0  0  0  0  0  0  0  0
  148.5022  138.9661  154.3606 H   0  0  0  0  0  0  0  0  0  0  0  0
  149.5589  139.6899  153.1474 H   0  0  0  0  0  0  0  0  0  0  0  0
  148.6822  140.7197  154.2802 H   0  0  0  0  0  0  0  0  0  0  0  0
  149.3505  140.5047  158.1740 H   0  0  0  0  0  0  0  0  0  0  0  0
  148.3130  139.7535  156.9936 H   0  0  0  0  0  0  0  0  0  0  0  0
  147.3301  138.0582  157.8382 H   0  0  0  0  0  0  0  0  0  0  0  0
  146.8483  136.1724  158.9619 H   0  0  0  0  0  0  0  0  0  0  0  0
  148.4816  135.6304  158.6539 H   0  0  0  0  0  0  0  0  0  0  0  0
  149.0036  135.9165  160.8747 H   0  0  0  0  0  0  0  0  0  0  0  0
  148.6910  137.6079  160.7323 H   0  0  0  0  0  0  0  0  0  0  0  0
  148.1606  135.1371  162.5826 H   0  0  0  0  0  0  0  0  0  0  0  0
  146.9967  136.0513  163.4806 H   0  0  0  0  0  0  0  0  0  0  0  0
  146.1854  133.9738  161.3649 H   0  0  0  0  0  0  0  0  0  0  0  0
  146.5648  133.5238  163.0014 H   0  0  0  0  0  0  0  0  0  0  0  0
  144.1679  133.7195  162.8044 H   0  0  0  0  0  0  0  0  0  0  0  0
  144.7578  134.9329  163.9026 H   0  0  0  0  0  0  0  0  0  0  0  0
  143.9338  135.3928  160.9907 H   0  0  0  0  0  0  0  0  0  0  0  0
  143.0100  135.8164  162.4025 H   0  0  0  0  0  0  0  0  0  0  0  0
  143.9914  137.8576  161.8104 H   0  0  0  0  0  0  0  0  0  0  0  0
  145.0109  137.3355  163.1184 H   0  0  0  0  0  0  0  0  0  0  0  0
  1  2  1  0  0  0  0
  1 22  1  0  0  0  0
  1 23  1  0  0  0  0
  1 24  1  0  0  0  0
  2  7  1  0  0  0  0
  2  3  2  0  0  0  0
  3  4  1  0  0  0  0
  4  5  1  0  0  0  0
  5  6  1  0  0  0  0
  5  7  2  0  0  0  0
  6 25  1  0  0  0  0
  6 26  1  0  0  0  0
  6 27  1  0  0  0  0
  7  8  1  0  0  0  0
  8  9  1  0  0  0  0
  8 28  1  0  0  0  0
  8 29  1  0  0  0  0
  9 10  2  0  0  0  0
  9 11  1  0  0  0  0
 11 12  1  0  0  0  0
 11 30  1  0  0  0  0
 12 13  1  0  0  0  0
 12 31  1  0  0  0  0
 12 32  1  0  0  0  0
 13 14  1  0  0  0  0
 13 33  1  0  0  0  0
 13 34  1  0  0  0  0
 14 20  1  0  0  0  0
 14 15  1  0  0  0  0
 15 16  1  0  0  0  0
 15 35  1  0  0  0  0
 15 36  1  0  0  0  0
 16 17  1  0  0  0  0
 16 37  1  0  0  0  0
 16 38  1  0  0  0  0
 17 18  1  0  0  0  0
 17 39  1  0  0  0  0
 17 40  1  0  0  0  0
 18 19  1  0  0  0  0
 18 41  1  0  0  0  0
 18 42  1  0  0  0  0
 19 20  1  0  0  0  0
 19 43  1  0  0  0  0
 19 44  1  0  0  0  0
 20 21  2  0  0  0  0
M  END
> <s_m_source_file>
AV-unprocessed.smi

> <i_m_source_file_index>
1210

> <i_lp_mmshare_version>
43012

> <i_f3d_flags>
0

> <s_epik_input>
W0NIM11jMW5vYyhbQ0gzXSljMVtDSDJdQyg9TylbTkhdW0NIMl1bQ0gyXU4yW0NIMl1bQ0gyXVtDSDJdW0NIMl1bQ0gyXUMyPU8=

> <s_epik_cmdline>
J2VwaWtfcHl0aG9uJywgJy1waCcsICc3LjAnLCAnLXRuJywgJzgnLCAnLW1hJywgJzIwMCcsICctbWV0YWxfYmluZGluZycsICctaW1hZScsICc8aW5maWxlLm1hZT4nLCAnLW9tYWUnLCAnPG91dGZpbGUubWFlPic=

> <r_lp_tautomer_probability>
1

> <r_epik_Ionization_Penalty>
5.48219e-08

> <r_epik_Ionization_Penalty_Charging>
0

> <r_epik_Ionization_Penalty_Neutral>
5.48219e-08

> <r_epik_State_Penalty>
-0

> <r_epik_Charging_Adjusted_Penalty>
0

> <i_epik_Tot_Q>
0

> <i_epik_Tot_abs_Q>
0

> <r_epik_Metal_State_Penalty>
-0

> <b_epik_Metal_Only>
0

> <s_lp_Force_Field>
OPLS_2005

> <r_lp_Energy>
11.1007

> <b_lp_Chiralities_Consistent>
1

> <s_lp_Variant>
AV-unprocessed.smi:1210-1

> <Gold.Version>
5.8.1

> <Gold.Id.Protein>
6NUR|6NUR_protein|mol2

> <Gold.PLP.Fitness>
45.4490

> <Gold.PLP.PLP>
-37.5030

> <Gold.PLP.part.hbond>
-3.0000

> <Gold.PLP.part.metal>
0.0000

> <Gold.PLP.part.buried>
-6.3386

> <Gold.PLP.part.nonpolar>
-28.6873

> <Gold.PLP.part.repulsive>
0.1775

> <Gold.PLP.ligand.clash>
0.0000

> <Gold.PLP.ligand.torsion>
0.5043

> <Gold.PLP.Chemscore.Hbond>
2.9760

> <Gold.PLP.Chemscore.CHOScore>
0.0000

> <Gold.PLP.Chemscore.Metal>
0.0000

> <Gold.Chemscore.Hbonds>
donor molecule, donor type, donor heavy atom, donor atom, acceptor molecule, acceptor atom, score
      P1  H  6934  6947       L1    21  0.46
      P1  H  7989  7998       L1     4  1.00
      P1  H  7997  8008       L1     3  1.00

> <Gold.PLP.Chemscore.Internal.Correction>
0.0267

> <Gold.Rescore>
     Score         DG    S(hbond)    S(metal)    S(lipo)     H(rot)  DE(clash)    DE(int)     intcor
     14.73     -19.13       2.89        0.00      73.55       1.79       0.01       4.39       ----

> <Gold.Chemscore.Fitness>
14.7318

> <Gold.Chemscore.DG>
-19.1341

> <Gold.Chemscore.ZeroCoef>
-5.4800

> <Gold.Chemscore.Hbond>
2.8854

> <Gold.Chemscore.Metal>
0.0000

> <Gold.Chemscore.Lipo>
73.5485

> <Gold.Chemscore.Internal_Hbond>
0.0000

> <Gold.Chemscore.DEClash>
0.0089

> <Gold.Chemscore.DEInternal>
4.3934

> <Gold.Chemscore.Rot>
1.7923

> <Gold.Chemscore.Internal.Correction>
   9.000000E+99

> <Gold.Chemscore.Hbonds>
donor molecule, donor type, donor heavy atom, donor atom, acceptor molecule, acceptor atom, score
      P1  H  6934  6947       L1    21  0.02
      P1  H  7989  7998       L1     4  0.59
      P1  H  7997  8008       L1     3  0.28

> <Gold.Chemscore.Hbond.Weighted>
-9.6372

> <Gold.Chemscore.Metal.Weighted>
-0.0000

> <Gold.Chemscore.Lipo.Weighted>
-8.6052

> <Gold.Chemscore.Internal_Hbond.Weighted>
0.0000

> <Gold.Chemscore.DEClash.Weighted>
0.0089

> <Gold.Chemscore.DEInternal.Weighted>
4.3934

> <Gold.Chemscore.Rot.Weighted>
4.5884

> <Gold.Chemscore.Internal.Correction.Weighted>
   9.000000E+99

> <Gold.Protein.RotatedTorsions>
[ 6907 6896 6895 6894 ] final  161.61 input  -60.11 | X-H torsion
[ 7974 7965 7964 7962 ] final  128.78 input  175.53 | X-H torsion
[ 8008 7997 7996 7995 ] final  -45.56 input   59.86 | X-H torsion
[ 10167 10162 10161 10158 ] final  -60.06 input  -65.29 | X-H torsion
[ 10718 10713 10712 10709 ] final -120.36 input   66.30 | X-H torsion
[ 10763 10752 10751 10750 ] final  130.33 input  -60.55 | X-H torsion
[ 11005 11000 10999 10996 ] final  -18.99 input  -57.11 | X-H torsion

> <Gold.Protein.ActiveResidues>
 VAL166  LYS551  ARG553  GLY616  TRP617  ASP618  TYR619  PRO620  LYS621  CYS622 
 ASP623  PHE694  ASN695  SER759  ASP760  ASP761  ALA762  ILE779  LEU786  VAL792 
 PHE793  MET794  SER795  GLU796  ALA797  LYS798  CYS799  TRP800  GLU811  SER814 

> <Gold.Protein.RotatedAtoms>
  151.9530  133.3672  159.4006 H   0  0  0  0  0  0  0  0  0  0  0  0  # atno 6907 bound_to 6896
  150.6977  134.4320  159.5262 H   0  0  0  0  0  0  0  0  0  0  0  0  # atno 6908 bound_to 6896
  152.1996  134.8599  160.0560 H   0  0  0  0  0  0  0  0  0  0  0  0  # atno 6909 bound_to 6896
  145.0358  139.4006  143.5126 H   0  0  0  0  0  0  0  0  0  0  0  0  # atno 7974 bound_to 7965
  154.4001  140.1394  156.3867 H   0  0  0  0  0  0  0  0  0  0  0  0  # atno 8008 bound_to 7997
  155.7953  140.3477  155.5351 H   0  0  0  0  0  0  0  0  0  0  0  0  # atno 8009 bound_to 7997
  155.8538  140.0945  157.1648 H   0  0  0  0  0  0  0  0  0  0  0  0  # atno 8010 bound_to 7997
  140.6096  143.2383  151.5741 H   0  0  0  0  0  0  0  0  0  0  0  0  # atno 10167 bound_to 10162
  156.1252  130.6353  150.9530 H   0  0  0  0  0  0  0  0  0  0  0  0  # atno 10718 bound_to 10713
  153.7563  135.3202  155.3329 H   0  0  0  0  0  0  0  0  0  0  0  0  # atno 10763 bound_to 10752
  154.8246  135.4579  154.0882 H   0  0  0  0  0  0  0  0  0  0  0  0  # atno 10764 bound_to 10752
  153.2100  135.6934  153.8209 H   0  0  0  0  0  0  0  0  0  0  0  0  # atno 10765 bound_to 10752
  140.8322  133.7988  155.9771 H   0  0  0  0  0  0  0  0  0  0  0  0  # atno 11005 bound_to 11000
  146.3504  139.9933  142.8683 LP  0  0  0  0  0  0  0  0  0  0  0  0  # atno 17320 bound_to 7965
  145.1711  140.9721  143.4321 LP  0  0  0  0  0  0  0  0  0  0  0  0  # atno 17321 bound_to 7965
  139.5351  144.2805  152.1233 LP  0  0  0  0  0  0  0  0  0  0  0  0  # atno 17342 bound_to 10162
  140.2001  144.4666  150.6435 LP  0  0  0  0  0  0  0  0  0  0  0  0  # atno 17343 bound_to 10162
  157.6434  131.0907  150.8205 LP  0  0  0  0  0  0  0  0  0  0  0  0  # atno 17370 bound_to 10713
  156.8296  130.5011  149.5333 LP  0  0  0  0  0  0  0  0  0  0  0  0  # atno 17371 bound_to 10713
  140.8986  134.2407  157.5055 LP  0  0  0  0  0  0  0  0  0  0  0  0  # atno 17394 bound_to 11000
  139.8704  134.9695  156.4670 LP  0  0  0  0  0  0  0  0  0  0  0  0  # atno 17395 bound_to 11000

$$$$
