AV-unprocessed.smi:2964|AV-procd|sdf|11321|dock1
  -GOLD-   2272016223D 1   1.00000     0.00000
 Structure written by MMmdl.
 35 36  0  0  0  0  0  0  0  0  1 V2000
  149.3454  140.0841  155.9244 O   0  0  0  0  0  0  0  0  0  0  0  0
  149.5585  141.2785  155.7105 C   0  0  0  0  0  0  0  0  0  0  0  0
  150.9781  141.8566  155.8029 C   0  0  0  0  0  0  0  0  0  0  0  0
  151.5292  141.8410  157.1687 N   0  0  0  0  0  0  0  0  0  0  0  0
  151.3388  142.9975  157.9508 C   0  0  0  0  0  0  0  0  0  0  0  0
  151.7992  143.1121  159.2119 C   0  0  0  0  0  0  0  0  0  0  0  0
  151.5700  144.3551  160.0569 C   0  0  0  0  0  0  0  0  0  0  0  0
  152.0900  145.4253  159.4561 F   0  0  0  0  0  0  0  0  0  0  0  0
  150.2633  144.5655  160.2110 F   0  0  0  0  0  0  0  0  0  0  0  0
  152.1222  144.2425  161.2658 F   0  0  0  0  0  0  0  0  0  0  0  0
  152.5015  141.9650  159.7499 C   0  0  0  0  0  0  0  0  0  0  0  0
  152.6938  140.8523  159.0150 C   0  0  0  0  0  0  0  0  0  0  0  0
  152.1988  140.7467  157.6405 C   0  0  0  0  0  0  0  0  0  0  0  0
  152.3734  139.7378  156.9569 O   0  0  0  0  0  0  0  0  0  0  0  0
  148.5935  142.1457  155.3692 N   0  0  0  0  0  0  0  0  0  0  0  0
  147.1793  141.8113  155.2249 C   0  0  0  0  0  0  0  0  0  0  0  0
  146.5369  142.5341  154.0224 C   0  0  0  0  0  0  0  0  0  0  0  0
  145.2396  143.1529  154.5447 C   0  0  0  0  0  0  0  0  0  0  0  0
  145.5269  143.4416  156.0143 C   0  0  0  0  0  0  0  0  0  0  0  0
  146.3862  142.2601  156.4662 C   0  0  0  0  0  0  0  0  0  0  0  0
  151.6194  141.2913  155.1254 H   0  0  0  0  0  0  0  0  0  0  0  0
  150.9778  142.8751  155.4095 H   0  0  0  0  0  0  0  0  0  0  0  0
  150.7969  143.7885  157.4528 H   0  0  0  0  0  0  0  0  0  0  0  0
  152.8827  142.0033  160.7598 H   0  0  0  0  0  0  0  0  0  0  0  0
  153.2253  140.0174  159.4477 H   0  0  0  0  0  0  0  0  0  0  0  0
  148.8543  143.1074  155.2051 H   0  0  0  0  0  0  0  0  0  0  0  0
  147.0751  140.7303  155.1136 H   0  0  0  0  0  0  0  0  0  0  0  0
  147.1881  143.3314  153.6603 H   0  0  0  0  0  0  0  0  0  0  0  0
  146.3589  141.8591  153.1845 H   0  0  0  0  0  0  0  0  0  0  0  0
  144.9464  144.0444  153.9900 H   0  0  0  0  0  0  0  0  0  0  0  0
  144.4283  142.4282  154.4650 H   0  0  0  0  0  0  0  0  0  0  0  0
  146.0970  144.3677  156.1014 H   0  0  0  0  0  0  0  0  0  0  0  0
  144.6184  143.5515  156.6070 H   0  0  0  0  0  0  0  0  0  0  0  0
  145.7347  141.4468  156.7887 H   0  0  0  0  0  0  0  0  0  0  0  0
  147.0195  142.5170  157.3165 H   0  0  0  0  0  0  0  0  0  0  0  0
  1  2  2  0  0  0  0
  2  3  1  0  0  0  0
  2 15  1  0  0  0  0
  3  4  1  0  0  0  0
  3 21  1  0  0  0  0
  3 22  1  0  0  0  0
  4 13  1  0  0  0  0
  4  5  1  0  0  0  0
  5  6  2  0  0  0  0
  5 23  1  0  0  0  0
  6  7  1  0  0  0  0
  6 11  1  0  0  0  0
  7  8  1  0  0  0  0
  7  9  1  0  0  0  0
  7 10  1  0  0  0  0
 11 12  2  0  0  0  0
 11 24  1  0  0  0  0
 12 13  1  0  0  0  0
 12 25  1  0  0  0  0
 13 14  2  0  0  0  0
 15 16  1  0  0  0  0
 15 26  1  0  0  0  0
 16 20  1  0  0  0  0
 16 17  1  0  0  0  0
 16 27  1  0  0  0  0
 17 18  1  0  0  0  0
 17 28  1  0  0  0  0
 17 29  1  0  0  0  0
 18 19  1  0  0  0  0
 18 30  1  0  0  0  0
 18 31  1  0  0  0  0
 19 20  1  0  0  0  0
 19 32  1  0  0  0  0
 19 33  1  0  0  0  0
 20 34  1  0  0  0  0
 20 35  1  0  0  0  0
M  END
> <s_m_source_file>
AV-unprocessed.smi

> <i_m_source_file_index>
2964

> <i_lp_mmshare_version>
43012

> <i_f3d_flags>
0

> <s_epik_input>
W0NIMl0xW0NIMl1bQ0gyXVtDSDJdW0NIXTFbTkhdQyg9TylbQ0gyXW4yW2NIXWMoQyhGKShGKUYpW2NIXVtjSF1jMj1P

> <s_epik_cmdline>
J2VwaWtfcHl0aG9uJywgJy1waCcsICc3LjAnLCAnLXRuJywgJzgnLCAnLW1hJywgJzIwMCcsICctbWV0YWxfYmluZGluZycsICctaW1hZScsICc8aW5maWxlLm1hZT4nLCAnLW9tYWUnLCAnPG91dGZpbGUubWFlPic=

> <r_lp_tautomer_probability>
1

> <r_epik_Ionization_Penalty>
3.84201e-08

> <r_epik_Ionization_Penalty_Charging>
1.91184e-08

> <r_epik_Ionization_Penalty_Neutral>
1.93017e-08

> <r_epik_State_Penalty>
-0

> <r_epik_Charging_Adjusted_Penalty>
1.91184e-08

> <i_epik_Tot_Q>
0

> <i_epik_Tot_abs_Q>
0

> <r_epik_Metal_State_Penalty>
-0

> <b_epik_Metal_Only>
0

> <s_lp_Force_Field>
OPLS_2005

> <r_lp_Energy>
29.7678

> <b_lp_Chiralities_Consistent>
1

> <s_lp_Variant>
AV-unprocessed.smi:2964-1

> <Gold.Version>
5.8.1

> <Gold.Id.Protein>
6NUR|6NUR_protein|mol2

> <Gold.PLP.Fitness>
49.5287

> <Gold.PLP.PLP>
-42.8637

> <Gold.PLP.part.hbond>
-2.0000

> <Gold.PLP.part.metal>
0.0000

> <Gold.PLP.part.buried>
-5.5527

> <Gold.PLP.part.nonpolar>
-34.1148

> <Gold.PLP.part.repulsive>
0.1685

> <Gold.PLP.ligand.clash>
0.0000

> <Gold.PLP.ligand.torsion>
0.6903

> <Gold.PLP.Chemscore.Hbond>
2.0000

> <Gold.PLP.Chemscore.CHOScore>
0.6716

> <Gold.PLP.Chemscore.Metal>
0.0000

> <Gold.Chemscore.Hbonds>
donor molecule, donor type, donor heavy atom, donor atom, acceptor molecule, acceptor atom, score
      L1  H    15    26       P1  8028  1.00
      P1  H  7997  8009       L1    14  0.72
      L1  C     5    23       P1  8028  0.43

> <Gold.PLP.Chemscore.Internal.Correction>
0.0309

> <Gold.Rescore>
     Score         DG    S(hbond)    S(metal)    S(lipo)     H(rot)  DE(clash)    DE(int)     intcor
     16.48     -17.19       1.85        0.00      81.25       1.56       0.26       0.46       ----

> <Gold.Chemscore.Fitness>
16.4784

> <Gold.Chemscore.DG>
-17.1936

> <Gold.Chemscore.ZeroCoef>
-5.4800

> <Gold.Chemscore.Hbond>
1.8542

> <Gold.Chemscore.Metal>
0.0000

> <Gold.Chemscore.Lipo>
81.2474

> <Gold.Chemscore.Internal_Hbond>
0.0000

> <Gold.Chemscore.DEClash>
0.2601

> <Gold.Chemscore.DEInternal>
0.4551

> <Gold.Chemscore.Rot>
1.5568

> <Gold.Chemscore.Internal.Correction>
   9.000000E+99

> <Gold.Chemscore.Hbonds>
donor molecule, donor type, donor heavy atom, donor atom, acceptor molecule, acceptor atom, score
      L1  H    15    26       P1  8028  0.96
      P1  H  7997  8009       L1    14  0.08

> <Gold.Chemscore.Hbond.Weighted>
-6.1931

> <Gold.Chemscore.Metal.Weighted>
-0.0000

> <Gold.Chemscore.Lipo.Weighted>
-9.5059

> <Gold.Chemscore.Internal_Hbond.Weighted>
0.0000

> <Gold.Chemscore.DEClash.Weighted>
0.2601

> <Gold.Chemscore.DEInternal.Weighted>
0.4551

> <Gold.Chemscore.Rot.Weighted>
3.9854

> <Gold.Chemscore.Internal.Correction.Weighted>
   9.000000E+99

> <Gold.Protein.RotatedTorsions>
[ 6907 6896 6895 6894 ] final   88.89 input  -60.11 | X-H torsion
[ 7974 7965 7964 7962 ] final   19.80 input  175.53 | X-H torsion
[ 8008 7997 7996 7995 ] final -177.27 input   59.86 | X-H torsion
[ 10167 10162 10161 10158 ] final  130.54 input  -65.29 | X-H torsion
[ 10718 10713 10712 10709 ] final  -30.01 input   66.30 | X-H torsion
[ 10763 10752 10751 10750 ] final   53.82 input  -60.55 | X-H torsion
[ 11005 11000 10999 10996 ] final  106.63 input  -57.11 | X-H torsion

> <Gold.Protein.ActiveResidues>
 VAL166  LYS551  ARG553  GLY616  TRP617  ASP618  TYR619  PRO620  LYS621  CYS622 
 ASP623  PHE694  ASN695  SER759  ASP760  ASP761  ALA762  ILE779  LEU786  VAL792 
 PHE793  MET794  SER795  GLU796  ALA797  LYS798  CYS799  TRP800  GLU811  SER814 

> <Gold.Protein.RotatedAtoms>
  152.5430  134.2051  159.8727 H   0  0  0  0  0  0  0  0  0  0  0  0  # atno 6907 bound_to 6896
  151.2037  133.4589  159.2604 H   0  0  0  0  0  0  0  0  0  0  0  0  # atno 6908 bound_to 6896
  151.0964  134.9959  159.8483 H   0  0  0  0  0  0  0  0  0  0  0  0  # atno 6909 bound_to 6896
  146.2136  139.8261  142.8670 H   0  0  0  0  0  0  0  0  0  0  0  0  # atno 7974 bound_to 7965
  156.0049  140.1228  157.0511 H   0  0  0  0  0  0  0  0  0  0  0  0  # atno 8008 bound_to 7997
  154.4255  140.1099  156.5818 H   0  0  0  0  0  0  0  0  0  0  0  0  # atno 8009 bound_to 7997
  155.6160  140.3472  155.4639 H   0  0  0  0  0  0  0  0  0  0  0  0  # atno 8010 bound_to 7997
  139.5425  144.6744  151.4578 H   0  0  0  0  0  0  0  0  0  0  0  0  # atno 10167 bound_to 10162
  156.4052  130.4397  149.7293 H   0  0  0  0  0  0  0  0  0  0  0  0  # atno 10718 bound_to 10713
  152.9798  135.5766  154.4803 H   0  0  0  0  0  0  0  0  0  0  0  0  # atno 10763 bound_to 10752
  154.4353  135.2774  155.1887 H   0  0  0  0  0  0  0  0  0  0  0  0  # atno 10764 bound_to 10752
  154.3578  135.6195  153.5729 H   0  0  0  0  0  0  0  0  0  0  0  0  # atno 10765 bound_to 10752
  139.8817  134.9375  156.5696 H   0  0  0  0  0  0  0  0  0  0  0  0  # atno 11005 bound_to 11000
  145.3046  141.0203  143.3589 LP  0  0  0  0  0  0  0  0  0  0  0  0  # atno 17320 bound_to 7965
  144.8981  139.4686  143.6646 LP  0  0  0  0  0  0  0  0  0  0  0  0  # atno 17321 bound_to 7965
  140.6661  143.8395  150.6943 LP  0  0  0  0  0  0  0  0  0  0  0  0  # atno 17342 bound_to 10162
  140.1805  143.4119  152.1936 LP  0  0  0  0  0  0  0  0  0  0  0  0  # atno 17343 bound_to 10162
  156.4293  130.7807  151.2827 LP  0  0  0  0  0  0  0  0  0  0  0  0  # atno 17370 bound_to 10713
  157.7505  131.0159  150.3522 LP  0  0  0  0  0  0  0  0  0  0  0  0  # atno 17371 bound_to 10713
  140.8108  133.8431  155.8808 LP  0  0  0  0  0  0  0  0  0  0  0  0  # atno 17394 bound_to 11000
  140.9508  134.1781  157.4729 LP  0  0  0  0  0  0  0  0  0  0  0  0  # atno 17395 bound_to 11000

$$$$
