AV-unprocessed.smi:1370|AV-procd|sdf|5580|dock4
  -GOLD-   22720 5173D 1   1.00000     0.00000
 Structure written by MMmdl.
 39 40  0  0  0  0  0  0  0  0  1 V2000
  148.5278  141.8044  155.8624 O   0  0  0  0  0  0  0  0  0  0  0  0
  149.6687  141.5078  155.5050 C   0  0  0  0  0  0  0  0  0  0  0  0
  149.9153  140.8028  154.1637 C   0  0  0  0  0  0  0  0  0  0  0  0
  150.6952  139.5609  154.2936 N   0  0  0  0  0  0  0  0  0  0  0  0
  149.9713  138.3585  154.4207 C   0  0  0  0  0  0  0  0  0  0  0  0
  150.5843  137.1705  154.5449 C   0  0  0  0  0  0  0  0  0  0  0  0
  152.0276  137.1441  154.5448 C   0  0  0  0  0  0  0  0  0  0  0  0
  152.7297  138.2886  154.4279 C   0  0  0  0  0  0  0  0  0  0  0  0
  152.0637  139.5898  154.2962 C   0  0  0  0  0  0  0  0  0  0  0  0
  152.6975  140.6407  154.1935 O   0  0  0  0  0  0  0  0  0  0  0  0
  150.7619  141.7935  156.2277 N   0  0  0  0  0  0  0  0  0  0  0  0
  150.7642  142.4896  157.5103 C   0  0  0  0  0  0  0  0  0  0  0  0
  151.4002  143.8850  157.4046 C   0  0  0  0  0  0  0  0  0  0  0  0
  151.3742  144.7671  158.9921 S   0  0  0  0  0  0  0  0  0  0  0  0
  152.8650  144.0805  159.7681 C   0  0  0  0  0  0  0  0  0  0  0  0
  153.2154  142.6931  159.2332 C   0  0  0  0  0  0  0  0  0  0  0  0
  154.1354  142.1112  160.3051 C   0  0  0  0  0  0  0  0  0  0  0  0
  153.6188  142.6770  161.6347 C   0  0  0  0  0  0  0  0  0  0  0  0
  152.7202  143.8727  161.2807 C   0  0  0  0  0  0  0  0  0  0  0  0
  148.9460  140.5991  153.7071 H   0  0  0  0  0  0  0  0  0  0  0  0
  150.4143  141.4889  153.4767 H   0  0  0  0  0  0  0  0  0  0  0  0
  148.8964  138.4660  154.4185 H   0  0  0  0  0  0  0  0  0  0  0  0
  150.0129  136.2597  154.6463 H   0  0  0  0  0  0  0  0  0  0  0  0
  152.5475  136.2022  154.6401 H   0  0  0  0  0  0  0  0  0  0  0  0
  153.8091  138.2494  154.4303 H   0  0  0  0  0  0  0  0  0  0  0  0
  151.6607  141.5225  155.8561 H   0  0  0  0  0  0  0  0  0  0  0  0
  149.7446  142.5704  157.8907 H   0  0  0  0  0  0  0  0  0  0  0  0
  151.3128  141.8838  158.2317 H   0  0  0  0  0  0  0  0  0  0  0  0
  152.4291  143.8105  157.0514 H   0  0  0  0  0  0  0  0  0  0  0  0
  150.8566  144.4790  156.6698 H   0  0  0  0  0  0  0  0  0  0  0  0
  153.7039  144.7504  159.5739 H   0  0  0  0  0  0  0  0  0  0  0  0
  152.3153  142.0817  159.1518 H   0  0  0  0  0  0  0  0  0  0  0  0
  153.6865  142.7277  158.2506 H   0  0  0  0  0  0  0  0  0  0  0  0
  154.1520  141.0211  160.2924 H   0  0  0  0  0  0  0  0  0  0  0  0
  155.1552  142.4580  160.1343 H   0  0  0  0  0  0  0  0  0  0  0  0
  153.0429  141.9241  162.1741 H   0  0  0  0  0  0  0  0  0  0  0  0
  154.4478  142.9742  162.2777 H   0  0  0  0  0  0  0  0  0  0  0  0
  152.9913  144.7685  161.8400 H   0  0  0  0  0  0  0  0  0  0  0  0
  151.6862  143.6322  161.5324 H   0  0  0  0  0  0  0  0  0  0  0  0
  1  2  2  0  0  0  0
  2  3  1  0  0  0  0
  2 11  1  0  0  0  0
  3  4  1  0  0  0  0
  3 20  1  0  0  0  0
  3 21  1  0  0  0  0
  4  9  1  0  0  0  0
  4  5  1  0  0  0  0
  5  6  2  0  0  0  0
  5 22  1  0  0  0  0
  6  7  1  0  0  0  0
  6 23  1  0  0  0  0
  7  8  2  0  0  0  0
  7 24  1  0  0  0  0
  8  9  1  0  0  0  0
  8 25  1  0  0  0  0
  9 10  2  0  0  0  0
 11 12  1  0  0  0  0
 11 26  1  0  0  0  0
 12 13  1  0  0  0  0
 12 27  1  0  0  0  0
 12 28  1  0  0  0  0
 13 14  1  0  0  0  0
 13 29  1  0  0  0  0
 13 30  1  0  0  0  0
 14 15  1  0  0  0  0
 15 19  1  0  0  0  0
 15 16  1  0  0  0  0
 15 31  1  0  0  0  0
 16 17  1  0  0  0  0
 16 32  1  0  0  0  0
 16 33  1  0  0  0  0
 17 18  1  0  0  0  0
 17 34  1  0  0  0  0
 17 35  1  0  0  0  0
 18 19  1  0  0  0  0
 18 36  1  0  0  0  0
 18 37  1  0  0  0  0
 19 38  1  0  0  0  0
 19 39  1  0  0  0  0
M  END
> <s_m_source_file>
AV-unprocessed.smi

> <i_m_source_file_index>
1370

> <i_lp_mmshare_version>
43012

> <i_f3d_flags>
0

> <s_epik_input>
Tz1jMVtjSF1bY0hdW2NIXVtjSF1uMVtDSDJdQyg9TylbTkhdW0NIMl1bQ0gyXVNbQ0hdMltDSDJdW0NIMl1bQ0gyXVtDSDJdMg==

> <s_epik_cmdline>
J2VwaWtfcHl0aG9uJywgJy1waCcsICc3LjAnLCAnLXRuJywgJzgnLCAnLW1hJywgJzIwMCcsICctbWV0YWxfYmluZGluZycsICctaW1hZScsICc8aW5maWxlLm1hZT4nLCAnLW9tYWUnLCAnPG91dGZpbGUubWFlPic=

> <r_lp_tautomer_probability>
1

> <r_epik_Ionization_Penalty>
3.75756e-07

> <r_epik_Ionization_Penalty_Charging>
3.52005e-07

> <r_epik_Ionization_Penalty_Neutral>
2.37506e-08

> <r_epik_State_Penalty>
-0

> <r_epik_Charging_Adjusted_Penalty>
3.52005e-07

> <i_epik_Tot_Q>
0

> <i_epik_Tot_abs_Q>
0

> <r_epik_Metal_State_Penalty>
-0

> <b_epik_Metal_Only>
0

> <s_lp_Force_Field>
OPLS_2005

> <r_lp_Energy>
28.6611

> <b_lp_Chiralities_Consistent>
1

> <s_lp_Variant>
AV-unprocessed.smi:1370-1

> <Gold.Version>
5.8.1

> <Gold.Id.Protein>
6NUR|6NUR_protein|mol2

> <Gold.PLP.Fitness>
46.3141

> <Gold.PLP.PLP>
-44.2433

> <Gold.PLP.part.hbond>
-2.0000

> <Gold.PLP.part.metal>
0.0000

> <Gold.PLP.part.buried>
-1.3446

> <Gold.PLP.part.nonpolar>
-42.5451

> <Gold.PLP.part.repulsive>
2.5461

> <Gold.PLP.ligand.clash>
0.0000

> <Gold.PLP.ligand.torsion>
1.0304

> <Gold.PLP.Chemscore.Hbond>
1.3569

> <Gold.PLP.Chemscore.CHOScore>
0.0000

> <Gold.PLP.Chemscore.Metal>
0.0000

> <Gold.PLP.Chemscore.Internal.Correction>
0.0608

> <Gold.Rescore>
     Score         DG    S(hbond)    S(metal)    S(lipo)     H(rot)  DE(clash)    DE(int)     intcor
     13.87     -17.63       1.00        0.00     116.21       1.87       2.48       1.29       ----

> <Gold.Chemscore.Fitness>
13.8659

> <Gold.Chemscore.DG>
-17.6329

> <Gold.Chemscore.ZeroCoef>
-5.4800

> <Gold.Chemscore.Hbond>
0.9997

> <Gold.Chemscore.Metal>
0.0000

> <Gold.Chemscore.Lipo>
116.2102

> <Gold.Chemscore.Internal_Hbond>
0.0000

> <Gold.Chemscore.DEClash>
2.4806

> <Gold.Chemscore.DEInternal>
1.2864

> <Gold.Chemscore.Rot>
1.8682

> <Gold.Chemscore.Internal.Correction>
   9.000000E+99

> <Gold.Chemscore.Hbond.Weighted>
-3.3390

> <Gold.Chemscore.Metal.Weighted>
-0.0000

> <Gold.Chemscore.Lipo.Weighted>
-13.5966

> <Gold.Chemscore.Internal_Hbond.Weighted>
0.0000

> <Gold.Chemscore.DEClash.Weighted>
2.4806

> <Gold.Chemscore.DEInternal.Weighted>
1.2864

> <Gold.Chemscore.Rot.Weighted>
4.7827

> <Gold.Chemscore.Internal.Correction.Weighted>
   9.000000E+99

> <Gold.Protein.RotatedTorsions>
[ 6907 6896 6895 6894 ] final   30.14 input  -60.11 | X-H torsion
[ 7974 7965 7964 7962 ] final  -36.25 input  175.53 | X-H torsion
[ 8008 7997 7996 7995 ] final   89.13 input   59.86 | X-H torsion
[ 10167 10162 10161 10158 ] final   45.19 input  -65.29 | X-H torsion
[ 10718 10713 10712 10709 ] final  115.33 input   66.30 | X-H torsion
[ 10763 10752 10751 10750 ] final  -65.06 input  -60.55 | X-H torsion
[ 11005 11000 10999 10996 ] final  108.58 input  -57.11 | X-H torsion

> <Gold.Protein.ActiveResidues>
 VAL166  LYS551  ARG553  GLY616  TRP617  ASP618  TYR619  PRO620  LYS621  CYS622 
 ASP623  PHE694  ASN695  SER759  ASP760  ASP761  ALA762  ILE779  LEU786  VAL792 
 PHE793  MET794  SER795  GLU796  ALA797  LYS798  CYS799  TRP800  GLU811  SER814 

> <Gold.Protein.RotatedAtoms>
  152.0417  134.9707  160.0573 H   0  0  0  0  0  0  0  0  0  0  0  0  # atno 6907 bound_to 6896
  152.1144  133.4313  159.4654 H   0  0  0  0  0  0  0  0  0  0  0  0  # atno 6908 bound_to 6896
  150.6845  134.2529  159.4561 H   0  0  0  0  0  0  0  0  0  0  0  0  # atno 6909 bound_to 6896
  146.0677  140.6256  142.8967 H   0  0  0  0  0  0  0  0  0  0  0  0  # atno 7974 bound_to 7965
  155.9962  140.3364  155.6801 H   0  0  0  0  0  0  0  0  0  0  0  0  # atno 8008 bound_to 7997
  155.6353  140.0689  157.2654 H   0  0  0  0  0  0  0  0  0  0  0  0  # atno 8009 bound_to 7997
  154.4234  140.1752  156.1503 H   0  0  0  0  0  0  0  0  0  0  0  0  # atno 8010 bound_to 7997
  140.3266  144.2640  150.6174 H   0  0  0  0  0  0  0  0  0  0  0  0  # atno 10167 bound_to 10162
  157.6228  131.1011  150.7315 H   0  0  0  0  0  0  0  0  0  0  0  0  # atno 10718 bound_to 10713
  154.3393  135.6160  153.5589 H   0  0  0  0  0  0  0  0  0  0  0  0  # atno 10763 bound_to 10752
  152.9805  135.5766  154.4871 H   0  0  0  0  0  0  0  0  0  0  0  0  # atno 10764 bound_to 10752
  154.4572  135.2854  155.1716 H   0  0  0  0  0  0  0  0  0  0  0  0  # atno 10765 bound_to 10752
  139.8846  134.9434  156.5995 H   0  0  0  0  0  0  0  0  0  0  0  0  # atno 11005 bound_to 11000
  144.7212  140.4380  143.7006 LP  0  0  0  0  0  0  0  0  0  0  0  0  # atno 17320 bound_to 7965
  145.6447  139.1555  143.2896 LP  0  0  0  0  0  0  0  0  0  0  0  0  # atno 17321 bound_to 7965
  140.5435  143.2219  151.8046 LP  0  0  0  0  0  0  0  0  0  0  0  0  # atno 17342 bound_to 10162
  139.4864  144.4569  151.9587 LP  0  0  0  0  0  0  0  0  0  0  0  0  # atno 17343 bound_to 10162
  156.7669  130.4816  149.5426 LP  0  0  0  0  0  0  0  0  0  0  0  0  # atno 17370 bound_to 10713
  156.1383  130.6226  151.0431 LP  0  0  0  0  0  0  0  0  0  0  0  0  # atno 17371 bound_to 10713
  140.7894  133.8594  155.8634 LP  0  0  0  0  0  0  0  0  0  0  0  0  # atno 17394 bound_to 11000
  140.9690  134.1556  157.4592 LP  0  0  0  0  0  0  0  0  0  0  0  0  # atno 17395 bound_to 11000

$$$$
