AV-unprocessed.smi:800|AV-procd|sdf|3788|dock10
  -GOLD-   22720 1223D 1   1.00000     0.00000
 Structure written by MMmdl.
 35 36  0  0  0  0  0  0  0  0  2 V2000
  156.6910  137.7734  159.2556 C   0  0  0  0  0  0  0  0  0  0  0  0
  156.9417  138.9549  158.3057 C   0  0  0  0  0  0  0  0  0  0  0  0
  158.1548  139.7842  158.7487 C   0  0  0  0  0  0  0  0  0  0  0  0
  155.7610  139.8173  158.2788 N   0  5  0  0  0  0  0  0  0  0  0  0
  155.2684  140.4805  159.3635 C   0  0  0  0  0  0  0  0  0  0  0  0
  155.7508  140.6251  160.4924 O   0  0  0  0  0  0  0  0  0  0  0  0
  153.9019  141.0485  159.1050 C   0  0  0  0  0  0  0  0  0  0  0  0
  153.3061  140.6771  157.9479 N   0  0  0  0  0  0  0  0  0  0  0  0
  152.0898  141.1602  157.6701 C   0  0  0  0  0  0  0  0  0  0  0  0
  151.5005  140.7723  156.4596 N   0  0  0  0  0  0  0  0  0  0  0  0
  152.1832  139.9011  155.5002 C   0  0  0  0  0  0  0  0  0  0  0  0
  151.1728  139.0070  154.7615 C   0  0  0  0  0  0  0  0  0  0  0  0
  150.1730  139.8119  154.1485 O   0  0  0  0  0  0  0  0  0  0  0  0
  149.4395  140.5577  155.1125 C   0  0  0  0  0  0  0  0  0  0  0  0
  150.3844  141.5110  155.8631 C   0  0  0  0  0  0  0  0  0  0  0  0
  151.3955  141.9869  158.4620 N   0  0  0  0  0  0  0  0  0  0  0  0
  151.9607  142.3573  159.6299 C   0  0  0  0  0  0  0  0  0  0  0  0
  153.2359  141.9067  160.0190 C   0  0  0  0  0  0  0  0  0  0  0  0
  153.8855  142.3766  161.5536 Cl  0  0  0  0  0  0  0  0  0  0  0  0
  157.5604  137.1172  159.2996 H   0  0  0  0  0  0  0  0  0  0  0  0
  155.8439  137.1718  158.9239 H   0  0  0  0  0  0  0  0  0  0  0  0
  156.4805  138.1143  160.2701 H   0  0  0  0  0  0  0  0  0  0  0  0
  157.1683  138.5496  157.3184 H   0  0  0  0  0  0  0  0  0  0  0  0
  159.0567  139.1722  158.7751 H   0  0  0  0  0  0  0  0  0  0  0  0
  158.0104  140.2043  159.7447 H   0  0  0  0  0  0  0  0  0  0  0  0
  158.3398  140.6106  158.0614 H   0  0  0  0  0  0  0  0  0  0  0  0
  152.7233  140.5248  154.7872 H   0  0  0  0  0  0  0  0  0  0  0  0
  152.9207  139.2580  155.9795 H   0  0  0  0  0  0  0  0  0  0  0  0
  151.6800  138.4252  153.9919 H   0  0  0  0  0  0  0  0  0  0  0  0
  150.7113  138.2937  155.4465 H   0  0  0  0  0  0  0  0  0  0  0  0
  148.6618  141.1262  154.6025 H   0  0  0  0  0  0  0  0  0  0  0  0
  148.9360  139.8830  155.8071 H   0  0  0  0  0  0  0  0  0  0  0  0
  149.8021  142.0551  156.6062 H   0  0  0  0  0  0  0  0  0  0  0  0
  150.7888  142.2540  155.1752 H   0  0  0  0  0  0  0  0  0  0  0  0
  151.3819  143.0113  160.2651 H   0  0  0  0  0  0  0  0  0  0  0  0
  1  2  1  0  0  0  0
  1 20  1  0  0  0  0
  1 21  1  0  0  0  0
  1 22  1  0  0  0  0
  2  3  1  0  0  0  0
  2  4  1  0  0  0  0
  2 23  1  0  0  0  0
  3 24  1  0  0  0  0
  3 25  1  0  0  0  0
  3 26  1  0  0  0  0
  4  5  1  0  0  0  0
  5  6  2  0  0  0  0
  5  7  1  0  0  0  0
  7 18  1  0  0  0  0
  7  8  2  0  0  0  0
  8  9  1  0  0  0  0
  9 10  1  0  0  0  0
  9 16  2  0  0  0  0
 10 15  1  0  0  0  0
 10 11  1  0  0  0  0
 11 12  1  0  0  0  0
 11 27  1  0  0  0  0
 11 28  1  0  0  0  0
 12 13  1  0  0  0  0
 12 29  1  0  0  0  0
 12 30  1  0  0  0  0
 13 14  1  0  0  0  0
 14 15  1  0  0  0  0
 14 31  1  0  0  0  0
 14 32  1  0  0  0  0
 15 33  1  0  0  0  0
 15 34  1  0  0  0  0
 16 17  1  0  0  0  0
 17 18  2  0  0  0  0
 17 35  1  0  0  0  0
 18 19  1  0  0  0  0
M  CHG  1   4  -1
M  END
> <s_m_source_file>
AV-unprocessed.smi

> <i_m_source_file_index>
800

> <i_lp_mmshare_version>
43012

> <i_f3d_flags>
0

> <s_epik_input>
W0NIM11bQ0hdKFtDSDNdKVtOSF1DKD1PKWMxbmMobltjSF1jMUNsKU4yW0NIMl1bQ0gyXU9bQ0gyXVtDSDJdMg==

> <s_epik_cmdline>
J2VwaWtfcHl0aG9uJywgJy1waCcsICc3LjAnLCAnLXRuJywgJzgnLCAnLW1hJywgJzIwMCcsICctbWV0YWxfYmluZGluZycsICctaW1hZScsICc8aW5maWxlLm1hZT4nLCAnLW9tYWUnLCAnPG91dGZpbGUubWFlPic=

> <r_lp_tautomer_probability>
1

> <r_epik_Ionization_Penalty>
6.38192

> <r_epik_Ionization_Penalty_Charging>
6.38189

> <r_epik_Ionization_Penalty_Neutral>
2.33077e-05

> <r_epik_State_Penalty>
6.38188

> <r_epik_Charging_Adjusted_Penalty>
12.7638

> <i_epik_Tot_Q>
-1

> <i_epik_Tot_abs_Q>
1

> <r_epik_Metal_State_Penalty>
2.31349

> <b_epik_Metal_Only>
1

> <s_lp_Force_Field>
OPLS_2005

> <r_lp_Energy>
18.4653

> <b_lp_Chiralities_Consistent>
1

> <s_lp_Variant>
AV-unprocessed.smi:800-2

> <Gold.Version>
5.8.1

> <Gold.Id.Protein>
6NUR|6NUR_protein|mol2

> <Gold.PLP.Fitness>
43.1883

> <Gold.PLP.PLP>
-34.3722

> <Gold.PLP.part.hbond>
-3.0000

> <Gold.PLP.part.metal>
0.0000

> <Gold.PLP.part.buried>
-3.2856

> <Gold.PLP.part.nonpolar>
-26.9726

> <Gold.PLP.part.repulsive>
0.2091

> <Gold.PLP.ligand.clash>
0.0000

> <Gold.PLP.ligand.torsion>
0.1410

> <Gold.PLP.Chemscore.Hbond>
3.0000

> <Gold.PLP.Chemscore.CHOScore>
0.0000

> <Gold.PLP.Chemscore.Metal>
0.0000

> <Gold.Chemscore.Hbonds>
donor molecule, donor type, donor heavy atom, donor atom, acceptor molecule, acceptor atom, score
      P1  H  7989  7998       L1    13  0.30
      P1  H  7997  8008       L1     8  0.03

> <Gold.PLP.Chemscore.Internal.Correction>
0.0981

> <Gold.Rescore>
     Score         DG    S(hbond)    S(metal)    S(lipo)     H(rot)  DE(clash)    DE(int)     intcor
     12.53     -14.66       0.79        0.00      77.69       1.00       0.52       1.61       ----

> <Gold.Chemscore.Fitness>
12.5340

> <Gold.Chemscore.DG>
-14.6632

> <Gold.Chemscore.ZeroCoef>
-5.4800

> <Gold.Chemscore.Hbond>
0.7943

> <Gold.Chemscore.Metal>
0.0000

> <Gold.Chemscore.Lipo>
77.6933

> <Gold.Chemscore.Internal_Hbond>
0.0000

> <Gold.Chemscore.DEClash>
0.5154

> <Gold.Chemscore.DEInternal>
1.6138

> <Gold.Chemscore.Rot>
1.0000

> <Gold.Chemscore.Internal.Correction>
   9.000000E+99

> <Gold.Chemscore.Hbonds>
donor molecule, donor type, donor heavy atom, donor atom, acceptor molecule, acceptor atom, score
      P1  H  7997  8008       L1     8  0.06

> <Gold.Chemscore.Hbond.Weighted>
-2.6531

> <Gold.Chemscore.Metal.Weighted>
-0.0000

> <Gold.Chemscore.Lipo.Weighted>
-9.0901

> <Gold.Chemscore.Internal_Hbond.Weighted>
0.0000

> <Gold.Chemscore.DEClash.Weighted>
0.5154

> <Gold.Chemscore.DEInternal.Weighted>
1.6138

> <Gold.Chemscore.Rot.Weighted>
2.5600

> <Gold.Chemscore.Internal.Correction.Weighted>
   9.000000E+99

> <Gold.Protein.RotatedTorsions>
[ 6907 6896 6895 6894 ] final  124.36 input  -60.11 | X-H torsion
[ 7974 7965 7964 7962 ] final  -48.92 input  175.53 | X-H torsion
[ 8008 7997 7996 7995 ] final  -33.37 input   59.86 | X-H torsion
[ 10167 10162 10161 10158 ] final   11.82 input  -65.29 | X-H torsion
[ 10718 10713 10712 10709 ] final  143.46 input   66.30 | X-H torsion
[ 10763 10752 10751 10750 ] final  -15.64 input  -60.55 | X-H torsion
[ 11005 11000 10999 10996 ] final   61.17 input  -57.11 | X-H torsion

> <Gold.Protein.ActiveResidues>
 VAL166  LYS551  ARG553  GLY616  TRP617  ASP618  TYR619  PRO620  LYS621  CYS622 
 ASP623  PHE694  ASN695  SER759  ASP760  ASP761  ALA762  ILE779  LEU786  VAL792 
 PHE793  MET794  SER795  GLU796  ALA797  LYS798  CYS799  TRP800  GLU811  SER814 

> <Gold.Protein.RotatedAtoms>
  152.4084  133.6925  159.6376 H   0  0  0  0  0  0  0  0  0  0  0  0  # atno 6907 bound_to 6896
  150.7967  133.8668  159.3256 H   0  0  0  0  0  0  0  0  0  0  0  0  # atno 6908 bound_to 6896
  151.6416  135.1014  160.0194 H   0  0  0  0  0  0  0  0  0  0  0  0  # atno 6909 bound_to 6896
  145.9460  140.7617  142.9528 H   0  0  0  0  0  0  0  0  0  0  0  0  # atno 7974 bound_to 7965
  154.4151  140.1712  156.1878 H   0  0  0  0  0  0  0  0  0  0  0  0  # atno 8008 bound_to 7997
  155.9629  140.3392  155.6483 H   0  0  0  0  0  0  0  0  0  0  0  0  # atno 8009 bound_to 7997
  155.6725  140.0713  157.2505 H   0  0  0  0  0  0  0  0  0  0  0  0  # atno 8010 bound_to 7997
  140.6108  143.8412  150.7063 H   0  0  0  0  0  0  0  0  0  0  0  0  # atno 10167 bound_to 10162
  157.3687  131.0976  151.0848 H   0  0  0  0  0  0  0  0  0  0  0  0  # atno 10718 bound_to 10713
  153.5464  135.7012  153.5612 H   0  0  0  0  0  0  0  0  0  0  0  0  # atno 10763 bound_to 10752
  153.3555  135.3984  155.1678 H   0  0  0  0  0  0  0  0  0  0  0  0  # atno 10764 bound_to 10752
  154.8667  135.3776  154.4972 H   0  0  0  0  0  0  0  0  0  0  0  0  # atno 10765 bound_to 10752
  140.0180  134.6196  155.9681 H   0  0  0  0  0  0  0  0  0  0  0  0  # atno 11005 bound_to 11000
  144.6787  140.2358  143.7350 LP  0  0  0  0  0  0  0  0  0  0  0  0  # atno 17320 bound_to 7965
  145.8235  139.2054  143.1924 LP  0  0  0  0  0  0  0  0  0  0  0  0  # atno 17321 bound_to 7965
  140.1980  143.3982  152.1813 LP  0  0  0  0  0  0  0  0  0  0  0  0  # atno 17342 bound_to 10162
  139.5359  144.7209  151.4894 LP  0  0  0  0  0  0  0  0  0  0  0  0  # atno 17343 bound_to 10162
  157.1961  130.6373  149.5721 LP  0  0  0  0  0  0  0  0  0  0  0  0  # atno 17370 bound_to 10713
  155.9751  130.4706  150.6436 LP  0  0  0  0  0  0  0  0  0  0  0  0  # atno 17371 bound_to 10713
  141.1755  133.6540  156.4814 LP  0  0  0  0  0  0  0  0  0  0  0  0  # atno 17394 bound_to 11000
  140.4437  134.6992  157.5005 LP  0  0  0  0  0  0  0  0  0  0  0  0  # atno 17395 bound_to 11000

$$$$
