AV-unprocessed.smi:2007|AV-procd|sdf|8136|dock10
  -GOLD-   2272010373D 1   1.00000     0.00000
 Structure written by MMmdl.
 37 38  0  0  0  0  0  0  0  0  2 V2000
  145.5381  137.7365  155.0894 C   0  0  0  0  0  0  0  0  0  0  0  0
  145.8442  138.2638  153.6809 C   0  0  1  0  0  0  0  0  0  0  0  0
  146.8607  139.4285  153.7303 C   0  0  0  0  0  0  0  0  0  0  0  0
  146.2209  140.7570  153.9054 N   0  3  0  0  0  0  0  0  0  0  0  0
  145.3813  140.8542  155.1242 C   0  0  0  0  0  0  0  0  0  0  0  0
  144.6941  142.2284  155.1865 C   0  0  0  0  0  0  0  0  0  0  0  0
  145.6793  143.2543  155.1564 O   0  0  0  0  0  0  0  0  0  0  0  0
  146.4454  143.2230  153.9582 C   0  0  0  0  0  0  0  0  0  0  0  0
  147.1864  141.8791  153.8519 C   0  0  0  0  0  0  0  0  0  0  0  0
  146.3328  137.1569  152.8569 N   0  0  0  0  0  0  0  0  0  0  0  0
  145.5753  136.2309  152.2494 C   0  0  0  0  0  0  0  0  0  0  0  0
  144.3447  136.2305  152.2876 O   0  0  0  0  0  0  0  0  0  0  0  0
  146.3326  135.3293  151.6006 N   0  0  0  0  0  0  0  0  0  0  0  0
  145.9028  134.2298  150.8121 C   0  0  0  0  0  0  0  0  0  0  0  0
  146.6872  133.2065  150.4535 N   0  0  0  0  0  0  0  0  0  0  0  0
  146.0004  132.2651  149.6822 C   0  0  0  0  0  0  0  0  0  0  0  0
  144.6841  132.5881  149.4653 C   0  0  0  0  0  0  0  0  0  0  0  0
  144.2514  134.0959  150.2260 S   0  0  0  0  0  0  0  0  0  0  0  0
  145.1314  138.5252  155.7232 H   0  0  0  0  0  0  0  0  0  0  0  0
  146.4351  137.3501  155.5747 H   0  0  0  0  0  0  0  0  0  0  0  0
  144.8033  136.9312  155.0570 H   0  0  0  0  0  0  0  0  0  0  0  0
  144.9009  138.6246  153.2686 H   0  0  0  0  0  0  0  0  0  0  0  0
  147.5918  139.2700  154.5247 H   0  0  0  0  0  0  0  0  0  0  0  0
  147.4249  139.4238  152.7963 H   0  0  0  0  0  0  0  0  0  0  0  0
  144.6239  140.0710  155.1289 H   0  0  0  0  0  0  0  0  0  0  0  0
  145.9997  140.7060  156.0109 H   0  0  0  0  0  0  0  0  0  0  0  0
  143.9947  142.3524  154.3578 H   0  0  0  0  0  0  0  0  0  0  0  0
  144.1171  142.3189  156.1069 H   0  0  0  0  0  0  0  0  0  0  0  0
  145.7970  143.3791  153.0944 H   0  0  0  0  0  0  0  0  0  0  0  0
  147.1597  144.0462  153.9732 H   0  0  0  0  0  0  0  0  0  0  0  0
  147.9088  141.7811  154.6637 H   0  0  0  0  0  0  0  0  0  0  0  0
  147.7456  141.8443  152.9162 H   0  0  0  0  0  0  0  0  0  0  0  0
  147.3353  137.0741  152.7675 H   0  0  0  0  0  0  0  0  0  0  0  0
  147.3327  135.4422  151.6760 H   0  0  0  0  0  0  0  0  0  0  0  0
  146.5272  131.3910  149.3288 H   0  0  0  0  0  0  0  0  0  0  0  0
  143.9457  132.0323  148.9063 H   0  0  0  0  0  0  0  0  0  0  0  0
  145.6027  140.8798  153.1156 H   0  0  0  0  0  0  0  0  0  0  0  0
  1  2  1  0  0  0  0
  1 19  1  0  0  0  0
  1 20  1  0  0  0  0
  1 21  1  0  0  0  0
  2  3  1  0  0  0  0
  2 10  1  0  0  0  0
  2 22  1  0  0  0  0
  3  4  1  0  0  0  0
  3 23  1  0  0  0  0
  3 24  1  0  0  0  0
  4  9  1  0  0  0  0
  4  5  1  0  0  0  0
  4 37  1  0  0  0  0
  5  6  1  0  0  0  0
  5 25  1  0  0  0  0
  5 26  1  0  0  0  0
  6  7  1  0  0  0  0
  6 27  1  0  0  0  0
  6 28  1  0  0  0  0
  7  8  1  0  0  0  0
  8  9  1  0  0  0  0
  8 29  1  0  0  0  0
  8 30  1  0  0  0  0
  9 31  1  0  0  0  0
  9 32  1  0  0  0  0
 10 11  1  0  0  0  0
 10 33  1  0  0  0  0
 11 12  2  0  0  0  0
 11 13  1  0  0  0  0
 13 14  1  0  0  0  0
 13 34  1  0  0  0  0
 14 18  1  0  0  0  0
 14 15  2  0  0  0  0
 15 16  1  0  0  0  0
 16 17  2  0  0  0  0
 16 35  1  0  0  0  0
 17 18  1  0  0  0  0
 17 36  1  0  0  0  0
M  CHG  1   4   1
M  END
> <s_m_source_file>
AV-unprocessed.smi

> <i_m_source_file_index>
2007

> <i_lp_mmshare_version>
43012

> <i_f3d_flags>
0

> <s_epik_input>
W0NIMl0xW0NIMl1PW0NIMl1bQ0gyXU4xW0NIMl1bQ0BASF0oW0NIM10pW05IXUMoPU8pW05IXWMybltjSF1bY0hdczI=

> <s_epik_cmdline>
J2VwaWtfcHl0aG9uJywgJy1waCcsICc3LjAnLCAnLXRuJywgJzgnLCAnLW1hJywgJzIwMCcsICctbWV0YWxfYmluZGluZycsICctaW1hZScsICc8aW5maWxlLm1hZT4nLCAnLW9tYWUnLCAnPG91dGZpbGUubWFlPic=

> <r_lp_tautomer_probability>
0.999

> <r_epik_Ionization_Penalty>
0.695848

> <r_epik_Ionization_Penalty_Charging>
0.695697

> <r_epik_Ionization_Penalty_Neutral>
0.000150585

> <r_epik_State_Penalty>
0.717972

> <r_epik_Charging_Adjusted_Penalty>
1.41367

> <i_epik_Tot_Q>
1

> <i_epik_Tot_abs_Q>
1

> <r_epik_Metal_State_Penalty>
0.763271

> <b_epik_Metal_Only>
0

> <s_lp_Force_Field>
OPLS_2005

> <r_lp_Energy>
20.6539

> <b_lp_Chiralities_Consistent>
1

> <s_lp_Variant>
AV-unprocessed.smi:2007-4

> <Gold.Version>
5.8.1

> <Gold.Id.Protein>
6NUR|6NUR_protein|mol2

> <Gold.PLP.Fitness>
40.2846

> <Gold.PLP.PLP>
-27.3702

> <Gold.PLP.part.hbond>
-3.0000

> <Gold.PLP.part.metal>
0.0000

> <Gold.PLP.part.buried>
-6.0028

> <Gold.PLP.part.nonpolar>
-19.2075

> <Gold.PLP.part.repulsive>
0.6141

> <Gold.PLP.ligand.clash>
0.0000

> <Gold.PLP.ligand.torsion>
0.7310

> <Gold.PLP.Chemscore.Hbond>
3.9920

> <Gold.PLP.Chemscore.CHOScore>
0.7929

> <Gold.PLP.Chemscore.Metal>
0.0000

> <Gold.Chemscore.Hbonds>
donor molecule, donor type, donor heavy atom, donor atom, acceptor molecule, acceptor atom, score
      L1  H     4    37       P1 10175  1.60
      L1  H    10    33       P1  7948  0.97
      L1  H    13    34       P1  7948  1.00
      L1  C    16    35       P1 10747  0.56

> <Gold.PLP.Chemscore.Internal.Correction>
0.0218

> <Gold.Rescore>
     Score         DG    S(hbond)    S(metal)    S(lipo)     H(rot)  DE(clash)    DE(int)     intcor
     15.60     -17.53       2.84        0.00      57.71       1.63       0.01       1.92       ----

> <Gold.Chemscore.Fitness>
15.6010

> <Gold.Chemscore.DG>
-17.5333

> <Gold.Chemscore.ZeroCoef>
-5.4800

> <Gold.Chemscore.Hbond>
2.8370

> <Gold.Chemscore.Metal>
0.0000

> <Gold.Chemscore.Lipo>
57.7085

> <Gold.Chemscore.Internal_Hbond>
0.0000

> <Gold.Chemscore.DEClash>
0.0117

> <Gold.Chemscore.DEInternal>
1.9206

> <Gold.Chemscore.Rot>
1.6306

> <Gold.Chemscore.Internal.Correction>
   9.000000E+99

> <Gold.Chemscore.Hbonds>
donor molecule, donor type, donor heavy atom, donor atom, acceptor molecule, acceptor atom, score
      L1  H     4    37       P1 10175  0.42
      L1  H    10    33       P1  7948  0.87
      L1  H    13    34       P1  7948  0.98

> <Gold.Chemscore.Hbond.Weighted>
-9.4757

> <Gold.Chemscore.Metal.Weighted>
-0.0000

> <Gold.Chemscore.Lipo.Weighted>
-6.7519

> <Gold.Chemscore.Internal_Hbond.Weighted>
0.0000

> <Gold.Chemscore.DEClash.Weighted>
0.0117

> <Gold.Chemscore.DEInternal.Weighted>
1.9206

> <Gold.Chemscore.Rot.Weighted>
4.1743

> <Gold.Chemscore.Internal.Correction.Weighted>
   9.000000E+99

> <Gold.Protein.RotatedTorsions>
[ 6907 6896 6895 6894 ] final  -33.77 input  -60.11 | X-H torsion
[ 7974 7965 7964 7962 ] final  -72.29 input  175.53 | X-H torsion
[ 8008 7997 7996 7995 ] final  -98.63 input   59.86 | X-H torsion
[ 10167 10162 10161 10158 ] final  152.54 input  -65.29 | X-H torsion
[ 10718 10713 10712 10709 ] final -149.93 input   66.30 | X-H torsion
[ 10763 10752 10751 10750 ] final -160.24 input  -60.55 | X-H torsion
[ 11005 11000 10999 10996 ] final  156.38 input  -57.11 | X-H torsion

> <Gold.Protein.ActiveResidues>
 VAL166  LYS551  ARG553  GLY616  TRP617  ASP618  TYR619  PRO620  LYS621  CYS622 
 ASP623  PHE694  ASN695  SER759  ASP760  ASP761  ALA762  ILE779  LEU786  VAL792 
 PHE793  MET794  SER795  GLU796  ALA797  LYS798  CYS799  TRP800  GLU811  SER814 

> <Gold.Protein.RotatedAtoms>
  151.0613  134.9738  159.8261 H   0  0  0  0  0  0  0  0  0  0  0  0  # atno 6907 bound_to 6896
  152.5396  134.2414  159.8873 H   0  0  0  0  0  0  0  0  0  0  0  0  # atno 6908 bound_to 6896
  151.2434  133.4344  159.2642 H   0  0  0  0  0  0  0  0  0  0  0  0  # atno 6909 bound_to 6896
  145.6670  140.9234  143.0903 H   0  0  0  0  0  0  0  0  0  0  0  0  # atno 7974 bound_to 7965
  154.8039  140.0454  157.1293 H   0  0  0  0  0  0  0  0  0  0  0  0  # atno 8008 bound_to 7997
  154.9447  140.3057  155.5084 H   0  0  0  0  0  0  0  0  0  0  0  0  # atno 8009 bound_to 7997
  156.2964  140.2299  156.4519 H   0  0  0  0  0  0  0  0  0  0  0  0  # atno 8010 bound_to 7997
  139.4832  144.5349  151.7662 H   0  0  0  0  0  0  0  0  0  0  0  0  # atno 10167 bound_to 10162
  156.4396  130.8115  151.2344 H   0  0  0  0  0  0  0  0  0  0  0  0  # atno 10718 bound_to 10713
  154.7407  135.3068  154.8732 H   0  0  0  0  0  0  0  0  0  0  0  0  # atno 10763 bound_to 10752
  153.9548  135.6760  153.4748 H   0  0  0  0  0  0  0  0  0  0  0  0  # atno 10764 bound_to 10752
  153.1006  135.4913  154.8785 H   0  0  0  0  0  0  0  0  0  0  0  0  # atno 10765 bound_to 10752
  140.1669  134.8570  157.2643 H   0  0  0  0  0  0  0  0  0  0  0  0  # atno 11005 bound_to 11000
  144.7069  139.8523  143.7427 LP  0  0  0  0  0  0  0  0  0  0  0  0  # atno 17320 bound_to 7965
  146.1077  139.4079  143.0307 LP  0  0  0  0  0  0  0  0  0  0  0  0  # atno 17321 bound_to 7965
  140.4880  144.1352  150.5944 LP  0  0  0  0  0  0  0  0  0  0  0  0  # atno 17342 bound_to 10162
  140.4203  143.2615  151.9723 LP  0  0  0  0  0  0  0  0  0  0  0  0  # atno 17343 bound_to 10162
  157.7506  131.0172  150.3577 LP  0  0  0  0  0  0  0  0  0  0  0  0  # atno 17370 bound_to 10713
  156.3932  130.3902  149.7014 LP  0  0  0  0  0  0  0  0  0  0  0  0  # atno 17371 bound_to 10713
  140.2423  134.3781  155.7475 LP  0  0  0  0  0  0  0  0  0  0  0  0  # atno 17394 bound_to 11000
  141.2214  133.7272  156.8808 LP  0  0  0  0  0  0  0  0  0  0  0  0  # atno 17395 bound_to 11000

$$$$
