AV-unprocessed.smi:1489|AV-procd|sdf|6025|dock3
  -GOLD-   22720 6123D 1   1.00000     0.00000
 Structure written by MMmdl.
 46 48  0  0  0  0  0  0  0  0  1 V2000
  146.5639  138.4860  154.6349 O   0  0  0  0  0  0  0  0  0  0  0  0
  147.2988  138.1484  153.7070 C   0  0  0  0  0  0  0  0  0  0  0  0
  148.5884  138.5019  153.5712 N   0  0  0  0  0  0  0  0  0  0  0  0
  149.3811  139.2930  154.4453 C   0  0  0  0  0  0  0  0  0  0  0  0
  150.7843  139.1748  154.5734 C   0  0  0  0  0  0  0  0  0  0  0  0
  151.4588  140.0112  155.4837 C   0  0  0  0  0  0  0  0  0  0  0  0
  150.7144  140.9382  156.2510 C   0  0  0  0  0  0  0  0  0  0  0  0
  151.3528  141.8049  157.1597 N   0  0  0  0  0  0  0  0  0  0  0  0
  150.7146  143.0157  157.6509 C   0  0  0  0  0  0  0  0  0  0  0  0
  151.7082  143.5902  158.6595 C   0  0  0  0  0  0  0  0  0  0  0  0
  152.3687  142.3419  159.2456 C   0  0  0  0  0  0  0  0  0  0  0  0
  152.3757  141.3391  158.0854 C   0  0  0  0  0  0  0  0  0  0  0  0
  149.3688  141.0397  156.1361 N   0  0  0  0  0  0  0  0  0  0  0  0
  148.7270  140.2345  155.2642 C   0  0  0  0  0  0  0  0  0  0  0  0
  146.9106  137.3512  152.7010 N   0  0  0  0  0  0  0  0  0  0  0  0
  145.5905  136.7449  152.5473 C   0  0  2  0  0  0  0  0  0  0  0  0
  145.3449  135.7427  153.6915 C   0  0  0  0  0  0  0  0  0  0  0  0
  144.0017  135.0141  153.5236 C   0  0  0  0  0  0  0  0  0  0  0  0
  143.9164  134.3187  152.1543 C   0  0  1  0  0  0  0  0  0  0  0  0
  142.6461  133.7196  152.0093 O   0  0  0  0  0  0  0  0  0  0  0  0
  144.1460  135.3221  151.0108 C   0  0  0  0  0  0  0  0  0  0  0  0
  145.4896  136.0517  151.1749 C   0  0  0  0  0  0  0  0  0  0  0  0
  149.0837  138.0852  152.7964 H   0  0  0  0  0  0  0  0  0  0  0  0
  151.3534  138.4575  154.0027 H   0  0  0  0  0  0  0  0  0  0  0  0
  152.5318  139.9335  155.5751 H   0  0  0  0  0  0  0  0  0  0  0  0
  150.5058  143.7195  156.8445 H   0  0  0  0  0  0  0  0  0  0  0  0
  149.7739  142.7577  158.1391 H   0  0  0  0  0  0  0  0  0  0  0  0
  152.4551  144.1924  158.1403 H   0  0  0  0  0  0  0  0  0  0  0  0
  151.2329  144.2178  159.4136 H   0  0  0  0  0  0  0  0  0  0  0  0
  153.3653  142.5347  159.6433 H   0  0  0  0  0  0  0  0  0  0  0  0
  151.7532  141.9542  160.0586 H   0  0  0  0  0  0  0  0  0  0  0  0
  152.1770  140.3280  158.4426 H   0  0  0  0  0  0  0  0  0  0  0  0
  153.3403  141.3416  157.5767 H   0  0  0  0  0  0  0  0  0  0  0  0
  147.6546  140.3542  155.2138 H   0  0  0  0  0  0  0  0  0  0  0  0
  147.5900  137.1315  151.9874 H   0  0  0  0  0  0  0  0  0  0  0  0
  144.8130  137.5096  152.5975 H   0  0  0  0  0  0  0  0  0  0  0  0
  146.1513  135.0083  153.7206 H   0  0  0  0  0  0  0  0  0  0  0  0
  145.3635  136.2601  154.6516 H   0  0  0  0  0  0  0  0  0  0  0  0
  143.8755  134.2843  154.3243 H   0  0  0  0  0  0  0  0  0  0  0  0
  143.1863  135.7318  153.6271 H   0  0  0  0  0  0  0  0  0  0  0  0
  144.6680  133.5299  152.1013 H   0  0  0  0  0  0  0  0  0  0  0  0
  142.3627  133.8279  151.1143 H   0  0  0  0  0  0  0  0  0  0  0  0
  144.1205  134.8086  150.0489 H   0  0  0  0  0  0  0  0  0  0  0  0
  143.3376  136.0547  150.9932 H   0  0  0  0  0  0  0  0  0  0  0  0
  145.6086  136.7852  150.3764 H   0  0  0  0  0  0  0  0  0  0  0  0
  146.3045  135.3354  151.0604 H   0  0  0  0  0  0  0  0  0  0  0  0
  1  2  2  0  0  0  0
  2  3  1  0  0  0  0
  2 15  1  0  0  0  0
  3  4  1  0  0  0  0
  3 23  1  0  0  0  0
  4 14  1  0  0  0  0
  4  5  2  0  0  0  0
  5  6  1  0  0  0  0
  5 24  1  0  0  0  0
  6  7  2  0  0  0  0
  6 25  1  0  0  0  0
  7  8  1  0  0  0  0
  7 13  1  0  0  0  0
  8 12  1  0  0  0  0
  8  9  1  0  0  0  0
  9 10  1  0  0  0  0
  9 26  1  0  0  0  0
  9 27  1  0  0  0  0
 10 11  1  0  0  0  0
 10 28  1  0  0  0  0
 10 29  1  0  0  0  0
 11 12  1  0  0  0  0
 11 30  1  0  0  0  0
 11 31  1  0  0  0  0
 12 32  1  0  0  0  0
 12 33  1  0  0  0  0
 13 14  2  0  0  0  0
 14 34  1  0  0  0  0
 15 16  1  0  0  0  0
 15 35  1  0  0  0  0
 16 22  1  0  0  0  0
 16 17  1  0  0  0  0
 16 36  1  0  0  0  0
 17 18  1  0  0  0  0
 17 37  1  0  0  0  0
 17 38  1  0  0  0  0
 18 19  1  0  0  0  0
 18 39  1  0  0  0  0
 18 40  1  0  0  0  0
 19 20  1  0  0  0  0
 19 21  1  0  0  0  0
 19 41  1  0  0  0  0
 20 42  1  0  0  0  0
 21 22  1  0  0  0  0
 21 43  1  0  0  0  0
 21 44  1  0  0  0  0
 22 45  1  0  0  0  0
 22 46  1  0  0  0  0
M  END
> <s_m_source_file>
AV-unprocessed.smi

> <i_m_source_file_index>
1489

> <i_lp_mmshare_version>
43012

> <i_f3d_flags>
0

> <s_epik_input>
W0NIMl0xW0NIMl1bQ0BIXShbT0hdKVtDSDJdW0NIMl1bQ0BIXTFbTkhdQyg9TylbTkhdYzJbY0hdW2NIXWMobltjSF0yKU4zW0NIMl1bQ0gyXVtDSDJdW0NIMl0z

> <s_epik_cmdline>
J2VwaWtfcHl0aG9uJywgJy1waCcsICc3LjAnLCAnLXRuJywgJzgnLCAnLW1hJywgJzIwMCcsICctbWV0YWxfYmluZGluZycsICctaW1hZScsICc8aW5maWxlLm1hZT4nLCAnLW9tYWUnLCAnPG91dGZpbGUubWFlPic=

> <r_lp_tautomer_probability>
1

> <r_epik_Ionization_Penalty>
0.104121

> <r_epik_Ionization_Penalty_Charging>
0

> <r_epik_Ionization_Penalty_Neutral>
0.104121

> <r_epik_State_Penalty>
0.0934704

> <r_epik_Charging_Adjusted_Penalty>
0.0934704

> <i_epik_Tot_Q>
0

> <i_epik_Tot_abs_Q>
0

> <r_epik_Metal_State_Penalty>
0.0794432

> <b_epik_Metal_Only>
0

> <s_lp_Force_Field>
OPLS_2005

> <r_lp_Energy>
34.4224

> <b_lp_Chiralities_Consistent>
1

> <s_lp_Variant>
AV-unprocessed.smi:1489-1

> <Gold.Version>
5.8.1

> <Gold.Id.Protein>
6NUR|6NUR_protein|mol2

> <Gold.PLP.Fitness>
43.9011

> <Gold.PLP.PLP>
-36.8645

> <Gold.PLP.part.hbond>
-3.5431

> <Gold.PLP.part.metal>
0.0000

> <Gold.PLP.part.buried>
-4.2446

> <Gold.PLP.part.nonpolar>
-30.1460

> <Gold.PLP.part.repulsive>
0.2373

> <Gold.PLP.ligand.clash>
0.0000

> <Gold.PLP.ligand.torsion>
0.6559

> <Gold.PLP.Chemscore.Hbond>
2.7280

> <Gold.PLP.Chemscore.CHOScore>
0.0000

> <Gold.PLP.Chemscore.Metal>
0.0000

> <Gold.Chemscore.Hbonds>
donor molecule, donor type, donor heavy atom, donor atom, acceptor molecule, acceptor atom, score
      L1  H     3    23       P1  7948  0.66
      L1  H    15    35       P1  7948  0.78
      L1  H    20    42       P1 10186  0.73

> <Gold.PLP.Chemscore.Internal.Correction>
0.1645

> <Gold.Rescore>
     Score         DG    S(hbond)    S(metal)    S(lipo)     H(rot)  DE(clash)    DE(int)     intcor
     17.30     -19.22       2.15        0.00      86.75       1.41       0.05       1.87       ----

> <Gold.Chemscore.Fitness>
17.2959

> <Gold.Chemscore.DG>
-19.2187

> <Gold.Chemscore.ZeroCoef>
-5.4800

> <Gold.Chemscore.Hbond>
2.1547

> <Gold.Chemscore.Metal>
0.0000

> <Gold.Chemscore.Lipo>
86.7497

> <Gold.Chemscore.Internal_Hbond>
0.0000

> <Gold.Chemscore.DEClash>
0.0491

> <Gold.Chemscore.DEInternal>
1.8737

> <Gold.Chemscore.Rot>
1.4093

> <Gold.Chemscore.Internal.Correction>
   9.000000E+99

> <Gold.Chemscore.Hbonds>
donor molecule, donor type, donor heavy atom, donor atom, acceptor molecule, acceptor atom, score
      L1  H     3    23       P1  7948  0.63
      L1  H    15    35       P1  7948  0.77
      L1  H    20    42       P1 10186  0.32

> <Gold.Chemscore.Hbond.Weighted>
-7.1968

> <Gold.Chemscore.Metal.Weighted>
-0.0000

> <Gold.Chemscore.Lipo.Weighted>
-10.1497

> <Gold.Chemscore.Internal_Hbond.Weighted>
0.0000

> <Gold.Chemscore.DEClash.Weighted>
0.0491

> <Gold.Chemscore.DEInternal.Weighted>
1.8737

> <Gold.Chemscore.Rot.Weighted>
3.6077

> <Gold.Chemscore.Internal.Correction.Weighted>
   9.000000E+99

> <Gold.Protein.RotatedTorsions>
[ 6907 6896 6895 6894 ] final   90.39 input  -60.11 | X-H torsion
[ 7974 7965 7964 7962 ] final   79.83 input  175.53 | X-H torsion
[ 8008 7997 7996 7995 ] final   63.92 input   59.86 | X-H torsion
[ 10167 10162 10161 10158 ] final  148.05 input  -65.29 | X-H torsion
[ 10718 10713 10712 10709 ] final -116.78 input   66.30 | X-H torsion
[ 10763 10752 10751 10750 ] final  156.55 input  -60.55 | X-H torsion
[ 11005 11000 10999 10996 ] final  -70.90 input  -57.11 | X-H torsion

> <Gold.Protein.ActiveResidues>
 VAL166  LYS551  ARG553  GLY616  TRP617  ASP618  TYR619  PRO620  LYS621  CYS622 
 ASP623  PHE694  ASN695  SER759  ASP760  ASP761  ALA762  ILE779  LEU786  VAL792 
 PHE793  MET794  SER795  GLU796  ALA797  LYS798  CYS799  TRP800  GLU811  SER814 

> <Gold.Protein.RotatedAtoms>
  152.5444  134.1819  159.8638 H   0  0  0  0  0  0  0  0  0  0  0  0  # atno 6907 bound_to 6896
  151.1820  133.4712  159.2601 H   0  0  0  0  0  0  0  0  0  0  0  0  # atno 6908 bound_to 6896
  151.1168  135.0069  159.8575 H   0  0  0  0  0  0  0  0  0  0  0  0  # atno 6909 bound_to 6896
  145.6591  139.2467  143.1933 H   0  0  0  0  0  0  0  0  0  0  0  0  # atno 7974 bound_to 7965
  155.6379  140.3496  155.4705 H   0  0  0  0  0  0  0  0  0  0  0  0  # atno 8008 bound_to 7997
  155.9950  140.1201  157.0625 H   0  0  0  0  0  0  0  0  0  0  0  0  # atno 8009 bound_to 7997
  154.4231  140.1112  156.5604 H   0  0  0  0  0  0  0  0  0  0  0  0  # atno 8010 bound_to 7997
  139.4880  144.5709  151.7057 H   0  0  0  0  0  0  0  0  0  0  0  0  # atno 10167 bound_to 10162
  156.0987  130.6154  150.9080 H   0  0  0  0  0  0  0  0  0  0  0  0  # atno 10718 bound_to 10713
  154.1861  135.2797  155.3037 H   0  0  0  0  0  0  0  0  0  0  0  0  # atno 10763 bound_to 10752
  154.5965  135.5543  153.7334 H   0  0  0  0  0  0  0  0  0  0  0  0  # atno 10764 bound_to 10752
  153.0125  135.6381  154.2000 H   0  0  0  0  0  0  0  0  0  0  0  0  # atno 10765 bound_to 10752
  141.1582  133.6802  156.6824 H   0  0  0  0  0  0  0  0  0  0  0  0  # atno 11005 bound_to 11000
  146.1140  140.7393  142.9489 LP  0  0  0  0  0  0  0  0  0  0  0  0  # atno 17320 bound_to 7965
  144.7095  140.3985  143.7091 LP  0  0  0  0  0  0  0  0  0  0  0  0  # atno 17321 bound_to 7965
  140.5296  144.0752  150.6049 LP  0  0  0  0  0  0  0  0  0  0  0  0  # atno 17342 bound_to 10162
  140.3737  143.2840  152.0249 LP  0  0  0  0  0  0  0  0  0  0  0  0  # atno 17343 bound_to 10162
  157.6153  131.0933  150.8721 LP  0  0  0  0  0  0  0  0  0  0  0  0  # atno 17370 bound_to 10713
  156.8853  130.5194  149.5289 LP  0  0  0  0  0  0  0  0  0  0  0  0  # atno 17371 bound_to 10713
  140.3093  134.8099  157.4163 LP  0  0  0  0  0  0  0  0  0  0  0  0  # atno 17394 bound_to 11000
  140.1193  134.5241  155.8197 LP  0  0  0  0  0  0  0  0  0  0  0  0  # atno 17395 bound_to 11000

$$$$
