AV-unprocessed.smi:72|AV-procd|sdf|755|dock5
  -GOLD-   2262017 93D 1   1.00000     0.00000
 Structure written by MMmdl.
 29 30  0  0  0  0  0  0  0  0  1 V2000
  147.0348  133.6121  157.6997 N   0  0  0  0  0  0  0  0  0  0  0  0
  147.8859  134.6454  157.3688 C   0  0  0  0  0  0  0  0  0  0  0  0
  147.6295  135.2983  156.1552 N   0  0  0  0  0  0  0  0  0  0  0  0
  148.4234  136.2726  155.8428 C   0  0  0  0  0  0  0  0  0  0  0  0
  149.5175  136.6636  156.7131 N   0  0  0  0  0  0  0  0  0  0  0  0
  150.4473  137.8008  156.3414 C   0  0  2  0  0  0  0  0  0  0  0  0
  149.7015  138.9765  156.2291 O   0  0  0  0  0  0  0  0  0  0  0  0
  150.1693  139.7247  155.1137 C   0  0  2  0  0  0  0  0  0  0  0  0
  149.1221  140.7568  154.6580 C   0  0  0  0  0  0  0  0  0  0  0  0
  149.3428  141.1167  153.3108 O   0  0  0  0  0  0  0  0  0  0  0  0
  150.5835  138.6505  154.0974 C   0  0  2  0  0  0  0  0  0  0  0  0
  149.4641  138.1822  153.3640 O   0  0  0  0  0  0  0  0  0  0  0  0
  151.1824  137.5750  155.0006 C   0  0  2  0  0  0  0  0  0  0  0  0
  151.0932  136.2680  154.4578 O   0  0  0  0  0  0  0  0  0  0  0  0
  149.7298  135.9470  157.9230 C   0  0  0  0  0  0  0  0  0  0  0  0
  150.6703  136.2393  158.6616 O   0  0  0  0  0  0  0  0  0  0  0  0
  148.8397  134.9068  158.2162 N   0  0  0  0  0  0  0  0  0  0  0  0
  151.1355  137.9254  157.1785 H   0  0  0  0  0  0  0  0  0  0  0  0
  151.0652  140.2531  155.4456 H   0  0  0  0  0  0  0  0  0  0  0  0
  151.3166  139.0326  153.3862 H   0  0  0  0  0  0  0  0  0  0  0  0
  152.2351  137.8032  155.1724 H   0  0  0  0  0  0  0  0  0  0  0  0
  147.1227  133.0701  158.5470 H   0  0  0  0  0  0  0  0  0  0  0  0
  146.2589  133.3233  157.1218 H   0  0  0  0  0  0  0  0  0  0  0  0
  148.3256  136.8508  154.9232 H   0  0  0  0  0  0  0  0  0  0  0  0
  148.1054  140.3829  154.7801 H   0  0  0  0  0  0  0  0  0  0  0  0
  149.2017  141.6573  155.2672 H   0  0  0  0  0  0  0  0  0  0  0  0
  149.1218  140.3788  152.7631 H   0  0  0  0  0  0  0  0  0  0  0  0
  149.3007  138.7835  152.6539 H   0  0  0  0  0  0  0  0  0  0  0  0
  150.6462  136.3176  153.6267 H   0  0  0  0  0  0  0  0  0  0  0  0
  1  2  1  0  0  0  0
  1 22  1  0  0  0  0
  1 23  1  0  0  0  0
  2 17  2  0  0  0  0
  2  3  1  0  0  0  0
  3  4  2  0  0  0  0
  4  5  1  0  0  0  0
  4 24  1  0  0  0  0
  5  6  1  0  0  0  0
  5 15  1  0  0  0  0
  6 18  1  0  0  0  0
  6 13  1  0  0  0  0
  6  7  1  0  0  0  0
  7  8  1  0  0  0  0
  8 19  1  0  0  0  0
  8  9  1  0  0  0  0
  8 11  1  0  0  0  0
  9 10  1  0  0  0  0
  9 25  1  0  0  0  0
  9 26  1  0  0  0  0
 10 27  1  0  0  0  0
 11 20  1  0  0  0  0
 11 12  1  0  0  0  0
 11 13  1  0  0  0  0
 12 28  1  0  0  0  0
 13 21  1  0  0  0  0
 13 14  1  0  0  0  0
 14 29  1  0  0  0  0
 15 16  2  0  0  0  0
 15 17  1  0  0  0  0
M  END
> <s_m_source_file>
AV-unprocessed.smi

> <i_m_source_file_index>
72

> <i_lp_mmshare_version>
43012

> <i_f3d_flags>
0

> <s_epik_input>
W05IMl1jMW5bY0hdbihjKD1PKW4xKVtDQEBIXTJPW0NASF0oW0NIMl1bT0hdKVtDQEBIXShbT0hdKVtDQEhdMltPSF0=

> <s_epik_cmdline>
J2VwaWtfcHl0aG9uJywgJy1waCcsICc3LjAnLCAnLXRuJywgJzgnLCAnLW1hJywgJzIwMCcsICctbWV0YWxfYmluZGluZycsICctaW1hZScsICc8aW5maWxlLm1hZT4nLCAnLW9tYWUnLCAnPG91dGZpbGUubWFlPic=

> <r_lp_tautomer_probability>
4.77166e-05

> <r_epik_Ionization_Penalty>
1.3546

> <r_epik_Ionization_Penalty_Charging>
1.46833e-10

> <r_epik_Ionization_Penalty_Neutral>
1.3546

> <r_epik_State_Penalty>
3.51908

> <r_epik_Charging_Adjusted_Penalty>
3.51908

> <i_epik_Tot_Q>
0

> <i_epik_Tot_abs_Q>
0

> <r_epik_Metal_State_Penalty>
3.44088

> <b_epik_Metal_Only>
1

> <s_epik_Chemistry_Notes>
This compound contains an acetal/aminal-like group ( X-CH(R)-Y where X, Y are N, S, or O) that may be acid/base labile, releasing an aldehyde.

> <s_lp_Force_Field>
OPLS_2005

> <r_lp_Energy>
36.4179

> <b_lp_Chiralities_Consistent>
1

> <s_lp_Variant>
AV-unprocessed.smi:72-93

> <Gold.Version>
5.8.1

> <Gold.Id.Protein>
6NUR|6NUR_protein|mol2

> <Gold.PLP.Fitness>
39.7436

> <Gold.PLP.PLP>
-19.4006

> <Gold.PLP.part.hbond>
-8.2925

> <Gold.PLP.part.metal>
0.0000

> <Gold.PLP.part.buried>
-1.2574

> <Gold.PLP.part.nonpolar>
-9.4492

> <Gold.PLP.part.repulsive>
0.0645

> <Gold.PLP.ligand.clash>
0.0000

> <Gold.PLP.ligand.torsion>
0.2220

> <Gold.PLP.Chemscore.Hbond>
5.9284

> <Gold.PLP.Chemscore.CHOScore>
1.0000

> <Gold.PLP.Chemscore.Metal>
0.0000

> <Gold.Chemscore.Hbonds>
donor molecule, donor type, donor heavy atom, donor atom, acceptor molecule, acceptor atom, score
      L1  H    10    27       P1  7957  0.58
      L1  H    12    28       P1  7957  1.00
      L1  H    14    29       P1  7949  0.22
      P1  H  6896  6908       L1    16  0.78
      P1  H  7989  7998       L1    10  0.05
      P1  H  8011  8017       L1    10  1.00
      P1  H 10752 10765       L1    14  1.00

> <Gold.PLP.Chemscore.Internal.Correction>
0.0016

> <Gold.Rescore>
     Score         DG    S(hbond)    S(metal)    S(lipo)     H(rot)  DE(clash)    DE(int)     intcor
     11.66     -12.07       4.07        0.00      28.95       4.06       0.00       0.41       ----

> <Gold.Chemscore.Fitness>
11.6609

> <Gold.Chemscore.DG>
-12.0708

> <Gold.Chemscore.ZeroCoef>
-5.4800

> <Gold.Chemscore.Hbond>
4.0710

> <Gold.Chemscore.Metal>
0.0000

> <Gold.Chemscore.Lipo>
28.9500

> <Gold.Chemscore.Internal_Hbond>
0.0000

> <Gold.Chemscore.DEClash>
0.0000

> <Gold.Chemscore.DEInternal>
0.4099

> <Gold.Chemscore.Rot>
4.0600

> <Gold.Chemscore.Internal.Correction>
   9.000000E+99

> <Gold.Chemscore.Hbonds>
donor molecule, donor type, donor heavy atom, donor atom, acceptor molecule, acceptor atom, score
      L1  H    10    27       P1  7957  0.58
      L1  H    12    28       P1  7957  0.91
      L1  H    14    29       P1  7949  0.01
      P1  H  6896  6908       L1    16  0.31
      P1  H  8011  8017       L1    10  0.69
      P1  H 10752 10765       L1    14  0.40

> <Gold.Chemscore.Hbond.Weighted>
-13.5973

> <Gold.Chemscore.Metal.Weighted>
-0.0000

> <Gold.Chemscore.Lipo.Weighted>
-3.3872

> <Gold.Chemscore.Internal_Hbond.Weighted>
0.0000

> <Gold.Chemscore.DEClash.Weighted>
0.0000

> <Gold.Chemscore.DEInternal.Weighted>
0.4099

> <Gold.Chemscore.Rot.Weighted>
10.3936

> <Gold.Chemscore.Internal.Correction.Weighted>
   9.000000E+99

> <Gold.Protein.RotatedTorsions>
[ 6907 6896 6895 6894 ] final -174.55 input  -60.11 | X-H torsion
[ 7974 7965 7964 7962 ] final -132.42 input  175.53 | X-H torsion
[ 8008 7997 7996 7995 ] final  -49.67 input   59.86 | X-H torsion
[ 10167 10162 10161 10158 ] final   85.02 input  -65.29 | X-H torsion
[ 10718 10713 10712 10709 ] final  -78.99 input   66.30 | X-H torsion
[ 10763 10752 10751 10750 ] final  155.89 input  -60.55 | X-H torsion
[ 11005 11000 10999 10996 ] final  -47.72 input  -57.11 | X-H torsion

> <Gold.Protein.ActiveResidues>
 VAL166  LYS551  ARG553  GLY616  TRP617  ASP618  TYR619  PRO620  LYS621  CYS622 
 ASP623  PHE694  ASN695  SER759  ASP760  ASP761  ALA762  ILE779  LEU786  VAL792 
 PHE793  MET794  SER795  GLU796  ALA797  LYS798  CYS799  TRP800  GLU811  SER814 

> <Gold.Protein.RotatedAtoms>
  151.5741  133.3386  159.2995 H   0  0  0  0  0  0  0  0  0  0  0  0  # atno 6907 bound_to 6896
  150.8351  134.7623  159.6897 H   0  0  0  0  0  0  0  0  0  0  0  0  # atno 6908 bound_to 6896
  152.4428  134.5562  159.9932 H   0  0  0  0  0  0  0  0  0  0  0  0  # atno 6909 bound_to 6896
  144.9287  140.7102  143.4919 H   0  0  0  0  0  0  0  0  0  0  0  0  # atno 7974 bound_to 7965
  154.4048  140.1291  156.4540 H   0  0  0  0  0  0  0  0  0  0  0  0  # atno 8008 bound_to 7997
  155.7338  140.3491  155.5052 H   0  0  0  0  0  0  0  0  0  0  0  0  # atno 8009 bound_to 7997
  155.9103  140.1034  157.1274 H   0  0  0  0  0  0  0  0  0  0  0  0  # atno 8010 bound_to 7997
  139.9020  144.6324  150.8627 H   0  0  0  0  0  0  0  0  0  0  0  0  # atno 10167 bound_to 10162
  156.0103  130.4533  150.3581 H   0  0  0  0  0  0  0  0  0  0  0  0  # atno 10718 bound_to 10713
  154.1757  135.2802  155.3067 H   0  0  0  0  0  0  0  0  0  0  0  0  # atno 10763 bound_to 10752
  154.6041  135.5520  153.7408 H   0  0  0  0  0  0  0  0  0  0  0  0  # atno 10764 bound_to 10752
  153.0152  135.6399  154.1896 H   0  0  0  0  0  0  0  0  0  0  0  0  # atno 10765 bound_to 10752
  141.0657  133.6694  156.3337 H   0  0  0  0  0  0  0  0  0  0  0  0  # atno 11005 bound_to 11000
  145.3177  139.1798  143.4604 LP  0  0  0  0  0  0  0  0  0  0  0  0  # atno 17320 bound_to 7965
  146.3237  140.3190  142.8632 LP  0  0  0  0  0  0  0  0  0  0  0  0  # atno 17321 bound_to 7965
  140.7705  143.3430  151.2169 LP  0  0  0  0  0  0  0  0  0  0  0  0  # atno 17342 bound_to 10162
  139.7017  143.9522  152.2908 LP  0  0  0  0  0  0  0  0  0  0  0  0  # atno 17343 bound_to 10162
  157.1670  131.0359  151.2813 LP  0  0  0  0  0  0  0  0  0  0  0  0  # atno 17370 bound_to 10713
  157.4261  130.7465  149.6952 LP  0  0  0  0  0  0  0  0  0  0  0  0  # atno 17371 bound_to 10713
  140.5777  134.5777  157.5472 LP  0  0  0  0  0  0  0  0  0  0  0  0  # atno 17394 bound_to 11000
  139.9474  134.7677  156.0528 LP  0  0  0  0  0  0  0  0  0  0  0  0  # atno 17395 bound_to 11000

$$$$
