AV-unprocessed.smi:2369|AV-procd|sdf|9434|dock1
  -GOLD-   2272013 63D 1   1.00000     0.00000
 Structure written by MMmdl.
 40 41  0  0  0  0  0  0  0  0  1 V2000
  151.9926  145.9674  160.3474 C   0  0  0  0  0  0  0  0  0  0  0  0
  152.0064  144.5752  159.7515 C   0  0  0  0  0  0  0  0  0  0  0  0
  152.7841  143.5513  160.3254 C   0  0  0  0  0  0  0  0  0  0  0  0
  152.7561  142.2783  159.7224 C   0  0  0  0  0  0  0  0  0  0  0  0
  153.5666  141.1308  160.2874 C   0  0  0  0  0  0  0  0  0  0  0  0
  152.0242  141.9997  158.6226 N   0  0  0  0  0  0  0  0  0  0  0  0
  151.2725  142.9787  158.0604 C   0  0  0  0  0  0  0  0  0  0  0  0
  150.4656  142.7884  156.9074 N   0  0  0  0  0  0  0  0  0  0  0  0
  150.1627  141.6349  156.2862 C   0  0  0  0  0  0  0  0  0  0  0  0
  150.5698  140.5202  156.6155 O   0  0  0  0  0  0  0  0  0  0  0  0
  149.3572  141.8480  155.2353 N   0  0  0  0  0  0  0  0  0  0  0  0
  148.8659  140.8177  154.3248 C   0  0  2  0  0  0  0  0  0  0  0  0
  147.6916  141.3612  153.4872 C   0  0  0  0  0  0  0  0  0  0  0  0
  147.1034  140.2776  152.5666 C   0  0  0  0  0  0  0  0  0  0  0  0
  146.6981  139.0092  153.3407 C   0  0  2  0  0  0  0  0  0  0  0  0
  145.5654  139.2728  154.1451 O   0  0  0  0  0  0  0  0  0  0  0  0
  147.8546  138.4847  154.2125 C   0  0  0  0  0  0  0  0  0  0  0  0
  148.4347  139.5770  155.1284 C   0  0  0  0  0  0  0  0  0  0  0  0
  151.2399  144.2821  158.6055 C   0  0  0  0  0  0  0  0  0  0  0  0
  152.5319  145.9978  161.2946 H   0  0  0  0  0  0  0  0  0  0  0  0
  150.9680  146.2927  160.5285 H   0  0  0  0  0  0  0  0  0  0  0  0
  152.4629  146.6743  159.6636 H   0  0  0  0  0  0  0  0  0  0  0  0
  153.3857  143.7358  161.2034 H   0  0  0  0  0  0  0  0  0  0  0  0
  153.9953  141.3886  161.2562 H   0  0  0  0  0  0  0  0  0  0  0  0
  154.3813  140.8750  159.6097 H   0  0  0  0  0  0  0  0  0  0  0  0
  152.9387  140.2489  160.4192 H   0  0  0  0  0  0  0  0  0  0  0  0
  150.0791  143.6294  156.5055 H   0  0  0  0  0  0  0  0  0  0  0  0
  149.0753  142.7970  155.0379 H   0  0  0  0  0  0  0  0  0  0  0  0
  149.6704  140.5181  153.6502 H   0  0  0  0  0  0  0  0  0  0  0  0
  146.9104  141.7394  154.1482 H   0  0  0  0  0  0  0  0  0  0  0  0
  148.0203  142.2094  152.8857 H   0  0  0  0  0  0  0  0  0  0  0  0
  146.2490  140.6757  152.0180 H   0  0  0  0  0  0  0  0  0  0  0  0
  147.8488  140.0123  151.8157 H   0  0  0  0  0  0  0  0  0  0  0  0
  146.4078  138.2357  152.6290 H   0  0  0  0  0  0  0  0  0  0  0  0
  144.9922  139.8580  153.6737 H   0  0  0  0  0  0  0  0  0  0  0  0
  147.5249  137.6318  154.8070 H   0  0  0  0  0  0  0  0  0  0  0  0
  148.6476  138.1124  153.5623 H   0  0  0  0  0  0  0  0  0  0  0  0
  149.2857  139.1758  155.6802 H   0  0  0  0  0  0  0  0  0  0  0  0
  147.6903  139.8589  155.8747 H   0  0  0  0  0  0  0  0  0  0  0  0
  150.6362  145.0529  158.1485 H   0  0  0  0  0  0  0  0  0  0  0  0
  1  2  1  0  0  0  0
  1 20  1  0  0  0  0
  1 21  1  0  0  0  0
  1 22  1  0  0  0  0
  2 19  1  0  0  0  0
  2  3  2  0  0  0  0
  3  4  1  0  0  0  0
  3 23  1  0  0  0  0
  4  5  1  0  0  0  0
  4  6  2  0  0  0  0
  5 24  1  0  0  0  0
  5 25  1  0  0  0  0
  5 26  1  0  0  0  0
  6  7  1  0  0  0  0
  7  8  1  0  0  0  0
  7 19  2  0  0  0  0
  8  9  1  0  0  0  0
  8 27  1  0  0  0  0
  9 10  2  0  0  0  0
  9 11  1  0  0  0  0
 11 12  1  0  0  0  0
 11 28  1  0  0  0  0
 12 18  1  0  0  0  0
 12 13  1  0  0  0  0
 12 29  1  0  0  0  0
 13 14  1  0  0  0  0
 13 30  1  0  0  0  0
 13 31  1  0  0  0  0
 14 15  1  0  0  0  0
 14 32  1  0  0  0  0
 14 33  1  0  0  0  0
 15 16  1  0  0  0  0
 15 17  1  0  0  0  0
 15 34  1  0  0  0  0
 16 35  1  0  0  0  0
 17 18  1  0  0  0  0
 17 36  1  0  0  0  0
 17 37  1  0  0  0  0
 18 38  1  0  0  0  0
 18 39  1  0  0  0  0
 19 40  1  0  0  0  0
M  END
> <s_m_source_file>
AV-unprocessed.smi

> <i_m_source_file_index>
2369

> <i_lp_mmshare_version>
43012

> <i_f3d_flags>
0

> <s_epik_input>
W0NIM11jMVtjSF1jKFtDSDNdKW5jKFtjSF0xKVtOSF1DKD1PKVtOSF1bQ0BASF0yW0NIMl1bQ0gyXVtDQEBIXShbT0hdKVtDSDJdW0NIMl0y

> <s_epik_cmdline>
J2VwaWtfcHl0aG9uJywgJy1waCcsICc3LjAnLCAnLXRuJywgJzgnLCAnLW1hJywgJzIwMCcsICctbWV0YWxfYmluZGluZycsICctaW1hZScsICc8aW5maWxlLm1hZT4nLCAnLW9tYWUnLCAnPG91dGZpbGUubWFlPic=

> <r_lp_tautomer_probability>
1

> <r_epik_Ionization_Penalty>
0.000274852

> <r_epik_Ionization_Penalty_Charging>
0

> <r_epik_Ionization_Penalty_Neutral>
0.000274852

> <r_epik_State_Penalty>
-0

> <r_epik_Charging_Adjusted_Penalty>
0

> <i_epik_Tot_Q>
0

> <i_epik_Tot_abs_Q>
0

> <r_epik_Metal_State_Penalty>
-0

> <b_epik_Metal_Only>
0

> <s_lp_Force_Field>
OPLS_2005

> <r_lp_Energy>
12.6332

> <b_lp_Chiralities_Consistent>
1

> <s_lp_Variant>
AV-unprocessed.smi:2369-2

> <Gold.Version>
5.8.1

> <Gold.Id.Protein>
6NUR|6NUR_protein|mol2

> <Gold.PLP.Fitness>
49.0073

> <Gold.PLP.PLP>
-40.4662

> <Gold.PLP.part.hbond>
-3.0000

> <Gold.PLP.part.metal>
0.0000

> <Gold.PLP.part.buried>
-4.2277

> <Gold.PLP.part.nonpolar>
-34.9986

> <Gold.PLP.part.repulsive>
0.2258

> <Gold.PLP.ligand.clash>
0.0000

> <Gold.PLP.ligand.torsion>
0.2308

> <Gold.PLP.Chemscore.Hbond>
3.0000

> <Gold.PLP.Chemscore.CHOScore>
0.0000

> <Gold.PLP.Chemscore.Metal>
0.0000

> <Gold.Chemscore.Hbonds>
donor molecule, donor type, donor heavy atom, donor atom, acceptor molecule, acceptor atom, score
      L1  H     8    27       P1  8028  1.00
      L1  H    11    28       P1  8028  1.00
      L1  H    16    35       P1 10175  1.00

> <Gold.PLP.Chemscore.Internal.Correction>
0.0027

> <Gold.Rescore>
     Score         DG    S(hbond)    S(metal)    S(lipo)     H(rot)  DE(clash)    DE(int)     intcor
     20.89     -23.95       2.93        0.00     105.24       1.42       0.20       2.86       ----

> <Gold.Chemscore.Fitness>
20.8883

> <Gold.Chemscore.DG>
-23.9517

> <Gold.Chemscore.ZeroCoef>
-5.4800

> <Gold.Chemscore.Hbond>
2.9333

> <Gold.Chemscore.Metal>
0.0000

> <Gold.Chemscore.Lipo>
105.2392

> <Gold.Chemscore.Internal_Hbond>
0.0000

> <Gold.Chemscore.DEClash>
0.2006

> <Gold.Chemscore.DEInternal>
2.8628

> <Gold.Chemscore.Rot>
1.4213

> <Gold.Chemscore.Internal.Correction>
   9.000000E+99

> <Gold.Chemscore.Hbonds>
donor molecule, donor type, donor heavy atom, donor atom, acceptor molecule, acceptor atom, score
      L1  H     8    27       P1  8028  1.00
      L1  H    11    28       P1  8028  0.89
      L1  H    16    35       P1 10175  1.00

> <Gold.Chemscore.Hbond.Weighted>
-9.7973

> <Gold.Chemscore.Metal.Weighted>
-0.0000

> <Gold.Chemscore.Lipo.Weighted>
-12.3130

> <Gold.Chemscore.Internal_Hbond.Weighted>
0.0000

> <Gold.Chemscore.DEClash.Weighted>
0.2006

> <Gold.Chemscore.DEInternal.Weighted>
2.8628

> <Gold.Chemscore.Rot.Weighted>
3.6386

> <Gold.Chemscore.Internal.Correction.Weighted>
   9.000000E+99

> <Gold.Protein.RotatedTorsions>
[ 6907 6896 6895 6894 ] final   63.22 input  -60.11 | X-H torsion
[ 7974 7965 7964 7962 ] final -113.78 input  175.53 | X-H torsion
[ 8008 7997 7996 7995 ] final   82.50 input   59.86 | X-H torsion
[ 10167 10162 10161 10158 ] final  -61.04 input  -65.29 | X-H torsion
[ 10718 10713 10712 10709 ] final  -52.67 input   66.30 | X-H torsion
[ 10763 10752 10751 10750 ] final    7.94 input  -60.55 | X-H torsion
[ 11005 11000 10999 10996 ] final   55.09 input  -57.11 | X-H torsion

> <Gold.Protein.ActiveResidues>
 VAL166  LYS551  ARG553  GLY616  TRP617  ASP618  TYR619  PRO620  LYS621  CYS622 
 ASP623  PHE694  ASN695  SER759  ASP760  ASP761  ALA762  ILE779  LEU786  VAL792 
 PHE793  MET794  SER795  GLU796  ALA797  LYS798  CYS799  TRP800  GLU811  SER814 

> <Gold.Protein.RotatedAtoms>
  152.4235  134.5911  159.9974 H   0  0  0  0  0  0  0  0  0  0  0  0  # atno 6907 bound_to 6896
  151.6054  133.3346  159.3064 H   0  0  0  0  0  0  0  0  0  0  0  0  # atno 6908 bound_to 6896
  150.8124  134.7324  159.6765 H   0  0  0  0  0  0  0  0  0  0  0  0  # atno 6909 bound_to 6896
  145.1279  140.8708  143.3775 H   0  0  0  0  0  0  0  0  0  0  0  0  # atno 7974 bound_to 7965
  155.9114  140.3427  155.6102 H   0  0  0  0  0  0  0  0  0  0  0  0  # atno 8008 bound_to 7997
  155.7382  140.0804  157.2276 H   0  0  0  0  0  0  0  0  0  0  0  0  # atno 8009 bound_to 7997
  154.4056  140.1575  156.2574 H   0  0  0  0  0  0  0  0  0  0  0  0  # atno 8010 bound_to 7997
  140.6032  143.2366  151.5881 H   0  0  0  0  0  0  0  0  0  0  0  0  # atno 10167 bound_to 10162
  156.1601  130.4150  149.9806 H   0  0  0  0  0  0  0  0  0  0  0  0  # atno 10718 bound_to 10713
  153.2306  135.6892  153.7895 H   0  0  0  0  0  0  0  0  0  0  0  0  # atno 10763 bound_to 10752
  153.7061  135.3290  155.3236 H   0  0  0  0  0  0  0  0  0  0  0  0  # atno 10764 bound_to 10752
  154.8312  135.4579  154.1189 H   0  0  0  0  0  0  0  0  0  0  0  0  # atno 10765 bound_to 10752
  140.0634  134.5570  155.9126 H   0  0  0  0  0  0  0  0  0  0  0  0  # atno 11005 bound_to 11000
  145.0667  139.3063  143.5853 LP  0  0  0  0  0  0  0  0  0  0  0  0  # atno 17320 bound_to 7965
  146.3516  140.0128  142.8665 LP  0  0  0  0  0  0  0  0  0  0  0  0  # atno 17321 bound_to 7965
  139.5306  144.2928  152.1138 LP  0  0  0  0  0  0  0  0  0  0  0  0  # atno 17342 bound_to 10162
  140.2112  144.4560  150.6385 LP  0  0  0  0  0  0  0  0  0  0  0  0  # atno 17343 bound_to 10162
  156.7638  130.9161  151.3642 LP  0  0  0  0  0  0  0  0  0  0  0  0  # atno 17370 bound_to 10713
  157.6726  130.9065  150.0075 LP  0  0  0  0  0  0  0  0  0  0  0  0  # atno 17371 bound_to 10713
  141.1983  133.6600  156.5784 LP  0  0  0  0  0  0  0  0  0  0  0  0  # atno 17394 bound_to 11000
  140.3735  134.7585  157.4614 LP  0  0  0  0  0  0  0  0  0  0  0  0  # atno 17395 bound_to 11000

$$$$
