AV-unprocessed.smi:2222|AV-procd|sdf|8987|dock1
  -GOLD-   2272012203D 1   1.00000     0.00000
 Structure written by MMmdl.
 34 35  0  0  0  0  0  0  0  0  1 V2000
  146.4798  142.2325  154.2455 C   0  0  0  0  0  0  0  0  0  0  0  0
  147.5662  142.0258  155.1364 O   0  0  0  0  0  0  0  0  0  0  0  0
  148.4038  140.9513  154.9078 C   0  0  0  0  0  0  0  0  0  0  0  0
  147.9808  139.7425  154.2982 C   0  0  0  0  0  0  0  0  0  0  0  0
  148.9085  138.7042  154.1059 C   0  0  0  0  0  0  0  0  0  0  0  0
  150.2329  138.9094  154.5312 C   0  0  0  0  0  0  0  0  0  0  0  0
  151.2860  137.8365  154.3525 C   0  0  0  0  0  0  0  0  0  0  0  0
  150.6466  140.0535  155.1118 N   0  0  0  0  0  0  0  0  0  0  0  0
  149.7617  141.0629  155.3042 C   0  0  0  0  0  0  0  0  0  0  0  0
  150.1204  142.2993  155.9079 N   0  0  0  0  0  0  0  0  0  0  0  0
  151.0067  142.5296  156.8969 C   0  0  0  0  0  0  0  0  0  0  0  0
  151.6386  141.6563  157.4889 O   0  0  0  0  0  0  0  0  0  0  0  0
  151.1322  143.8254  157.2353 N   0  0  0  0  0  0  0  0  0  0  0  0
  151.9823  144.3958  158.2388 C   0  0  2  0  0  0  0  0  0  0  0  0
  152.0872  143.6529  159.5530 C   0  0  0  0  0  0  0  0  0  0  0  0
  151.3580  144.9692  159.4977 C   0  0  2  0  0  0  0  0  0  0  0  0
  149.8560  145.0307  159.6965 C   0  0  0  0  0  0  0  0  0  0  0  0
  145.9240  143.1167  154.5569 H   0  0  0  0  0  0  0  0  0  0  0  0
  145.7886  141.3887  154.2558 H   0  0  0  0  0  0  0  0  0  0  0  0
  146.8274  142.4042  153.2258 H   0  0  0  0  0  0  0  0  0  0  0  0
  146.9630  139.5897  153.9734 H   0  0  0  0  0  0  0  0  0  0  0  0
  148.6070  137.7762  153.6424 H   0  0  0  0  0  0  0  0  0  0  0  0
  150.8445  136.9033  154.0018 H   0  0  0  0  0  0  0  0  0  0  0  0
  151.7922  137.6381  155.2976 H   0  0  0  0  0  0  0  0  0  0  0  0
  152.0311  138.1569  153.6239 H   0  0  0  0  0  0  0  0  0  0  0  0
  149.6532  143.1114  155.5320 H   0  0  0  0  0  0  0  0  0  0  0  0
  150.5101  144.4715  156.7716 H   0  0  0  0  0  0  0  0  0  0  0  0
  152.9105  144.8576  157.9054 H   0  0  0  0  0  0  0  0  0  0  0  0
  151.4938  142.7482  159.6734 H   0  0  0  0  0  0  0  0  0  0  0  0
  153.0571  143.6391  160.0461 H   0  0  0  0  0  0  0  0  0  0  0  0
  151.8812  145.8217  159.9268 H   0  0  0  0  0  0  0  0  0  0  0  0
  149.3719  144.1264  159.3268 H   0  0  0  0  0  0  0  0  0  0  0  0
  149.4438  145.8886  159.1651 H   0  0  0  0  0  0  0  0  0  0  0  0
  149.6247  145.1347  160.7566 H   0  0  0  0  0  0  0  0  0  0  0  0
  1  2  1  0  0  0  0
  1 18  1  0  0  0  0
  1 19  1  0  0  0  0
  1 20  1  0  0  0  0
  2  3  1  0  0  0  0
  3  9  1  0  0  0  0
  3  4  2  0  0  0  0
  4  5  1  0  0  0  0
  4 21  1  0  0  0  0
  5  6  2  0  0  0  0
  5 22  1  0  0  0  0
  6  7  1  0  0  0  0
  6  8  1  0  0  0  0
  7 23  1  0  0  0  0
  7 24  1  0  0  0  0
  7 25  1  0  0  0  0
  8  9  2  0  0  0  0
  9 10  1  0  0  0  0
 10 11  1  0  0  0  0
 10 26  1  0  0  0  0
 11 12  2  0  0  0  0
 11 13  1  0  0  0  0
 13 14  1  0  0  0  0
 13 27  1  0  0  0  0
 14 16  1  0  0  0  0
 14 15  1  0  0  0  0
 14 28  1  0  0  0  0
 15 16  1  0  0  0  0
 15 29  1  0  0  0  0
 15 30  1  0  0  0  0
 16 17  1  0  0  0  0
 16 31  1  0  0  0  0
 17 32  1  0  0  0  0
 17 33  1  0  0  0  0
 17 34  1  0  0  0  0
M  END
> <s_m_source_file>
AV-unprocessed.smi

> <i_m_source_file_index>
2222

> <i_lp_mmshare_version>
43012

> <i_f3d_flags>
0

> <s_epik_input>
W0NIM11PYzFbY0hdW2NIXWMoW0NIM10pbmMxW05IXUMoPU8pW05IXVtDQEBIXTJbQ0gyXVtDQEhdMltDSDNd

> <s_epik_cmdline>
J2VwaWtfcHl0aG9uJywgJy1waCcsICc3LjAnLCAnLXRuJywgJzgnLCAnLW1hJywgJzIwMCcsICctbWV0YWxfYmluZGluZycsICctaW1hZScsICc8aW5maWxlLm1hZT4nLCAnLW9tYWUnLCAnPG91dGZpbGUubWFlPic=

> <r_lp_tautomer_probability>
1

> <r_epik_Ionization_Penalty>
6.59103e-05

> <r_epik_Ionization_Penalty_Charging>
0

> <r_epik_Ionization_Penalty_Neutral>
6.59103e-05

> <r_epik_State_Penalty>
-0

> <r_epik_Charging_Adjusted_Penalty>
0

> <i_epik_Tot_Q>
0

> <i_epik_Tot_abs_Q>
0

> <r_epik_Metal_State_Penalty>
-0

> <b_epik_Metal_Only>
0

> <s_lp_Force_Field>
OPLS_2005

> <r_lp_Energy>
34.1661

> <b_lp_Chiralities_Consistent>
1

> <s_lp_Variant>
AV-unprocessed.smi:2222-3

> <Gold.Version>
5.8.1

> <Gold.Id.Protein>
6NUR|6NUR_protein|mol2

> <Gold.PLP.Fitness>
45.9253

> <Gold.PLP.PLP>
-38.6413

> <Gold.PLP.part.hbond>
-3.0000

> <Gold.PLP.part.metal>
0.0000

> <Gold.PLP.part.buried>
-6.0024

> <Gold.PLP.part.nonpolar>
-32.0644

> <Gold.PLP.part.repulsive>
0.9161

> <Gold.PLP.ligand.clash>
0.0000

> <Gold.PLP.ligand.torsion>
0.7935

> <Gold.PLP.Chemscore.Hbond>
2.9420

> <Gold.PLP.Chemscore.CHOScore>
0.0000

> <Gold.PLP.Chemscore.Metal>
0.0000

> <Gold.Chemscore.Hbonds>
donor molecule, donor type, donor heavy atom, donor atom, acceptor molecule, acceptor atom, score
      L1  H    10    26       P1  8028  1.00
      L1  H    13    27       P1  8028  0.98
      P1  H  7989  7998       L1     8  0.75

> <Gold.PLP.Chemscore.Internal.Correction>
0.0450

> <Gold.Rescore>
     Score         DG    S(hbond)    S(metal)    S(lipo)     H(rot)  DE(clash)    DE(int)     intcor
     17.48     -19.59       2.36        0.00      79.86       1.22       0.25       1.87       ----

> <Gold.Chemscore.Fitness>
17.4767

> <Gold.Chemscore.DG>
-19.5907

> <Gold.Chemscore.ZeroCoef>
-5.4800

> <Gold.Chemscore.Hbond>
2.3598

> <Gold.Chemscore.Metal>
0.0000

> <Gold.Chemscore.Lipo>
79.8628

> <Gold.Chemscore.Internal_Hbond>
0.0000

> <Gold.Chemscore.DEClash>
0.2461

> <Gold.Chemscore.DEInternal>
1.8679

> <Gold.Chemscore.Rot>
1.2168

> <Gold.Chemscore.Internal.Correction>
   9.000000E+99

> <Gold.Chemscore.Hbonds>
donor molecule, donor type, donor heavy atom, donor atom, acceptor molecule, acceptor atom, score
      L1  H    10    26       P1  8028  0.98
      L1  H    13    27       P1  8028  0.87
      P1  H  7989  7998       L1     8  0.03

> <Gold.Chemscore.Hbond.Weighted>
-7.8817

> <Gold.Chemscore.Metal.Weighted>
-0.0000

> <Gold.Chemscore.Lipo.Weighted>
-9.3440

> <Gold.Chemscore.Internal_Hbond.Weighted>
0.0000

> <Gold.Chemscore.DEClash.Weighted>
0.2461

> <Gold.Chemscore.DEInternal.Weighted>
1.8679

> <Gold.Chemscore.Rot.Weighted>
3.1150

> <Gold.Chemscore.Internal.Correction.Weighted>
   9.000000E+99

> <Gold.Protein.RotatedTorsions>
[ 6907 6896 6895 6894 ] final  161.43 input  -60.11 | X-H torsion
[ 7974 7965 7964 7962 ] final  146.60 input  175.53 | X-H torsion
[ 8008 7997 7996 7995 ] final   52.79 input   59.86 | X-H torsion
[ 10167 10162 10161 10158 ] final  138.66 input  -65.29 | X-H torsion
[ 10718 10713 10712 10709 ] final  150.01 input   66.30 | X-H torsion
[ 10763 10752 10751 10750 ] final  -23.91 input  -60.55 | X-H torsion
[ 11005 11000 10999 10996 ] final -131.68 input  -57.11 | X-H torsion

> <Gold.Protein.ActiveResidues>
 VAL166  LYS551  ARG553  GLY616  TRP617  ASP618  TYR619  PRO620  LYS621  CYS622 
 ASP623  PHE694  ASN695  SER759  ASP760  ASP761  ALA762  ILE779  LEU786  VAL792 
 PHE793  MET794  SER795  GLU796  ALA797  LYS798  CYS799  TRP800  GLU811  SER814 

> <Gold.Protein.RotatedAtoms>
  151.9558  133.3680  159.4016 H   0  0  0  0  0  0  0  0  0  0  0  0  # atno 6907 bound_to 6896
  150.6973  134.4293  159.5250 H   0  0  0  0  0  0  0  0  0  0  0  0  # atno 6908 bound_to 6896
  152.1973  134.8619  160.0562 H   0  0  0  0  0  0  0  0  0  0  0  0  # atno 6909 bound_to 6896
  144.8658  139.5926  143.5910 H   0  0  0  0  0  0  0  0  0  0  0  0  # atno 7974 bound_to 7965
  155.4576  140.3460  155.4308 H   0  0  0  0  0  0  0  0  0  0  0  0  # atno 8008 bound_to 7997
  156.1181  140.1479  156.9273 H   0  0  0  0  0  0  0  0  0  0  0  0  # atno 8009 bound_to 7997
  154.4803  140.0872  156.7341 H   0  0  0  0  0  0  0  0  0  0  0  0  # atno 8010 bound_to 7997
  139.5103  144.6340  151.5744 H   0  0  0  0  0  0  0  0  0  0  0  0  # atno 10167 bound_to 10162
  157.2889  131.0849  151.1477 H   0  0  0  0  0  0  0  0  0  0  0  0  # atno 10718 bound_to 10713
  153.6753  135.6969  153.5134 H   0  0  0  0  0  0  0  0  0  0  0  0  # atno 10763 bound_to 10752
  153.2526  135.4270  155.0812 H   0  0  0  0  0  0  0  0  0  0  0  0  # atno 10764 bound_to 10752
  154.8415  135.3535  154.6297 H   0  0  0  0  0  0  0  0  0  0  0  0  # atno 10765 bound_to 10752
  140.9237  134.1410  157.4293 H   0  0  0  0  0  0  0  0  0  0  0  0  # atno 11005 bound_to 11000
  146.2894  139.7096  142.9172 LP  0  0  0  0  0  0  0  0  0  0  0  0  # atno 17320 bound_to 7965
  145.4225  141.0408  143.2956 LP  0  0  0  0  0  0  0  0  0  0  0  0  # atno 17321 bound_to 7965
  140.6083  143.9483  150.6434 LP  0  0  0  0  0  0  0  0  0  0  0  0  # atno 17342 bound_to 10162
  140.2718  143.3451  152.1231 LP  0  0  0  0  0  0  0  0  0  0  0  0  # atno 17343 bound_to 10162
  157.2881  130.6783  149.6100 LP  0  0  0  0  0  0  0  0  0  0  0  0  # atno 17370 bound_to 10713
  155.9666  130.4429  150.5400 LP  0  0  0  0  0  0  0  0  0  0  0  0  # atno 17371 bound_to 10713
  139.8781  134.9981  156.5880 LP  0  0  0  0  0  0  0  0  0  0  0  0  # atno 17394 bound_to 11000
  140.7954  133.8548  155.8681 LP  0  0  0  0  0  0  0  0  0  0  0  0  # atno 17395 bound_to 11000

$$$$
