AV-unprocessed.smi:1055|AV-procd|sdf|4627|dock8
  -GOLD-   22720 3133D 1   1.00000     0.00000
 Structure written by MMmdl.
 51 52  0  0  0  0  0  0  0  0  2 V2000
  143.3797  132.3466  150.1126 C   0  0  0  0  0  0  0  0  0  0  0  0
  144.4450  132.1287  150.9015 C   0  0  0  0  0  0  0  0  0  0  0  0
  145.4582  131.0398  150.6016 C   0  0  0  0  0  0  0  0  0  0  0  0
  144.7065  132.9532  152.1519 C   0  0  0  0  0  0  0  0  0  0  0  0
  146.1158  132.8335  152.6013 N   0  3  2  0  0  0  0  0  0  0  0  0
  146.3240  133.3996  153.9580 C   0  0  0  0  0  0  0  0  0  0  0  0
  147.7534  133.1275  154.4618 C   0  0  0  0  0  0  0  0  0  0  0  0
  148.8201  133.6500  153.4839 C   0  0  2  0  0  0  0  0  0  0  0  0
  148.8655  135.1118  153.5114 N   0  0  0  0  0  0  0  0  0  0  0  0
  149.3277  135.8541  154.5279 C   0  0  0  0  0  0  0  0  0  0  0  0
  149.7885  135.3739  155.5630 O   0  0  0  0  0  0  0  0  0  0  0  0
  149.1993  137.1665  154.2693 N   0  0  0  0  0  0  0  0  0  0  0  0
  149.5930  138.2648  155.0800 C   0  0  0  0  0  0  0  0  0  0  0  0
  150.1569  137.9925  156.3409 C   0  0  0  0  0  0  0  0  0  0  0  0
  150.5380  139.0626  157.1721 C   0  0  0  0  0  0  0  0  0  0  0  0
  150.3358  140.3920  156.7253 C   0  0  0  0  0  0  0  0  0  0  0  0
  150.7029  141.5019  157.5203 N   0  0  0  0  0  0  0  0  0  0  0  0
  150.0354  142.7854  157.3423 C   0  0  0  0  0  0  0  0  0  0  0  0
  151.7743  141.3687  158.5024 C   0  0  0  0  0  0  0  0  0  0  0  0
  149.7774  140.6497  155.5170 N   0  0  0  0  0  0  0  0  0  0  0  0
  149.4159  139.6214  154.7217 C   0  0  0  0  0  0  0  0  0  0  0  0
  148.5382  133.1071  152.0685 C   0  0  0  0  0  0  0  0  0  0  0  0
  147.0915  133.3807  151.6217 C   0  0  0  0  0  0  0  0  0  0  0  0
  143.2056  131.7507  149.2282 H   0  0  0  0  0  0  0  0  0  0  0  0
  142.6644  133.1244  150.3371 H   0  0  0  0  0  0  0  0  0  0  0  0
  145.5156  130.3367  151.4330 H   0  0  0  0  0  0  0  0  0  0  0  0
  146.4486  131.4682  150.4453 H   0  0  0  0  0  0  0  0  0  0  0  0
  145.1878  130.4816  149.7047 H   0  0  0  0  0  0  0  0  0  0  0  0
  144.4596  134.0029  151.9839 H   0  0  0  0  0  0  0  0  0  0  0  0
  144.0320  132.5930  152.9299 H   0  0  0  0  0  0  0  0  0  0  0  0
  146.1222  134.4719  153.9420 H   0  0  0  0  0  0  0  0  0  0  0  0
  145.6110  132.9554  154.6539 H   0  0  0  0  0  0  0  0  0  0  0  0
  147.8946  133.5699  155.4488 H   0  0  0  0  0  0  0  0  0  0  0  0
  147.8848  132.0524  154.5914 H   0  0  0  0  0  0  0  0  0  0  0  0
  149.7922  133.2795  153.8150 H   0  0  0  0  0  0  0  0  0  0  0  0
  148.4969  135.5948  152.7052 H   0  0  0  0  0  0  0  0  0  0  0  0
  148.7146  137.4093  153.4176 H   0  0  0  0  0  0  0  0  0  0  0  0
  150.3029  136.9739  156.6699 H   0  0  0  0  0  0  0  0  0  0  0  0
  150.9770  138.8413  158.1331 H   0  0  0  0  0  0  0  0  0  0  0  0
  150.1675  143.1482  156.3226 H   0  0  0  0  0  0  0  0  0  0  0  0
  150.4388  143.5398  158.0180 H   0  0  0  0  0  0  0  0  0  0  0  0
  148.9681  142.6945  157.5459 H   0  0  0  0  0  0  0  0  0  0  0  0
  152.7149  141.1186  158.0107 H   0  0  0  0  0  0  0  0  0  0  0  0
  151.5402  140.5834  159.2220 H   0  0  0  0  0  0  0  0  0  0  0  0
  151.9236  142.2948  159.0577 H   0  0  0  0  0  0  0  0  0  0  0  0
  148.9557  139.9112  153.7900 H   0  0  0  0  0  0  0  0  0  0  0  0
  149.2384  133.5279  151.3460 H   0  0  0  0  0  0  0  0  0  0  0  0
  148.7127  132.0302  152.0597 H   0  0  0  0  0  0  0  0  0  0  0  0
  146.9344  132.9292  150.6419 H   0  0  0  0  0  0  0  0  0  0  0  0
  146.9288  134.4531  151.5019 H   0  0  0  0  0  0  0  0  0  0  0  0
  146.3027  131.8438  152.6783 H   0  0  0  0  0  0  0  0  0  0  0  0
  1  2  2  0  0  0  0
  1 24  1  0  0  0  0
  1 25  1  0  0  0  0
  2  3  1  0  0  0  0
  2  4  1  0  0  0  0
  3 26  1  0  0  0  0
  3 27  1  0  0  0  0
  3 28  1  0  0  0  0
  4  5  1  0  0  0  0
  4 29  1  0  0  0  0
  4 30  1  0  0  0  0
  5 23  1  0  0  0  0
  5  6  1  0  0  0  0
  5 51  1  0  0  0  0
  6  7  1  0  0  0  0
  6 31  1  0  0  0  0
  6 32  1  0  0  0  0
  7  8  1  0  0  0  0
  7 33  1  0  0  0  0
  7 34  1  0  0  0  0
  8  9  1  0  0  0  0
  8 22  1  0  0  0  0
  8 35  1  0  0  0  0
  9 10  1  0  0  0  0
  9 36  1  0  0  0  0
 10 11  2  0  0  0  0
 10 12  1  0  0  0  0
 12 13  1  0  0  0  0
 12 37  1  0  0  0  0
 13 21  1  0  0  0  0
 13 14  2  0  0  0  0
 14 15  1  0  0  0  0
 14 38  1  0  0  0  0
 15 16  2  0  0  0  0
 15 39  1  0  0  0  0
 16 17  1  0  0  0  0
 16 20  1  0  0  0  0
 17 18  1  0  0  0  0
 17 19  1  0  0  0  0
 18 40  1  0  0  0  0
 18 41  1  0  0  0  0
 18 42  1  0  0  0  0
 19 43  1  0  0  0  0
 19 44  1  0  0  0  0
 19 45  1  0  0  0  0
 20 21  2  0  0  0  0
 21 46  1  0  0  0  0
 22 23  1  0  0  0  0
 22 47  1  0  0  0  0
 22 48  1  0  0  0  0
 23 49  1  0  0  0  0
 23 50  1  0  0  0  0
M  CHG  1   5   1
M  END
> <s_m_source_file>
AV-unprocessed.smi

> <i_m_source_file_index>
1055

> <i_lp_mmshare_version>
43012

> <i_f3d_flags>
0

> <s_epik_input>
W0NIMl09QyhbQ0gzXSlbQ0gyXU4xW0NIMl1bQ0gyXVtDSF0oW0NIMl1bQ0gyXTEpW05IXUMoPU8pW05IXWMyW2NIXVtjSF1jKE4oW0NIM10pW0NIM10pbltjSF0y

> <s_epik_cmdline>
J2VwaWtfcHl0aG9uJywgJy1waCcsICc3LjAnLCAnLXRuJywgJzgnLCAnLW1hJywgJzIwMCcsICctbWV0YWxfYmluZGluZycsICctaW1hZScsICc8aW5maWxlLm1hZT4nLCAnLW9tYWUnLCAnPG91dGZpbGUubWFlPic=

> <r_lp_tautomer_probability>
1

> <r_epik_Ionization_Penalty>
0.534133

> <r_epik_Ionization_Penalty_Charging>
0.0193505

> <r_epik_Ionization_Penalty_Neutral>
0.514782

> <r_epik_State_Penalty>
0.557749

> <r_epik_Charging_Adjusted_Penalty>
0.5771

> <i_epik_Tot_Q>
1

> <i_epik_Tot_abs_Q>
1

> <r_epik_Metal_State_Penalty>
0.306227

> <b_epik_Metal_Only>
0

> <s_lp_Force_Field>
OPLS_2005

> <r_lp_Energy>
19.9376

> <b_lp_Chiralities_Consistent>
1

> <s_lp_Variant>
AV-unprocessed.smi:1055-4

> <Gold.Version>
5.8.1

> <Gold.Id.Protein>
6NUR|6NUR_protein|mol2

> <Gold.PLP.Fitness>
44.5915

> <Gold.PLP.PLP>
-35.7093

> <Gold.PLP.part.hbond>
-3.0000

> <Gold.PLP.part.metal>
0.0000

> <Gold.PLP.part.buried>
-4.3353

> <Gold.PLP.part.nonpolar>
-28.5086

> <Gold.PLP.part.repulsive>
0.0948

> <Gold.PLP.ligand.clash>
0.0000

> <Gold.PLP.ligand.torsion>
0.6943

> <Gold.PLP.Chemscore.Hbond>
2.4000

> <Gold.PLP.Chemscore.CHOScore>
1.0000

> <Gold.PLP.Chemscore.Metal>
0.0000

> <Gold.Chemscore.Hbonds>
donor molecule, donor type, donor heavy atom, donor atom, acceptor molecule, acceptor atom, score
      L1  H    12    37       P1  7948  0.35
      L1  C    21    46       P1  7957  0.54

> <Gold.PLP.Chemscore.Internal.Correction>
0.0708

> <Gold.Rescore>
     Score         DG    S(hbond)    S(metal)    S(lipo)     H(rot)  DE(clash)    DE(int)     intcor
     15.68     -17.95       1.51        0.00      92.40       1.33       0.18       2.09       ----

> <Gold.Chemscore.Fitness>
15.6808

> <Gold.Chemscore.DG>
-17.9472

> <Gold.Chemscore.ZeroCoef>
-5.4800

> <Gold.Chemscore.Hbond>
1.5127

> <Gold.Chemscore.Metal>
0.0000

> <Gold.Chemscore.Lipo>
92.4006

> <Gold.Chemscore.Internal_Hbond>
0.0000

> <Gold.Chemscore.DEClash>
0.1774

> <Gold.Chemscore.DEInternal>
2.0890

> <Gold.Chemscore.Rot>
1.3266

> <Gold.Chemscore.Internal.Correction>
   9.000000E+99

> <Gold.Chemscore.Hbonds>
donor molecule, donor type, donor heavy atom, donor atom, acceptor molecule, acceptor atom, score
      L1  H     9    36       P1  7948  0.04
      L1  H    12    37       P1  7948  0.36

> <Gold.Chemscore.Hbond.Weighted>
-5.0525

> <Gold.Chemscore.Metal.Weighted>
-0.0000

> <Gold.Chemscore.Lipo.Weighted>
-10.8109

> <Gold.Chemscore.Internal_Hbond.Weighted>
0.0000

> <Gold.Chemscore.DEClash.Weighted>
0.1774

> <Gold.Chemscore.DEInternal.Weighted>
2.0890

> <Gold.Chemscore.Rot.Weighted>
3.3962

> <Gold.Chemscore.Internal.Correction.Weighted>
   9.000000E+99

> <Gold.Protein.RotatedTorsions>
[ 6907 6896 6895 6894 ] final   27.70 input  -60.11 | X-H torsion
[ 7974 7965 7964 7962 ] final  -47.80 input  175.53 | X-H torsion
[ 8008 7997 7996 7995 ] final  -36.46 input   59.86 | X-H torsion
[ 10167 10162 10161 10158 ] final   10.09 input  -65.29 | X-H torsion
[ 10718 10713 10712 10709 ] final  -32.37 input   66.30 | X-H torsion
[ 10763 10752 10751 10750 ] final  153.87 input  -60.55 | X-H torsion
[ 11005 11000 10999 10996 ] final   99.51 input  -57.11 | X-H torsion

> <Gold.Protein.ActiveResidues>
 VAL166  LYS551  ARG553  GLY616  TRP617  ASP618  TYR619  PRO620  LYS621  CYS622 
 ASP623  PHE694  ASN695  SER759  ASP760  ASP761  ALA762  ILE779  LEU786  VAL792 
 PHE793  MET794  SER795  GLU796  ALA797  LYS798  CYS799  TRP800  GLU811  SER814 

> <Gold.Protein.RotatedAtoms>
  152.0062  134.9901  160.0566 H   0  0  0  0  0  0  0  0  0  0  0  0  # atno 6907 bound_to 6896
  152.1472  133.4495  159.4804 H   0  0  0  0  0  0  0  0  0  0  0  0  # atno 6908 bound_to 6896
  150.6871  134.2151  159.4417 H   0  0  0  0  0  0  0  0  0  0  0  0  # atno 6909 bound_to 6896
  145.9578  140.7509  142.9472 H   0  0  0  0  0  0  0  0  0  0  0  0  # atno 7974 bound_to 7965
  154.4073  140.1630  156.2377 H   0  0  0  0  0  0  0  0  0  0  0  0  # atno 8008 bound_to 7997
  155.9228  140.3420  155.6163 H   0  0  0  0  0  0  0  0  0  0  0  0  # atno 8009 bound_to 7997
  155.7201  140.0767  157.2325 H   0  0  0  0  0  0  0  0  0  0  0  0  # atno 8010 bound_to 7997
  140.6216  143.8193  150.7181 H   0  0  0  0  0  0  0  0  0  0  0  0  # atno 10167 bound_to 10162
  156.3758  130.4347  149.7509 H   0  0  0  0  0  0  0  0  0  0  0  0  # atno 10718 bound_to 10713
  154.1432  135.2819  155.3155 H   0  0  0  0  0  0  0  0  0  0  0  0  # atno 10763 bound_to 10752
  154.6271  135.5448  153.7643 H   0  0  0  0  0  0  0  0  0  0  0  0  # atno 10764 bound_to 10752
  153.0244  135.6453  154.1579 H   0  0  0  0  0  0  0  0  0  0  0  0  # atno 10765 bound_to 10752
  139.8771  134.9099  156.4616 H   0  0  0  0  0  0  0  0  0  0  0  0  # atno 11005 bound_to 11000
  144.6809  140.2541  143.7327 LP  0  0  0  0  0  0  0  0  0  0  0  0  # atno 17320 bound_to 7965
  145.8082  139.1992  143.2009 LP  0  0  0  0  0  0  0  0  0  0  0  0  # atno 17321 bound_to 7965
  140.1784  143.4135  152.1951 LP  0  0  0  0  0  0  0  0  0  0  0  0  # atno 17342 bound_to 10162
  139.5443  144.7285  151.4633 LP  0  0  0  0  0  0  0  0  0  0  0  0  # atno 17343 bound_to 10162
  156.4618  130.7955  151.2975 LP  0  0  0  0  0  0  0  0  0  0  0  0  # atno 17370 bound_to 10713
  157.7488  131.0063  150.3147 LP  0  0  0  0  0  0  0  0  0  0  0  0  # atno 17371 bound_to 10713
  140.8860  133.7883  155.9518 LP  0  0  0  0  0  0  0  0  0  0  0  0  # atno 17394 bound_to 11000
  140.8804  134.2618  157.5147 LP  0  0  0  0  0  0  0  0  0  0  0  0  # atno 17395 bound_to 11000

$$$$
