AV-unprocessed.smi:1033|AV-procd|sdf|4512|dock10
  -GOLD-   22720 2523D 1   1.00000     0.00000
 Structure written by MMmdl.
 57 59  0  0  0  0  0  0  0  0  3 V2000
  152.6325  143.0806  161.8773 C   0  0  0  0  0  0  0  0  0  0  0  0
  152.1869  142.6795  160.4821 C   0  0  0  0  0  0  0  0  0  0  0  0
  152.5667  141.4159  159.9768 C   0  0  0  0  0  0  0  0  0  0  0  0
  152.1710  141.0036  158.6862 C   0  0  0  0  0  0  0  0  0  0  0  0
  152.4253  139.8284  158.0010 N   0  0  0  0  0  0  0  0  0  0  0  0
  151.7908  140.0438  156.8529 C   0  0  0  0  0  0  0  0  0  0  0  0
  151.1681  141.2294  156.7057 N   0  0  0  0  0  0  0  0  0  0  0  0
  150.4289  141.6914  155.5448 C   0  0  0  0  0  0  0  0  0  0  0  0
  149.5695  140.5810  154.9064 C   0  0  2  0  0  0  0  0  0  0  0  0
  150.3834  139.8753  153.9919 O   0  0  0  0  0  0  0  0  0  0  0  0
  148.3280  141.1166  154.1577 C   0  0  0  0  0  0  0  0  0  0  0  0
  147.5993  142.1628  154.9210 N   0  3  2  0  0  0  0  0  0  0  0  0
  147.5218  141.8476  156.3693 C   0  0  0  0  0  0  0  0  0  0  0  0
  146.8553  142.9943  157.1524 C   0  0  0  0  0  0  0  0  0  0  0  0
  145.5076  143.3156  156.6202 N   0  3  2  0  0  0  0  0  0  0  0  0
  144.4614  142.3349  157.0179 C   0  0  0  0  0  0  0  0  0  0  0  0
  144.2633  142.2617  158.5455 C   0  0  1  0  0  0  0  0  0  0  0  0
  142.8753  141.7221  158.9138 C   0  0  0  0  0  0  0  0  0  0  0  0
  145.2264  141.3907  159.1037 O   0  0  0  0  0  0  0  0  0  0  0  0
  145.5656  143.6045  155.1626 C   0  0  0  0  0  0  0  0  0  0  0  0
  146.2565  142.4774  154.3662 C   0  0  0  0  0  0  0  0  0  0  0  0
  151.3819  141.8989  157.9060 C   0  0  0  0  0  0  0  0  0  0  0  0
  150.9954  143.1580  158.3986 C   0  0  0  0  0  0  0  0  0  0  0  0
  151.3977  143.5530  159.6915 C   0  0  0  0  0  0  0  0  0  0  0  0
  150.9736  144.9132  160.2167 C   0  0  0  0  0  0  0  0  0  0  0  0
  153.2331  142.2990  162.3435 H   0  0  0  0  0  0  0  0  0  0  0  0
  151.7687  143.2638  162.5166 H   0  0  0  0  0  0  0  0  0  0  0  0
  153.2355  143.9880  161.8403 H   0  0  0  0  0  0  0  0  0  0  0  0
  153.1661  140.7494  160.5798 H   0  0  0  0  0  0  0  0  0  0  0  0
  151.7880  139.3003  156.0691 H   0  0  0  0  0  0  0  0  0  0  0  0
  149.7995  142.5295  155.8486 H   0  0  0  0  0  0  0  0  0  0  0  0
  151.1438  142.0845  154.8204 H   0  0  0  0  0  0  0  0  0  0  0  0
  149.2696  139.8878  155.6907 H   0  0  0  0  0  0  0  0  0  0  0  0
  149.9826  139.9169  153.1361 H   0  0  0  0  0  0  0  0  0  0  0  0
  148.6008  141.5239  153.1832 H   0  0  0  0  0  0  0  0  0  0  0  0
  147.6607  140.2763  153.9587 H   0  0  0  0  0  0  0  0  0  0  0  0
  146.9710  140.9166  156.5130 H   0  0  0  0  0  0  0  0  0  0  0  0
  148.5254  141.6833  156.7630 H   0  0  0  0  0  0  0  0  0  0  0  0
  146.7992  142.7546  158.2150 H   0  0  0  0  0  0  0  0  0  0  0  0
  147.4746  143.8893  157.0782 H   0  0  0  0  0  0  0  0  0  0  0  0
  143.5197  142.5808  156.5271 H   0  0  0  0  0  0  0  0  0  0  0  0
  144.7307  141.3399  156.6596 H   0  0  0  0  0  0  0  0  0  0  0  0
  144.3800  143.2433  159.0031 H   0  0  0  0  0  0  0  0  0  0  0  0
  142.0885  142.3706  158.5280 H   0  0  0  0  0  0  0  0  0  0  0  0
  142.7501  141.6633  159.9956 H   0  0  0  0  0  0  0  0  0  0  0  0
  142.7134  140.7235  158.5064 H   0  0  0  0  0  0  0  0  0  0  0  0
  145.7428  141.0116  158.4094 H   0  0  0  0  0  0  0  0  0  0  0  0
  144.5706  143.7953  154.7621 H   0  0  0  0  0  0  0  0  0  0  0  0
  146.1252  144.5311  155.0264 H   0  0  0  0  0  0  0  0  0  0  0  0
  146.3412  142.7900  153.3262 H   0  0  0  0  0  0  0  0  0  0  0  0
  145.6415  141.5767  154.3662 H   0  0  0  0  0  0  0  0  0  0  0  0
  150.3910  143.8135  157.7895 H   0  0  0  0  0  0  0  0  0  0  0  0
  150.3686  145.4514  159.4864 H   0  0  0  0  0  0  0  0  0  0  0  0
  151.8472  145.5244  160.4436 H   0  0  0  0  0  0  0  0  0  0  0  0
  150.3814  144.8042  161.1254 H   0  0  0  0  0  0  0  0  0  0  0  0
  145.2375  144.1768  157.0745 H   0  0  0  0  0  0  0  0  0  0  0  0
  148.1576  143.0018  154.8442 H   0  0  0  0  0  0  0  0  0  0  0  0
  1  2  1  0  0  0  0
  1 26  1  0  0  0  0
  1 27  1  0  0  0  0
  1 28  1  0  0  0  0
  2 24  1  0  0  0  0
  2  3  2  0  0  0  0
  3  4  1  0  0  0  0
  3 29  1  0  0  0  0
  4 22  2  0  0  0  0
  4  5  1  0  0  0  0
  5  6  2  0  0  0  0
  6  7  1  0  0  0  0
  6 30  1  0  0  0  0
  7  8  1  0  0  0  0
  7 22  1  0  0  0  0
  8  9  1  0  0  0  0
  8 31  1  0  0  0  0
  8 32  1  0  0  0  0
  9 10  1  0  0  0  0
  9 11  1  0  0  0  0
  9 33  1  0  0  0  0
 10 34  1  0  0  0  0
 11 12  1  0  0  0  0
 11 35  1  0  0  0  0
 11 36  1  0  0  0  0
 12 21  1  0  0  0  0
 12 13  1  0  0  0  0
 12 57  1  0  0  0  0
 13 14  1  0  0  0  0
 13 37  1  0  0  0  0
 13 38  1  0  0  0  0
 14 15  1  0  0  0  0
 14 39  1  0  0  0  0
 14 40  1  0  0  0  0
 15 16  1  0  0  0  0
 15 20  1  0  0  0  0
 15 56  1  0  0  0  0
 16 17  1  0  0  0  0
 16 41  1  0  0  0  0
 16 42  1  0  0  0  0
 17 18  1  0  0  0  0
 17 19  1  0  0  0  0
 17 43  1  0  0  0  0
 18 44  1  0  0  0  0
 18 45  1  0  0  0  0
 18 46  1  0  0  0  0
 19 47  1  0  0  0  0
 20 21  1  0  0  0  0
 20 48  1  0  0  0  0
 20 49  1  0  0  0  0
 21 50  1  0  0  0  0
 21 51  1  0  0  0  0
 22 23  1  0  0  0  0
 23 24  2  0  0  0  0
 23 52  1  0  0  0  0
 24 25  1  0  0  0  0
 25 53  1  0  0  0  0
 25 54  1  0  0  0  0
 25 55  1  0  0  0  0
M  CHG  1  12   1
M  CHG  1  15   1
M  END
> <s_m_source_file>
AV-unprocessed.smi

> <i_m_source_file_index>
1033

> <i_lp_mmshare_version>
43012

> <i_f3d_flags>
0

> <s_epik_input>
W0NIM11jKFtjSF0xKWMoW0NIM10pW2NIXWMoYzEyKW4oW2NIXW4yKVtDSDJdW0NASF0oW09IXSlbQ0gyXU4zW0NIMl1bQ0gyXU4oW0NIMl1bQ0gyXTMpW0NIMl1bQ0BIXShbQ0gzXSlbT0hd

> <s_epik_cmdline>
J2VwaWtfcHl0aG9uJywgJy1waCcsICc3LjAnLCAnLXRuJywgJzgnLCAnLW1hJywgJzIwMCcsICctbWV0YWxfYmluZGluZycsICctaW1hZScsICc8aW5maWxlLm1hZT4nLCAnLW9tYWUnLCAnPG91dGZpbGUubWFlPic=

> <r_epik_Ionization_Penalty>
3.16016

> <r_epik_Ionization_Penalty_Charging>
3.07679

> <r_epik_Ionization_Penalty_Neutral>
0.083365

> <r_epik_State_Penalty>
2.09701

> <r_epik_Charging_Adjusted_Penalty>
5.1738

> <i_epik_Tot_Q>
2

> <i_epik_Tot_abs_Q>
2

> <r_epik_Metal_State_Penalty>
2.02534

> <b_epik_Metal_Only>
0

> <s_lp_Force_Field>
OPLS_2005

> <r_lp_Energy>
31.6916

> <b_lp_Chiralities_Consistent>
1

> <s_lp_Variant>
AV-unprocessed.smi:1033-23

> <Gold.Version>
5.8.1

> <Gold.Id.Protein>
6NUR|6NUR_protein|mol2

> <Gold.PLP.Fitness>
61.0479

> <Gold.PLP.PLP>
-46.5848

> <Gold.PLP.part.hbond>
-5.0000

> <Gold.PLP.part.metal>
0.0000

> <Gold.PLP.part.buried>
-6.7278

> <Gold.PLP.part.nonpolar>
-34.8696

> <Gold.PLP.part.repulsive>
0.0800

> <Gold.PLP.ligand.clash>
0.0000

> <Gold.PLP.ligand.torsion>
1.1076

> <Gold.PLP.Chemscore.Hbond>
5.5344

> <Gold.PLP.Chemscore.CHOScore>
0.0000

> <Gold.PLP.Chemscore.Metal>
0.0000

> <Gold.Chemscore.Hbonds>
donor molecule, donor type, donor heavy atom, donor atom, acceptor molecule, acceptor atom, score
      L1  H    10    34       P1  7957  1.00
      L1  H    12    57       P1  8028  2.00
      P1  H  6934  6946       L1    19  0.07
      P1  H  7989  7998       L1    10  0.50
      P1  H  7997  8008       L1     5  0.10

> <Gold.PLP.Chemscore.Internal.Correction>
0.0751

> <Gold.Rescore>
     Score         DG    S(hbond)    S(metal)    S(lipo)     H(rot)  DE(clash)    DE(int)     intcor
     15.94     -18.92       2.28        0.00     118.54       3.14       1.78       1.19       ----

> <Gold.Chemscore.Fitness>
15.9406

> <Gold.Chemscore.DG>
-18.9173

> <Gold.Chemscore.ZeroCoef>
-5.4800

> <Gold.Chemscore.Hbond>
2.2759

> <Gold.Chemscore.Metal>
0.0000

> <Gold.Chemscore.Lipo>
118.5389

> <Gold.Chemscore.Internal_Hbond>
0.0000

> <Gold.Chemscore.DEClash>
1.7831

> <Gold.Chemscore.DEInternal>
1.1936

> <Gold.Chemscore.Rot>
3.1380

> <Gold.Chemscore.Internal.Correction>
   9.000000E+99

> <Gold.Chemscore.Hbonds>
donor molecule, donor type, donor heavy atom, donor atom, acceptor molecule, acceptor atom, score
      L1  H    10    34       P1  7957  0.95
      L1  H    12    57       P1  8028  0.89
      P1  H  7989  7998       L1    10  0.02

> <Gold.Chemscore.Hbond.Weighted>
-7.6014

> <Gold.Chemscore.Metal.Weighted>
-0.0000

> <Gold.Chemscore.Lipo.Weighted>
-13.8691

> <Gold.Chemscore.Internal_Hbond.Weighted>
0.0000

> <Gold.Chemscore.DEClash.Weighted>
1.7831

> <Gold.Chemscore.DEInternal.Weighted>
1.1936

> <Gold.Chemscore.Rot.Weighted>
8.0332

> <Gold.Chemscore.Internal.Correction.Weighted>
   9.000000E+99

> <Gold.Protein.RotatedTorsions>
[ 6907 6896 6895 6894 ] final  -38.72 input  -60.11 | X-H torsion
[ 7974 7965 7964 7962 ] final   59.43 input  175.53 | X-H torsion
[ 8008 7997 7996 7995 ] final  -80.03 input   59.86 | X-H torsion
[ 10167 10162 10161 10158 ] final  103.70 input  -65.29 | X-H torsion
[ 10718 10713 10712 10709 ] final  -10.98 input   66.30 | X-H torsion
[ 10763 10752 10751 10750 ] final  -69.38 input  -60.55 | X-H torsion
[ 11005 11000 10999 10996 ] final  -26.53 input  -57.11 | X-H torsion

> <Gold.Protein.ActiveResidues>
 VAL166  LYS551  ARG553  GLY616  TRP617  ASP618  TYR619  PRO620  LYS621  CYS622 
 ASP623  PHE694  ASN695  SER759  ASP760  ASP761  ALA762  ILE779  LEU786  VAL792 
 PHE793  MET794  SER795  GLU796  ALA797  LYS798  CYS799  TRP800  GLU811  SER814 

> <Gold.Protein.RotatedAtoms>
  150.9990  134.9307  159.7942 H   0  0  0  0  0  0  0  0  0  0  0  0  # atno 6907 bound_to 6896
  152.5272  134.3179  159.9147 H   0  0  0  0  0  0  0  0  0  0  0  0  # atno 6908 bound_to 6896
  151.3185  133.4009  159.2687 H   0  0  0  0  0  0  0  0  0  0  0  0  # atno 6909 bound_to 6896
  145.9072  139.3626  143.0557 H   0  0  0  0  0  0  0  0  0  0  0  0  # atno 7974 bound_to 7965
  154.5843  140.0669  156.9148 H   0  0  0  0  0  0  0  0  0  0  0  0  # atno 8008 bound_to 7997
  155.2407  140.3344  155.4274 H   0  0  0  0  0  0  0  0  0  0  0  0  # atno 8009 bound_to 7997
  156.2211  140.1799  156.7458 H   0  0  0  0  0  0  0  0  0  0  0  0  # atno 8010 bound_to 7997
  139.7240  144.7052  151.0827 H   0  0  0  0  0  0  0  0  0  0  0  0  # atno 10167 bound_to 10162
  156.6656  130.4994  149.6016 H   0  0  0  0  0  0  0  0  0  0  0  0  # atno 10718 bound_to 10713
  154.4026  135.6027  153.5906 H   0  0  0  0  0  0  0  0  0  0  0  0  # atno 10763 bound_to 10752
  152.9788  135.5910  154.4166 H   0  0  0  0  0  0  0  0  0  0  0  0  # atno 10764 bound_to 10752
  154.3967  135.2842  155.2100 H   0  0  0  0  0  0  0  0  0  0  0  0  # atno 10765 bound_to 10752
  140.9037  133.7507  156.0578 H   0  0  0  0  0  0  0  0  0  0  0  0  # atno 11005 bound_to 11000
  145.8717  140.9416  143.0647 LP  0  0  0  0  0  0  0  0  0  0  0  0  # atno 17320 bound_to 7965
  144.6740  140.0663  143.7474 LP  0  0  0  0  0  0  0  0  0  0  0  0  # atno 17321 bound_to 7965
  140.7759  143.5129  150.9630 LP  0  0  0  0  0  0  0  0  0  0  0  0  # atno 17342 bound_to 10162
  139.8816  143.7064  152.3156 LP  0  0  0  0  0  0  0  0  0  0  0  0  # atno 17343 bound_to 10162
  156.1978  130.6600  151.1133 LP  0  0  0  0  0  0  0  0  0  0  0  0  # atno 17370 bound_to 10713
  157.7095  131.0741  150.6551 LP  0  0  0  0  0  0  0  0  0  0  0  0  # atno 17371 bound_to 10713
  140.8198  134.3303  157.5385 LP  0  0  0  0  0  0  0  0  0  0  0  0  # atno 17394 bound_to 11000
  139.8746  134.9302  156.3497 LP  0  0  0  0  0  0  0  0  0  0  0  0  # atno 17395 bound_to 11000

$$$$
