AV-unprocessed.smi:1005|AV-procd|sdf|4362|dock7
  -GOLD-   22720 2263D 1   1.00000     0.00000
 Structure written by MMmdl.
 56 58  0  0  0  0  0  0  0  0  2 V2000
  151.6040  143.9416  158.7999 C   0  0  0  0  0  0  0  0  0  0  0  0
  152.3616  142.8613  159.5515 C   0  0  0  0  0  0  0  0  0  0  0  0
  152.9233  141.7853  158.8274 C   0  0  0  0  0  0  0  0  0  0  0  0
  153.6334  140.7594  159.4889 C   0  0  0  0  0  0  0  0  0  0  0  0
  154.2563  139.6291  158.9877 N   0  0  0  0  0  0  0  0  0  0  0  0
  154.7351  139.0727  160.0966 C   0  0  0  0  0  0  0  0  0  0  0  0
  154.5010  139.7134  161.2581 N   0  0  0  0  0  0  0  0  0  0  0  0
  154.9211  139.3055  162.5871 C   0  0  0  0  0  0  0  0  0  0  0  0
  155.7062  140.4092  163.3228 C   0  0  2  0  0  0  0  0  0  0  0  0
  157.0116  140.4684  162.7789 O   0  0  0  0  0  0  0  0  0  0  0  0
  155.7991  140.1328  164.8384 C   0  0  0  0  0  0  0  0  0  0  0  0
  155.9202  141.3200  165.6858 N   0  0  0  0  0  0  0  0  0  0  0  0
  155.1135  142.4170  165.1629 C   0  0  0  0  0  0  0  0  0  0  0  0
  155.2200  143.6760  166.0389 C   0  0  0  0  0  0  0  0  0  0  0  0
  154.8420  143.3564  167.3739 O   0  0  0  0  0  0  0  0  0  0  0  0
  155.6435  142.3271  167.9487 C   0  0  1  0  0  0  0  0  0  0  0  0
  155.1412  142.0706  169.3808 C   0  0  0  0  0  0  0  0  0  0  0  0
  155.5982  140.7660  169.9235 N   0  3  0  0  0  0  0  0  0  0  0  0
  154.9589  140.4060  171.2104 C   0  0  0  0  0  0  0  0  0  0  0  0
  157.0732  140.6856  170.0095 C   0  0  0  0  0  0  0  0  0  0  0  0
  155.5317  141.0644  167.0707 C   0  0  0  0  0  0  0  0  0  0  0  0
  153.7675  140.8407  160.9058 C   0  0  0  0  0  0  0  0  0  0  0  0
  153.2140  141.9062  161.6373 C   0  0  0  0  0  0  0  0  0  0  0  0
  152.5080  142.9228  160.9608 C   0  0  0  0  0  0  0  0  0  0  0  0
  151.9133  144.0690  161.7599 C   0  0  0  0  0  0  0  0  0  0  0  0
  151.5539  143.7240  157.7325 H   0  0  0  0  0  0  0  0  0  0  0  0
  152.0951  144.9075  158.9222 H   0  0  0  0  0  0  0  0  0  0  0  0
  150.5823  144.0224  159.1723 H   0  0  0  0  0  0  0  0  0  0  0  0
  152.8127  141.7383  157.7541 H   0  0  0  0  0  0  0  0  0  0  0  0
  155.2925  138.1479  160.0630 H   0  0  0  0  0  0  0  0  0  0  0  0
  154.0288  139.0354  163.1532 H   0  0  0  0  0  0  0  0  0  0  0  0
  155.5231  138.3992  162.5025 H   0  0  0  0  0  0  0  0  0  0  0  0
  155.2109  141.3661  163.1521 H   0  0  0  0  0  0  0  0  0  0  0  0
  157.1024  141.2837  162.3091 H   0  0  0  0  0  0  0  0  0  0  0  0
  154.8821  139.6186  165.1291 H   0  0  0  0  0  0  0  0  0  0  0  0
  156.6038  139.4262  165.0494 H   0  0  0  0  0  0  0  0  0  0  0  0
  155.4292  142.6584  164.1472 H   0  0  0  0  0  0  0  0  0  0  0  0
  154.0681  142.1104  165.0996 H   0  0  0  0  0  0  0  0  0  0  0  0
  156.2361  144.0734  166.0246 H   0  0  0  0  0  0  0  0  0  0  0  0
  154.5633  144.4590  165.6593 H   0  0  0  0  0  0  0  0  0  0  0  0
  156.6855  142.6481  167.9650 H   0  0  0  0  0  0  0  0  0  0  0  0
  155.5063  142.8770  170.0188 H   0  0  0  0  0  0  0  0  0  0  0  0
  154.0518  142.1181  169.4200 H   0  0  0  0  0  0  0  0  0  0  0  0
  155.1924  141.1408  171.9821 H   0  0  0  0  0  0  0  0  0  0  0  0
  155.3112  139.4325  171.5532 H   0  0  0  0  0  0  0  0  0  0  0  0
  153.8757  140.3401  171.1169 H   0  0  0  0  0  0  0  0  0  0  0  0
  157.4652  141.4292  170.7050 H   0  0  0  0  0  0  0  0  0  0  0  0
  157.5289  140.8550  169.0333 H   0  0  0  0  0  0  0  0  0  0  0  0
  157.3872  139.6987  170.3508 H   0  0  0  0  0  0  0  0  0  0  0  0
  154.5088  140.6855  167.1022 H   0  0  0  0  0  0  0  0  0  0  0  0
  156.1659  140.2887  167.4992 H   0  0  0  0  0  0  0  0  0  0  0  0
  153.3323  141.9394  162.7104 H   0  0  0  0  0  0  0  0  0  0  0  0
  152.1642  143.9887  162.8181 H   0  0  0  0  0  0  0  0  0  0  0  0
  150.8266  144.0703  161.6723 H   0  0  0  0  0  0  0  0  0  0  0  0
  152.2918  145.0255  161.3990 H   0  0  0  0  0  0  0  0  0  0  0  0
  155.3202  140.0650  169.2508 H   0  0  0  0  0  0  0  0  0  0  0  0
  1  2  1  0  0  0  0
  1 26  1  0  0  0  0
  1 27  1  0  0  0  0
  1 28  1  0  0  0  0
  2 24  1  0  0  0  0
  2  3  2  0  0  0  0
  3  4  1  0  0  0  0
  3 29  1  0  0  0  0
  4 22  2  0  0  0  0
  4  5  1  0  0  0  0
  5  6  2  0  0  0  0
  6  7  1  0  0  0  0
  6 30  1  0  0  0  0
  7  8  1  0  0  0  0
  7 22  1  0  0  0  0
  8  9  1  0  0  0  0
  8 31  1  0  0  0  0
  8 32  1  0  0  0  0
  9 10  1  0  0  0  0
  9 11  1  0  0  0  0
  9 33  1  0  0  0  0
 10 34  1  0  0  0  0
 11 12  1  0  0  0  0
 11 35  1  0  0  0  0
 11 36  1  0  0  0  0
 12 21  1  0  0  0  0
 12 13  1  0  0  0  0
 13 14  1  0  0  0  0
 13 37  1  0  0  0  0
 13 38  1  0  0  0  0
 14 15  1  0  0  0  0
 14 39  1  0  0  0  0
 14 40  1  0  0  0  0
 15 16  1  0  0  0  0
 16 17  1  0  0  0  0
 16 21  1  0  0  0  0
 16 41  1  0  0  0  0
 17 18  1  0  0  0  0
 17 42  1  0  0  0  0
 17 43  1  0  0  0  0
 18 19  1  0  0  0  0
 18 20  1  0  0  0  0
 18 56  1  0  0  0  0
 19 44  1  0  0  0  0
 19 45  1  0  0  0  0
 19 46  1  0  0  0  0
 20 47  1  0  0  0  0
 20 48  1  0  0  0  0
 20 49  1  0  0  0  0
 21 50  1  0  0  0  0
 21 51  1  0  0  0  0
 22 23  1  0  0  0  0
 23 24  2  0  0  0  0
 23 52  1  0  0  0  0
 24 25  1  0  0  0  0
 25 53  1  0  0  0  0
 25 54  1  0  0  0  0
 25 55  1  0  0  0  0
M  CHG  1  18   1
M  END
> <s_m_source_file>
AV-unprocessed.smi

> <i_m_source_file_index>
1005

> <i_lp_mmshare_version>
43012

> <i_f3d_flags>
0

> <s_epik_input>
W0NIM11jKFtjSF0xKWMoW0NIM10pW2NIXWMoYzEyKW4oW2NIXW4yKVtDSDJdW0NASF0oW09IXSlbQ0gyXU4zW0NIMl1bQ0gyXU9bQ0BIXShbQ0gyXTMpW0NIMl1OKFtDSDNdKVtDSDNd

> <s_epik_cmdline>
J2VwaWtfcHl0aG9uJywgJy1waCcsICc3LjAnLCAnLXRuJywgJzgnLCAnLW1hJywgJzIwMCcsICctbWV0YWxfYmluZGluZycsICctaW1hZScsICc8aW5maWxlLm1hZT4nLCAnLW9tYWUnLCAnPG91dGZpbGUubWFlPic=

> <r_epik_Ionization_Penalty>
0.226781

> <r_epik_Ionization_Penalty_Charging>
0.00915946

> <r_epik_Ionization_Penalty_Neutral>
0.217622

> <r_epik_State_Penalty>
0.173018

> <r_epik_Charging_Adjusted_Penalty>
0.182178

> <i_epik_Tot_Q>
1

> <i_epik_Tot_abs_Q>
1

> <r_epik_Metal_State_Penalty>
0.0905268

> <b_epik_Metal_Only>
0

> <s_lp_Force_Field>
OPLS_2005

> <r_lp_Energy>
36.5786

> <b_lp_Chiralities_Consistent>
1

> <s_lp_Variant>
AV-unprocessed.smi:1005-1

> <Gold.Version>
5.8.1

> <Gold.Id.Protein>
6NUR|6NUR_protein|mol2

> <Gold.PLP.Fitness>
51.9336

> <Gold.PLP.PLP>
-50.6259

> <Gold.PLP.part.hbond>
-2.0000

> <Gold.PLP.part.metal>
0.0000

> <Gold.PLP.part.buried>
-5.6850

> <Gold.PLP.part.nonpolar>
-42.5055

> <Gold.PLP.part.repulsive>
0.1327

> <Gold.PLP.ligand.clash>
0.0000

> <Gold.PLP.ligand.torsion>
0.8809

> <Gold.PLP.Chemscore.Hbond>
1.0000

> <Gold.PLP.Chemscore.CHOScore>
0.0000

> <Gold.PLP.Chemscore.Metal>
0.0000

> <Gold.Chemscore.Hbonds>
donor molecule, donor type, donor heavy atom, donor atom, acceptor molecule, acceptor atom, score
      P1  H  7997  8009       L1     5  1.00

> <Gold.PLP.Chemscore.Internal.Correction>
0.0695

> <Gold.Rescore>
     Score         DG    S(hbond)    S(metal)    S(lipo)     H(rot)  DE(clash)    DE(int)     intcor
     18.55     -19.98       0.91        0.00     150.71       2.41       0.74       0.68       ----

> <Gold.Chemscore.Fitness>
18.5544

> <Gold.Chemscore.DG>
-19.9775

> <Gold.Chemscore.ZeroCoef>
-5.4800

> <Gold.Chemscore.Hbond>
0.9113

> <Gold.Chemscore.Metal>
0.0000

> <Gold.Chemscore.Lipo>
150.7062

> <Gold.Chemscore.Internal_Hbond>
0.0000

> <Gold.Chemscore.DEClash>
0.7420

> <Gold.Chemscore.DEInternal>
0.6811

> <Gold.Chemscore.Rot>
2.4136

> <Gold.Chemscore.Internal.Correction>
   9.000000E+99

> <Gold.Chemscore.Hbonds>
donor molecule, donor type, donor heavy atom, donor atom, acceptor molecule, acceptor atom, score
      P1  H  7997  8009       L1     5  0.65

> <Gold.Chemscore.Hbond.Weighted>
-3.0436

> <Gold.Chemscore.Metal.Weighted>
-0.0000

> <Gold.Chemscore.Lipo.Weighted>
-17.6326

> <Gold.Chemscore.Internal_Hbond.Weighted>
0.0000

> <Gold.Chemscore.DEClash.Weighted>
0.7420

> <Gold.Chemscore.DEInternal.Weighted>
0.6811

> <Gold.Chemscore.Rot.Weighted>
6.1788

> <Gold.Chemscore.Internal.Correction.Weighted>
   9.000000E+99

> <Gold.Protein.RotatedTorsions>
[ 6907 6896 6895 6894 ] final   18.87 input  -60.11 | X-H torsion
[ 7974 7965 7964 7962 ] final    9.23 input  175.53 | X-H torsion
[ 8008 7997 7996 7995 ] final  134.27 input   59.86 | X-H torsion
[ 10167 10162 10161 10158 ] final   35.11 input  -65.29 | X-H torsion
[ 10718 10713 10712 10709 ] final -126.90 input   66.30 | X-H torsion
[ 10763 10752 10751 10750 ] final  122.14 input  -60.55 | X-H torsion
[ 11005 11000 10999 10996 ] final   49.92 input  -57.11 | X-H torsion

> <Gold.Protein.ActiveResidues>
 VAL166  LYS551  ARG553  GLY616  TRP617  ASP618  TYR619  PRO620  LYS621  CYS622 
 ASP623  PHE694  ASN695  SER759  ASP760  ASP761  ALA762  ILE779  LEU786  VAL792 
 PHE793  MET794  SER795  GLU796  ALA797  LYS798  CYS799  TRP800  GLU811  SER814 

> <Gold.Protein.RotatedAtoms>
  151.8720  135.0486  160.0479 H   0  0  0  0  0  0  0  0  0  0  0  0  # atno 6907 bound_to 6896
  152.2581  133.5268  159.5373 H   0  0  0  0  0  0  0  0  0  0  0  0  # atno 6908 bound_to 6896
  150.7107  134.0784  159.3931 H   0  0  0  0  0  0  0  0  0  0  0  0  # atno 6909 bound_to 6896
  146.2406  139.9815  142.8435 H   0  0  0  0  0  0  0  0  0  0  0  0  # atno 7974 bound_to 7965
  156.2998  140.2500  156.3390 H   0  0  0  0  0  0  0  0  0  0  0  0  # atno 8008 bound_to 7997
  154.9073  140.0404  157.1946 H   0  0  0  0  0  0  0  0  0  0  0  0  # atno 8009 bound_to 7997
  154.8440  140.2895  155.5645 H   0  0  0  0  0  0  0  0  0  0  0  0  # atno 8010 bound_to 7997
  140.4252  144.1403  150.6152 H   0  0  0  0  0  0  0  0  0  0  0  0  # atno 10167 bound_to 10162
  156.1807  130.6730  151.0301 H   0  0  0  0  0  0  0  0  0  0  0  0  # atno 10718 bound_to 10713
  153.6251  135.3406  155.3023 H   0  0  0  0  0  0  0  0  0  0  0  0  # atno 10763 bound_to 10752
  154.8592  135.4282  154.2166 H   0  0  0  0  0  0  0  0  0  0  0  0  # atno 10764 bound_to 10752
  153.3048  135.7027  153.7242 H   0  0  0  0  0  0  0  0  0  0  0  0  # atno 10765 bound_to 10752
  140.1062  134.5016  155.8718 H   0  0  0  0  0  0  0  0  0  0  0  0  # atno 11005 bound_to 11000
  145.1588  140.9662  143.4389 LP  0  0  0  0  0  0  0  0  0  0  0  0  # atno 17320 bound_to 7965
  145.0136  139.3487  143.6108 LP  0  0  0  0  0  0  0  0  0  0  0  0  # atno 17321 bound_to 7965
  140.4489  143.2495  151.9374 LP  0  0  0  0  0  0  0  0  0  0  0  0  # atno 17342 bound_to 10162
  139.4783  144.5582  151.8281 LP  0  0  0  0  0  0  0  0  0  0  0  0  # atno 17343 bound_to 10162
  157.6866  131.0823  150.7225 LP  0  0  0  0  0  0  0  0  0  0  0  0  # atno 17370 bound_to 10713
  156.7282  130.4701  149.5506 LP  0  0  0  0  0  0  0  0  0  0  0  0  # atno 17371 bound_to 10713
  141.2118  133.6712  156.6614 LP  0  0  0  0  0  0  0  0  0  0  0  0  # atno 17394 bound_to 11000
  140.3153  134.8052  157.4209 LP  0  0  0  0  0  0  0  0  0  0  0  0  # atno 17395 bound_to 11000

$$$$
