AV-unprocessed.smi:1371|AV-procd|sdf|5581|dock3
  -GOLD-   22720 5183D 1   1.00000     0.00000
 Structure written by MMmdl.
 31 31  0  0  0  0  0  0  0  0  1 V2000
  151.6781  145.5087  159.9828 C   0  0  0  0  0  0  0  0  0  0  0  0
  152.3586  144.3303  159.2768 C   0  0  0  0  0  0  0  0  0  0  0  0
  152.3842  144.5303  157.7525 C   0  0  0  0  0  0  0  0  0  0  0  0
  151.6245  143.1620  159.6191 O   0  0  0  0  0  0  0  0  0  0  0  0
  152.3541  141.9477  159.5122 C   0  0  0  0  0  0  0  0  0  0  0  0
  151.5574  140.9652  158.6489 C   0  0  0  0  0  0  0  0  0  0  0  0
  151.0583  141.7161  157.0689 S   0  0  0  0  0  0  0  0  0  0  0  0
  151.2607  140.3738  155.9089 C   0  0  0  0  0  0  0  0  0  0  0  0
  152.4798  139.8416  155.7755 N   0  0  0  0  0  0  0  0  0  0  0  0
  152.6025  138.8269  154.8938 C   0  0  0  0  0  0  0  0  0  0  0  0
  153.8650  138.2587  154.7429 N   0  0  0  0  0  0  0  0  0  0  0  0
  151.5023  138.3524  154.1492 C   0  0  0  0  0  0  0  0  0  0  0  0
  150.2694  138.9987  154.3776 C   0  0  0  0  0  0  0  0  0  0  0  0
  149.1215  138.6067  153.6936 N   0  0  0  0  0  0  0  0  0  0  0  0
  150.1506  140.0133  155.2604 N   0  0  0  0  0  0  0  0  0  0  0  0
  152.2050  146.4428  159.7869 H   0  0  0  0  0  0  0  0  0  0  0  0
  151.6606  145.3587  161.0626 H   0  0  0  0  0  0  0  0  0  0  0  0
  150.6477  145.6291  159.6467 H   0  0  0  0  0  0  0  0  0  0  0  0
  153.3794  144.2530  159.6546 H   0  0  0  0  0  0  0  0  0  0  0  0
  152.8769  145.4672  157.4914 H   0  0  0  0  0  0  0  0  0  0  0  0
  151.3740  144.5609  157.3433 H   0  0  0  0  0  0  0  0  0  0  0  0
  152.9255  143.7316  157.2466 H   0  0  0  0  0  0  0  0  0  0  0  0
  153.3370  142.1145  159.0720 H   0  0  0  0  0  0  0  0  0  0  0  0
  152.5073  141.5203  160.5038 H   0  0  0  0  0  0  0  0  0  0  0  0
  152.1641  140.0829  158.4435 H   0  0  0  0  0  0  0  0  0  0  0  0
  150.6712  140.6334  159.1908 H   0  0  0  0  0  0  0  0  0  0  0  0
  154.6606  138.5887  155.2698 H   0  0  0  0  0  0  0  0  0  0  0  0
  154.0231  137.4934  154.1035 H   0  0  0  0  0  0  0  0  0  0  0  0
  151.5987  137.5402  153.4434 H   0  0  0  0  0  0  0  0  0  0  0  0
  149.1375  137.8549  153.0197 H   0  0  0  0  0  0  0  0  0  0  0  0
  148.2292  139.0449  153.8725 H   0  0  0  0  0  0  0  0  0  0  0  0
  1  2  1  0  0  0  0
  1 16  1  0  0  0  0
  1 17  1  0  0  0  0
  1 18  1  0  0  0  0
  2  3  1  0  0  0  0
  2  4  1  0  0  0  0
  2 19  1  0  0  0  0
  3 20  1  0  0  0  0
  3 21  1  0  0  0  0
  3 22  1  0  0  0  0
  4  5  1  0  0  0  0
  5  6  1  0  0  0  0
  5 23  1  0  0  0  0
  5 24  1  0  0  0  0
  6  7  1  0  0  0  0
  6 25  1  0  0  0  0
  6 26  1  0  0  0  0
  7  8  1  0  0  0  0
  8 15  1  0  0  0  0
  8  9  2  0  0  0  0
  9 10  1  0  0  0  0
 10 11  1  0  0  0  0
 10 12  2  0  0  0  0
 11 27  1  0  0  0  0
 11 28  1  0  0  0  0
 12 13  1  0  0  0  0
 12 29  1  0  0  0  0
 13 14  1  0  0  0  0
 13 15  2  0  0  0  0
 14 30  1  0  0  0  0
 14 31  1  0  0  0  0
M  END
> <s_m_source_file>
AV-unprocessed.smi

> <i_m_source_file_index>
1371

> <i_lp_mmshare_version>
43012

> <i_f3d_flags>
0

> <s_epik_input>
W0NIM11bQ0hdKFtDSDNdKU9bQ0gyXVtDSDJdU2MxbmMoW05IMl0pW2NIXWMobjEpW05IMl0=

> <s_epik_cmdline>
J2VwaWtfcHl0aG9uJywgJy1waCcsICc3LjAnLCAnLXRuJywgJzgnLCAnLW1hJywgJzIwMCcsICctbWV0YWxfYmluZGluZycsICctaW1hZScsICc8aW5maWxlLm1hZT4nLCAnLW9tYWUnLCAnPG91dGZpbGUubWFlPic=

> <r_lp_tautomer_probability>
1

> <r_epik_Ionization_Penalty>
0.00548925

> <r_epik_Ionization_Penalty_Charging>
0

> <r_epik_Ionization_Penalty_Neutral>
0.00548925

> <r_epik_State_Penalty>
0.0040157

> <r_epik_Charging_Adjusted_Penalty>
0.0040157

> <i_epik_Tot_Q>
0

> <i_epik_Tot_abs_Q>
0

> <r_epik_Metal_State_Penalty>
-0

> <b_epik_Metal_Only>
0

> <s_lp_Force_Field>
OPLS_2005

> <r_lp_Energy>
-2.92027

> <b_lp_Chiralities_Consistent>
1

> <s_lp_Variant>
AV-unprocessed.smi:1371-1

> <Gold.Version>
5.8.1

> <Gold.Id.Protein>
6NUR|6NUR_protein|mol2

> <Gold.PLP.Fitness>
41.6475

> <Gold.PLP.PLP>
-37.3588

> <Gold.PLP.part.hbond>
-3.0000

> <Gold.PLP.part.metal>
0.0000

> <Gold.PLP.part.buried>
-6.0581

> <Gold.PLP.part.nonpolar>
-29.4481

> <Gold.PLP.part.repulsive>
0.9251

> <Gold.PLP.ligand.clash>
0.0000

> <Gold.PLP.ligand.torsion>
0.8832

> <Gold.PLP.Chemscore.Hbond>
2.0000

> <Gold.PLP.Chemscore.CHOScore>
0.0000

> <Gold.PLP.Chemscore.Metal>
0.0000

> <Gold.Chemscore.Hbonds>
donor molecule, donor type, donor heavy atom, donor atom, acceptor molecule, acceptor atom, score
      L1  H    14    30       P1  7948  1.00
      P1  H  7997  8008       L1     9  1.00

> <Gold.PLP.Chemscore.Internal.Correction>
0.0552

> <Gold.Rescore>
     Score         DG    S(hbond)    S(metal)    S(lipo)     H(rot)  DE(clash)    DE(int)     intcor
     12.29     -13.29       1.70        0.00      72.42       2.47       0.08       0.92       ----

> <Gold.Chemscore.Fitness>
12.2900

> <Gold.Chemscore.DG>
-13.2901

> <Gold.Chemscore.ZeroCoef>
-5.4800

> <Gold.Chemscore.Hbond>
1.6953

> <Gold.Chemscore.Metal>
0.0000

> <Gold.Chemscore.Lipo>
72.4210

> <Gold.Chemscore.Internal_Hbond>
0.0000

> <Gold.Chemscore.DEClash>
0.0772

> <Gold.Chemscore.DEInternal>
0.9229

> <Gold.Chemscore.Rot>
2.4708

> <Gold.Chemscore.Internal.Correction>
   9.000000E+99

> <Gold.Chemscore.Hbonds>
donor molecule, donor type, donor heavy atom, donor atom, acceptor molecule, acceptor atom, score
      L1  H    14    30       P1  7948  0.97
      P1  H  7997  8008       L1     9  0.30

> <Gold.Chemscore.Hbond.Weighted>
-5.6622

> <Gold.Chemscore.Metal.Weighted>
-0.0000

> <Gold.Chemscore.Lipo.Weighted>
-8.4733

> <Gold.Chemscore.Internal_Hbond.Weighted>
0.0000

> <Gold.Chemscore.DEClash.Weighted>
0.0772

> <Gold.Chemscore.DEInternal.Weighted>
0.9229

> <Gold.Chemscore.Rot.Weighted>
6.3253

> <Gold.Chemscore.Internal.Correction.Weighted>
   9.000000E+99

> <Gold.Protein.RotatedTorsions>
[ 6907 6896 6895 6894 ] final   75.04 input  -60.11 | X-H torsion
[ 7974 7965 7964 7962 ] final  -10.44 input  175.53 | X-H torsion
[ 8008 7997 7996 7995 ] final  -37.63 input   59.86 | X-H torsion
[ 10167 10162 10161 10158 ] final  127.50 input  -65.29 | X-H torsion
[ 10718 10713 10712 10709 ] final -171.43 input   66.30 | X-H torsion
[ 10763 10752 10751 10750 ] final  -60.97 input  -60.55 | X-H torsion
[ 11005 11000 10999 10996 ] final  145.78 input  -57.11 | X-H torsion

> <Gold.Protein.ActiveResidues>
 VAL166  LYS551  ARG553  GLY616  TRP617  ASP618  TYR619  PRO620  LYS621  CYS622 
 ASP623  PHE694  ASN695  SER759  ASP760  ASP761  ALA762  ILE779  LEU786  VAL792 
 PHE793  MET794  SER795  GLU796  ALA797  LYS798  CYS799  TRP800  GLU811  SER814 

> <Gold.Protein.RotatedAtoms>
  152.5006  134.4180  159.9470 H   0  0  0  0  0  0  0  0  0  0  0  0  # atno 6907 bound_to 6896
  151.4152  133.3709  159.2757 H   0  0  0  0  0  0  0  0  0  0  0  0  # atno 6908 bound_to 6896
  150.9263  134.8701  159.7581 H   0  0  0  0  0  0  0  0  0  0  0  0  # atno 6909 bound_to 6896
  146.2220  140.2765  142.8360 H   0  0  0  0  0  0  0  0  0  0  0  0  # atno 7974 bound_to 7965
  154.4050  140.1599  156.2568 H   0  0  0  0  0  0  0  0  0  0  0  0  # atno 8008 bound_to 7997
  155.9071  140.3429  155.6048 H   0  0  0  0  0  0  0  0  0  0  0  0  # atno 8009 bound_to 7997
  155.7380  140.0789  157.2249 H   0  0  0  0  0  0  0  0  0  0  0  0  # atno 8010 bound_to 7997
  139.5575  144.6859  151.4140 H   0  0  0  0  0  0  0  0  0  0  0  0  # atno 10167 bound_to 10162
  156.7408  130.9341  151.3110 H   0  0  0  0  0  0  0  0  0  0  0  0  # atno 10718 bound_to 10713
  154.2774  135.6278  153.5333 H   0  0  0  0  0  0  0  0  0  0  0  0  # atno 10763 bound_to 10752
  152.9871  135.5624  154.5534 H   0  0  0  0  0  0  0  0  0  0  0  0  # atno 10764 bound_to 10752
  154.5117  135.2877  155.1313 H   0  0  0  0  0  0  0  0  0  0  0  0  # atno 10765 bound_to 10752
  140.0740  134.9135  157.1392 H   0  0  0  0  0  0  0  0  0  0  0  0  # atno 11005 bound_to 11000
  144.9229  140.7888  143.5737 LP  0  0  0  0  0  0  0  0  0  0  0  0  # atno 17320 bound_to 7965
  145.2703  139.1957  143.4845 LP  0  0  0  0  0  0  0  0  0  0  0  0  # atno 17321 bound_to 7965
  140.6850  143.7995  150.7173 LP  0  0  0  0  0  0  0  0  0  0  0  0  # atno 17342 bound_to 10162
  140.1460  143.4400  152.2163 LP  0  0  0  0  0  0  0  0  0  0  0  0  # atno 17343 bound_to 10162
  157.6819  130.9148  150.0289 LP  0  0  0  0  0  0  0  0  0  0  0  0  # atno 17370 bound_to 10713
  156.1466  130.3642  149.9501 LP  0  0  0  0  0  0  0  0  0  0  0  0  # atno 17371 bound_to 10713
  140.3585  134.2520  155.7190 LP  0  0  0  0  0  0  0  0  0  0  0  0  # atno 17394 bound_to 11000
  141.2022  133.7942  157.0400 LP  0  0  0  0  0  0  0  0  0  0  0  0  # atno 17395 bound_to 11000

$$$$
