AV-unprocessed.smi:287|AV-procd|sdf|2186|dock9
  -GOLD-   2262021573D 1   1.00000     0.00000
 Structure written by MMmdl.
 55 58  0  0  0  0  0  0  0  0  1 V2000
  155.2350  130.1886  155.2417 C   0  0  0  0  0  0  0  0  0  0  0  0
  153.7619  129.9658  155.2090 C   0  0  0  0  0  0  0  0  0  0  0  0
  152.9712  128.9411  154.7778 C   0  0  0  0  0  0  0  0  0  0  0  0
  151.6164  129.3132  155.0277 C   0  0  0  0  0  0  0  0  0  0  0  0
  150.3871  128.4693  154.7170 C   0  0  2  0  0  0  0  0  0  0  0  0
  150.4600  127.1378  155.4827 C   0  0  0  0  0  0  0  0  0  0  0  0
  150.2958  128.1120  153.3514 O   0  0  0  0  0  0  0  0  0  0  0  0
  149.0702  129.2063  155.0522 C   0  0  0  0  0  0  0  0  0  0  0  0
  147.8933  128.5292  154.5174 N   0  0  0  0  0  0  0  0  0  0  0  0
  147.1343  129.1250  153.5749 C   0  0  0  0  0  0  0  0  0  0  0  0
  146.1604  128.4390  152.9219 N   0  0  0  0  0  0  0  0  0  0  0  0
  145.4173  129.0546  151.9974 C   0  0  0  0  0  0  0  0  0  0  0  0
  145.4813  130.3223  151.5842 N   0  0  0  0  0  0  0  0  0  0  0  0
  146.4608  131.0141  152.2352 C   0  0  0  0  0  0  0  0  0  0  0  0
  147.3245  130.4890  153.2361 C   0  0  0  0  0  0  0  0  0  0  0  0
  148.1937  131.4787  153.6755 N   0  0  0  0  0  0  0  0  0  0  0  0
  147.8570  132.5277  152.9744 C   0  0  0  0  0  0  0  0  0  0  0  0
  146.8249  132.3364  152.0826 N   0  0  0  0  0  0  0  0  0  0  0  0
  146.2194  133.3428  151.1602 C   0  0  2  0  0  0  0  0  0  0  0  0
  145.8643  134.4584  151.9130 O   0  0  0  0  0  0  0  0  0  0  0  0
  144.6959  135.0304  151.3470 C   0  0  2  0  0  0  0  0  0  0  0  0
  144.0256  136.0073  152.3294 C   0  0  0  0  0  0  0  0  0  0  0  0
  144.5160  137.3159  152.1286 O   0  0  0  0  0  0  0  0  0  0  0  0
  143.8758  133.8102  150.8992 C   0  0  2  0  0  0  0  0  0  0  0  0
  143.0844  133.2964  151.9537 O   0  0  0  0  0  0  0  0  0  0  0  0
  144.9440  132.7959  150.4911 C   0  0  1  0  0  0  0  0  0  0  0  0
  145.0730  132.7920  149.0833 O   0  0  0  0  0  0  0  0  0  0  0  0
  151.6949  130.5661  155.5871 C   0  0  0  0  0  0  0  0  0  0  0  0
  150.6841  131.5480  156.0807 C   0  0  0  0  0  0  0  0  0  0  0  0
  152.9919  130.9672  155.7030 O   0  0  0  0  0  0  0  0  0  0  0  0
  147.0122  133.5966  150.4544 H   0  0  0  0  0  0  0  0  0  0  0  0
  145.0147  135.5815  150.4599 H   0  0  0  0  0  0  0  0  0  0  0  0
  143.2022  134.0648  150.0798 H   0  0  0  0  0  0  0  0  0  0  0  0
  144.7145  131.7854  150.8339 H   0  0  0  0  0  0  0  0  0  0  0  0
  155.7716  129.2853  154.9508 H   0  0  0  0  0  0  0  0  0  0  0  0
  155.5621  130.4670  156.2436 H   0  0  0  0  0  0  0  0  0  0  0  0
  155.5204  130.9873  154.5572 H   0  0  0  0  0  0  0  0  0  0  0  0
  153.3244  128.0195  154.3395 H   0  0  0  0  0  0  0  0  0  0  0  0
  150.5003  127.3026  156.5600 H   0  0  0  0  0  0  0  0  0  0  0  0
  151.3483  126.5685  155.2054 H   0  0  0  0  0  0  0  0  0  0  0  0
  149.5898  126.5119  155.2807 H   0  0  0  0  0  0  0  0  0  0  0  0
  151.1679  128.0918  152.9884 H   0  0  0  0  0  0  0  0  0  0  0  0
  148.9674  129.3559  156.1281 H   0  0  0  0  0  0  0  0  0  0  0  0
  149.1044  130.1994  154.6012 H   0  0  0  0  0  0  0  0  0  0  0  0
  147.7481  127.5803  154.8323 H   0  0  0  0  0  0  0  0  0  0  0  0
  144.6637  128.4448  151.5213 H   0  0  0  0  0  0  0  0  0  0  0  0
  148.3575  133.4779  153.0906 H   0  0  0  0  0  0  0  0  0  0  0  0
  142.9399  135.9983  152.2312 H   0  0  0  0  0  0  0  0  0  0  0  0
  144.2509  135.7134  153.3547 H   0  0  0  0  0  0  0  0  0  0  0  0
  144.3637  137.5592  151.2282 H   0  0  0  0  0  0  0  0  0  0  0  0
  142.1848  133.2635  151.6628 H   0  0  0  0  0  0  0  0  0  0  0  0
  145.4894  133.5977  148.8182 H   0  0  0  0  0  0  0  0  0  0  0  0
  149.9600  131.7823  155.3004 H   0  0  0  0  0  0  0  0  0  0  0  0
  151.1568  132.4807  156.3897 H   0  0  0  0  0  0  0  0  0  0  0  0
  150.1429  131.1463  156.9373 H   0  0  0  0  0  0  0  0  0  0  0  0
  1  2  1  0  0  0  0
  1 35  1  0  0  0  0
  1 36  1  0  0  0  0
  1 37  1  0  0  0  0
  2 30  1  0  0  0  0
  2  3  2  0  0  0  0
  3  4  1  0  0  0  0
  3 38  1  0  0  0  0
  4  5  1  0  0  0  0
  4 28  2  0  0  0  0
  5  6  1  0  0  0  0
  5  7  1  0  0  0  0
  5  8  1  0  0  0  0
  6 39  1  0  0  0  0
  6 40  1  0  0  0  0
  6 41  1  0  0  0  0
  7 42  1  0  0  0  0
  8  9  1  0  0  0  0
  8 43  1  0  0  0  0
  8 44  1  0  0  0  0
  9 10  1  0  0  0  0
  9 45  1  0  0  0  0
 10 15  1  0  0  0  0
 10 11  2  0  0  0  0
 11 12  1  0  0  0  0
 12 13  2  0  0  0  0
 12 46  1  0  0  0  0
 13 14  1  0  0  0  0
 14 18  1  0  0  0  0
 14 15  2  0  0  0  0
 15 16  1  0  0  0  0
 16 17  2  0  0  0  0
 17 18  1  0  0  0  0
 17 47  1  0  0  0  0
 18 19  1  0  0  0  0
 19 31  1  0  0  0  0
 19 26  1  0  0  0  0
 19 20  1  0  0  0  0
 20 21  1  0  0  0  0
 21 32  1  0  0  0  0
 21 22  1  0  0  0  0
 21 24  1  0  0  0  0
 22 23  1  0  0  0  0
 22 48  1  0  0  0  0
 22 49  1  0  0  0  0
 23 50  1  0  0  0  0
 24 33  1  0  0  0  0
 24 25  1  0  0  0  0
 24 26  1  0  0  0  0
 25 51  1  0  0  0  0
 26 34  1  0  0  0  0
 26 27  1  0  0  0  0
 27 52  1  0  0  0  0
 28 29  1  0  0  0  0
 28 30  1  0  0  0  0
 29 53  1  0  0  0  0
 29 54  1  0  0  0  0
 29 55  1  0  0  0  0
M  END
> <s_m_source_file>
AV-unprocessed.smi

> <i_m_source_file_index>
287

> <i_lp_mmshare_version>
43012

> <i_f3d_flags>
0

> <s_epik_input>
W0NIM11jMVtjSF1jKGMobzEpW0NIM10pW0NAQF0oW0NIM10pKFtPSF0pW0NIMl1bTkhdYyhuW2NIXW4yKWMoYzIzKW5bY0hdbjNbQ0BASF00T1tDQEhdKFtDSDJdW09IXSlbQ0BASF0oW09IXSlbQ0BIXTRbT0hd

> <s_epik_cmdline>
J2VwaWtfcHl0aG9uJywgJy1waCcsICc3LjAnLCAnLXRuJywgJzgnLCAnLW1hJywgJzIwMCcsICctbWV0YWxfYmluZGluZycsICctaW1hZScsICc8aW5maWxlLm1hZT4nLCAnLW9tYWUnLCAnPG91dGZpbGUubWFlPic=

> <r_lp_tautomer_probability>
1

> <r_epik_Ionization_Penalty>
0.000992612

> <r_epik_Ionization_Penalty_Charging>
0

> <r_epik_Ionization_Penalty_Neutral>
0.000992612

> <r_epik_State_Penalty>
-0

> <r_epik_Charging_Adjusted_Penalty>
0

> <i_epik_Tot_Q>
0

> <i_epik_Tot_abs_Q>
0

> <r_epik_Metal_State_Penalty>
-0

> <b_epik_Metal_Only>
0

> <s_epik_Chemistry_Notes>
This compound contains an acetal/aminal-like group ( X-CH(R)-Y where X, Y are N, S, or O) that may be acid/base labile, releasing an aldehyde.

> <s_lp_Force_Field>
OPLS_2005

> <r_lp_Energy>
38.0531

> <b_lp_Chiralities_Consistent>
1

> <s_lp_Variant>
AV-unprocessed.smi:287-10

> <Gold.Version>
5.8.1

> <Gold.Id.Protein>
6NUR|6NUR_protein|mol2

> <Gold.PLP.Fitness>
52.8068

> <Gold.PLP.PLP>
-45.0198

> <Gold.PLP.part.hbond>
-3.4085

> <Gold.PLP.part.metal>
0.0000

> <Gold.PLP.part.buried>
-5.4957

> <Gold.PLP.part.nonpolar>
-36.3601

> <Gold.PLP.part.repulsive>
0.4447

> <Gold.PLP.ligand.clash>
0.0000

> <Gold.PLP.ligand.torsion>
0.6661

> <Gold.PLP.Chemscore.Hbond>
3.0000

> <Gold.PLP.Chemscore.CHOScore>
0.0000

> <Gold.PLP.Chemscore.Metal>
0.0000

> <Gold.Chemscore.Hbonds>
donor molecule, donor type, donor heavy atom, donor atom, acceptor molecule, acceptor atom, score
      L1  H     7    42       P1 10737  0.91
      L1  H    23    50       P1 10171  1.00
      L1  H    27    52       P1  7921  1.00

> <Gold.PLP.Chemscore.Internal.Correction>
0.1192

> <Gold.Rescore>
     Score         DG    S(hbond)    S(metal)    S(lipo)     H(rot)  DE(clash)    DE(int)     intcor
      4.70      -9.19       2.71        0.00      69.73       5.27       0.02       4.47       ----

> <Gold.Chemscore.Fitness>
4.7006

> <Gold.Chemscore.DG>
-9.1900

> <Gold.Chemscore.ZeroCoef>
-5.4800

> <Gold.Chemscore.Hbond>
2.7051

> <Gold.Chemscore.Metal>
0.0000

> <Gold.Chemscore.Lipo>
69.7336

> <Gold.Chemscore.Internal_Hbond>
0.0000

> <Gold.Chemscore.DEClash>
0.0228

> <Gold.Chemscore.DEInternal>
4.4666

> <Gold.Chemscore.Rot>
5.2672

> <Gold.Chemscore.Internal.Correction>
   9.000000E+99

> <Gold.Chemscore.Hbonds>
donor molecule, donor type, donor heavy atom, donor atom, acceptor molecule, acceptor atom, score
      L1  H     7    42       P1 10737  0.88
      L1  H    23    50       P1 10171  0.99
      L1  H    27    52       P1  7921  0.34

> <Gold.Chemscore.Hbond.Weighted>
-9.0351

> <Gold.Chemscore.Metal.Weighted>
-0.0000

> <Gold.Chemscore.Lipo.Weighted>
-8.1588

> <Gold.Chemscore.Internal_Hbond.Weighted>
0.0000

> <Gold.Chemscore.DEClash.Weighted>
0.0228

> <Gold.Chemscore.DEInternal.Weighted>
4.4666

> <Gold.Chemscore.Rot.Weighted>
13.4839

> <Gold.Chemscore.Internal.Correction.Weighted>
   9.000000E+99

> <Gold.Protein.RotatedTorsions>
[ 6907 6896 6895 6894 ] final  -51.29 input  -60.11 | X-H torsion
[ 7974 7965 7964 7962 ] final  155.16 input  175.53 | X-H torsion
[ 8008 7997 7996 7995 ] final  -67.38 input   59.86 | X-H torsion
[ 10167 10162 10161 10158 ] final   50.06 input  -65.29 | X-H torsion
[ 10718 10713 10712 10709 ] final -153.78 input   66.30 | X-H torsion
[ 10763 10752 10751 10750 ] final -135.85 input  -60.55 | X-H torsion
[ 11005 11000 10999 10996 ] final  -11.06 input  -57.11 | X-H torsion

> <Gold.Protein.ActiveResidues>
 VAL166  LYS551  ARG553  GLY616  TRP617  ASP618  TYR619  PRO620  LYS621  CYS622 
 ASP623  PHE694  ASN695  SER759  ASP760  ASP761  ALA762  ILE779  LEU786  VAL792 
 PHE793  MET794  SER795  GLU796  ALA797  LYS798  CYS799  TRP800  GLU811  SER814 

> <Gold.Protein.RotatedAtoms>
  150.8626  134.7981  159.7093 H   0  0  0  0  0  0  0  0  0  0  0  0  # atno 6907 bound_to 6896
  152.4658  134.5076  159.9753 H   0  0  0  0  0  0  0  0  0  0  0  0  # atno 6908 bound_to 6896
  151.5177  133.3434  159.2931 H   0  0  0  0  0  0  0  0  0  0  0  0  # atno 6909 bound_to 6896
  144.8043  139.7030  143.6169 H   0  0  0  0  0  0  0  0  0  0  0  0  # atno 7974 bound_to 7965
  154.4796  140.0894  156.7346 H   0  0  0  0  0  0  0  0  0  0  0  0  # atno 8008 bound_to 7997
  155.4505  140.3457  155.4282 H   0  0  0  0  0  0  0  0  0  0  0  0  # atno 8009 bound_to 7997
  156.1171  140.1464  156.9246 H   0  0  0  0  0  0  0  0  0  0  0  0  # atno 8010 bound_to 7997
  140.2763  144.3207  150.6276 H   0  0  0  0  0  0  0  0  0  0  0  0  # atno 10167 bound_to 10162
  156.4905  130.8345  151.2568 H   0  0  0  0  0  0  0  0  0  0  0  0  # atno 10718 bound_to 10713
  154.8695  135.3690  154.4965 H   0  0  0  0  0  0  0  0  0  0  0  0  # atno 10763 bound_to 10752
  153.5609  135.7023  153.5553 H   0  0  0  0  0  0  0  0  0  0  0  0  # atno 10764 bound_to 10752
  153.3629  135.4041  155.1695 H   0  0  0  0  0  0  0  0  0  0  0  0  # atno 10765 bound_to 10752
  140.7513  133.8589  155.9048 H   0  0  0  0  0  0  0  0  0  0  0  0  # atno 11005 bound_to 11000
  146.2331  139.5852  142.9542 LP  0  0  0  0  0  0  0  0  0  0  0  0  # atno 17320 bound_to 7965
  145.5477  141.0416  143.2295 LP  0  0  0  0  0  0  0  0  0  0  0  0  # atno 17321 bound_to 7965
  140.5848  143.2170  151.7362 LP  0  0  0  0  0  0  0  0  0  0  0  0  # atno 17342 bound_to 10162
  139.4974  144.4027  152.0164 LP  0  0  0  0  0  0  0  0  0  0  0  0  # atno 17343 bound_to 10162
  157.7474  131.0015  150.2966 LP  0  0  0  0  0  0  0  0  0  0  0  0  # atno 17370 bound_to 10713
  156.3431  130.3818  149.7392 LP  0  0  0  0  0  0  0  0  0  0  0  0  # atno 17371 bound_to 10713
  140.9748  134.1484  157.4546 LP  0  0  0  0  0  0  0  0  0  0  0  0  # atno 17394 bound_to 11000
  139.8787  134.9991  156.5934 LP  0  0  0  0  0  0  0  0  0  0  0  0  # atno 17395 bound_to 11000

$$$$
