#       Name:                AV-unprocessed.smi:867
#       Creating user name   scv26
#       Creation time:       Fri Mar 27 01:47:51 2020


#       File generated by GOLD software.
#

@<TRIPOS>MOLECULE
AV-unprocessed.smi:867
    56    59     1
SMALL
NO_CHARGES


@<TRIPOS>ATOM
      1 ****         1.4514   0.6857  -2.4613 O.2            1 S1                 0.0000
      2 ****         0.8117  -0.3037  -2.1028 C.2            1 S1                 0.0000
      3 ****         1.3610  -1.5286  -2.0417 N.am           1 S1                 0.0000
      4 ****         2.7481  -1.8456  -2.3587 C.3            1 S1                 0.0000
      5 ****         3.6823  -1.5384  -1.1779 C.3            1 S1                 0.0000
      6 ****         5.1226  -1.8957  -1.4867 C.ar           1 S1                 0.0000
      7 ****         6.0007  -0.9436  -2.0445 C.ar           1 S1                 0.0000
      8 ****         7.3278  -1.3251  -2.3207 C.ar           1 S1                 0.0000
      9 ****         7.7207  -2.6465  -2.0277 C.ar           1 S1                 0.0000
     10 ****         6.8885  -3.5667  -1.4939 N.ar           1 S1                 0.0000
     11 ****         5.6178  -3.1923  -1.2313 C.ar           1 S1                 0.0000
     12 ****        -0.5104  -0.2620  -1.8031 N.am           1 S1                 0.0000
     13 ****        -1.2557  -1.2664  -1.0352 C.3            1 S1                 0.0000
     14 ****        -1.5182  -0.7127   0.3762 C.3            1 S1                 0.0000
     15 ****        -2.2441   0.5925   0.3435 N.4            1 S1                 1.0000
     16 ****        -2.4985   1.1173   1.7209 C.3            1 S1                 0.0000
     17 ****        -3.4742   0.2073   2.5146 C.3            1 S1                 0.0000
     18 ****        -4.5724   1.1741   2.9869 C.3            1 S1                 0.0000
     19 ****        -4.0015   2.1193   4.0568 C.3            1 S1                 0.0000
     20 ****        -3.0908   3.0437   3.2307 C.3            1 S1                 0.0000
     21 ****        -3.2341   2.4860   1.8003 C.3            1 S1                 0.0000
     22 ****        -4.7065   2.0913   1.7786 C.3            1 S1                 0.0000
     23 ****        -1.5935   1.5693  -0.5794 C.3            1 S1                 0.0000
     24 ****        -1.3062   0.9554  -1.9624 C.3            1 S1                 0.0000
     25 ****         0.7704  -2.3000  -1.7672 H              1 S1                 0.0000
     26 ****         2.8018  -2.9057  -2.6086 H              1 S1                 0.0000
     27 ****         3.0640  -1.3006  -3.2500 H              1 S1                 0.0000
     28 ****         3.6294  -0.4805  -0.9171 H              1 S1                 0.0000
     29 ****         3.3623  -2.0901  -0.2930 H              1 S1                 0.0000
     30 ****         5.6646   0.0602  -2.2600 H              1 S1                 0.0000
     31 ****         8.0275  -0.6225  -2.7485 H              1 S1                 0.0000
     32 ****         8.7304  -2.9729  -2.2280 H              1 S1                 0.0000
     33 ****         4.9766  -3.9519  -0.8084 H              1 S1                 0.0000
     34 ****        -2.2020  -1.4739  -1.5371 H              1 S1                 0.0000
     35 ****        -0.7497  -2.2289  -0.9602 H              1 S1                 0.0000
     36 ****        -2.0806  -1.4540   0.9424 H              1 S1                 0.0000
     37 ****        -0.5676  -0.5814   0.8963 H              1 S1                 0.0000
     38 ****        -1.5376   1.1914   2.2335 H              1 S1                 0.0000
     39 ****        -3.9283  -0.5550   1.8800 H              1 S1                 0.0000
     40 ****        -2.9839  -0.3032   3.3445 H              1 S1                 0.0000
     41 ****        -5.4928   0.6748   3.2911 H              1 S1                 0.0000
     42 ****        -4.7960   2.6924   4.5365 H              1 S1                 0.0000
     43 ****        -3.4568   1.5829   4.8346 H              1 S1                 0.0000
     44 ****        -3.4492   4.0729   3.2810 H              1 S1                 0.0000
     45 ****        -2.0585   3.0360   3.5822 H              1 S1                 0.0000
     46 ****        -2.9489   3.2330   1.0631 H              1 S1                 0.0000
     47 ****        -5.0020   1.5702   0.8664 H              1 S1                 0.0000
     48 ****        -5.3832   2.9312   1.9466 H              1 S1                 0.0000
     49 ****        -2.2345   2.4329  -0.7423 H              1 S1                 0.0000
     50 ****        -0.6665   1.9310  -0.1316 H              1 S1                 0.0000
     51 ****        -0.8208   1.6922  -2.6044 H              1 S1                 0.0000
     52 ****        -2.2435   0.7058  -2.4620 H              1 S1                 0.0000
     53 ****        -3.1503   0.4011  -0.0593 H              1 S1                 0.0000
     54 ****         2.4131   0.5928  -2.7192 LP             1 S1                 0.0000
     55 ****         1.0091   1.5819  -2.4945 LP             1 S1                 0.0000
     56 ****         7.2033  -4.4957  -1.2993 LP             1 S1                 0.0000
@<TRIPOS>BOND
    1    1    2 2     
    2    2    3 am    
    3    2   12 am    
    4    3    4 1     
    5    3   25 1     
    6    4    5 1     
    7    4   26 1     
    8    4   27 1     
    9    5    6 1     
   10    5   28 1     
   11    5   29 1     
   12    6   11 ar    
   13    6    7 ar    
   14    7    8 ar    
   15    7   30 1     
   16    8    9 ar    
   17    8   31 1     
   18    9   10 ar    
   19    9   32 1     
   20   10   11 ar    
   21   11   33 1     
   22   12   24 1     
   23   12   13 1     
   24   13   14 1     
   25   13   34 1     
   26   13   35 1     
   27   14   15 1     
   28   14   36 1     
   29   14   37 1     
   30   15   16 1     
   31   15   23 1     
   32   15   53 1     
   33   16   21 1     
   34   16   17 1     
   35   16   38 1     
   36   17   18 1     
   37   17   39 1     
   38   17   40 1     
   39   18   22 1     
   40   18   19 1     
   41   18   41 1     
   42   19   20 1     
   43   19   42 1     
   44   19   43 1     
   45   20   21 1     
   46   20   44 1     
   47   20   45 1     
   48   21   22 1     
   49   21   46 1     
   50   22   47 1     
   51   22   48 1     
   52   23   24 1     
   53   23   49 1     
   54   23   50 1     
   55   24   51 1     
   56   24   52 1     
   57    1   54 1     
   58    1   55 1     
   59   10   56 1     
@<TRIPOS>SUBSTRUCTURE
      1 S1             1
@<TRIPOS>SET
LONE_PAIRS      STATIC     ATOMS    <user>   **** ""
3 54 55 56
DONOR_HYDROGENS      STATIC     ATOMS    <user>   **** ""
2 25 53
ATOM$BLUE        STATIC     ATOMS    COLORGROUP SYSTEM
3 54 55 56
ATOM$RED        STATIC     ATOMS    COLORGROUP SYSTEM
2 25 53
