AV-unprocessed.smi:2384|AV-procd|sdf|9462|dock2
  -GOLD-   2272013 93D 1   1.00000     0.00000
 Structure written by MMmdl.
 43 44  0  0  0  0  0  0  0  0  1 V2000
  154.2455  141.1176  160.9613 C   0  0  0  0  0  0  0  0  0  0  0  0
  153.3183  141.7695  159.9568 C   0  0  0  0  0  0  0  0  0  0  0  0
  152.9836  143.1331  160.0616 C   0  0  0  0  0  0  0  0  0  0  0  0
  152.1129  143.6798  159.0984 C   0  0  0  0  0  0  0  0  0  0  0  0
  151.7127  145.1392  159.1476 C   0  0  0  0  0  0  0  0  0  0  0  0
  151.5868  142.9574  158.0867 N   0  0  0  0  0  0  0  0  0  0  0  0
  151.9020  141.6432  157.9755 C   0  0  0  0  0  0  0  0  0  0  0  0
  151.4057  140.8004  156.9456 N   0  0  0  0  0  0  0  0  0  0  0  0
  151.9605  139.6794  156.4512 C   0  0  0  0  0  0  0  0  0  0  0  0
  153.0408  139.2034  156.8019 O   0  0  0  0  0  0  0  0  0  0  0  0
  151.1876  139.1344  155.5010 N   0  0  0  0  0  0  0  0  0  0  0  0
  151.5133  137.9298  154.7444 C   0  0  0  0  0  0  0  0  0  0  0  0
  150.4327  136.8419  154.8792 C   0  0  0  0  0  0  0  0  0  0  0  0
  150.7139  135.8343  156.0098 C   0  0  0  0  0  0  0  0  0  0  0  0
  150.4378  134.4626  155.5914 N   0  0  0  0  0  0  0  0  0  0  0  0
  149.7857  134.1906  154.3213 C   0  0  0  0  0  0  0  0  0  0  0  0
  149.4989  132.6816  154.3298 C   0  0  0  0  0  0  0  0  0  0  0  0
  150.2620  132.1126  155.5310 C   0  0  0  0  0  0  0  0  0  0  0  0
  150.7143  133.3518  156.2840 C   0  0  0  0  0  0  0  0  0  0  0  0
  151.2591  133.3007  157.3858 O   0  0  0  0  0  0  0  0  0  0  0  0
  152.7713  141.0174  158.8974 C   0  0  0  0  0  0  0  0  0  0  0  0
  154.6166  141.8421  161.6872 H   0  0  0  0  0  0  0  0  0  0  0  0
  155.1026  140.6741  160.4543 H   0  0  0  0  0  0  0  0  0  0  0  0
  153.7206  140.3307  161.5033 H   0  0  0  0  0  0  0  0  0  0  0  0
  153.3832  143.7438  160.8580 H   0  0  0  0  0  0  0  0  0  0  0  0
  152.1938  145.6546  159.9792 H   0  0  0  0  0  0  0  0  0  0  0  0
  150.6332  145.2317  159.2687 H   0  0  0  0  0  0  0  0  0  0  0  0
  152.0003  145.6425  158.2241 H   0  0  0  0  0  0  0  0  0  0  0  0
  150.5272  141.0839  156.5381 H   0  0  0  0  0  0  0  0  0  0  0  0
  150.3149  139.5895  155.2770 H   0  0  0  0  0  0  0  0  0  0  0  0
  151.6642  138.1805  153.6932 H   0  0  0  0  0  0  0  0  0  0  0  0
  152.4682  137.5488  155.1071 H   0  0  0  0  0  0  0  0  0  0  0  0
  149.4602  137.3091  155.0402 H   0  0  0  0  0  0  0  0  0  0  0  0
  150.3573  136.3120  153.9290 H   0  0  0  0  0  0  0  0  0  0  0  0
  151.7538  135.9108  156.3310 H   0  0  0  0  0  0  0  0  0  0  0  0
  150.1053  136.0680  156.8841 H   0  0  0  0  0  0  0  0  0  0  0  0
  148.8689  134.7716  154.2136 H   0  0  0  0  0  0  0  0  0  0  0  0
  150.4583  134.4586  153.5052 H   0  0  0  0  0  0  0  0  0  0  0  0
  148.4296  132.5017  154.4490 H   0  0  0  0  0  0  0  0  0  0  0  0
  149.8075  132.2106  153.3959 H   0  0  0  0  0  0  0  0  0  0  0  0
  149.6320  131.4789  156.1560 H   0  0  0  0  0  0  0  0  0  0  0  0
  151.1340  131.5390  155.2154 H   0  0  0  0  0  0  0  0  0  0  0  0
  153.0157  139.9695  158.7976 H   0  0  0  0  0  0  0  0  0  0  0  0
  1  2  1  0  0  0  0
  1 22  1  0  0  0  0
  1 23  1  0  0  0  0
  1 24  1  0  0  0  0
  2 21  1  0  0  0  0
  2  3  2  0  0  0  0
  3  4  1  0  0  0  0
  3 25  1  0  0  0  0
  4  5  1  0  0  0  0
  4  6  2  0  0  0  0
  5 26  1  0  0  0  0
  5 27  1  0  0  0  0
  5 28  1  0  0  0  0
  6  7  1  0  0  0  0
  7  8  1  0  0  0  0
  7 21  2  0  0  0  0
  8  9  1  0  0  0  0
  8 29  1  0  0  0  0
  9 10  2  0  0  0  0
  9 11  1  0  0  0  0
 11 12  1  0  0  0  0
 11 30  1  0  0  0  0
 12 13  1  0  0  0  0
 12 31  1  0  0  0  0
 12 32  1  0  0  0  0
 13 14  1  0  0  0  0
 13 33  1  0  0  0  0
 13 34  1  0  0  0  0
 14 15  1  0  0  0  0
 14 35  1  0  0  0  0
 14 36  1  0  0  0  0
 15 19  1  0  0  0  0
 15 16  1  0  0  0  0
 16 17  1  0  0  0  0
 16 37  1  0  0  0  0
 16 38  1  0  0  0  0
 17 18  1  0  0  0  0
 17 39  1  0  0  0  0
 17 40  1  0  0  0  0
 18 19  1  0  0  0  0
 18 41  1  0  0  0  0
 18 42  1  0  0  0  0
 19 20  2  0  0  0  0
 21 43  1  0  0  0  0
M  END
> <s_m_source_file>
AV-unprocessed.smi

> <i_m_source_file_index>
2384

> <i_lp_mmshare_version>
43012

> <i_f3d_flags>
0

> <s_epik_input>
W0NIM11jMVtjSF1jKFtDSDNdKW5jKFtjSF0xKVtOSF1DKD1PKVtOSF1bQ0gyXVtDSDJdW0NIMl1OMltDSDJdW0NIMl1bQ0gyXUMyPU8=

> <s_epik_cmdline>
J2VwaWtfcHl0aG9uJywgJy1waCcsICc3LjAnLCAnLXRuJywgJzgnLCAnLW1hJywgJzIwMCcsICctbWV0YWxfYmluZGluZycsICctaW1hZScsICc8aW5maWxlLm1hZT4nLCAnLW9tYWUnLCAnPG91dGZpbGUubWFlPic=

> <r_lp_tautomer_probability>
1

> <r_epik_Ionization_Penalty>
0.000241796

> <r_epik_Ionization_Penalty_Charging>
0

> <r_epik_Ionization_Penalty_Neutral>
0.000241796

> <r_epik_State_Penalty>
-0

> <r_epik_Charging_Adjusted_Penalty>
0

> <i_epik_Tot_Q>
0

> <i_epik_Tot_abs_Q>
0

> <r_epik_Metal_State_Penalty>
-0

> <b_epik_Metal_Only>
0

> <s_lp_Force_Field>
OPLS_2005

> <r_lp_Energy>
18.86

> <b_lp_Chiralities_Consistent>
1

> <s_lp_Variant>
AV-unprocessed.smi:2384-1

> <Gold.Version>
5.8.1

> <Gold.Id.Protein>
6NUR|6NUR_protein|mol2

> <Gold.PLP.Fitness>
49.1943

> <Gold.PLP.PLP>
-45.3713

> <Gold.PLP.part.hbond>
-2.0000

> <Gold.PLP.part.metal>
0.0000

> <Gold.PLP.part.buried>
-6.5448

> <Gold.PLP.part.nonpolar>
-37.9421

> <Gold.PLP.part.repulsive>
0.2591

> <Gold.PLP.ligand.clash>
0.0000

> <Gold.PLP.ligand.torsion>
0.7288

> <Gold.PLP.Chemscore.Hbond>
1.7520

> <Gold.PLP.Chemscore.CHOScore>
0.0000

> <Gold.PLP.Chemscore.Metal>
0.0000

> <Gold.Chemscore.Hbonds>
donor molecule, donor type, donor heavy atom, donor atom, acceptor molecule, acceptor atom, score
      P1  H  6896  6907       L1    20  0.75
      P1  H  7997  8009       L1    10  1.00

> <Gold.PLP.Chemscore.Internal.Correction>
0.0245

> <Gold.Rescore>
     Score         DG    S(hbond)    S(metal)    S(lipo)     H(rot)  DE(clash)    DE(int)     intcor
     16.89     -18.96       1.86        0.00     100.30       1.75       0.00       2.07       ----

> <Gold.Chemscore.Fitness>
16.8944

> <Gold.Chemscore.DG>
-18.9641

> <Gold.Chemscore.ZeroCoef>
-5.4800

> <Gold.Chemscore.Hbond>
1.8614

> <Gold.Chemscore.Metal>
0.0000

> <Gold.Chemscore.Lipo>
100.2951

> <Gold.Chemscore.Internal_Hbond>
0.0000

> <Gold.Chemscore.DEClash>
0.0009

> <Gold.Chemscore.DEInternal>
2.0688

> <Gold.Chemscore.Rot>
1.7451

> <Gold.Chemscore.Internal.Correction>
   9.000000E+99

> <Gold.Chemscore.Hbonds>
donor molecule, donor type, donor heavy atom, donor atom, acceptor molecule, acceptor atom, score
      P1  H  6896  6907       L1    20  0.74
      P1  H  7997  8009       L1    10  0.97

> <Gold.Chemscore.Hbond.Weighted>
-6.2170

> <Gold.Chemscore.Metal.Weighted>
-0.0000

> <Gold.Chemscore.Lipo.Weighted>
-11.7345

> <Gold.Chemscore.Internal_Hbond.Weighted>
0.0000

> <Gold.Chemscore.DEClash.Weighted>
0.0009

> <Gold.Chemscore.DEInternal.Weighted>
2.0688

> <Gold.Chemscore.Rot.Weighted>
4.4675

> <Gold.Chemscore.Internal.Correction.Weighted>
   9.000000E+99

> <Gold.Protein.RotatedTorsions>
[ 6907 6896 6895 6894 ] final -159.09 input  -60.11 | X-H torsion
[ 7974 7965 7964 7962 ] final  176.86 input  175.53 | X-H torsion
[ 8008 7997 7996 7995 ] final  176.17 input   59.86 | X-H torsion
[ 10167 10162 10161 10158 ] final -123.44 input  -65.29 | X-H torsion
[ 10718 10713 10712 10709 ] final   97.92 input   66.30 | X-H torsion
[ 10763 10752 10751 10750 ] final  -79.71 input  -60.55 | X-H torsion
[ 11005 11000 10999 10996 ] final  154.68 input  -57.11 | X-H torsion

> <Gold.Protein.ActiveResidues>
 VAL166  LYS551  ARG553  GLY616  TRP617  ASP618  TYR619  PRO620  LYS621  CYS622 
 ASP623  PHE694  ASN695  SER759  ASP760  ASP761  ALA762  ILE779  LEU786  VAL792 
 PHE793  MET794  SER795  GLU796  ALA797  LYS798  CYS799  TRP800  GLU811  SER814 

> <Gold.Protein.RotatedAtoms>
  151.3283  133.4011  159.2660 H   0  0  0  0  0  0  0  0  0  0  0  0  # atno 6907 bound_to 6896
  150.9977  134.9297  159.7946 H   0  0  0  0  0  0  0  0  0  0  0  0  # atno 6908 bound_to 6896
  152.5266  134.3248  159.9214 H   0  0  0  0  0  0  0  0  0  0  0  0  # atno 6909 bound_to 6896
  144.7177  140.0160  143.6440 H   0  0  0  0  0  0  0  0  0  0  0  0  # atno 7974 bound_to 7965
  156.0793  140.1390  156.9732 H   0  0  0  0  0  0  0  0  0  0  0  0  # atno 8008 bound_to 7997
  154.4576  140.0955  156.6850 H   0  0  0  0  0  0  0  0  0  0  0  0  # atno 8009 bound_to 7997
  155.5102  140.3453  155.4389 H   0  0  0  0  0  0  0  0  0  0  0  0  # atno 8010 bound_to 7997
  140.0035  143.5516  152.2293 H   0  0  0  0  0  0  0  0  0  0  0  0  # atno 10167 bound_to 10162
  157.6904  131.0624  150.4718 H   0  0  0  0  0  0  0  0  0  0  0  0  # atno 10718 bound_to 10713
  154.5420  135.5686  153.6848 H   0  0  0  0  0  0  0  0  0  0  0  0  # atno 10763 bound_to 10752
  152.9966  135.6230  154.2489 H   0  0  0  0  0  0  0  0  0  0  0  0  # atno 10764 bound_to 10752
  154.2420  135.2862  155.2830 H   0  0  0  0  0  0  0  0  0  0  0  0  # atno 10765 bound_to 10752
  140.1511  134.8674  157.2456 H   0  0  0  0  0  0  0  0  0  0  0  0  # atno 11005 bound_to 11000
  146.0220  139.3259  143.0807 LP  0  0  0  0  0  0  0  0  0  0  0  0  # atno 17320 bound_to 7965
  145.8557  140.9504  143.0726 LP  0  0  0  0  0  0  0  0  0  0  0  0  # atno 17321 bound_to 7965
  139.6255  144.7636  151.2648 LP  0  0  0  0  0  0  0  0  0  0  0  0  # atno 17342 bound_to 10162
  140.7409  143.6572  150.8196 LP  0  0  0  0  0  0  0  0  0  0  0  0  # atno 17343 bound_to 10162
  156.5055  130.4127  149.6329 LP  0  0  0  0  0  0  0  0  0  0  0  0  # atno 17370 bound_to 10713
  156.3289  130.7320  151.2246 LP  0  0  0  0  0  0  0  0  0  0  0  0  # atno 17371 bound_to 10713
  140.2603  134.3579  155.7409 LP  0  0  0  0  0  0  0  0  0  0  0  0  # atno 17394 bound_to 11000
  141.2199  133.7366  156.9070 LP  0  0  0  0  0  0  0  0  0  0  0  0  # atno 17395 bound_to 11000

$$$$
