#       Name:                AV-unprocessed.smi:2727
#       Creating user name   scv26
#       Creation time:       Fri Mar 27 14:56:46 2020


#       File generated by GOLD software.
#

@<TRIPOS>MOLECULE
AV-unprocessed.smi:2727
    47    48     1
SMALL
NO_CHARGES


@<TRIPOS>ATOM
      1 ****        -0.3819   4.1193   0.0409 O.2            1 S1                 0.0000
      2 ****        -0.7901   2.9780   0.2683 C.2            1 S1                 0.0000
      3 ****         0.0645   1.9468   0.2372 N.am           1 S1                 0.0000
      4 ****         1.4924   2.0449  -0.0504 C.3            1 S1                 0.0000
      5 ****         2.1807   0.6666   0.0124 C.3            1 S1                 0.0000
      6 ****         1.7085  -0.3348  -1.0613 C.2            1 S1                 0.0000
      7 ****         1.1680   0.0970  -2.0811 O.2            1 S1                 0.0000
      8 ****         1.8965  -1.6629  -0.8611 N.am           1 S1                 0.0000
      9 ****         1.3824  -2.6592  -1.8092 C.3            1 S1                 0.0000
     10 ****        -0.1088  -2.9702  -1.5670 C.3            1 S1                 0.0000
     11 ****        -0.5707  -2.9533  -0.0926 C.3            1 S1                 0.0000
     12 ****         0.4073  -3.5929   0.9134 C.3            1 S1                 0.0000
     13 ****         1.5175  -2.6347   1.3959 C.3            1 S1                 0.0000
     14 ****         2.5479  -2.2562   0.3149 C.3            1 S1                 0.0000
     15 ****        -2.0618   2.6235   0.5609 N.pl3          1 S1                -1.0000
     16 ****        -3.0206   3.5619   0.6185 C.2            1 S1                 0.0000
     17 ****        -3.5176   4.1187   1.7246 N.2            1 S1                 0.0000
     18 ****        -4.4812   5.0185   1.2960 C.2            1 S1                 0.0000
     19 ****        -4.5313   4.9609  -0.0701 C.2            1 S1                 0.0000
     20 ****        -3.6176   4.0429  -0.5089 O.3            1 S1                 0.0000
     21 ****        -0.3070   1.0267   0.4222 H              1 S1                 0.0000
     22 ****         1.6411   2.5053  -1.0286 H              1 S1                 0.0000
     23 ****         1.9533   2.7108   0.6805 H              1 S1                 0.0000
     24 ****         3.2574   0.7960  -0.0997 H              1 S1                 0.0000
     25 ****         2.0160   0.2607   1.0097 H              1 S1                 0.0000
     26 ****         1.5351  -2.3347  -2.8400 H              1 S1                 0.0000
     27 ****         1.9493  -3.5872  -1.7290 H              1 S1                 0.0000
     28 ****        -0.7180  -2.2549  -2.1210 H              1 S1                 0.0000
     29 ****        -0.3312  -3.9439  -2.0042 H              1 S1                 0.0000
     30 ****        -0.7809  -1.9276   0.2143 H              1 S1                 0.0000
     31 ****        -1.5283  -3.4716  -0.0356 H              1 S1                 0.0000
     32 ****        -0.1644  -3.9007   1.7895 H              1 S1                 0.0000
     33 ****         0.8366  -4.5074   0.5025 H              1 S1                 0.0000
     34 ****         1.0612  -1.7342   1.8078 H              1 S1                 0.0000
     35 ****         2.0470  -3.1024   2.2266 H              1 S1                 0.0000
     36 ****         3.1113  -3.1448   0.0281 H              1 S1                 0.0000
     37 ****         3.3026  -1.5896   0.7322 H              1 S1                 0.0000
     38 ****        -5.0496   5.6201   1.9896 H              1 S1                 0.0000
     39 ****        -5.1154   5.4660  -0.8246 H              1 S1                 0.0000
     40 ****         0.5844   4.2727  -0.1659 LP             1 S1                 0.0000
     41 ****        -1.0172   4.8912   0.0633 LP             1 S1                 0.0000
     42 ****         1.0420   1.0817  -2.2016 LP             1 S1                 0.0000
     43 ****         0.8554  -0.5373  -2.7882 LP             1 S1                 0.0000
     44 ****        -2.2877   1.6648   0.7339 LP             1 S1                 0.0000
     45 ****        -3.2500   3.9264   2.6687 LP             1 S1                 0.0000
     46 ****        -4.0738   3.3046  -1.0059 LP             1 S1                 0.0000
     47 ****        -2.9423   4.4780  -1.1045 LP             1 S1                 0.0000
@<TRIPOS>BOND
    1    1    2 2     
    2    2    3 am    
    3    2   15 1     
    4    3    4 1     
    5    3   21 1     
    6    4    5 1     
    7    4   22 1     
    8    4   23 1     
    9    5    6 1     
   10    5   24 1     
   11    5   25 1     
   12    6    7 2     
   13    6    8 am    
   14    8   14 1     
   15    8    9 1     
   16    9   10 1     
   17    9   26 1     
   18    9   27 1     
   19   10   11 1     
   20   10   28 1     
   21   10   29 1     
   22   11   12 1     
   23   11   30 1     
   24   11   31 1     
   25   12   13 1     
   26   12   32 1     
   27   12   33 1     
   28   13   14 1     
   29   13   34 1     
   30   13   35 1     
   31   14   36 1     
   32   14   37 1     
   33   15   16 1     
   34   16   20 1     
   35   16   17 2     
   36   17   18 1     
   37   18   19 2     
   38   18   38 1     
   39   19   20 1     
   40   19   39 1     
   41    1   40 1     
   42    1   41 1     
   43    7   42 1     
   44    7   43 1     
   45   15   44 1     
   46   17   45 1     
   47   20   46 1     
   48   20   47 1     
@<TRIPOS>SUBSTRUCTURE
      1 S1             1
@<TRIPOS>SET
LONE_PAIRS      STATIC     ATOMS    <user>   **** ""
8 40 41 42 43 44 45 46 47
DONOR_HYDROGENS      STATIC     ATOMS    <user>   **** ""
1 21
ATOM$BLUE        STATIC     ATOMS    COLORGROUP SYSTEM
8 40 41 42 43 44 45 46 47
ATOM$RED        STATIC     ATOMS    COLORGROUP SYSTEM
1 21
