AV-unprocessed.smi:2895|AV-procd|sdf|11135|dock1
  -GOLD-   2272016 13D 1   1.00000     0.00000
 Structure written by MMmdl.
 54 57  0  0  0  0  0  0  0  0  3 V2000
  149.6442  134.9580  154.6724 O   0  0  0  0  0  0  0  0  0  0  0  0
  148.8105  134.2765  155.2701 C   0  0  0  0  0  0  0  0  0  0  0  0
  147.9753  133.4470  154.6213 N   0  0  0  0  0  0  0  0  0  0  0  0
  147.9425  133.2424  153.1772 C   0  0  0  0  0  0  0  0  0  0  0  0
  147.0574  132.0461  152.7879 C   0  0  0  0  0  0  0  0  0  0  0  0
  145.8065  132.4749  152.0448 C   0  0  0  0  0  0  0  0  0  0  0  0
  144.9633  133.4727  152.5818 C   0  0  0  0  0  0  0  0  0  0  0  0
  143.8074  133.8534  151.8697 C   0  0  0  0  0  0  0  0  0  0  0  0
  143.5191  133.2620  150.6895 N   0  3  0  0  0  0  0  0  0  0  0  0
  144.2984  132.3040  150.1413 C   0  0  0  0  0  0  0  0  0  0  0  0
  145.4685  131.8846  150.8067 C   0  0  0  0  0  0  0  0  0  0  0  0
  148.6798  134.2780  156.6217 N   0  0  0  0  0  0  0  0  0  0  0  0
  147.8105  133.3948  157.4163 C   0  0  0  0  0  0  0  0  0  0  0  0
  146.6834  134.2336  158.0505 C   0  0  0  0  0  0  0  0  0  0  0  0
  147.2164  135.3529  158.8793 N   0  3  0  0  0  0  0  0  0  0  0  0
  147.7147  134.9430  160.2277 C   0  0  1  0  0  0  0  0  0  0  0  0
  148.2497  136.1158  161.0865 C   0  0  0  0  0  0  0  0  0  0  0  0
  147.5255  135.9274  162.4326 C   0  0  1  0  0  0  0  0  0  0  0  0
  146.0648  136.3839  162.2775 C   0  0  0  0  0  0  0  0  0  0  0  0
  145.4616  135.2771  161.3945 C   0  0  0  0  0  0  0  0  0  0  0  0
  146.6543  134.3214  161.1723 C   0  0  2  0  0  0  0  0  0  0  0  0
  147.3708  134.4139  162.5155 C   0  0  0  0  0  0  0  0  0  0  0  0
  148.1939  136.1759  158.1105 C   0  0  0  0  0  0  0  0  0  0  0  0
  149.2955  135.3144  157.4590 C   0  0  0  0  0  0  0  0  0  0  0  0
  147.3260  132.9043  155.1722 H   0  0  0  0  0  0  0  0  0  0  0  0
  147.5994  134.1526  152.6820 H   0  0  0  0  0  0  0  0  0  0  0  0
  148.9652  133.0719  152.8397 H   0  0  0  0  0  0  0  0  0  0  0  0
  147.6234  131.3489  152.1688 H   0  0  0  0  0  0  0  0  0  0  0  0
  146.7561  131.4908  153.6772 H   0  0  0  0  0  0  0  0  0  0  0  0
  145.1991  133.9421  153.5260 H   0  0  0  0  0  0  0  0  0  0  0  0
  143.1101  134.6067  152.2062 H   0  0  0  0  0  0  0  0  0  0  0  0
  143.9650  131.9047  149.1943 H   0  0  0  0  0  0  0  0  0  0  0  0
  146.0949  131.1197  150.3706 H   0  0  0  0  0  0  0  0  0  0  0  0
  147.3679  132.5775  156.8476 H   0  0  0  0  0  0  0  0  0  0  0  0
  148.4078  132.9132  158.1915 H   0  0  0  0  0  0  0  0  0  0  0  0
  146.0784  134.6696  157.2544 H   0  0  0  0  0  0  0  0  0  0  0  0
  146.0011  133.5995  158.6140 H   0  0  0  0  0  0  0  0  0  0  0  0
  148.5146  134.2131  160.0959 H   0  0  0  0  0  0  0  0  0  0  0  0
  149.3308  136.0366  161.2077 H   0  0  0  0  0  0  0  0  0  0  0  0
  148.0353  137.0983  160.6644 H   0  0  0  0  0  0  0  0  0  0  0  0
  148.0398  136.3882  163.2767 H   0  0  0  0  0  0  0  0  0  0  0  0
  145.5639  136.4181  163.2462 H   0  0  0  0  0  0  0  0  0  0  0  0
  145.9817  137.3726  161.8243 H   0  0  0  0  0  0  0  0  0  0  0  0
  144.6551  134.7683  161.9241 H   0  0  0  0  0  0  0  0  0  0  0  0
  145.0482  135.6664  160.4642 H   0  0  0  0  0  0  0  0  0  0  0  0
  146.3615  133.3063  160.9032 H   0  0  0  0  0  0  0  0  0  0  0  0
  148.3233  133.8815  162.5398 H   0  0  0  0  0  0  0  0  0  0  0  0
  146.7577  134.0870  163.3575 H   0  0  0  0  0  0  0  0  0  0  0  0
  147.6458  136.7017  157.3275 H   0  0  0  0  0  0  0  0  0  0  0  0
  148.6411  136.9522  158.7299 H   0  0  0  0  0  0  0  0  0  0  0  0
  149.9118  134.8369  158.2213 H   0  0  0  0  0  0  0  0  0  0  0  0
  149.9759  135.9600  156.9025 H   0  0  0  0  0  0  0  0  0  0  0  0
  146.4280  135.9552  159.0701 H   0  0  0  0  0  0  0  0  0  0  0  0
  142.6766  133.5507  150.1913 H   0  0  0  0  0  0  0  0  0  0  0  0
  1  2  2  0  0  0  0
  2  3  1  0  0  0  0
  2 12  1  0  0  0  0
  3  4  1  0  0  0  0
  3 25  1  0  0  0  0
  4  5  1  0  0  0  0
  4 26  1  0  0  0  0
  4 27  1  0  0  0  0
  5  6  1  0  0  0  0
  5 28  1  0  0  0  0
  5 29  1  0  0  0  0
  6 11  1  0  0  0  0
  6  7  2  0  0  0  0
  7  8  1  0  0  0  0
  7 30  1  0  0  0  0
  8  9  2  0  0  0  0
  8 31  1  0  0  0  0
  9 10  1  0  0  0  0
  9 54  1  0  0  0  0
 10 11  2  0  0  0  0
 10 32  1  0  0  0  0
 11 33  1  0  0  0  0
 12 24  1  0  0  0  0
 12 13  1  0  0  0  0
 13 14  1  0  0  0  0
 13 34  1  0  0  0  0
 13 35  1  0  0  0  0
 14 15  1  0  0  0  0
 14 36  1  0  0  0  0
 14 37  1  0  0  0  0
 15 16  1  0  0  0  0
 15 23  1  0  0  0  0
 15 53  1  0  0  0  0
 16 21  1  0  0  0  0
 16 17  1  0  0  0  0
 16 38  1  0  0  0  0
 17 18  1  0  0  0  0
 17 39  1  0  0  0  0
 17 40  1  0  0  0  0
 18 22  1  0  0  0  0
 18 19  1  0  0  0  0
 18 41  1  0  0  0  0
 19 20  1  0  0  0  0
 19 42  1  0  0  0  0
 19 43  1  0  0  0  0
 20 21  1  0  0  0  0
 20 44  1  0  0  0  0
 20 45  1  0  0  0  0
 21 22  1  0  0  0  0
 21 46  1  0  0  0  0
 22 47  1  0  0  0  0
 22 48  1  0  0  0  0
 23 24  1  0  0  0  0
 23 49  1  0  0  0  0
 23 50  1  0  0  0  0
 24 51  1  0  0  0  0
 24 52  1  0  0  0  0
M  CHG  1   9   1
M  CHG  1  15   1
M  END
> <s_m_source_file>
AV-unprocessed.smi

> <i_m_source_file_index>
2895

> <i_lp_mmshare_version>
43012

> <i_f3d_flags>
0

> <s_epik_input>
W0NIMl0xW0NIMl1bQ0BASF0oW0NIMl0yKVtDQEBIXShbQ0gyXVtDQEhdMTIpTihbQ0gyXVtDSDJdMylbQ0gyXVtDSDJdTjNDKD1PKVtOSF1bQ0gyXVtDSDJdYzRbY0hdW2NIXW5bY0hdW2NIXTQ=

> <s_epik_cmdline>
J2VwaWtfcHl0aG9uJywgJy1waCcsICc3LjAnLCAnLXRuJywgJzgnLCAnLW1hJywgJzIwMCcsICctbWV0YWxfYmluZGluZycsICctaW1hZScsICc8aW5maWxlLm1hZT4nLCAnLW9tYWUnLCAnPG91dGZpbGUubWFlPic=

> <r_epik_Ionization_Penalty>
1.44916

> <r_epik_Ionization_Penalty_Charging>
1.44913

> <r_epik_Ionization_Penalty_Neutral>
2.64641e-05

> <r_epik_State_Penalty>
1.53218

> <r_epik_Charging_Adjusted_Penalty>
2.98131

> <i_epik_Tot_Q>
2

> <i_epik_Tot_abs_Q>
2

> <r_epik_Metal_State_Penalty>
1.58241

> <b_epik_Metal_Only>
0

> <s_lp_Force_Field>
OPLS_2005

> <r_lp_Energy>
107.439

> <b_lp_Chiralities_Consistent>
1

> <s_lp_Variant>
AV-unprocessed.smi:2895-8

> <Gold.Version>
5.8.1

> <Gold.Id.Protein>
6NUR|6NUR_protein|mol2

> <Gold.PLP.Fitness>
42.0911

> <Gold.PLP.PLP>
-37.1421

> <Gold.PLP.part.hbond>
-1.0000

> <Gold.PLP.part.metal>
0.0000

> <Gold.PLP.part.buried>
-6.8382

> <Gold.PLP.part.nonpolar>
-30.2078

> <Gold.PLP.part.repulsive>
0.2113

> <Gold.PLP.ligand.clash>
0.0000

> <Gold.PLP.ligand.torsion>
0.5784

> <Gold.PLP.Chemscore.Hbond>
2.0000

> <Gold.PLP.Chemscore.CHOScore>
0.0000

> <Gold.PLP.Chemscore.Metal>
0.0000

> <Gold.Chemscore.Hbonds>
donor molecule, donor type, donor heavy atom, donor atom, acceptor molecule, acceptor atom, score
      L1  H     9    54       P1 10186  2.00

> <Gold.PLP.Chemscore.Internal.Correction>
0.1058

> <Gold.Rescore>
     Score         DG    S(hbond)    S(metal)    S(lipo)     H(rot)  DE(clash)    DE(int)     intcor
     16.26     -16.93       0.97        0.00     101.94       1.46       0.02       0.65       ----

> <Gold.Chemscore.Fitness>
16.2640

> <Gold.Chemscore.DG>
-16.9285

> <Gold.Chemscore.ZeroCoef>
-5.4800

> <Gold.Chemscore.Hbond>
0.9736

> <Gold.Chemscore.Metal>
0.0000

> <Gold.Chemscore.Lipo>
101.9418

> <Gold.Chemscore.Internal_Hbond>
0.0000

> <Gold.Chemscore.DEClash>
0.0174

> <Gold.Chemscore.DEInternal>
0.6471

> <Gold.Chemscore.Rot>
1.4572

> <Gold.Chemscore.Internal.Correction>
   9.000000E+99

> <Gold.Chemscore.Hbonds>
donor molecule, donor type, donor heavy atom, donor atom, acceptor molecule, acceptor atom, score
      L1  H     9    54       P1 10186  0.97

> <Gold.Chemscore.Hbond.Weighted>
-3.2518

> <Gold.Chemscore.Metal.Weighted>
-0.0000

> <Gold.Chemscore.Lipo.Weighted>
-11.9272

> <Gold.Chemscore.Internal_Hbond.Weighted>
0.0000

> <Gold.Chemscore.DEClash.Weighted>
0.0174

> <Gold.Chemscore.DEInternal.Weighted>
0.6471

> <Gold.Chemscore.Rot.Weighted>
3.7305

> <Gold.Chemscore.Internal.Correction.Weighted>
   9.000000E+99

> <Gold.Protein.RotatedTorsions>
[ 6907 6896 6895 6894 ] final -121.05 input  -60.11 | X-H torsion
[ 7974 7965 7964 7962 ] final  -70.93 input  175.53 | X-H torsion
[ 8008 7997 7996 7995 ] final -100.68 input   59.86 | X-H torsion
[ 10167 10162 10161 10158 ] final -112.94 input  -65.29 | X-H torsion
[ 10718 10713 10712 10709 ] final  -71.34 input   66.30 | X-H torsion
[ 10763 10752 10751 10750 ] final  107.55 input  -60.55 | X-H torsion
[ 11005 11000 10999 10996 ] final   92.08 input  -57.11 | X-H torsion

> <Gold.Protein.ActiveResidues>
 VAL166  LYS551  ARG553  GLY616  TRP617  ASP618  TYR619  PRO620  LYS621  CYS622 
 ASP623  PHE694  ASN695  SER759  ASP760  ASP761  ALA762  ILE779  LEU786  VAL792 
 PHE793  MET794  SER795  GLU796  ALA797  LYS798  CYS799  TRP800  GLU811  SER814 

> <Gold.Protein.RotatedAtoms>
  150.8449  133.7878  159.3046 H   0  0  0  0  0  0  0  0  0  0  0  0  # atno 6907 bound_to 6896
  151.5568  135.1065  159.9972 H   0  0  0  0  0  0  0  0  0  0  0  0  # atno 6908 bound_to 6896
  152.4505  133.7576  159.6785 H   0  0  0  0  0  0  0  0  0  0  0  0  # atno 6909 bound_to 6896
  145.6846  140.9175  143.0814 H   0  0  0  0  0  0  0  0  0  0  0  0  # atno 7974 bound_to 7965
  154.8320  140.0439  157.1483 H   0  0  0  0  0  0  0  0  0  0  0  0  # atno 8008 bound_to 7997
  154.9142  140.3018  155.5230 H   0  0  0  0  0  0  0  0  0  0  0  0  # atno 8009 bound_to 7997
  156.2987  140.2352  156.4185 H   0  0  0  0  0  0  0  0  0  0  0  0  # atno 8010 bound_to 7997
  140.1172  143.4475  152.1714 H   0  0  0  0  0  0  0  0  0  0  0  0  # atno 10167 bound_to 10162
  156.0367  130.4349  150.2429 H   0  0  0  0  0  0  0  0  0  0  0  0  # atno 10718 bound_to 10713
  153.4083  135.3841  155.2033 H   0  0  0  0  0  0  0  0  0  0  0  0  # atno 10763 bound_to 10752
  154.8735  135.3788  154.4533 H   0  0  0  0  0  0  0  0  0  0  0  0  # atno 10764 bound_to 10752
  153.5038  135.7088  153.5879 H   0  0  0  0  0  0  0  0  0  0  0  0  # atno 10765 bound_to 10752
  139.8829  134.8712  156.3520 H   0  0  0  0  0  0  0  0  0  0  0  0  # atno 11005 bound_to 11000
  144.7015  139.8742  143.7442 LP  0  0  0  0  0  0  0  0  0  0  0  0  # atno 17320 bound_to 7965
  146.0934  139.3925  143.0391 LP  0  0  0  0  0  0  0  0  0  0  0  0  # atno 17321 bound_to 7965
  139.5588  144.7391  151.4217 LP  0  0  0  0  0  0  0  0  0  0  0  0  # atno 17342 bound_to 10162
  140.6892  143.7901  150.7231 LP  0  0  0  0  0  0  0  0  0  0  0  0  # atno 17343 bound_to 10162
  157.0528  131.0067  151.3248 LP  0  0  0  0  0  0  0  0  0  0  0  0  # atno 17370 bound_to 10713
  157.5128  130.7949  149.7723 LP  0  0  0  0  0  0  0  0  0  0  0  0  # atno 17371 bound_to 10713
  140.9588  133.7402  156.0372 LP  0  0  0  0  0  0  0  0  0  0  0  0  # atno 17394 bound_to 11000
  140.8016  134.3502  157.5438 LP  0  0  0  0  0  0  0  0  0  0  0  0  # atno 17395 bound_to 11000

$$$$
