AV-unprocessed.smi:1901|AV-procd|sdf|7716|dock10
  -GOLD-   22720 9453D 1   1.00000     0.00000
 Structure written by MMmdl.
 28 29  0  0  0  0  0  0  0  0  1 V2000
  150.7616  140.7398  156.5555 O   0  0  0  0  0  0  0  0  0  0  0  0
  150.4119  141.8732  156.2244 C   0  0  0  0  0  0  0  0  0  0  0  0
  150.9495  142.9905  156.7345 N   0  0  0  0  0  0  0  0  0  0  0  0
  152.0084  143.0260  157.7375 C   0  0  0  0  0  0  0  0  0  0  0  0
  151.5471  143.7024  159.0425 C   0  0  2  0  0  0  0  0  0  0  0  0
  150.0451  143.8500  159.1856 C   0  0  0  0  0  0  0  0  0  0  0  0
  149.9403  144.9308  160.2561 C   0  0  0  0  0  0  0  0  0  0  0  0
  151.0697  145.7768  160.0619 O   0  0  0  0  0  0  0  0  0  0  0  0
  152.0034  145.1546  159.1833 C   0  0  0  0  0  0  0  0  0  0  0  0
  149.4582  142.1601  155.3212 N   0  0  0  0  0  0  0  0  0  0  0  0
  148.6688  141.2571  154.5616 C   0  0  0  0  0  0  0  0  0  0  0  0
  149.0032  139.9851  154.3148 N   0  0  0  0  0  0  0  0  0  0  0  0
  148.0421  139.3306  153.5404 C   0  0  0  0  0  0  0  0  0  0  0  0
  146.9740  140.1249  153.2050 C   0  0  0  0  0  0  0  0  0  0  0  0
  147.1332  141.7357  153.8531 S   0  0  0  0  0  0  0  0  0  0  0  0
  150.6026  143.8803  156.4072 H   0  0  0  0  0  0  0  0  0  0  0  0
  152.3610  142.0136  157.9415 H   0  0  0  0  0  0  0  0  0  0  0  0
  152.8557  143.5660  157.3137 H   0  0  0  0  0  0  0  0  0  0  0  0
  151.9242  143.1414  159.8996 H   0  0  0  0  0  0  0  0  0  0  0  0
  149.6048  144.2035  158.2521 H   0  0  0  0  0  0  0  0  0  0  0  0
  149.5465  142.9230  159.4707 H   0  0  0  0  0  0  0  0  0  0  0  0
  149.0067  145.4903  160.1953 H   0  0  0  0  0  0  0  0  0  0  0  0
  150.0059  144.4873  161.2505 H   0  0  0  0  0  0  0  0  0  0  0  0
  153.0215  145.2340  159.5654 H   0  0  0  0  0  0  0  0  0  0  0  0
  151.9630  145.6697  158.2226 H   0  0  0  0  0  0  0  0  0  0  0  0
  149.2806  143.1390  155.1511 H   0  0  0  0  0  0  0  0  0  0  0  0
  148.1985  138.2960  153.2724 H   0  0  0  0  0  0  0  0  0  0  0  0
  146.1070  139.8606  152.6181 H   0  0  0  0  0  0  0  0  0  0  0  0
  1  2  2  0  0  0  0
  2  3  1  0  0  0  0
  2 10  1  0  0  0  0
  3  4  1  0  0  0  0
  3 16  1  0  0  0  0
  4  5  1  0  0  0  0
  4 17  1  0  0  0  0
  4 18  1  0  0  0  0
  5  9  1  0  0  0  0
  5  6  1  0  0  0  0
  5 19  1  0  0  0  0
  6  7  1  0  0  0  0
  6 20  1  0  0  0  0
  6 21  1  0  0  0  0
  7  8  1  0  0  0  0
  7 22  1  0  0  0  0
  7 23  1  0  0  0  0
  8  9  1  0  0  0  0
  9 24  1  0  0  0  0
  9 25  1  0  0  0  0
 10 11  1  0  0  0  0
 10 26  1  0  0  0  0
 11 15  1  0  0  0  0
 11 12  2  0  0  0  0
 12 13  1  0  0  0  0
 13 14  2  0  0  0  0
 13 27  1  0  0  0  0
 14 15  1  0  0  0  0
 14 28  1  0  0  0  0
M  END
> <s_m_source_file>
AV-unprocessed.smi

> <i_m_source_file_index>
1901

> <i_lp_mmshare_version>
43012

> <i_f3d_flags>
0

> <s_epik_input>
czFbY0hdW2NIXW5jMVtOSF1DKD1PKVtOSF1bQ0gyXVtDQEBIXTJbQ0gyXVtDSDJdT1tDSDJdMg==

> <s_epik_cmdline>
J2VwaWtfcHl0aG9uJywgJy1waCcsICc3LjAnLCAnLXRuJywgJzgnLCAnLW1hJywgJzIwMCcsICctbWV0YWxfYmluZGluZycsICctaW1hZScsICc8aW5maWxlLm1hZT4nLCAnLW9tYWUnLCAnPG91dGZpbGUubWFlPic=

> <r_lp_tautomer_probability>
0.999

> <r_epik_Ionization_Penalty>
0.000365592

> <r_epik_Ionization_Penalty_Charging>
0

> <r_epik_Ionization_Penalty_Neutral>
0.000365592

> <r_epik_State_Penalty>
0.000177984

> <r_epik_Charging_Adjusted_Penalty>
0.000177984

> <i_epik_Tot_Q>
0

> <i_epik_Tot_abs_Q>
0

> <r_epik_Metal_State_Penalty>
0.00682492

> <b_epik_Metal_Only>
0

> <s_lp_Force_Field>
OPLS_2005

> <r_lp_Energy>
16.9403

> <b_lp_Chiralities_Consistent>
1

> <s_lp_Variant>
AV-unprocessed.smi:1901-1

> <Gold.Version>
5.8.1

> <Gold.Id.Protein>
6NUR|6NUR_protein|mol2

> <Gold.PLP.Fitness>
39.7868

> <Gold.PLP.PLP>
-30.3252

> <Gold.PLP.part.hbond>
-3.8023

> <Gold.PLP.part.metal>
0.0000

> <Gold.PLP.part.buried>
-4.0710

> <Gold.PLP.part.nonpolar>
-24.0405

> <Gold.PLP.part.repulsive>
0.6378

> <Gold.PLP.ligand.clash>
0.0000

> <Gold.PLP.ligand.torsion>
0.7009

> <Gold.PLP.Chemscore.Hbond>
1.8480

> <Gold.PLP.Chemscore.CHOScore>
1.7716

> <Gold.PLP.Chemscore.Metal>
0.0000

> <Gold.Chemscore.Hbonds>
donor molecule, donor type, donor heavy atom, donor atom, acceptor molecule, acceptor atom, score
      L1  H     3    16       P1  8028  0.82
      L1  H    10    26       P1  8028  1.00
      L1  C    13    27       P1  7948  0.84
      L1  C    14    28       P1 10175  1.00

> <Gold.PLP.Chemscore.Internal.Correction>
0.0045

> <Gold.Rescore>
     Score         DG    S(hbond)    S(metal)    S(lipo)     H(rot)  DE(clash)    DE(int)     intcor
     13.68     -16.88       1.92        0.00      71.32       1.32       1.50       1.69       ----

> <Gold.Chemscore.Fitness>
13.6826

> <Gold.Chemscore.DG>
-16.8750

> <Gold.Chemscore.ZeroCoef>
-5.4800

> <Gold.Chemscore.Hbond>
1.9223

> <Gold.Chemscore.Metal>
0.0000

> <Gold.Chemscore.Lipo>
71.3208

> <Gold.Chemscore.Internal_Hbond>
0.0000

> <Gold.Chemscore.DEClash>
1.5027

> <Gold.Chemscore.DEInternal>
1.6897

> <Gold.Chemscore.Rot>
1.3163

> <Gold.Chemscore.Internal.Correction>
   9.000000E+99

> <Gold.Chemscore.Hbonds>
donor molecule, donor type, donor heavy atom, donor atom, acceptor molecule, acceptor atom, score
      L1  H     3    16       P1  8028  0.75
      L1  H    10    26       P1  8028  0.98

> <Gold.Chemscore.Hbond.Weighted>
-6.4203

> <Gold.Chemscore.Metal.Weighted>
-0.0000

> <Gold.Chemscore.Lipo.Weighted>
-8.3445

> <Gold.Chemscore.Internal_Hbond.Weighted>
0.0000

> <Gold.Chemscore.DEClash.Weighted>
1.5027

> <Gold.Chemscore.DEInternal.Weighted>
1.6897

> <Gold.Chemscore.Rot.Weighted>
3.3698

> <Gold.Chemscore.Internal.Correction.Weighted>
   9.000000E+99

> <Gold.Protein.RotatedTorsions>
[ 6907 6896 6895 6894 ] final -103.44 input  -60.11 | X-H torsion
[ 7974 7965 7964 7962 ] final  171.61 input  175.53 | X-H torsion
[ 8008 7997 7996 7995 ] final  127.30 input   59.86 | X-H torsion
[ 10167 10162 10161 10158 ] final  113.95 input  -65.29 | X-H torsion
[ 10718 10713 10712 10709 ] final   63.26 input   66.30 | X-H torsion
[ 10763 10752 10751 10750 ] final    8.92 input  -60.55 | X-H torsion
[ 11005 11000 10999 10996 ] final -165.18 input  -57.11 | X-H torsion

> <Gold.Protein.ActiveResidues>
 VAL166  LYS551  ARG553  GLY616  TRP617  ASP618  TYR619  PRO620  LYS621  CYS622 
 ASP623  PHE694  ASN695  SER759  ASP760  ASP761  ALA762  ILE779  LEU786  VAL792 
 PHE793  MET794  SER795  GLU796  ALA797  LYS798  CYS799  TRP800  GLU811  SER814 

> <Gold.Protein.RotatedAtoms>
  150.7240  134.0429  159.3771 H   0  0  0  0  0  0  0  0  0  0  0  0  # atno 6907 bound_to 6896
  151.8403  135.0590  160.0456 H   0  0  0  0  0  0  0  0  0  0  0  0  # atno 6908 bound_to 6896
  152.2868  133.5486  159.5568 H   0  0  0  0  0  0  0  0  0  0  0  0  # atno 6909 bound_to 6896
  144.7290  139.9375  143.6427 H   0  0  0  0  0  0  0  0  0  0  0  0  # atno 7974 bound_to 7965
  156.2887  140.2672  156.2251 H   0  0  0  0  0  0  0  0  0  0  0  0  # atno 8008 bound_to 7997
  155.0129  140.0387  157.2424 H   0  0  0  0  0  0  0  0  0  0  0  0  # atno 8009 bound_to 7997
  154.7502  140.2741  155.6304 H   0  0  0  0  0  0  0  0  0  0  0  0  # atno 8010 bound_to 7997
  139.6424  144.7124  151.2210 H   0  0  0  0  0  0  0  0  0  0  0  0  # atno 10167 bound_to 10162
  157.5959  130.9095  149.9693 H   0  0  0  0  0  0  0  0  0  0  0  0  # atno 10718 bound_to 10713
  153.2197  135.6879  153.8015 H   0  0  0  0  0  0  0  0  0  0  0  0  # atno 10763 bound_to 10752
  153.7218  135.3266  155.3269 H   0  0  0  0  0  0  0  0  0  0  0  0  # atno 10764 bound_to 10752
  154.8263  135.4615  154.1039 H   0  0  0  0  0  0  0  0  0  0  0  0  # atno 10765 bound_to 10752
  140.5786  134.5164  157.5174 H   0  0  0  0  0  0  0  0  0  0  0  0  # atno 11005 bound_to 11000
  146.0810  139.3798  143.0464 LP  0  0  0  0  0  0  0  0  0  0  0  0  # atno 17320 bound_to 7965
  145.7841  140.9843  143.1084 LP  0  0  0  0  0  0  0  0  0  0  0  0  # atno 17321 bound_to 7965
  140.7497  143.6289  150.8442 LP  0  0  0  0  0  0  0  0  0  0  0  0  # atno 17342 bound_to 10162
  139.9928  143.5828  152.2904 LP  0  0  0  0  0  0  0  0  0  0  0  0  # atno 17343 bound_to 10162
  156.1021  130.3655  150.0199 LP  0  0  0  0  0  0  0  0  0  0  0  0  # atno 17370 bound_to 10713
  156.8313  130.9393  151.3637 LP  0  0  0  0  0  0  0  0  0  0  0  0  # atno 17371 bound_to 10713
  139.9328  134.7932  156.0885 LP  0  0  0  0  0  0  0  0  0  0  0  0  # atno 17394 bound_to 11000
  141.1010  133.6677  156.2755 LP  0  0  0  0  0  0  0  0  0  0  0  0  # atno 17395 bound_to 11000

$$$$
