AV-unprocessed.smi:1240|AV-procd|sdf|5200|dock1
  -GOLD-   22720 4283D 1   1.00000     0.00000
 Structure written by MMmdl.
 48 50  0  0  0  0  0  0  0  0  2 V2000
  144.4108  136.7277  151.9208 O   0  0  0  0  0  0  0  0  0  0  0  0
  145.6124  136.4805  151.8189 C   0  0  0  0  0  0  0  0  0  0  0  0
  146.5709  137.3923  152.0362 N   0  0  0  0  0  0  0  0  0  0  0  0
  146.3329  138.7790  152.4204 C   0  0  0  0  0  0  0  0  0  0  0  0
  147.5787  139.4922  153.0222 C   0  0  1  0  0  0  0  0  0  0  0  0
  147.2405  140.7553  153.8649 C   0  0  2  0  0  0  0  0  0  0  0  0
  146.1113  140.6015  154.8747 C   0  0  0  0  0  0  0  0  0  0  0  0
  145.6303  142.0347  155.1007 C   0  0  0  0  0  0  0  0  0  0  0  0
  146.0855  142.7900  153.9841 O   0  0  0  0  0  0  0  0  0  0  0  0
  146.6897  141.9212  153.0390 C   0  0  0  0  0  0  0  0  0  0  0  0
  148.4183  138.5533  153.8261 N   0  3  0  0  0  0  0  0  0  0  0  0
  149.7979  139.0090  154.1337 C   0  0  0  0  0  0  0  0  0  0  0  0
  150.5882  137.8706  154.8000 C   0  0  0  0  0  0  0  0  0  0  0  0
  149.9093  137.4449  155.9758 O   0  0  0  0  0  0  0  0  0  0  0  0
  148.6112  136.9360  155.6916 C   0  0  0  0  0  0  0  0  0  0  0  0
  147.7520  138.0370  155.0469 C   0  0  0  0  0  0  0  0  0  0  0  0
  146.1406  135.2939  151.4726 N   0  0  0  0  0  0  0  0  0  0  0  0
  145.4734  134.0687  151.2011 C   0  0  0  0  0  0  0  0  0  0  0  0
  146.2496  132.8917  151.1735 C   0  0  0  0  0  0  0  0  0  0  0  0
  145.6097  131.6613  150.9242 C   0  0  0  0  0  0  0  0  0  0  0  0
  144.2810  131.5450  150.7187 N   0  0  0  0  0  0  0  0  0  0  0  0
  143.5370  132.6706  150.7599 C   0  0  0  0  0  0  0  0  0  0  0  0
  144.0770  133.9504  150.9998 C   0  0  0  0  0  0  0  0  0  0  0  0
  147.5333  137.1083  151.9237 H   0  0  0  0  0  0  0  0  0  0  0  0
  145.9956  139.3017  151.5253 H   0  0  0  0  0  0  0  0  0  0  0  0
  145.4953  138.7981  153.1184 H   0  0  0  0  0  0  0  0  0  0  0  0
  148.2091  139.8301  152.1983 H   0  0  0  0  0  0  0  0  0  0  0  0
  148.1286  141.0973  154.3979 H   0  0  0  0  0  0  0  0  0  0  0  0
  145.3014  140.0060  154.4507 H   0  0  0  0  0  0  0  0  0  0  0  0
  146.4266  140.1304  155.8056 H   0  0  0  0  0  0  0  0  0  0  0  0
  144.5447  142.0858  155.1905 H   0  0  0  0  0  0  0  0  0  0  0  0
  146.0652  142.4553  156.0080 H   0  0  0  0  0  0  0  0  0  0  0  0
  147.4622  142.4412  152.4717 H   0  0  0  0  0  0  0  0  0  0  0  0
  145.9271  141.5764  152.3387 H   0  0  0  0  0  0  0  0  0  0  0  0
  150.3100  139.3226  153.2244 H   0  0  0  0  0  0  0  0  0  0  0  0
  149.7733  139.8685  154.8047 H   0  0  0  0  0  0  0  0  0  0  0  0
  150.7170  137.0314  154.1144 H   0  0  0  0  0  0  0  0  0  0  0  0
  151.5859  138.2147  155.0733 H   0  0  0  0  0  0  0  0  0  0  0  0
  148.6848  136.0656  155.0373 H   0  0  0  0  0  0  0  0  0  0  0  0
  148.1531  136.5974  156.6212 H   0  0  0  0  0  0  0  0  0  0  0  0
  147.5933  138.8450  155.7616 H   0  0  0  0  0  0  0  0  0  0  0  0
  146.7706  137.6324  154.7968 H   0  0  0  0  0  0  0  0  0  0  0  0
  147.1417  135.2740  151.3461 H   0  0  0  0  0  0  0  0  0  0  0  0
  147.3171  132.9255  151.3349 H   0  0  0  0  0  0  0  0  0  0  0  0
  146.1816  130.7457  150.8913 H   0  0  0  0  0  0  0  0  0  0  0  0
  142.4753  132.5475  150.6039 H   0  0  0  0  0  0  0  0  0  0  0  0
  143.4141  134.8007  151.0362 H   0  0  0  0  0  0  0  0  0  0  0  0
  148.5290  137.7419  153.2345 H   0  0  0  0  0  0  0  0  0  0  0  0
  1  2  2  0  0  0  0
  2  3  1  0  0  0  0
  2 17  1  0  0  0  0
  3  4  1  0  0  0  0
  3 24  1  0  0  0  0
  4  5  1  0  0  0  0
  4 25  1  0  0  0  0
  4 26  1  0  0  0  0
  5  6  1  0  0  0  0
  5 11  1  0  0  0  0
  5 27  1  0  0  0  0
  6 10  1  0  0  0  0
  6  7  1  0  0  0  0
  6 28  1  0  0  0  0
  7  8  1  0  0  0  0
  7 29  1  0  0  0  0
  7 30  1  0  0  0  0
  8  9  1  0  0  0  0
  8 31  1  0  0  0  0
  8 32  1  0  0  0  0
  9 10  1  0  0  0  0
 10 33  1  0  0  0  0
 10 34  1  0  0  0  0
 11 16  1  0  0  0  0
 11 12  1  0  0  0  0
 11 48  1  0  0  0  0
 12 13  1  0  0  0  0
 12 35  1  0  0  0  0
 12 36  1  0  0  0  0
 13 14  1  0  0  0  0
 13 37  1  0  0  0  0
 13 38  1  0  0  0  0
 14 15  1  0  0  0  0
 15 16  1  0  0  0  0
 15 39  1  0  0  0  0
 15 40  1  0  0  0  0
 16 41  1  0  0  0  0
 16 42  1  0  0  0  0
 17 18  1  0  0  0  0
 17 43  1  0  0  0  0
 18 23  1  0  0  0  0
 18 19  2  0  0  0  0
 19 20  1  0  0  0  0
 19 44  1  0  0  0  0
 20 21  2  0  0  0  0
 20 45  1  0  0  0  0
 21 22  1  0  0  0  0
 22 23  2  0  0  0  0
 22 46  1  0  0  0  0
 23 47  1  0  0  0  0
M  CHG  1  11   1
M  END
> <s_m_source_file>
AV-unprocessed.smi

> <i_m_source_file_index>
1240

> <i_lp_mmshare_version>
43012

> <i_f3d_flags>
0

> <s_epik_input>
W2NIXTFbY0hdbltjSF1bY0hdYzFbTkhdQyg9TylbTkhdW0NIMl1bQ0BIXShbQ0BASF0yW0NIMl1bQ0gyXU9bQ0gyXTIpTjNbQ0gyXVtDSDJdT1tDSDJdW0NIMl0z

> <s_epik_cmdline>
J2VwaWtfcHl0aG9uJywgJy1waCcsICc3LjAnLCAnLXRuJywgJzgnLCAnLW1hJywgJzIwMCcsICctbWV0YWxfYmluZGluZycsICctaW1hZScsICc8aW5maWxlLm1hZT4nLCAnLW9tYWUnLCAnPG91dGZpbGUubWFlPic=

> <r_epik_Ionization_Penalty>
1.08433

> <r_epik_Ionization_Penalty_Charging>
0.98326

> <r_epik_Ionization_Penalty_Neutral>
0.10107

> <r_epik_State_Penalty>
1.11265

> <r_epik_Charging_Adjusted_Penalty>
2.09591

> <i_epik_Tot_Q>
1

> <i_epik_Tot_abs_Q>
1

> <r_epik_Metal_State_Penalty>
1.10731

> <b_epik_Metal_Only>
0

> <s_lp_Force_Field>
OPLS_2005

> <r_lp_Energy>
42.8142

> <b_lp_Chiralities_Consistent>
1

> <s_lp_Variant>
AV-unprocessed.smi:1240-6

> <Gold.Version>
5.8.1

> <Gold.Id.Protein>
6NUR|6NUR_protein|mol2

> <Gold.PLP.Fitness>
51.7427

> <Gold.PLP.PLP>
-35.9920

> <Gold.PLP.part.hbond>
-3.6273

> <Gold.PLP.part.metal>
0.0000

> <Gold.PLP.part.buried>
-3.1233

> <Gold.PLP.part.nonpolar>
-30.0710

> <Gold.PLP.part.repulsive>
1.4263

> <Gold.PLP.ligand.clash>
0.0000

> <Gold.PLP.ligand.torsion>
0.6895

> <Gold.PLP.Chemscore.Hbond>
3.7680

> <Gold.PLP.Chemscore.CHOScore>
1.8460

> <Gold.PLP.Chemscore.Metal>
0.0000

> <Gold.Chemscore.Hbonds>
donor molecule, donor type, donor heavy atom, donor atom, acceptor molecule, acceptor atom, score
      L1  H     3    24       P1  7948  1.00
      L1  H    11    48       P1  7948  1.79
      L1  H    17    43       P1  7948  0.84
      L1  C    20    45       P1 10747  0.15
      L1  C    22    46       P1 10186  0.72
      L1  C    22    46       P1 10952  0.01

> <Gold.PLP.Chemscore.Internal.Correction>
0.2879

> <Gold.Rescore>
     Score         DG    S(hbond)    S(metal)    S(lipo)     H(rot)  DE(clash)    DE(int)     intcor
     17.94     -20.38       2.73        0.00      86.51       1.70       0.34       2.09       ----

> <Gold.Chemscore.Fitness>
17.9439

> <Gold.Chemscore.DG>
-20.3777

> <Gold.Chemscore.ZeroCoef>
-5.4800

> <Gold.Chemscore.Hbond>
2.7344

> <Gold.Chemscore.Metal>
0.0000

> <Gold.Chemscore.Lipo>
86.5144

> <Gold.Chemscore.Internal_Hbond>
0.0000

> <Gold.Chemscore.DEClash>
0.3437

> <Gold.Chemscore.DEInternal>
2.0901

> <Gold.Chemscore.Rot>
1.7021

> <Gold.Chemscore.Internal.Correction>
   9.000000E+99

> <Gold.Chemscore.Hbonds>
donor molecule, donor type, donor heavy atom, donor atom, acceptor molecule, acceptor atom, score
      L1  H     3    24       P1  7948  1.00
      L1  H    11    48       P1  7948  0.87
      L1  H    17    43       P1  7948  0.70

> <Gold.Chemscore.Hbond.Weighted>
-9.1330

> <Gold.Chemscore.Metal.Weighted>
-0.0000

> <Gold.Chemscore.Lipo.Weighted>
-10.1222

> <Gold.Chemscore.Internal_Hbond.Weighted>
0.0000

> <Gold.Chemscore.DEClash.Weighted>
0.3437

> <Gold.Chemscore.DEInternal.Weighted>
2.0901

> <Gold.Chemscore.Rot.Weighted>
4.3575

> <Gold.Chemscore.Internal.Correction.Weighted>
   9.000000E+99

> <Gold.Protein.RotatedTorsions>
[ 6907 6896 6895 6894 ] final   89.65 input  -60.11 | X-H torsion
[ 7974 7965 7964 7962 ] final -111.55 input  175.53 | X-H torsion
[ 8008 7997 7996 7995 ] final -127.78 input   59.86 | X-H torsion
[ 10167 10162 10161 10158 ] final   28.26 input  -65.29 | X-H torsion
[ 10718 10713 10712 10709 ] final   98.75 input   66.30 | X-H torsion
[ 10763 10752 10751 10750 ] final  -10.90 input  -60.55 | X-H torsion
[ 11005 11000 10999 10996 ] final -138.30 input  -57.11 | X-H torsion

> <Gold.Protein.ActiveResidues>
 VAL166  LYS551  ARG553  GLY616  TRP617  ASP618  TYR619  PRO620  LYS621  CYS622 
 ASP623  PHE694  ASN695  SER759  ASP760  ASP761  ALA762  ILE779  LEU786  VAL792 
 PHE793  MET794  SER795  GLU796  ALA797  LYS798  CYS799  TRP800  GLU811  SER814 

> <Gold.Protein.RotatedAtoms>
  152.5438  134.1934  159.8682 H   0  0  0  0  0  0  0  0  0  0  0  0  # atno 6907 bound_to 6896
  151.1928  133.4650  159.2602 H   0  0  0  0  0  0  0  0  0  0  0  0  # atno 6908 bound_to 6896
  151.1066  135.0015  159.8529 H   0  0  0  0  0  0  0  0  0  0  0  0  # atno 6909 bound_to 6896
  145.1547  140.8847  143.3626 H   0  0  0  0  0  0  0  0  0  0  0  0  # atno 7974 bound_to 7965
  155.2518  140.0432  157.2987 H   0  0  0  0  0  0  0  0  0  0  0  0  # atno 8008 bound_to 7997
  154.5764  140.2388  155.8086 H   0  0  0  0  0  0  0  0  0  0  0  0  # atno 8009 bound_to 7997
  156.2161  140.2984  155.9851 H   0  0  0  0  0  0  0  0  0  0  0  0  # atno 8010 bound_to 7997
  140.4868  144.0530  150.6283 H   0  0  0  0  0  0  0  0  0  0  0  0  # atno 10167 bound_to 10162
  157.6889  131.0649  150.4844 H   0  0  0  0  0  0  0  0  0  0  0  0  # atno 10718 bound_to 10713
  153.4759  135.7017  153.5966 H   0  0  0  0  0  0  0  0  0  0  0  0  # atno 10763 bound_to 10752
  153.4200  135.3827  155.2105 H   0  0  0  0  0  0  0  0  0  0  0  0  # atno 10764 bound_to 10752
  154.8723  135.3925  154.4202 H   0  0  0  0  0  0  0  0  0  0  0  0  # atno 10765 bound_to 10752
  140.8629  134.2146  157.4697 H   0  0  0  0  0  0  0  0  0  0  0  0  # atno 11005 bound_to 11000
  145.0393  139.3273  143.5984 LP  0  0  0  0  0  0  0  0  0  0  0  0  # atno 17320 bound_to 7965
  146.3490  139.9761  142.8701 LP  0  0  0  0  0  0  0  0  0  0  0  0  # atno 17321 bound_to 7965
  140.3788  143.2814  152.0194 LP  0  0  0  0  0  0  0  0  0  0  0  0  # atno 17342 bound_to 10162
  139.4843  144.6171  151.7325 LP  0  0  0  0  0  0  0  0  0  0  0  0  # atno 17343 bound_to 10162
  156.5174  130.4154  149.6268 LP  0  0  0  0  0  0  0  0  0  0  0  0  # atno 17370 bound_to 10713
  156.3185  130.7268  151.2175 LP  0  0  0  0  0  0  0  0  0  0  0  0  # atno 17371 bound_to 10713
  139.8708  134.9738  156.4823 LP  0  0  0  0  0  0  0  0  0  0  0  0  # atno 17394 bound_to 11000
  140.8662  133.8023  155.9316 LP  0  0  0  0  0  0  0  0  0  0  0  0  # atno 17395 bound_to 11000

$$$$
