#       Name:                AV-unprocessed.smi:3164
#       Creating user name   scv26
#       Creation time:       Fri Mar 27 17:51:09 2020


#       File generated by GOLD software.
#

@<TRIPOS>MOLECULE
AV-unprocessed.smi:3164
    43    44     1
SMALL
NO_CHARGES


@<TRIPOS>ATOM
      1 ****        -4.7812   2.0620   0.8273 C.3            1 S1                 0.0000
      2 ****        -3.3097   1.9284   0.7710 N.4            1 S1                 1.0000
      3 ****        -2.7234   2.5821  -0.4209 C.3            1 S1                 0.0000
      4 ****        -1.1927   2.4416  -0.4063 C.3            1 S1                 0.0000
      5 ****        -0.8444   1.0640  -0.3330 O.3            1 S1                 0.0000
      6 ****        -1.3179   0.4432   0.8591 C.3            1 S1                 0.0000
      7 ****        -0.8145  -1.0082   0.8679 C.3            1 S1                 0.0000
      8 ****         0.6569  -1.0567   0.9761 N.4            1 S1                 1.0000
      9 ****         1.2341  -2.4138   0.8940 C.3            1 S1                 0.0000
     10 ****         2.7707  -2.3724   0.8420 C.3            1 S1                 0.0000
     11 ****         3.3028  -1.6690  -0.3958 C.ar           1 S1                 0.0000
     12 ****         3.6845  -2.4094  -1.5348 C.ar           1 S1                 0.0000
     13 ****         4.1518  -1.7100  -2.6647 C.ar           1 S1                 0.0000
     14 ****         4.2165  -0.3044  -2.6132 C.ar           1 S1                 0.0000
     15 ****         3.8124   0.3427  -1.4290 C.ar           1 S1                 0.0000
     16 ****         3.3607  -0.3183  -0.3409 N.ar           1 S1                 0.0000
     17 ****        -2.8583   0.5212   0.8758 C.3            1 S1                 0.0000
     18 ****        -5.2533   1.5609  -0.0188 H              1 S1                 0.0000
     19 ****        -5.0725   3.1128   0.8086 H              1 S1                 0.0000
     20 ****        -5.1721   1.6245   1.7464 H              1 S1                 0.0000
     21 ****        -3.1305   2.1280  -1.3260 H              1 S1                 0.0000
     22 ****        -3.0002   3.6370  -0.4383 H              1 S1                 0.0000
     23 ****        -0.7675   2.8658  -1.3160 H              1 S1                 0.0000
     24 ****        -0.7569   2.9859   0.4332 H              1 S1                 0.0000
     25 ****        -0.9168   0.9668   1.7293 H              1 S1                 0.0000
     26 ****        -1.2445  -1.5511   1.7106 H              1 S1                 0.0000
     27 ****        -1.1329  -1.5192  -0.0418 H              1 S1                 0.0000
     28 ****         1.0464  -0.5114   0.2193 H              1 S1                 0.0000
     29 ****         0.9063  -2.9900   1.7600 H              1 S1                 0.0000
     30 ****         0.8522  -2.9223   0.0075 H              1 S1                 0.0000
     31 ****         3.1637  -1.8797   1.7326 H              1 S1                 0.0000
     32 ****         3.1625  -3.3901   0.8648 H              1 S1                 0.0000
     33 ****         3.6200  -3.4878  -1.5467 H              1 S1                 0.0000
     34 ****         4.4531  -2.2419  -3.5550 H              1 S1                 0.0000
     35 ****         4.5688   0.2645  -3.4610 H              1 S1                 0.0000
     36 ****         3.8475   1.4194  -1.3547 H              1 S1                 0.0000
     37 ****        -3.2444   0.0827   1.7971 H              1 S1                 0.0000
     38 ****        -3.2741  -0.0556   0.0477 H              1 S1                 0.0000
     39 ****         0.9398  -0.6364   1.8502 H              1 S1                 0.0000
     40 ****        -2.9443   2.4143   1.5780 H              1 S1                 0.0000
     41 ****         0.1519   0.9833  -0.3625 LP             1 S1                 0.0000
     42 ****        -1.2405   0.5909  -1.1199 LP             1 S1                 0.0000
     43 ****         3.0775   0.1761   0.4809 LP             1 S1                 0.0000
@<TRIPOS>BOND
    1    1    2 1     
    2    1   18 1     
    3    1   19 1     
    4    1   20 1     
    5    2   17 1     
    6    2    3 1     
    7    2   40 1     
    8    3    4 1     
    9    3   21 1     
   10    3   22 1     
   11    4    5 1     
   12    4   23 1     
   13    4   24 1     
   14    5    6 1     
   15    6    7 1     
   16    6   17 1     
   17    6   25 1     
   18    7    8 1     
   19    7   26 1     
   20    7   27 1     
   21    8    9 1     
   22    8   28 1     
   23    8   39 1     
   24    9   10 1     
   25    9   29 1     
   26    9   30 1     
   27   10   11 1     
   28   10   31 1     
   29   10   32 1     
   30   11   16 ar    
   31   11   12 ar    
   32   12   13 ar    
   33   12   33 1     
   34   13   14 ar    
   35   13   34 1     
   36   14   15 ar    
   37   14   35 1     
   38   15   16 ar    
   39   15   36 1     
   40   17   37 1     
   41   17   38 1     
   42    5   41 1     
   43    5   42 1     
   44   16   43 1     
@<TRIPOS>SUBSTRUCTURE
      1 S1             1
@<TRIPOS>SET
LONE_PAIRS      STATIC     ATOMS    <user>   **** ""
3 41 42 43
DONOR_HYDROGENS      STATIC     ATOMS    <user>   **** ""
3 40 28 39
ATOM$BLUE        STATIC     ATOMS    COLORGROUP SYSTEM
3 41 42 43
ATOM$RED        STATIC     ATOMS    COLORGROUP SYSTEM
3 40 28 39
