AV-unprocessed.smi:2465|AV-procd|sdf|9722|dock9
  -GOLD-   2272013363D 1   1.00000     0.00000
 Structure written by MMmdl.
 40 41  0  0  0  0  0  0  0  0  1 V2000
  151.5875  144.8785  157.9465 C   0  0  0  0  0  0  0  0  0  0  0  0
  151.8983  143.5011  158.5050 C   0  0  0  0  0  0  0  0  0  0  0  0
  152.7678  143.3729  159.6078 C   0  0  0  0  0  0  0  0  0  0  0  0
  153.0431  142.0851  160.1049 C   0  0  0  0  0  0  0  0  0  0  0  0
  152.5212  140.9608  159.5741 N   0  0  0  0  0  0  0  0  0  0  0  0
  151.6877  141.0852  158.5194 C   0  0  0  0  0  0  0  0  0  0  0  0
  151.3288  142.3313  157.9459 C   0  0  0  0  0  0  0  0  0  0  0  0
  150.4668  142.4555  156.8195 N   0  0  0  0  0  0  0  0  0  0  0  0
  149.9941  141.4903  156.0123 C   0  0  0  0  0  0  0  0  0  0  0  0
  150.2145  140.2856  156.1358 O   0  0  0  0  0  0  0  0  0  0  0  0
  149.2183  142.0041  155.0474 N   0  0  0  0  0  0  0  0  0  0  0  0
  148.5447  141.2269  154.0134 C   0  0  0  0  0  0  0  0  0  0  0  0
  147.0377  141.5248  153.9729 C   0  0  0  0  0  0  0  0  0  0  0  0
  146.6840  142.6124  152.9462 C   0  0  0  0  0  0  0  0  0  0  0  0
  145.8454  143.6511  153.5370 N   0  0  0  0  0  0  0  0  0  0  0  0
  145.4172  143.5598  154.9226 C   0  0  0  0  0  0  0  0  0  0  0  0
  144.7653  144.9162  155.2269 C   0  0  0  0  0  0  0  0  0  0  0  0
  144.5318  145.5796  153.8652 C   0  0  0  0  0  0  0  0  0  0  0  0
  145.3642  144.7345  152.9158 C   0  0  0  0  0  0  0  0  0  0  0  0
  145.5495  145.0386  151.7383 O   0  0  0  0  0  0  0  0  0  0  0  0
  152.1238  145.6575  158.4894 H   0  0  0  0  0  0  0  0  0  0  0  0
  150.5201  145.0874  158.0233 H   0  0  0  0  0  0  0  0  0  0  0  0
  151.8780  144.9389  156.8973 H   0  0  0  0  0  0  0  0  0  0  0  0
  153.2185  144.2404  160.0668 H   0  0  0  0  0  0  0  0  0  0  0  0
  153.7049  141.9545  160.9483 H   0  0  0  0  0  0  0  0  0  0  0  0
  151.3267  140.1487  158.1243 H   0  0  0  0  0  0  0  0  0  0  0  0
  150.1245  143.3878  156.6395 H   0  0  0  0  0  0  0  0  0  0  0  0
  149.0849  143.0045  155.0243 H   0  0  0  0  0  0  0  0  0  0  0  0
  148.9978  141.4761  153.0536 H   0  0  0  0  0  0  0  0  0  0  0  0
  148.7210  140.1618  154.1731 H   0  0  0  0  0  0  0  0  0  0  0  0
  146.4892  140.6136  153.7301 H   0  0  0  0  0  0  0  0  0  0  0  0
  146.7036  141.8302  154.9654 H   0  0  0  0  0  0  0  0  0  0  0  0
  147.5929  143.0632  152.5449 H   0  0  0  0  0  0  0  0  0  0  0  0
  146.1609  142.1674  152.0987 H   0  0  0  0  0  0  0  0  0  0  0  0
  144.6962  142.7475  155.0238 H   0  0  0  0  0  0  0  0  0  0  0  0
  146.2585  143.3567  155.5866 H   0  0  0  0  0  0  0  0  0  0  0  0
  143.8391  144.8018  155.7912 H   0  0  0  0  0  0  0  0  0  0  0  0
  145.4405  145.5295  155.8249 H   0  0  0  0  0  0  0  0  0  0  0  0
  143.4829  145.5287  153.5717 H   0  0  0  0  0  0  0  0  0  0  0  0
  144.8498  146.6226  153.8542 H   0  0  0  0  0  0  0  0  0  0  0  0
  1  2  1  0  0  0  0
  1 21  1  0  0  0  0
  1 22  1  0  0  0  0
  1 23  1  0  0  0  0
  2  7  1  0  0  0  0
  2  3  2  0  0  0  0
  3  4  1  0  0  0  0
  3 24  1  0  0  0  0
  4  5  2  0  0  0  0
  4 25  1  0  0  0  0
  5  6  1  0  0  0  0
  6  7  2  0  0  0  0
  6 26  1  0  0  0  0
  7  8  1  0  0  0  0
  8  9  1  0  0  0  0
  8 27  1  0  0  0  0
  9 10  2  0  0  0  0
  9 11  1  0  0  0  0
 11 12  1  0  0  0  0
 11 28  1  0  0  0  0
 12 13  1  0  0  0  0
 12 29  1  0  0  0  0
 12 30  1  0  0  0  0
 13 14  1  0  0  0  0
 13 31  1  0  0  0  0
 13 32  1  0  0  0  0
 14 15  1  0  0  0  0
 14 33  1  0  0  0  0
 14 34  1  0  0  0  0
 15 19  1  0  0  0  0
 15 16  1  0  0  0  0
 16 17  1  0  0  0  0
 16 35  1  0  0  0  0
 16 36  1  0  0  0  0
 17 18  1  0  0  0  0
 17 37  1  0  0  0  0
 17 38  1  0  0  0  0
 18 19  1  0  0  0  0
 18 39  1  0  0  0  0
 18 40  1  0  0  0  0
 19 20  2  0  0  0  0
M  END
> <s_m_source_file>
AV-unprocessed.smi

> <i_m_source_file_index>
2465

> <i_lp_mmshare_version>
43012

> <i_f3d_flags>
0

> <s_epik_input>
W0NIM11jMVtjSF1bY0hdbltjSF1jMVtOSF1DKD1PKVtOSF1bQ0gyXVtDSDJdW0NIMl1OMltDSDJdW0NIMl1bQ0gyXUMyPU8=

> <s_epik_cmdline>
J2VwaWtfcHl0aG9uJywgJy1waCcsICc3LjAnLCAnLXRuJywgJzgnLCAnLW1hJywgJzIwMCcsICctbWV0YWxfYmluZGluZycsICctaW1hZScsICc8aW5maWxlLm1hZT4nLCAnLW9tYWUnLCAnPG91dGZpbGUubWFlPic=

> <r_epik_Ionization_Penalty>
0.0211997

> <r_epik_Ionization_Penalty_Charging>
0

> <r_epik_Ionization_Penalty_Neutral>
0.0211997

> <r_epik_State_Penalty>
0.0170047

> <r_epik_Charging_Adjusted_Penalty>
0.0170047

> <i_epik_Tot_Q>
0

> <i_epik_Tot_abs_Q>
0

> <r_epik_Metal_State_Penalty>
0.0163833

> <b_epik_Metal_Only>
0

> <s_lp_Force_Field>
OPLS_2005

> <r_lp_Energy>
19.6331

> <b_lp_Chiralities_Consistent>
1

> <s_lp_Variant>
AV-unprocessed.smi:2465-1

> <Gold.Version>
5.8.1

> <Gold.Id.Protein>
6NUR|6NUR_protein|mol2

> <Gold.PLP.Fitness>
50.3719

> <Gold.PLP.PLP>
-45.6491

> <Gold.PLP.part.hbond>
-2.6673

> <Gold.PLP.part.metal>
0.0000

> <Gold.PLP.part.buried>
-8.6213

> <Gold.PLP.part.nonpolar>
-34.7930

> <Gold.PLP.part.repulsive>
0.4582

> <Gold.PLP.ligand.clash>
0.0000

> <Gold.PLP.ligand.torsion>
0.6237

> <Gold.PLP.Chemscore.Hbond>
1.9760

> <Gold.PLP.Chemscore.CHOScore>
0.0000

> <Gold.PLP.Chemscore.Metal>
0.0000

> <Gold.Chemscore.Hbonds>
donor molecule, donor type, donor heavy atom, donor atom, acceptor molecule, acceptor atom, score
      L1  H     8    27       P1  8028  0.93
      L1  H    11    28       P1  8028  1.00

> <Gold.PLP.Chemscore.Internal.Correction>
0.0422

> <Gold.Rescore>
     Score         DG    S(hbond)    S(metal)    S(lipo)     H(rot)  DE(clash)    DE(int)     intcor
     15.85     -19.36       1.95        0.00     101.02       1.74       1.65       1.86       ----

> <Gold.Chemscore.Fitness>
15.8452

> <Gold.Chemscore.DG>
-19.3555

> <Gold.Chemscore.ZeroCoef>
-5.4800

> <Gold.Chemscore.Hbond>
1.9501

> <Gold.Chemscore.Metal>
0.0000

> <Gold.Chemscore.Lipo>
101.0203

> <Gold.Chemscore.Internal_Hbond>
0.0000

> <Gold.Chemscore.DEClash>
1.6539

> <Gold.Chemscore.DEInternal>
1.8564

> <Gold.Chemscore.Rot>
1.7410

> <Gold.Chemscore.Internal.Correction>
   9.000000E+99

> <Gold.Chemscore.Hbonds>
donor molecule, donor type, donor heavy atom, donor atom, acceptor molecule, acceptor atom, score
      L1  H     8    27       P1  8028  0.86
      L1  H    11    28       P1  8028  1.00

> <Gold.Chemscore.Hbond.Weighted>
-6.5132

> <Gold.Chemscore.Metal.Weighted>
-0.0000

> <Gold.Chemscore.Lipo.Weighted>
-11.8194

> <Gold.Chemscore.Internal_Hbond.Weighted>
0.0000

> <Gold.Chemscore.DEClash.Weighted>
1.6539

> <Gold.Chemscore.DEInternal.Weighted>
1.8564

> <Gold.Chemscore.Rot.Weighted>
4.4571

> <Gold.Chemscore.Internal.Correction.Weighted>
   9.000000E+99

> <Gold.Protein.RotatedTorsions>
[ 6907 6896 6895 6894 ] final   30.14 input  -60.11 | X-H torsion
[ 7974 7965 7964 7962 ] final   23.02 input  175.53 | X-H torsion
[ 8008 7997 7996 7995 ] final   73.24 input   59.86 | X-H torsion
[ 10167 10162 10161 10158 ] final  170.06 input  -65.29 | X-H torsion
[ 10718 10713 10712 10709 ] final   -9.03 input   66.30 | X-H torsion
[ 10763 10752 10751 10750 ] final  103.39 input  -60.55 | X-H torsion
[ 11005 11000 10999 10996 ] final   80.32 input  -57.11 | X-H torsion

> <Gold.Protein.ActiveResidues>
 VAL166  LYS551  ARG553  GLY616  TRP617  ASP618  TYR619  PRO620  LYS621  CYS622 
 ASP623  PHE694  ASN695  SER759  ASP760  ASP761  ALA762  ILE779  LEU786  VAL792 
 PHE793  MET794  SER795  GLU796  ALA797  LYS798  CYS799  TRP800  GLU811  SER814 

> <Gold.Protein.RotatedAtoms>
  152.0416  134.9708  160.0573 H   0  0  0  0  0  0  0  0  0  0  0  0  # atno 6907 bound_to 6896
  152.1144  133.4313  159.4654 H   0  0  0  0  0  0  0  0  0  0  0  0  # atno 6908 bound_to 6896
  150.6845  134.2529  159.4561 H   0  0  0  0  0  0  0  0  0  0  0  0  # atno 6909 bound_to 6896
  146.2003  139.7804  142.8766 H   0  0  0  0  0  0  0  0  0  0  0  0  # atno 7974 bound_to 7965
  155.7807  140.3482  155.5296 H   0  0  0  0  0  0  0  0  0  0  0  0  # atno 8008 bound_to 7997
  155.8731  140.0990  157.1557 H   0  0  0  0  0  0  0  0  0  0  0  0  # atno 8009 bound_to 7997
  154.4019  140.1336  156.4090 H   0  0  0  0  0  0  0  0  0  0  0  0  # atno 8010 bound_to 7997
  139.5008  144.3638  151.9797 H   0  0  0  0  0  0  0  0  0  0  0  0  # atno 10167 bound_to 10162
  156.6939  130.5073  149.5936 H   0  0  0  0  0  0  0  0  0  0  0  0  # atno 10718 bound_to 10713
  153.3520  135.3978  155.1654 H   0  0  0  0  0  0  0  0  0  0  0  0  # atno 10763 bound_to 10752
  154.8664  135.3659  154.5209 H   0  0  0  0  0  0  0  0  0  0  0  0  # atno 10764 bound_to 10752
  153.5662  135.7080  153.5585 H   0  0  0  0  0  0  0  0  0  0  0  0  # atno 10765 bound_to 10752
  139.9139  134.7911  156.1894 H   0  0  0  0  0  0  0  0  0  0  0  0  # atno 11005 bound_to 11000
  145.3506  141.0306  143.3341 LP  0  0  0  0  0  0  0  0  0  0  0  0  # atno 17320 bound_to 7965
  144.8669  139.5095  143.6786 LP  0  0  0  0  0  0  0  0  0  0  0  0  # atno 17321 bound_to 7965
  140.3074  144.3577  150.6043 LP  0  0  0  0  0  0  0  0  0  0  0  0  # atno 17342 bound_to 10162
  140.5826  143.2172  151.7401 LP  0  0  0  0  0  0  0  0  0  0  0  0  # atno 17343 bound_to 10162
  156.1777  130.6478  151.0914 LP  0  0  0  0  0  0  0  0  0  0  0  0  # atno 17370 bound_to 10713
  157.6998  131.0780  150.6855 LP  0  0  0  0  0  0  0  0  0  0  0  0  # atno 17371 bound_to 10713
  141.0593  133.6849  156.1921 LP  0  0  0  0  0  0  0  0  0  0  0  0  # atno 17394 bound_to 11000
  140.6687  134.4891  157.5586 LP  0  0  0  0  0  0  0  0  0  0  0  0  # atno 17395 bound_to 11000

$$$$
