AV-unprocessed.smi:1830|AV-procd|sdf|7439|dock4
  -GOLD-   22720 9123D 1   1.00000     0.00000
 Structure written by MMmdl.
 53 56  0  0  0  0  0  0  0  0  2 V2000
  147.3524  138.1771  155.4622 O   0  0  0  0  0  0  0  0  0  0  0  0
  147.7432  137.6407  154.4256 C   0  0  0  0  0  0  0  0  0  0  0  0
  146.9443  136.9446  153.6048 N   0  0  0  0  0  0  0  0  0  0  0  0
  145.5143  136.7324  153.8042 C   0  0  0  0  0  0  0  0  0  0  0  0
  144.9017  135.8649  152.6894 C   0  0  1  0  0  0  0  0  0  0  0  0
  145.8820  134.7648  152.2168 C   0  0  0  0  0  0  0  0  0  0  0  0
  145.1865  133.9136  151.2339 N   0  3  1  0  0  0  0  0  0  0  0  0
  145.9302  132.7996  150.6209 C   0  0  0  0  0  0  0  0  0  0  0  0
  144.8439  131.8009  150.1722 C   0  0  0  0  0  0  0  0  0  0  0  0
  143.5153  132.3531  150.7211 C   0  0  0  0  0  0  0  0  0  0  0  0
  143.9705  133.3280  151.8020 C   0  0  2  0  0  0  0  0  0  0  0  0
  143.0173  134.4571  152.2117 C   0  0  0  0  0  0  0  0  0  0  0  0
  143.6981  135.2600  153.1766 O   0  0  0  0  0  0  0  0  0  0  0  0
  149.0001  137.6876  153.9546 N   0  0  0  0  0  0  0  0  0  0  0  0
  150.1019  138.4219  154.4762 C   0  0  0  0  0  0  0  0  0  0  0  0
  151.4114  137.8821  154.4887 C   0  0  0  0  0  0  0  0  0  0  0  0
  152.4780  138.6698  154.9548 C   0  0  0  0  0  0  0  0  0  0  0  0
  152.2007  139.9803  155.3776 C   0  0  0  0  0  0  0  0  0  0  0  0
  150.9631  140.5140  155.3575 N   0  0  0  0  0  0  0  0  0  0  0  0
  149.9214  139.7620  154.9242 C   0  0  0  0  0  0  0  0  0  0  0  0
  148.6451  140.3704  154.9402 N   0  0  0  0  0  0  0  0  0  0  0  0
  148.2769  141.3462  153.9196 C   0  0  0  0  0  0  0  0  0  0  0  0
  147.0361  142.0430  154.4699 C   0  0  0  0  0  0  0  0  0  0  0  0
  147.3269  142.0894  155.9668 C   0  0  0  0  0  0  0  0  0  0  0  0
  148.0977  140.7907  156.2268 C   0  0  0  0  0  0  0  0  0  0  0  0
  147.3544  136.5368  152.7773 H   0  0  0  0  0  0  0  0  0  0  0  0
  145.3933  136.2317  154.7651 H   0  0  0  0  0  0  0  0  0  0  0  0
  144.9880  137.6850  153.8861 H   0  0  0  0  0  0  0  0  0  0  0  0
  144.6518  136.5051  151.8411 H   0  0  0  0  0  0  0  0  0  0  0  0
  146.7658  135.2083  151.7570 H   0  0  0  0  0  0  0  0  0  0  0  0
  146.2203  134.1599  153.0599 H   0  0  0  0  0  0  0  0  0  0  0  0
  146.5461  133.1497  149.7922 H   0  0  0  0  0  0  0  0  0  0  0  0
  146.5848  132.3353  151.3601 H   0  0  0  0  0  0  0  0  0  0  0  0
  144.8071  131.7041  149.0868 H   0  0  0  0  0  0  0  0  0  0  0  0
  145.0517  130.8121  150.5830 H   0  0  0  0  0  0  0  0  0  0  0  0
  142.9807  132.8860  149.9334 H   0  0  0  0  0  0  0  0  0  0  0  0
  142.8579  131.5729  151.1061 H   0  0  0  0  0  0  0  0  0  0  0  0
  144.2416  132.7525  152.6902 H   0  0  0  0  0  0  0  0  0  0  0  0
  142.7186  135.0629  151.3547 H   0  0  0  0  0  0  0  0  0  0  0  0
  142.1098  134.0507  152.6586 H   0  0  0  0  0  0  0  0  0  0  0  0
  149.1536  137.2644  153.0509 H   0  0  0  0  0  0  0  0  0  0  0  0
  151.6180  136.8861  154.1283 H   0  0  0  0  0  0  0  0  0  0  0  0
  153.4857  138.2821  154.9754 H   0  0  0  0  0  0  0  0  0  0  0  0
  152.9939  140.6196  155.7359 H   0  0  0  0  0  0  0  0  0  0  0  0
  149.0723  142.0796  153.7795 H   0  0  0  0  0  0  0  0  0  0  0  0
  148.0806  140.8650  152.9609 H   0  0  0  0  0  0  0  0  0  0  0  0
  146.8733  143.0290  154.0337 H   0  0  0  0  0  0  0  0  0  0  0  0
  146.1502  141.4353  154.2802 H   0  0  0  0  0  0  0  0  0  0  0  0
  147.9658  142.9456  156.1881 H   0  0  0  0  0  0  0  0  0  0  0  0
  146.4258  142.1765  156.5741 H   0  0  0  0  0  0  0  0  0  0  0  0
  147.4145  140.0208  156.5854 H   0  0  0  0  0  0  0  0  0  0  0  0
  148.8751  140.9322  156.9790 H   0  0  0  0  0  0  0  0  0  0  0  0
  144.8886  134.5105  150.4754 H   0  0  0  0  0  0  0  0  0  0  0  0
  1  2  2  0  0  0  0
  2  3  1  0  0  0  0
  2 14  1  0  0  0  0
  3  4  1  0  0  0  0
  3 26  1  0  0  0  0
  4  5  1  0  0  0  0
  4 27  1  0  0  0  0
  4 28  1  0  0  0  0
  5 13  1  0  0  0  0
  5  6  1  0  0  0  0
  5 29  1  0  0  0  0
  6  7  1  0  0  0  0
  6 30  1  0  0  0  0
  6 31  1  0  0  0  0
  7 11  1  0  0  0  0
  7  8  1  0  0  0  0
  7 53  1  0  0  0  0
  8  9  1  0  0  0  0
  8 32  1  0  0  0  0
  8 33  1  0  0  0  0
  9 10  1  0  0  0  0
  9 34  1  0  0  0  0
  9 35  1  0  0  0  0
 10 11  1  0  0  0  0
 10 36  1  0  0  0  0
 10 37  1  0  0  0  0
 11 12  1  0  0  0  0
 11 38  1  0  0  0  0
 12 13  1  0  0  0  0
 12 39  1  0  0  0  0
 12 40  1  0  0  0  0
 14 15  1  0  0  0  0
 14 41  1  0  0  0  0
 15 20  1  0  0  0  0
 15 16  2  0  0  0  0
 16 17  1  0  0  0  0
 16 42  1  0  0  0  0
 17 18  2  0  0  0  0
 17 43  1  0  0  0  0
 18 19  1  0  0  0  0
 18 44  1  0  0  0  0
 19 20  2  0  0  0  0
 20 21  1  0  0  0  0
 21 25  1  0  0  0  0
 21 22  1  0  0  0  0
 22 23  1  0  0  0  0
 22 45  1  0  0  0  0
 22 46  1  0  0  0  0
 23 24  1  0  0  0  0
 23 47  1  0  0  0  0
 23 48  1  0  0  0  0
 24 25  1  0  0  0  0
 24 49  1  0  0  0  0
 24 50  1  0  0  0  0
 25 51  1  0  0  0  0
 25 52  1  0  0  0  0
M  CHG  1   7   1
M  END
> <s_m_source_file>
AV-unprocessed.smi

> <i_m_source_file_index>
1830

> <i_lp_mmshare_version>
43012

> <i_f3d_flags>
0

> <s_epik_input>
W0NIMl0xW0NIMl1bQ0gyXVtDQEhdKE4xMilbQ0gyXU9bQ0BASF0oW0NIMl0yKVtDSDJdW05IXUMoPU8pW05IXWMzW2NIXVtjSF1bY0hdbmMzTjRbQ0gyXVtDSDJdW0NIMl1bQ0gyXTQ=

> <s_epik_cmdline>
J2VwaWtfcHl0aG9uJywgJy1waCcsICc3LjAnLCAnLXRuJywgJzgnLCAnLW1hJywgJzIwMCcsICctbWV0YWxfYmluZGluZycsICctaW1hZScsICc8aW5maWxlLm1hZT4nLCAnLW9tYWUnLCAnPG91dGZpbGUubWFlPic=

> <r_lp_tautomer_probability>
1

> <r_epik_Ionization_Penalty>
0.193547

> <r_epik_Ionization_Penalty_Charging>
0.10673

> <r_epik_Ionization_Penalty_Neutral>
0.0868166

> <r_epik_State_Penalty>
0.173595

> <r_epik_Charging_Adjusted_Penalty>
0.280326

> <i_epik_Tot_Q>
1

> <i_epik_Tot_abs_Q>
1

> <r_epik_Metal_State_Penalty>
0.164683

> <b_epik_Metal_Only>
0

> <s_lp_Force_Field>
OPLS_2005

> <r_lp_Energy>
64.524

> <b_lp_Chiralities_Consistent>
1

> <s_lp_Variant>
AV-unprocessed.smi:1830-8

> <Gold.Version>
5.8.1

> <Gold.Id.Protein>
6NUR|6NUR_protein|mol2

> <Gold.PLP.Fitness>
45.3035

> <Gold.PLP.PLP>
-40.7780

> <Gold.PLP.part.hbond>
-2.9887

> <Gold.PLP.part.metal>
0.0000

> <Gold.PLP.part.buried>
-2.9376

> <Gold.PLP.part.nonpolar>
-35.3514

> <Gold.PLP.part.repulsive>
0.2660

> <Gold.PLP.ligand.clash>
0.0000

> <Gold.PLP.ligand.torsion>
0.7773

> <Gold.PLP.Chemscore.Hbond>
1.9120

> <Gold.PLP.Chemscore.CHOScore>
0.0000

> <Gold.PLP.Chemscore.Metal>
0.0000

> <Gold.Chemscore.Hbonds>
donor molecule, donor type, donor heavy atom, donor atom, acceptor molecule, acceptor atom, score
      L1  H     3    26       P1  7948  0.91
      L1  H    14    41       P1  7948  1.00

> <Gold.PLP.Chemscore.Internal.Correction>
0.3441

> <Gold.Rescore>
     Score         DG    S(hbond)    S(metal)    S(lipo)     H(rot)  DE(clash)    DE(int)     intcor
     13.76     -19.90       1.83        0.00     101.72       1.41       0.45       5.69       ----

> <Gold.Chemscore.Fitness>
13.7620

> <Gold.Chemscore.DG>
-19.9034

> <Gold.Chemscore.ZeroCoef>
-5.4800

> <Gold.Chemscore.Hbond>
1.8334

> <Gold.Chemscore.Metal>
0.0000

> <Gold.Chemscore.Lipo>
101.7183

> <Gold.Chemscore.Internal_Hbond>
0.0000

> <Gold.Chemscore.DEClash>
0.4466

> <Gold.Chemscore.DEInternal>
5.6947

> <Gold.Chemscore.Rot>
1.4067

> <Gold.Chemscore.Internal.Correction>
   9.000000E+99

> <Gold.Chemscore.Hbonds>
donor molecule, donor type, donor heavy atom, donor atom, acceptor molecule, acceptor atom, score
      L1  H     3    26       P1  7948  0.88
      L1  H    14    41       P1  7948  0.95

> <Gold.Chemscore.Hbond.Weighted>
-6.1235

> <Gold.Chemscore.Metal.Weighted>
-0.0000

> <Gold.Chemscore.Lipo.Weighted>
-11.9010

> <Gold.Chemscore.Internal_Hbond.Weighted>
0.0000

> <Gold.Chemscore.DEClash.Weighted>
0.4466

> <Gold.Chemscore.DEInternal.Weighted>
5.6947

> <Gold.Chemscore.Rot.Weighted>
3.6011

> <Gold.Chemscore.Internal.Correction.Weighted>
   9.000000E+99

> <Gold.Protein.RotatedTorsions>
[ 6907 6896 6895 6894 ] final  165.19 input  -60.11 | X-H torsion
[ 7974 7965 7964 7962 ] final -168.11 input  175.53 | X-H torsion
[ 8008 7997 7996 7995 ] final -143.55 input   59.86 | X-H torsion
[ 10167 10162 10161 10158 ] final   53.19 input  -65.29 | X-H torsion
[ 10718 10713 10712 10709 ] final  164.64 input   66.30 | X-H torsion
[ 10763 10752 10751 10750 ] final   97.01 input  -60.55 | X-H torsion
[ 11005 11000 10999 10996 ] final   99.91 input  -57.11 | X-H torsion

> <Gold.Protein.ActiveResidues>
 VAL166  LYS551  ARG553  GLY616  TRP617  ASP618  TYR619  PRO620  LYS621  CYS622 
 ASP623  PHE694  ASN695  SER759  ASP760  ASP761  ALA762  ILE779  LEU786  VAL792 
 PHE793  MET794  SER795  GLU796  ALA797  LYS798  CYS799  TRP800  GLU811  SER814 

> <Gold.Protein.RotatedAtoms>
  151.8983  133.3532  159.3821 H   0  0  0  0  0  0  0  0  0  0  0  0  # atno 6907 bound_to 6896
  150.7086  134.4854  159.5500 H   0  0  0  0  0  0  0  0  0  0  0  0  # atno 6908 bound_to 6896
  152.2438  134.8202  160.0507 H   0  0  0  0  0  0  0  0  0  0  0  0  # atno 6909 bound_to 6896
  144.7209  140.2419  143.6290 H   0  0  0  0  0  0  0  0  0  0  0  0  # atno 7974 bound_to 7965
  155.5124  140.0584  157.2921 H   0  0  0  0  0  0  0  0  0  0  0  0  # atno 8008 bound_to 7997
  154.4547  140.1967  156.0362 H   0  0  0  0  0  0  0  0  0  0  0  0  # atno 8009 bound_to 7997
  156.0775  140.3251  155.7656 H   0  0  0  0  0  0  0  0  0  0  0  0  # atno 8010 bound_to 7997
  140.2434  144.3558  150.6372 H   0  0  0  0  0  0  0  0  0  0  0  0  # atno 10167 bound_to 10162
  157.0915  131.0419  151.2535 H   0  0  0  0  0  0  0  0  0  0  0  0  # atno 10718 bound_to 10713
  153.2718  135.4198  155.0995 H   0  0  0  0  0  0  0  0  0  0  0  0  # atno 10763 bound_to 10752
  154.8458  135.3474  154.6234 H   0  0  0  0  0  0  0  0  0  0  0  0  # atno 10764 bound_to 10752
  153.6654  135.7046  153.5221 H   0  0  0  0  0  0  0  0  0  0  0  0  # atno 10765 bound_to 10752
  139.8770  134.9117  156.4676 H   0  0  0  0  0  0  0  0  0  0  0  0  # atno 11005 bound_to 11000
  145.8311  139.2086  143.1882 LP  0  0  0  0  0  0  0  0  0  0  0  0  # atno 17320 bound_to 7965
  146.0430  140.8146  142.9819 LP  0  0  0  0  0  0  0  0  0  0  0  0  # atno 17321 bound_to 7965
  140.6096  143.2169  151.6912 LP  0  0  0  0  0  0  0  0  0  0  0  0  # atno 17342 bound_to 10162
  139.5070  144.3663  152.0514 LP  0  0  0  0  0  0  0  0  0  0  0  0  # atno 17343 bound_to 10162
  157.4717  130.7713  149.7330 LP  0  0  0  0  0  0  0  0  0  0  0  0  # atno 17370 bound_to 10713
  155.9897  130.3950  150.3062 LP  0  0  0  0  0  0  0  0  0  0  0  0  # atno 17371 bound_to 10713
  140.8819  133.7912  155.9475 LP  0  0  0  0  0  0  0  0  0  0  0  0  # atno 17394 bound_to 11000
  140.8845  134.2570  157.5127 LP  0  0  0  0  0  0  0  0  0  0  0  0  # atno 17395 bound_to 11000

$$$$
