#       Name:                AV-unprocessed.smi:233
#       Creating user name   scv26
#       Creation time:       Thu Mar 26 20:33:34 2020


#       File generated by GOLD software.
#

@<TRIPOS>MOLECULE
AV-unprocessed.smi:233
    69    72     1
SMALL
NO_CHARGES


@<TRIPOS>ATOM
      1 ****        -4.4839  -2.7930  -5.6728 C.3            1 S1                 0.0000
      2 ****        -4.7355  -2.8690  -4.1709 C.2            1 S1                 0.0000
      3 ****        -5.7920  -3.3346  -3.7449 O.2            1 S1                 0.0000
      4 ****        -3.7539  -2.4073  -3.3814 N.am           1 S1                 0.0000
      5 ****        -3.7797  -2.3808  -1.9196 C.3            1 S1                 0.0000
      6 ****        -4.6097  -1.1966  -1.3878 C.3            1 S1                 0.0000
      7 ****        -3.9325   0.1581  -1.6567 C.3            1 S1                 0.0000
      8 ****        -2.5020   0.2231  -1.0706 C.3            1 S1                 0.0000
      9 ****        -1.8726   1.5257  -1.3398 N.3            1 S1                 0.0000
     10 ****        -2.5900   2.7223  -0.9101 C.3            1 S1                 0.0000
     11 ****        -0.5653   1.6232  -1.0088 C.ar           1 S1                 0.0000
     12 ****         0.3070   1.9290  -2.0005 N.ar           1 S1                 0.0000
     13 ****         1.6113   2.0394  -1.7302 C.ar           1 S1                 0.0000
     14 ****         2.2384   1.8859  -0.5614 N.ar           1 S1                 0.0000
     15 ****         1.3603   1.5825   0.4376 C.ar           1 S1                 0.0000
     16 ****        -0.0491   1.4408   0.3049 C.ar           1 S1                 0.0000
     17 ****        -0.6161   1.1521   1.5399 N.2            1 S1                 0.0000
     18 ****         0.4012   1.1252   2.3570 C.2            1 S1                 0.0000
     19 ****         1.6292   1.3446   1.7735 N.pl3          1 S1                 0.0000
     20 ****         2.9011   1.4017   2.4315 C.3            1 S1                 0.0000
     21 ****         4.1002   0.6236   1.8861 C.3            1 S1                 0.0000
     22 ****         4.6233   0.4327   3.3278 C.3            1 S1                 0.0000
     23 ****         5.1836  -0.9621   3.6514 C.3            1 S1                 0.0000
     24 ****         5.2289  -1.1833   5.0463 O.3            1 S1                 0.0000
     25 ****         5.6203   1.5047   3.8122 C.3            1 S1                 0.0000
     26 ****         6.8303   1.4519   3.0837 O.3            1 S1                 0.0000
     27 ****         3.1547   0.6631   3.7480 C.3            1 S1                 0.0000
     28 ****        -1.6708  -0.9648  -1.6235 C.3            1 S1                 0.0000
     29 ****        -2.3473  -2.3218  -1.3612 C.3            1 S1                 0.0000
     30 ****        -4.0612  -1.8252  -5.9454 H              1 S1                 0.0000
     31 ****        -5.4133  -2.9263  -6.2275 H              1 S1                 0.0000
     32 ****        -3.7867  -3.5735  -5.9789 H              1 S1                 0.0000
     33 ****        -2.9233  -2.0435  -3.8255 H              1 S1                 0.0000
     34 ****        -4.2356  -3.3102  -1.5737 H              1 S1                 0.0000
     35 ****        -5.6102  -1.2048  -1.8215 H              1 S1                 0.0000
     36 ****        -4.7491  -1.3145  -0.3125 H              1 S1                 0.0000
     37 ****        -3.9012   0.3466  -2.7307 H              1 S1                 0.0000
     38 ****        -4.5594   0.9391  -1.2268 H              1 S1                 0.0000
     39 ****        -2.5834   0.1087   0.0108 H              1 S1                 0.0000
     40 ****        -1.9450   3.6026  -0.8884 H              1 S1                 0.0000
     41 ****        -3.0091   2.5846   0.0874 H              1 S1                 0.0000
     42 ****        -3.4068   2.9383  -1.5987 H              1 S1                 0.0000
     43 ****         2.2434   2.2846  -2.5709 H              1 S1                 0.0000
     44 ****         0.2804   0.9365   3.4138 H              1 S1                 0.0000
     45 ****         3.1416   2.4616   2.5308 H              1 S1                 0.0000
     46 ****         3.8045  -0.3134   1.4102 H              1 S1                 0.0000
     47 ****         4.7497   1.2032   1.2293 H              1 S1                 0.0000
     48 ****         4.5596  -1.7410   3.2122 H              1 S1                 0.0000
     49 ****         6.1818  -1.1020   3.2364 H              1 S1                 0.0000
     50 ****         5.5763  -2.0484   5.2015 H              1 S1                 0.0000
     51 ****         5.2079   2.5071   3.6964 H              1 S1                 0.0000
     52 ****         5.8438   1.3916   4.8732 H              1 S1                 0.0000
     53 ****         7.4058   2.1270   3.4092 H              1 S1                 0.0000
     54 ****         3.0244   1.2741   4.6416 H              1 S1                 0.0000
     55 ****         2.5871  -0.2664   3.8242 H              1 S1                 0.0000
     56 ****        -1.5111  -0.8343  -2.6947 H              1 S1                 0.0000
     57 ****        -0.6801  -0.9917  -1.1695 H              1 S1                 0.0000
     58 ****        -2.3758  -2.4994  -0.2854 H              1 S1                 0.0000
     59 ****        -1.7448  -3.1268  -1.7840 H              1 S1                 0.0000
     60 ****        -6.4870  -3.6638  -4.3841 LP             1 S1                 0.0000
     61 ****        -5.9554  -3.3837  -2.7596 LP             1 S1                 0.0000
     62 ****        -1.9386   1.5166  -2.3376 LP             1 S1                 0.0000
     63 ****        -0.0249   2.0718  -2.9330 LP             1 S1                 0.0000
     64 ****         3.2257   1.9812  -0.4346 LP             1 S1                 0.0000
     65 ****        -1.5811   1.0000   1.7535 LP             1 S1                 0.0000
     66 ****         4.3073  -1.1163   5.4286 LP             1 S1                 0.0000
     67 ****         5.8190  -0.5005   5.4771 LP             1 S1                 0.0000
     68 ****         6.6464   1.6046   2.1126 LP             1 S1                 0.0000
     69 ****         7.2583   0.5563   3.2050 LP             1 S1                 0.0000
@<TRIPOS>BOND
    1    1    2 1     
    2    1   30 1     
    3    1   31 1     
    4    1   32 1     
    5    2    3 2     
    6    2    4 am    
    7    4    5 1     
    8    4   33 1     
    9    5   29 1     
   10    5    6 1     
   11    5   34 1     
   12    6    7 1     
   13    6   35 1     
   14    6   36 1     
   15    7    8 1     
   16    7   37 1     
   17    7   38 1     
   18    8    9 1     
   19    8   28 1     
   20    8   39 1     
   21    9   10 1     
   22    9   11 1     
   23   10   40 1     
   24   10   41 1     
   25   10   42 1     
   26   11   16 ar    
   27   11   12 ar    
   28   12   13 ar    
   29   13   14 ar    
   30   13   43 1     
   31   14   15 ar    
   32   15   19 1     
   33   15   16 ar    
   34   16   17 1     
   35   17   18 2     
   36   18   19 1     
   37   18   44 1     
   38   19   20 1     
   39   20   27 1     
   40   20   21 1     
   41   20   45 1     
   42   21   22 1     
   43   21   46 1     
   44   21   47 1     
   45   22   23 1     
   46   22   25 1     
   47   22   27 1     
   48   23   24 1     
   49   23   48 1     
   50   23   49 1     
   51   24   50 1     
   52   25   26 1     
   53   25   51 1     
   54   25   52 1     
   55   26   53 1     
   56   27   54 1     
   57   27   55 1     
   58   28   29 1     
   59   28   56 1     
   60   28   57 1     
   61   29   58 1     
   62   29   59 1     
   63    3   60 1     
   64    3   61 1     
   65    9   62 1     
   66   12   63 1     
   67   14   64 1     
   68   17   65 1     
   69   24   66 1     
   70   24   67 1     
   71   26   68 1     
   72   26   69 1     
@<TRIPOS>SUBSTRUCTURE
      1 S1             1
@<TRIPOS>SET
LONE_PAIRS      STATIC     ATOMS    <user>   **** ""
10 60 61 62 63 64 65 66 67 68 69
DONOR_HYDROGENS      STATIC     ATOMS    <user>   **** ""
3 33 50 53
ATOM$BLUE        STATIC     ATOMS    COLORGROUP SYSTEM
10 60 61 62 63 64 65 66 67 68 69
ATOM$RED        STATIC     ATOMS    COLORGROUP SYSTEM
3 33 50 53
