AV-unprocessed.smi:3150|AV-procd|sdf|12007|dock1
  -GOLD-   2272017413D 1   1.00000     0.00000
 Structure written by MMmdl.
 33 34  0  0  0  0  0  0  0  0  1 V2000
  152.2134  139.8754  158.1011 C   0  0  0  0  0  0  0  0  0  0  0  0
  151.8664  141.3717  158.0830 C   0  0  2  0  0  0  0  0  0  0  0  0
  152.0747  141.8772  159.3992 O   0  0  0  0  0  0  0  0  0  0  0  0
  152.7646  143.1188  159.4739 C   0  0  0  0  0  0  0  0  0  0  0  0
  151.8485  144.2150  158.9753 C   0  0  0  0  0  0  0  0  0  0  0  0
  151.7892  145.5493  159.6837 C   0  0  0  0  0  0  0  0  0  0  0  0
  150.6189  144.6025  159.7651 C   0  0  0  0  0  0  0  0  0  0  0  0
  150.4119  141.6066  157.6435 C   0  0  0  0  0  0  0  0  0  0  0  0
  149.6102  142.1120  158.4300 O   0  0  0  0  0  0  0  0  0  0  0  0
  150.1199  141.2429  156.3809 N   0  0  0  0  0  0  0  0  0  0  0  0
  148.8805  141.3465  155.6911 C   0  0  0  0  0  0  0  0  0  0  0  0
  147.7681  141.8922  156.2443 N   0  0  0  0  0  0  0  0  0  0  0  0
  146.6303  141.9532  155.5218 C   0  0  0  0  0  0  0  0  0  0  0  0
  146.5296  141.4736  154.2037 C   0  0  0  0  0  0  0  0  0  0  0  0
  147.6736  140.9054  153.6169 C   0  0  0  0  0  0  0  0  0  0  0  0
  148.8652  140.8392  154.3665 C   0  0  0  0  0  0  0  0  0  0  0  0
  149.9821  140.2883  153.8011 O   0  0  0  0  0  0  0  0  0  0  0  0
  152.0594  139.4207  157.1217 H   0  0  0  0  0  0  0  0  0  0  0  0
  151.6054  139.3300  158.8241 H   0  0  0  0  0  0  0  0  0  0  0  0
  153.2586  139.7256  158.3722 H   0  0  0  0  0  0  0  0  0  0  0  0
  152.5484  141.8712  157.3919 H   0  0  0  0  0  0  0  0  0  0  0  0
  153.0438  143.3352  160.5057 H   0  0  0  0  0  0  0  0  0  0  0  0
  153.6762  143.1087  158.8752 H   0  0  0  0  0  0  0  0  0  0  0  0
  151.7432  144.2413  157.8923 H   0  0  0  0  0  0  0  0  0  0  0  0
  152.3972  145.6756  160.5775 H   0  0  0  0  0  0  0  0  0  0  0  0
  151.6757  146.4390  159.0678 H   0  0  0  0  0  0  0  0  0  0  0  0
  149.7229  144.8612  159.2046 H   0  0  0  0  0  0  0  0  0  0  0  0
  150.4455  144.1009  160.7153 H   0  0  0  0  0  0  0  0  0  0  0  0
  150.8777  140.8480  155.8431 H   0  0  0  0  0  0  0  0  0  0  0  0
  145.7753  142.3975  156.0096 H   0  0  0  0  0  0  0  0  0  0  0  0
  145.5999  141.5407  153.6585 H   0  0  0  0  0  0  0  0  0  0  0  0
  147.6359  140.5260  152.6062 H   0  0  0  0  0  0  0  0  0  0  0  0
  149.8197  139.9140  152.9488 H   0  0  0  0  0  0  0  0  0  0  0  0
  1  2  1  0  0  0  0
  1 18  1  0  0  0  0
  1 19  1  0  0  0  0
  1 20  1  0  0  0  0
  2  3  1  0  0  0  0
  2  8  1  0  0  0  0
  2 21  1  0  0  0  0
  3  4  1  0  0  0  0
  4  5  1  0  0  0  0
  4 22  1  0  0  0  0
  4 23  1  0  0  0  0
  5  7  1  0  0  0  0
  5  6  1  0  0  0  0
  5 24  1  0  0  0  0
  6  7  1  0  0  0  0
  6 25  1  0  0  0  0
  6 26  1  0  0  0  0
  7 27  1  0  0  0  0
  7 28  1  0  0  0  0
  8  9  2  0  0  0  0
  8 10  1  0  0  0  0
 10 11  1  0  0  0  0
 10 29  1  0  0  0  0
 11 16  1  0  0  0  0
 11 12  2  0  0  0  0
 12 13  1  0  0  0  0
 13 14  2  0  0  0  0
 13 30  1  0  0  0  0
 14 15  1  0  0  0  0
 14 31  1  0  0  0  0
 15 16  2  0  0  0  0
 15 32  1  0  0  0  0
 16 17  1  0  0  0  0
 17 33  1  0  0  0  0
M  END
> <s_m_source_file>
AV-unprocessed.smi

> <i_m_source_file_index>
3150

> <i_lp_mmshare_version>
43012

> <i_f3d_flags>
0

> <s_epik_input>
W0NIMl0xW0NIMl1bQ0hdMVtDSDJdT1tDQEBIXShbQ0gzXSlDKD1PKVtOSF1jMm5bY0hdW2NIXVtjSF1jMltPSF0=

> <s_epik_cmdline>
J2VwaWtfcHl0aG9uJywgJy1waCcsICc3LjAnLCAnLXRuJywgJzgnLCAnLW1hJywgJzIwMCcsICctbWV0YWxfYmluZGluZycsICctaW1hZScsICc8aW5maWxlLm1hZT4nLCAnLW9tYWUnLCAnPG91dGZpbGUubWFlPic=

> <r_lp_tautomer_probability>
0.43658

> <r_epik_Ionization_Penalty>
0.0204299

> <r_epik_Ionization_Penalty_Charging>
0

> <r_epik_Ionization_Penalty_Neutral>
0.0204299

> <r_epik_State_Penalty>
0.419322

> <r_epik_Charging_Adjusted_Penalty>
0.419322

> <i_epik_Tot_Q>
0

> <i_epik_Tot_abs_Q>
0

> <r_epik_Metal_State_Penalty>
0.377394

> <b_epik_Metal_Only>
0

> <s_lp_Force_Field>
OPLS_2005

> <r_lp_Energy>
16.2266

> <b_lp_Chiralities_Consistent>
1

> <s_lp_Variant>
AV-unprocessed.smi:3150-1

> <Gold.Version>
5.8.1

> <Gold.Id.Protein>
6NUR|6NUR_protein|mol2

> <Gold.PLP.Fitness>
40.7009

> <Gold.PLP.PLP>
-37.0555

> <Gold.PLP.part.hbond>
-2.0000

> <Gold.PLP.part.metal>
0.0000

> <Gold.PLP.part.buried>
-5.9763

> <Gold.PLP.part.nonpolar>
-30.4282

> <Gold.PLP.part.repulsive>
1.3652

> <Gold.PLP.ligand.clash>
0.0000

> <Gold.PLP.ligand.torsion>
0.9966

> <Gold.PLP.Chemscore.Hbond>
1.6624

> <Gold.PLP.Chemscore.CHOScore>
0.0000

> <Gold.PLP.Chemscore.Metal>
0.0000

> <Gold.Chemscore.Hbonds>
donor molecule, donor type, donor heavy atom, donor atom, acceptor molecule, acceptor atom, score
      L1  H    17    33       P1  7957  1.00
      P1  H  7989  7998       L1    17  0.61

> <Gold.PLP.Chemscore.Internal.Correction>
0.6513

> <Gold.Rescore>
     Score         DG    S(hbond)    S(metal)    S(lipo)     H(rot)  DE(clash)    DE(int)     intcor
     11.86     -14.29       1.28        0.00      87.44       2.22       0.07       2.37       ----

> <Gold.Chemscore.Fitness>
11.8554

> <Gold.Chemscore.DG>
-14.2891

> <Gold.Chemscore.ZeroCoef>
-5.4800

> <Gold.Chemscore.Hbond>
1.2753

> <Gold.Chemscore.Metal>
0.0000

> <Gold.Chemscore.Lipo>
87.4444

> <Gold.Chemscore.Internal_Hbond>
0.0000

> <Gold.Chemscore.DEClash>
0.0683

> <Gold.Chemscore.DEInternal>
2.3654

> <Gold.Chemscore.Rot>
2.2192

> <Gold.Chemscore.Internal.Correction>
   9.000000E+99

> <Gold.Chemscore.Hbonds>
donor molecule, donor type, donor heavy atom, donor atom, acceptor molecule, acceptor atom, score
      L1  H    17    33       P1  7957  0.96
      P1  H  7989  7998       L1    17  0.11

> <Gold.Chemscore.Hbond.Weighted>
-4.2594

> <Gold.Chemscore.Metal.Weighted>
-0.0000

> <Gold.Chemscore.Lipo.Weighted>
-10.2310

> <Gold.Chemscore.Internal_Hbond.Weighted>
0.0000

> <Gold.Chemscore.DEClash.Weighted>
0.0683

> <Gold.Chemscore.DEInternal.Weighted>
2.3654

> <Gold.Chemscore.Rot.Weighted>
5.6812

> <Gold.Chemscore.Internal.Correction.Weighted>
   9.000000E+99

> <Gold.Protein.RotatedTorsions>
[ 6907 6896 6895 6894 ] final   -4.89 input  -60.11 | X-H torsion
[ 7974 7965 7964 7962 ] final    1.27 input  175.53 | X-H torsion
[ 8008 7997 7996 7995 ] final   17.70 input   59.86 | X-H torsion
[ 10167 10162 10161 10158 ] final   87.90 input  -65.29 | X-H torsion
[ 10718 10713 10712 10709 ] final   47.70 input   66.30 | X-H torsion
[ 10763 10752 10751 10750 ] final -118.71 input  -60.55 | X-H torsion
[ 11005 11000 10999 10996 ] final   38.93 input  -57.11 | X-H torsion

> <Gold.Protein.ActiveResidues>
 VAL166  LYS551  ARG553  GLY616  TRP617  ASP618  TYR619  PRO620  LYS621  CYS622 
 ASP623  PHE694  ASN695  SER759  ASP760  ASP761  ALA762  ILE779  LEU786  VAL792 
 PHE793  MET794  SER795  GLU796  ALA797  LYS798  CYS799  TRP800  GLU811  SER814 

> <Gold.Protein.RotatedAtoms>
  151.4903  135.1057  159.9801 H   0  0  0  0  0  0  0  0  0  0  0  0  # atno 6907 bound_to 6896
  152.4743  133.8099  159.7008 H   0  0  0  0  0  0  0  0  0  0  0  0  # atno 6908 bound_to 6896
  150.8772  133.7361  159.2969 H   0  0  0  0  0  0  0  0  0  0  0  0  # atno 6909 bound_to 6896
  146.2439  140.1013  142.8347 H   0  0  0  0  0  0  0  0  0  0  0  0  # atno 7974 bound_to 7965
  154.8952  140.2992  155.5348 H   0  0  0  0  0  0  0  0  0  0  0  0  # atno 8008 bound_to 7997
  156.3020  140.2417  156.3907 H   0  0  0  0  0  0  0  0  0  0  0  0  # atno 8009 bound_to 7997
  154.8577  140.0406  157.1634 H   0  0  0  0  0  0  0  0  0  0  0  0  # atno 8010 bound_to 7997
  139.8727  144.6484  150.8931 H   0  0  0  0  0  0  0  0  0  0  0  0  # atno 10167 bound_to 10162
  157.4611  130.8197  149.7887 H   0  0  0  0  0  0  0  0  0  0  0  0  # atno 10718 bound_to 10713
  154.8596  135.4264  154.2183 H   0  0  0  0  0  0  0  0  0  0  0  0  # atno 10763 bound_to 10752
  153.3194  135.6981  153.7050 H   0  0  0  0  0  0  0  0  0  0  0  0  # atno 10764 bound_to 10752
  153.6111  135.3519  155.2953 H   0  0  0  0  0  0  0  0  0  0  0  0  # atno 10765 bound_to 10752
  140.2077  134.3793  155.8064 H   0  0  0  0  0  0  0  0  0  0  0  0  # atno 11005 bound_to 11000
  145.0566  140.9057  143.4963 LP  0  0  0  0  0  0  0  0  0  0  0  0  # atno 17320 bound_to 7965
  145.1120  139.2750  143.5632 LP  0  0  0  0  0  0  0  0  0  0  0  0  # atno 17321 bound_to 7965
  140.7758  143.3650  151.1756 LP  0  0  0  0  0  0  0  0  0  0  0  0  # atno 17342 bound_to 10162
  139.7269  143.9135  152.3006 LP  0  0  0  0  0  0  0  0  0  0  0  0  # atno 17343 bound_to 10162
  156.0029  130.3870  150.2538 LP  0  0  0  0  0  0  0  0  0  0  0  0  # atno 17370 bound_to 10713
  157.0715  131.0118  151.3188 LP  0  0  0  0  0  0  0  0  0  0  0  0  # atno 17371 bound_to 10713
  141.2227  133.7127  156.8366 LP  0  0  0  0  0  0  0  0  0  0  0  0  # atno 17394 bound_to 11000
  140.1984  134.8915  157.3141 LP  0  0  0  0  0  0  0  0  0  0  0  0  # atno 17395 bound_to 11000

$$$$
