AV-unprocessed.smi:1762|AV-procd|sdf|7119|dock8
  -GOLD-   22720 8353D 1   1.00000     0.00000
 Structure written by MMmdl.
 52 53  0  0  0  0  0  0  0  0  3 V2000
  151.1072  134.5355  155.2941 C   0  0  0  0  0  0  0  0  0  0  0  0
  149.8638  135.2883  154.8073 C   0  0  2  0  0  0  0  0  0  0  0  0
  150.0423  136.8153  154.8979 C   0  0  0  0  0  0  0  0  0  0  0  0
  148.7938  137.5228  154.5030 N   0  3  2  0  0  0  0  0  0  0  0  0
  148.8915  139.0211  154.4644 C   0  0  2  0  0  0  0  0  0  0  0  0
  149.4795  139.5637  155.7903 C   0  0  0  0  0  0  0  0  0  0  0  0
  148.7555  139.5903  156.7916 O   0  0  0  0  0  0  0  0  0  0  0  0
  150.7849  139.9157  155.6415 N   0  5  0  0  0  0  0  0  0  0  0  0
  151.4451  140.9722  156.4061 C   0  0  0  0  0  0  0  0  0  0  0  0
  150.4094  141.7508  157.2503 C   0  0  0  0  0  0  0  0  0  0  0  0
  150.9699  142.9220  158.0545 C   0  0  0  0  0  0  0  0  0  0  0  0
  151.7391  143.9258  157.4225 C   0  0  0  0  0  0  0  0  0  0  0  0
  152.2460  144.9814  158.2040 C   0  0  0  0  0  0  0  0  0  0  0  0
  151.9755  144.9931  159.5855 C   0  0  0  0  0  0  0  0  0  0  0  0
  151.2064  143.9437  160.1257 C   0  0  0  0  0  0  0  0  0  0  0  0
  150.7154  142.9264  159.3859 N   0  0  0  0  0  0  0  0  0  0  0  0
  147.5589  139.7580  154.0944 C   0  0  0  0  0  0  0  0  0  0  0  0
  146.9051  139.2053  152.8124 C   0  0  0  0  0  0  0  0  0  0  0  0
  147.6776  141.2943  154.0082 C   0  0  0  0  0  0  0  0  0  0  0  0
  147.6740  137.0345  155.3592 C   0  0  0  0  0  0  0  0  0  0  0  0
  147.5279  135.5042  155.2890 C   0  0  1  0  0  0  0  0  0  0  0  0
  146.9489  135.0040  153.9535 C   0  0  0  0  0  0  0  0  0  0  0  0
  148.7666  134.8802  155.6161 O   0  0  0  0  0  0  0  0  0  0  0  0
  151.9827  134.7942  154.6978 H   0  0  0  0  0  0  0  0  0  0  0  0
  150.9632  133.4572  155.2205 H   0  0  0  0  0  0  0  0  0  0  0  0
  151.3295  134.7713  156.3353 H   0  0  0  0  0  0  0  0  0  0  0  0
  149.6836  135.0028  153.7707 H   0  0  0  0  0  0  0  0  0  0  0  0
  150.3220  137.1102  155.9107 H   0  0  0  0  0  0  0  0  0  0  0  0
  150.8723  137.0783  154.2458 H   0  0  0  0  0  0  0  0  0  0  0  0
  149.5863  139.2398  153.6491 H   0  0  0  0  0  0  0  0  0  0  0  0
  152.2188  140.5708  157.0612 H   0  0  0  0  0  0  0  0  0  0  0  0
  151.9525  141.6857  155.7551 H   0  0  0  0  0  0  0  0  0  0  0  0
  149.6336  142.1361  156.5871 H   0  0  0  0  0  0  0  0  0  0  0  0
  149.8988  141.0665  157.9295 H   0  0  0  0  0  0  0  0  0  0  0  0
  151.9268  143.8903  156.3594 H   0  0  0  0  0  0  0  0  0  0  0  0
  152.8319  145.7676  157.7513 H   0  0  0  0  0  0  0  0  0  0  0  0
  152.3485  145.7863  160.2161 H   0  0  0  0  0  0  0  0  0  0  0  0
  150.9809  143.9192  161.1815 H   0  0  0  0  0  0  0  0  0  0  0  0
  146.8334  139.5339  154.8752 H   0  0  0  0  0  0  0  0  0  0  0  0
  147.4872  139.4430  151.9216 H   0  0  0  0  0  0  0  0  0  0  0  0
  145.9089  139.6246  152.6697 H   0  0  0  0  0  0  0  0  0  0  0  0
  146.7996  138.1209  152.8603 H   0  0  0  0  0  0  0  0  0  0  0  0
  148.2639  141.6068  153.1442 H   0  0  0  0  0  0  0  0  0  0  0  0
  148.1444  141.7216  154.8951 H   0  0  0  0  0  0  0  0  0  0  0  0
  146.6929  141.7513  153.9081 H   0  0  0  0  0  0  0  0  0  0  0  0
  147.8616  137.3362  156.3909 H   0  0  0  0  0  0  0  0  0  0  0  0
  146.7206  137.4813  155.0784 H   0  0  0  0  0  0  0  0  0  0  0  0
  146.8266  135.2030  156.0678 H   0  0  0  0  0  0  0  0  0  0  0  0
  145.9418  135.3929  153.8007 H   0  0  0  0  0  0  0  0  0  0  0  0
  146.8868  133.9158  153.9395 H   0  0  0  0  0  0  0  0  0  0  0  0
  147.5470  135.3175  153.0982 H   0  0  0  0  0  0  0  0  0  0  0  0
  148.5847  137.2377  153.5570 H   0  0  0  0  0  0  0  0  0  0  0  0
  1  2  1  0  0  0  0
  1 24  1  0  0  0  0
  1 25  1  0  0  0  0
  1 26  1  0  0  0  0
  2 23  1  0  0  0  0
  2  3  1  0  0  0  0
  2 27  1  0  0  0  0
  3  4  1  0  0  0  0
  3 28  1  0  0  0  0
  3 29  1  0  0  0  0
  4  5  1  0  0  0  0
  4 20  1  0  0  0  0
  4 52  1  0  0  0  0
  5  6  1  0  0  0  0
  5 17  1  0  0  0  0
  5 30  1  0  0  0  0
  6  7  2  0  0  0  0
  6  8  1  0  0  0  0
  8  9  1  0  0  0  0
  9 10  1  0  0  0  0
  9 31  1  0  0  0  0
  9 32  1  0  0  0  0
 10 11  1  0  0  0  0
 10 33  1  0  0  0  0
 10 34  1  0  0  0  0
 11 16  1  0  0  0  0
 11 12  2  0  0  0  0
 12 13  1  0  0  0  0
 12 35  1  0  0  0  0
 13 14  2  0  0  0  0
 13 36  1  0  0  0  0
 14 15  1  0  0  0  0
 14 37  1  0  0  0  0
 15 16  2  0  0  0  0
 15 38  1  0  0  0  0
 17 18  1  0  0  0  0
 17 19  1  0  0  0  0
 17 39  1  0  0  0  0
 18 40  1  0  0  0  0
 18 41  1  0  0  0  0
 18 42  1  0  0  0  0
 19 43  1  0  0  0  0
 19 44  1  0  0  0  0
 19 45  1  0  0  0  0
 20 21  1  0  0  0  0
 20 46  1  0  0  0  0
 20 47  1  0  0  0  0
 21 22  1  0  0  0  0
 21 23  1  0  0  0  0
 21 48  1  0  0  0  0
 22 49  1  0  0  0  0
 22 50  1  0  0  0  0
 22 51  1  0  0  0  0
M  CHG  1   4   1
M  CHG  1   8  -1
M  END
> <s_m_source_file>
AV-unprocessed.smi

> <i_m_source_file_index>
1762

> <i_lp_mmshare_version>
43012

> <i_f3d_flags>
0

> <s_epik_input>
W0NIM11bQ0BASF0xW0NIMl1OKFtDSDJdW0NASF0oTzEpW0NIM10pW0NAQEhdKFtDSF0oW0NIM10pW0NIM10pQyg9TylbTkhdW0NIMl1bQ0gyXWMyW2NIXVtjSF1bY0hdW2NIXW4y

> <s_epik_cmdline>
J2VwaWtfcHl0aG9uJywgJy1waCcsICc3LjAnLCAnLXRuJywgJzgnLCAnLW1hJywgJzIwMCcsICctbWV0YWxfYmluZGluZycsICctaW1hZScsICc8aW5maWxlLm1hZT4nLCAnLW9tYWUnLCAnPG91dGZpbGUubWFlPic=

> <r_epik_Ionization_Penalty>
7.82966

> <r_epik_Ionization_Penalty_Charging>
7.7461

> <r_epik_Ionization_Penalty_Neutral>
0.0835571

> <r_epik_State_Penalty>
8.52273

> <r_epik_Charging_Adjusted_Penalty>
16.2688

> <i_epik_Tot_Q>
0

> <i_epik_Tot_abs_Q>
2

> <r_epik_Metal_State_Penalty>
4.47451

> <b_epik_Metal_Only>
1

> <s_lp_Force_Field>
OPLS_2005

> <r_lp_Energy>
24.7252

> <b_lp_Chiralities_Consistent>
1

> <s_lp_Variant>
AV-unprocessed.smi:1762-21

> <Gold.Version>
5.8.1

> <Gold.Id.Protein>
6NUR|6NUR_protein|mol2

> <Gold.PLP.Fitness>
43.0817

> <Gold.PLP.PLP>
-38.0330

> <Gold.PLP.part.hbond>
-1.5763

> <Gold.PLP.part.metal>
0.0000

> <Gold.PLP.part.buried>
-3.7062

> <Gold.PLP.part.nonpolar>
-32.7030

> <Gold.PLP.part.repulsive>
0.1246

> <Gold.PLP.ligand.clash>
0.0000

> <Gold.PLP.ligand.torsion>
0.6519

> <Gold.PLP.Chemscore.Hbond>
2.0000

> <Gold.PLP.Chemscore.CHOScore>
0.0000

> <Gold.PLP.Chemscore.Metal>
0.0000

> <Gold.Chemscore.Hbonds>
donor molecule, donor type, donor heavy atom, donor atom, acceptor molecule, acceptor atom, score
      L1  H     4    52       P1  7948  2.00

> <Gold.PLP.Chemscore.Internal.Correction>
0.3526

> <Gold.Rescore>
     Score         DG    S(hbond)    S(metal)    S(lipo)     H(rot)  DE(clash)    DE(int)     intcor
     15.76     -18.29       0.95        0.00     117.30       1.60       0.16       2.36       ----

> <Gold.Chemscore.Fitness>
15.7635

> <Gold.Chemscore.DG>
-18.2869

> <Gold.Chemscore.ZeroCoef>
-5.4800

> <Gold.Chemscore.Hbond>
0.9525

> <Gold.Chemscore.Metal>
0.0000

> <Gold.Chemscore.Lipo>
117.3023

> <Gold.Chemscore.Internal_Hbond>
0.0000

> <Gold.Chemscore.DEClash>
0.1628

> <Gold.Chemscore.DEInternal>
2.3606

> <Gold.Chemscore.Rot>
1.6012

> <Gold.Chemscore.Internal.Correction>
   9.000000E+99

> <Gold.Chemscore.Hbonds>
donor molecule, donor type, donor heavy atom, donor atom, acceptor molecule, acceptor atom, score
      L1  H     4    52       P1  7948  0.94

> <Gold.Chemscore.Hbond.Weighted>
-3.1815

> <Gold.Chemscore.Metal.Weighted>
-0.0000

> <Gold.Chemscore.Lipo.Weighted>
-13.7244

> <Gold.Chemscore.Internal_Hbond.Weighted>
0.0000

> <Gold.Chemscore.DEClash.Weighted>
0.1628

> <Gold.Chemscore.DEInternal.Weighted>
2.3606

> <Gold.Chemscore.Rot.Weighted>
4.0990

> <Gold.Chemscore.Internal.Correction.Weighted>
   9.000000E+99

> <Gold.Protein.RotatedTorsions>
[ 6907 6896 6895 6894 ] final  -16.77 input  -60.11 | X-H torsion
[ 7974 7965 7964 7962 ] final  131.58 input  175.53 | X-H torsion
[ 8008 7997 7996 7995 ] final  157.68 input   59.86 | X-H torsion
[ 10167 10162 10161 10158 ] final -110.19 input  -65.29 | X-H torsion
[ 10718 10713 10712 10709 ] final -124.75 input   66.30 | X-H torsion
[ 10763 10752 10751 10750 ] final   69.19 input  -60.55 | X-H torsion
[ 11005 11000 10999 10996 ] final  106.22 input  -57.11 | X-H torsion

> <Gold.Protein.ActiveResidues>
 VAL166  LYS551  ARG553  GLY616  TRP617  ASP618  TYR619  PRO620  LYS621  CYS622 
 ASP623  PHE694  ASN695  SER759  ASP760  ASP761  ALA762  ILE779  LEU786  VAL792 
 PHE793  MET794  SER795  GLU796  ALA797  LYS798  CYS799  TRP800  GLU811  SER814 

> <Gold.Protein.RotatedAtoms>
  151.3035  135.0775  159.9246 H   0  0  0  0  0  0  0  0  0  0  0  0  # atno 6907 bound_to 6896
  152.5292  133.9809  159.7816 H   0  0  0  0  0  0  0  0  0  0  0  0  # atno 6908 bound_to 6896
  151.0099  133.5923  159.2714 H   0  0  0  0  0  0  0  0  0  0  0  0  # atno 6909 bound_to 6896
  145.0058  139.4268  143.5269 H   0  0  0  0  0  0  0  0  0  0  0  0  # atno 7974 bound_to 7965
  156.2349  140.1879  156.7145 H   0  0  0  0  0  0  0  0  0  0  0  0  # atno 8008 bound_to 7997
  154.6089  140.0625  156.9494 H   0  0  0  0  0  0  0  0  0  0  0  0  # atno 8009 bound_to 7997
  155.2050  140.3295  155.4340 H   0  0  0  0  0  0  0  0  0  0  0  0  # atno 8010 bound_to 7997
  140.1471  143.4230  152.1521 H   0  0  0  0  0  0  0  0  0  0  0  0  # atno 10167 bound_to 10162
  156.1614  130.6605  151.0055 H   0  0  0  0  0  0  0  0  0  0  0  0  # atno 10718 bound_to 10713
  153.0274  135.5220  154.7249 H   0  0  0  0  0  0  0  0  0  0  0  0  # atno 10763 bound_to 10752
  154.6294  135.2898  155.0236 H   0  0  0  0  0  0  0  0  0  0  0  0  # atno 10764 bound_to 10752
  154.1194  135.6610  153.4952 H   0  0  0  0  0  0  0  0  0  0  0  0  # atno 10765 bound_to 10752
  139.8811  134.9362  156.5633 H   0  0  0  0  0  0  0  0  0  0  0  0  # atno 11005 bound_to 11000
  146.3461  139.9473  142.8733 LP  0  0  0  0  0  0  0  0  0  0  0  0  # atno 17320 bound_to 7965
  145.2090  140.9887  143.4111 LP  0  0  0  0  0  0  0  0  0  0  0  0  # atno 17321 bound_to 7965
  139.5444  144.7285  151.4631 LP  0  0  0  0  0  0  0  0  0  0  0  0  # atno 17342 bound_to 10162
  140.6725  143.8262  150.7017 LP  0  0  0  0  0  0  0  0  0  0  0  0  # atno 17343 bound_to 10162
  157.6735  131.0856  150.7552 LP  0  0  0  0  0  0  0  0  0  0  0  0  # atno 17370 bound_to 10713
  156.7614  130.4800  149.5436 LP  0  0  0  0  0  0  0  0  0  0  0  0  # atno 17371 bound_to 10713
  140.8153  133.8396  155.8846 LP  0  0  0  0  0  0  0  0  0  0  0  0  # atno 17394 bound_to 11000
  140.9468  134.1830  157.4757 LP  0  0  0  0  0  0  0  0  0  0  0  0  # atno 17395 bound_to 11000

$$$$
