AV-unprocessed.smi:2647|AV-procd|sdf|10283|dock4
  -GOLD-   2272014293D 1   1.00000     0.00000
 Structure written by MMmdl.
 32 33  0  0  0  0  0  0  0  0  1 V2000
  145.8862  137.0711  153.3803 O   0  0  0  0  0  0  0  0  0  0  0  0
  145.2811  137.6245  152.4617 C   0  0  0  0  0  0  0  0  0  0  0  0
  145.7698  138.6697  151.7790 N   0  0  0  0  0  0  0  0  0  0  0  0
  147.0696  139.2900  152.0145 C   0  0  0  0  0  0  0  0  0  0  0  0
  147.1950  139.8662  153.4358 C   0  0  0  0  0  0  0  0  0  0  0  0
  148.3409  140.8843  153.5895 C   0  0  0  0  0  0  0  0  0  0  0  0
  148.7742  140.9911  154.9860 N   0  0  0  0  0  0  0  0  0  0  0  0
  149.9980  140.6590  155.4205 C   0  0  0  0  0  0  0  0  0  0  0  0
  150.9178  140.2121  154.7359 O   0  0  0  0  0  0  0  0  0  0  0  0
  150.1350  140.9137  156.9155 C   0  0  0  0  0  0  0  0  0  0  0  0
  148.7602  141.4708  157.2992 C   0  0  0  0  0  0  0  0  0  0  0  0
  148.0057  141.4668  155.9762 C   0  0  0  0  0  0  0  0  0  0  0  0
  146.8450  141.8624  155.8726 O   0  0  0  0  0  0  0  0  0  0  0  0
  144.0652  137.2733  152.0076 N   0  0  0  0  0  0  0  0  0  0  0  0
  143.2164  136.2356  152.4755 C   0  0  0  0  0  0  0  0  0  0  0  0
  143.2378  134.9822  151.9957 N   0  0  0  0  0  0  0  0  0  0  0  0
  142.3101  134.1666  152.6310 N   0  0  0  0  0  0  0  0  0  0  0  0
  141.6262  134.8362  153.5632 C   0  0  0  0  0  0  0  0  0  0  0  0
  142.0491  136.5287  153.7566 S   0  0  0  0  0  0  0  0  0  0  0  0
  145.2057  139.0631  151.0401 H   0  0  0  0  0  0  0  0  0  0  0  0
  147.8413  138.5373  151.8510 H   0  0  0  0  0  0  0  0  0  0  0  0
  147.2447  140.0740  151.2757 H   0  0  0  0  0  0  0  0  0  0  0  0
  146.2516  140.3452  153.7001 H   0  0  0  0  0  0  0  0  0  0  0  0
  147.3281  139.0522  154.1497 H   0  0  0  0  0  0  0  0  0  0  0  0
  149.1877  140.5995  152.9629 H   0  0  0  0  0  0  0  0  0  0  0  0
  148.0210  141.8611  153.2224 H   0  0  0  0  0  0  0  0  0  0  0  0
  150.3599  139.9860  157.4428 H   0  0  0  0  0  0  0  0  0  0  0  0
  150.9327  141.6316  157.1093 H   0  0  0  0  0  0  0  0  0  0  0  0
  148.2547  140.8386  158.0299 H   0  0  0  0  0  0  0  0  0  0  0  0
  148.8289  142.4839  157.6967 H   0  0  0  0  0  0  0  0  0  0  0  0
  143.7003  137.8167  151.2394 H   0  0  0  0  0  0  0  0  0  0  0  0
  140.8674  134.3301  154.1413 H   0  0  0  0  0  0  0  0  0  0  0  0
  1  2  2  0  0  0  0
  2  3  1  0  0  0  0
  2 14  1  0  0  0  0
  3  4  1  0  0  0  0
  3 20  1  0  0  0  0
  4  5  1  0  0  0  0
  4 21  1  0  0  0  0
  4 22  1  0  0  0  0
  5  6  1  0  0  0  0
  5 23  1  0  0  0  0
  5 24  1  0  0  0  0
  6  7  1  0  0  0  0
  6 25  1  0  0  0  0
  6 26  1  0  0  0  0
  7 12  1  0  0  0  0
  7  8  1  0  0  0  0
  8  9  2  0  0  0  0
  8 10  1  0  0  0  0
 10 11  1  0  0  0  0
 10 27  1  0  0  0  0
 10 28  1  0  0  0  0
 11 12  1  0  0  0  0
 11 29  1  0  0  0  0
 11 30  1  0  0  0  0
 12 13  2  0  0  0  0
 14 15  1  0  0  0  0
 14 31  1  0  0  0  0
 15 19  1  0  0  0  0
 15 16  2  0  0  0  0
 16 17  1  0  0  0  0
 17 18  2  0  0  0  0
 18 19  1  0  0  0  0
 18 32  1  0  0  0  0
M  END
> <s_m_source_file>
AV-unprocessed.smi

> <i_m_source_file_index>
2647

> <i_lp_mmshare_version>
43012

> <i_f3d_flags>
0

> <s_epik_input>
czFbY0hdbm5jMVtOSF1DKD1PKVtOSF1bQ0gyXVtDSDJdW0NIMl1OMkMoPU8pW0NIMl1bQ0gyXUMyPU8=

> <s_epik_cmdline>
J2VwaWtfcHl0aG9uJywgJy1waCcsICc3LjAnLCAnLXRuJywgJzgnLCAnLW1hJywgJzIwMCcsICctbWV0YWxfYmluZGluZycsICctaW1hZScsICc8aW5maWxlLm1hZT4nLCAnLW9tYWUnLCAnPG91dGZpbGUubWFlPic=

> <r_lp_tautomer_probability>
1

> <r_epik_Ionization_Penalty>
0.00175263

> <r_epik_Ionization_Penalty_Charging>
0

> <r_epik_Ionization_Penalty_Neutral>
0.00175263

> <r_epik_State_Penalty>
-0

> <r_epik_Charging_Adjusted_Penalty>
0

> <i_epik_Tot_Q>
0

> <i_epik_Tot_abs_Q>
0

> <r_epik_Metal_State_Penalty>
0.330668

> <b_epik_Metal_Only>
0

> <s_lp_Force_Field>
OPLS_2005

> <r_lp_Energy>
10.1998

> <b_lp_Chiralities_Consistent>
1

> <s_lp_Variant>
AV-unprocessed.smi:2647-1

> <Gold.Version>
5.8.1

> <Gold.Id.Protein>
6NUR|6NUR_protein|mol2

> <Gold.PLP.Fitness>
36.5462

> <Gold.PLP.PLP>
-26.9004

> <Gold.PLP.part.hbond>
-4.4609

> <Gold.PLP.part.metal>
0.0000

> <Gold.PLP.part.buried>
-0.0543

> <Gold.PLP.part.nonpolar>
-24.3543

> <Gold.PLP.part.repulsive>
0.8949

> <Gold.PLP.ligand.clash>
0.0000

> <Gold.PLP.ligand.torsion>
0.9668

> <Gold.PLP.Chemscore.Hbond>
2.8480

> <Gold.PLP.Chemscore.CHOScore>
0.9990

> <Gold.PLP.Chemscore.Metal>
0.0000

> <Gold.Chemscore.Hbonds>
donor molecule, donor type, donor heavy atom, donor atom, acceptor molecule, acceptor atom, score
      L1  H     3    20       P1 10171  0.85
      L1  H    14    31       P1 10171  1.00
      P1  H  7989  7998       L1     9  1.00
      L1  C    18    32       P1 11000  0.91

> <Gold.PLP.Chemscore.Internal.Correction>
0.0384

> <Gold.Rescore>
     Score         DG    S(hbond)    S(metal)    S(lipo)     H(rot)  DE(clash)    DE(int)     intcor
     11.72     -14.04       2.91        0.00      41.87       2.36       1.31       1.01       ----

> <Gold.Chemscore.Fitness>
11.7209

> <Gold.Chemscore.DG>
-14.0405

> <Gold.Chemscore.ZeroCoef>
-5.4800

> <Gold.Chemscore.Hbond>
2.9073

> <Gold.Chemscore.Metal>
0.0000

> <Gold.Chemscore.Lipo>
41.8715

> <Gold.Chemscore.Internal_Hbond>
0.0000

> <Gold.Chemscore.DEClash>
1.3106

> <Gold.Chemscore.DEInternal>
1.0091

> <Gold.Chemscore.Rot>
2.3629

> <Gold.Chemscore.Internal.Correction>
   9.000000E+99

> <Gold.Chemscore.Hbonds>
donor molecule, donor type, donor heavy atom, donor atom, acceptor molecule, acceptor atom, score
      L1  H     3    20       P1 10171  0.85
      L1  H    14    31       P1 10171  0.95
      P1  H  7989  7998       L1     9  0.97

> <Gold.Chemscore.Hbond.Weighted>
-9.7105

> <Gold.Chemscore.Metal.Weighted>
-0.0000

> <Gold.Chemscore.Lipo.Weighted>
-4.8990

> <Gold.Chemscore.Internal_Hbond.Weighted>
0.0000

> <Gold.Chemscore.DEClash.Weighted>
1.3106

> <Gold.Chemscore.DEInternal.Weighted>
1.0091

> <Gold.Chemscore.Rot.Weighted>
6.0490

> <Gold.Chemscore.Internal.Correction.Weighted>
   9.000000E+99

> <Gold.Protein.RotatedTorsions>
[ 6907 6896 6895 6894 ] final -116.73 input  -60.11 | X-H torsion
[ 7974 7965 7964 7962 ] final  117.30 input  175.53 | X-H torsion
[ 8008 7997 7996 7995 ] final  142.63 input   59.86 | X-H torsion
[ 10167 10162 10161 10158 ] final  -57.66 input  -65.29 | X-H torsion
[ 10718 10713 10712 10709 ] final -118.74 input   66.30 | X-H torsion
[ 10763 10752 10751 10750 ] final  -28.02 input  -60.55 | X-H torsion
[ 11005 11000 10999 10996 ] final  142.60 input  -57.11 | X-H torsion

> <Gold.Protein.ActiveResidues>
 VAL166  LYS551  ARG553  GLY616  TRP617  ASP618  TYR619  PRO620  LYS621  CYS622 
 ASP623  PHE694  ASN695  SER759  ASP760  ASP761  ALA762  ILE779  LEU786  VAL792 
 PHE793  MET794  SER795  GLU796  ALA797  LYS798  CYS799  TRP800  GLU811  SER814 

> <Gold.Protein.RotatedAtoms>
  150.8079  133.8476  159.3196 H   0  0  0  0  0  0  0  0  0  0  0  0  # atno 6907 bound_to 6896
  151.6270  135.1025  160.0123 H   0  0  0  0  0  0  0  0  0  0  0  0  # atno 6908 bound_to 6896
  152.4170  133.7015  159.6483 H   0  0  0  0  0  0  0  0  0  0  0  0  # atno 6909 bound_to 6896
  145.1690  139.3112  143.4477 H   0  0  0  0  0  0  0  0  0  0  0  0  # atno 7974 bound_to 7965
  156.2946  140.2284  156.4758 H   0  0  0  0  0  0  0  0  0  0  0  0  # atno 8008 bound_to 7997
  154.7895  140.0455  157.1211 H   0  0  0  0  0  0  0  0  0  0  0  0  # atno 8009 bound_to 7997
  154.9662  140.3060  155.5012 H   0  0  0  0  0  0  0  0  0  0  0  0  # atno 8010 bound_to 7997
  140.6244  143.2432  151.5399 H   0  0  0  0  0  0  0  0  0  0  0  0  # atno 10167 bound_to 10162
  156.1129  130.6263  150.9329 H   0  0  0  0  0  0  0  0  0  0  0  0  # atno 10718 bound_to 10713
  153.7416  135.6932  153.4965 H   0  0  0  0  0  0  0  0  0  0  0  0  # atno 10763 bound_to 10752
  153.2065  135.4418  155.0328 H   0  0  0  0  0  0  0  0  0  0  0  0  # atno 10764 bound_to 10752
  154.8218  135.3426  154.6941 H   0  0  0  0  0  0  0  0  0  0  0  0  # atno 10765 bound_to 10752
  140.0489  134.9266  157.0981 H   0  0  0  0  0  0  0  0  0  0  0  0  # atno 11005 bound_to 11000
  146.3471  140.1829  142.8589 LP  0  0  0  0  0  0  0  0  0  0  0  0  # atno 17320 bound_to 7965
  145.0252  140.8826  143.5142 LP  0  0  0  0  0  0  0  0  0  0  0  0  # atno 17321 bound_to 7965
  139.5467  144.2502  152.1455 LP  0  0  0  0  0  0  0  0  0  0  0  0  # atno 17342 bound_to 10162
  140.1730  144.4917  150.6569 LP  0  0  0  0  0  0  0  0  0  0  0  0  # atno 17343 bound_to 10162
  157.6311  131.0921  150.8440 LP  0  0  0  0  0  0  0  0  0  0  0  0  # atno 17370 bound_to 10713
  156.8548  130.5093  149.5308 LP  0  0  0  0  0  0  0  0  0  0  0  0  # atno 17371 bound_to 10713
  140.3949  134.2145  155.7165 LP  0  0  0  0  0  0  0  0  0  0  0  0  # atno 17394 bound_to 11000
  141.1921  133.8181  157.0854 LP  0  0  0  0  0  0  0  0  0  0  0  0  # atno 17395 bound_to 11000

$$$$
