AV-unprocessed.smi:2062|AV-procd|sdf|8404|dock5
  -GOLD-   2272011 93D 1   1.00000     0.00000
 Structure written by MMmdl.
 42 43  0  0  0  0  0  0  0  0  3 V2000
  151.9093  144.3764  157.5089 C   0  0  0  0  0  0  0  0  0  0  0  0
  151.1424  143.7412  158.6808 C   0  0  0  0  0  0  0  0  0  0  0  0
  151.7855  144.1371  160.0182 C   0  0  0  0  0  0  0  0  0  0  0  0
  151.0641  142.2048  158.5515 C   0  0  0  0  0  0  0  0  0  0  0  0
  150.1268  141.7599  157.4845 N   0  3  1  0  0  0  0  0  0  0  0  0
  150.7473  141.6912  156.1391 C   0  0  0  0  0  0  0  0  0  0  0  0
  151.6019  140.4209  155.9862 C   0  0  0  0  0  0  0  0  0  0  0  0
  150.7929  139.2800  156.2389 O   0  0  0  0  0  0  0  0  0  0  0  0
  150.2810  139.2562  157.5683 C   0  0  2  0  0  0  0  0  0  0  0  0
  149.4911  137.9548  157.7581 C   0  0  0  0  0  0  0  0  0  0  0  0
  148.8701  137.9223  159.0749 N   0  0  0  0  0  0  0  0  0  0  0  0
  148.0889  136.9377  159.5351 C   0  0  0  0  0  0  0  0  0  0  0  0
  147.8459  135.9627  158.8204 O   0  0  0  0  0  0  0  0  0  0  0  0
  147.6393  137.1469  160.7927 N   0  5  0  0  0  0  0  0  0  0  0  0
  146.9283  136.1952  161.4194 C   0  0  0  0  0  0  0  0  0  0  0  0
  147.3979  134.9622  161.6421 N   0  0  0  0  0  0  0  0  0  0  0  0
  146.4948  134.1374  162.3152 C   0  0  0  0  0  0  0  0  0  0  0  0
  145.3136  134.7597  162.6207 C   0  0  0  0  0  0  0  0  0  0  0  0
  145.2999  136.4103  162.0681 S   0  0  0  0  0  0  0  0  0  0  0  0
  149.3933  140.5024  157.7827 C   0  0  0  0  0  0  0  0  0  0  0  0
  152.9334  144.0052  157.4570 H   0  0  0  0  0  0  0  0  0  0  0  0
  151.9557  145.4609  157.6132 H   0  0  0  0  0  0  0  0  0  0  0  0
  151.4291  144.1641  156.5535 H   0  0  0  0  0  0  0  0  0  0  0  0
  150.1340  144.1538  158.6838 H   0  0  0  0  0  0  0  0  0  0  0  0
  152.8077  143.7640  160.0937 H   0  0  0  0  0  0  0  0  0  0  0  0
  151.2218  143.7355  160.8607 H   0  0  0  0  0  0  0  0  0  0  0  0
  151.8180  145.2209  160.1339 H   0  0  0  0  0  0  0  0  0  0  0  0
  152.0663  141.8336  158.3327 H   0  0  0  0  0  0  0  0  0  0  0  0
  150.7843  141.7569  159.5049 H   0  0  0  0  0  0  0  0  0  0  0  0
  149.9503  141.6788  155.3946 H   0  0  0  0  0  0  0  0  0  0  0  0
  151.3380  142.5856  155.9383 H   0  0  0  0  0  0  0  0  0  0  0  0
  151.9945  140.3540  154.9714 H   0  0  0  0  0  0  0  0  0  0  0  0
  152.4612  140.4348  156.6584 H   0  0  0  0  0  0  0  0  0  0  0  0
  151.1110  139.2609  158.2765 H   0  0  0  0  0  0  0  0  0  0  0  0
  148.7125  137.8789  156.9973 H   0  0  0  0  0  0  0  0  0  0  0  0
  150.1457  137.0900  157.6396 H   0  0  0  0  0  0  0  0  0  0  0  0
  149.0513  138.7007  159.6915 H   0  0  0  0  0  0  0  0  0  0  0  0
  146.7775  133.1191  162.5377 H   0  0  0  0  0  0  0  0  0  0  0  0
  144.4564  134.3519  163.1345 H   0  0  0  0  0  0  0  0  0  0  0  0
  148.9878  140.5156  158.7936 H   0  0  0  0  0  0  0  0  0  0  0  0
  148.5331  140.4505  157.1137 H   0  0  0  0  0  0  0  0  0  0  0  0
  149.4328  142.4916  157.4273 H   0  0  0  0  0  0  0  0  0  0  0  0
  1  2  1  0  0  0  0
  1 21  1  0  0  0  0
  1 22  1  0  0  0  0
  1 23  1  0  0  0  0
  2  3  1  0  0  0  0
  2  4  1  0  0  0  0
  2 24  1  0  0  0  0
  3 25  1  0  0  0  0
  3 26  1  0  0  0  0
  3 27  1  0  0  0  0
  4  5  1  0  0  0  0
  4 28  1  0  0  0  0
  4 29  1  0  0  0  0
  5 20  1  0  0  0  0
  5  6  1  0  0  0  0
  5 42  1  0  0  0  0
  6  7  1  0  0  0  0
  6 30  1  0  0  0  0
  6 31  1  0  0  0  0
  7  8  1  0  0  0  0
  7 32  1  0  0  0  0
  7 33  1  0  0  0  0
  8  9  1  0  0  0  0
  9 10  1  0  0  0  0
  9 20  1  0  0  0  0
  9 34  1  0  0  0  0
 10 11  1  0  0  0  0
 10 35  1  0  0  0  0
 10 36  1  0  0  0  0
 11 12  1  0  0  0  0
 11 37  1  0  0  0  0
 12 13  2  0  0  0  0
 12 14  1  0  0  0  0
 14 15  1  0  0  0  0
 15 19  1  0  0  0  0
 15 16  2  0  0  0  0
 16 17  1  0  0  0  0
 17 18  2  0  0  0  0
 17 38  1  0  0  0  0
 18 19  1  0  0  0  0
 18 39  1  0  0  0  0
 20 40  1  0  0  0  0
 20 41  1  0  0  0  0
M  CHG  1   5   1
M  CHG  1  14  -1
M  END
> <s_m_source_file>
AV-unprocessed.smi

> <i_m_source_file_index>
2062

> <i_lp_mmshare_version>
43012

> <i_f3d_flags>
0

> <s_epik_input>
W0NIM11bQ0hdKFtDSDNdKVtDSDJdTjFbQ0gyXVtDSDJdT1tDQEhdKFtDSDJdMSlbQ0gyXVtOSF1DKD1PKVtOSF1jMm5bY0hdW2NIXXMy

> <s_epik_cmdline>
J2VwaWtfcHl0aG9uJywgJy1waCcsICc3LjAnLCAnLXRuJywgJzgnLCAnLW1hJywgJzIwMCcsICctbWV0YWxfYmluZGluZycsICctaW1hZScsICc8aW5maWxlLm1hZT4nLCAnLW9tYWUnLCAnPG91dGZpbGUubWFlPic=

> <r_lp_tautomer_probability>
0.999

> <r_epik_Ionization_Penalty>
6.35835

> <r_epik_Ionization_Penalty_Charging>
5.49938

> <r_epik_Ionization_Penalty_Neutral>
0.858963

> <r_epik_State_Penalty>
5.49328

> <r_epik_Charging_Adjusted_Penalty>
10.9927

> <i_epik_Tot_Q>
0

> <i_epik_Tot_abs_Q>
2

> <r_epik_Metal_State_Penalty>
1.51523

> <b_epik_Metal_Only>
1

> <s_lp_Force_Field>
OPLS_2005

> <r_lp_Energy>
10.2516

> <b_lp_Chiralities_Consistent>
1

> <s_lp_Variant>
AV-unprocessed.smi:2062-9

> <Gold.Version>
5.8.1

> <Gold.Id.Protein>
6NUR|6NUR_protein|mol2

> <Gold.PLP.Fitness>
45.1811

> <Gold.PLP.PLP>
-36.4952

> <Gold.PLP.part.hbond>
-2.0000

> <Gold.PLP.part.metal>
0.0000

> <Gold.PLP.part.buried>
-6.2138

> <Gold.PLP.part.nonpolar>
-29.2701

> <Gold.PLP.part.repulsive>
0.2775

> <Gold.PLP.ligand.clash>
0.0000

> <Gold.PLP.ligand.torsion>
1.0423

> <Gold.PLP.Chemscore.Hbond>
3.5520

> <Gold.PLP.Chemscore.CHOScore>
0.0000

> <Gold.PLP.Chemscore.Metal>
0.0000

> <Gold.Chemscore.Hbonds>
donor molecule, donor type, donor heavy atom, donor atom, acceptor molecule, acceptor atom, score
      P1  H  6931  6943       L1    14  1.43
      P1  H  6934  6947       L1    14  1.92

> <Gold.PLP.Chemscore.Internal.Correction>
0.1146

> <Gold.Rescore>
     Score         DG    S(hbond)    S(metal)    S(lipo)     H(rot)  DE(clash)    DE(int)     intcor
     14.57     -15.79       1.24        0.00      90.50       1.72       0.04       1.18       ----

> <Gold.Chemscore.Fitness>
14.5679

> <Gold.Chemscore.DG>
-15.7941

> <Gold.Chemscore.ZeroCoef>
-5.4800

> <Gold.Chemscore.Hbond>
1.2356

> <Gold.Chemscore.Metal>
0.0000

> <Gold.Chemscore.Lipo>
90.5026

> <Gold.Chemscore.Internal_Hbond>
0.0000

> <Gold.Chemscore.DEClash>
0.0437

> <Gold.Chemscore.DEInternal>
1.1825

> <Gold.Chemscore.Rot>
1.7194

> <Gold.Chemscore.Internal.Correction>
   9.000000E+99

> <Gold.Chemscore.Hbonds>
donor molecule, donor type, donor heavy atom, donor atom, acceptor molecule, acceptor atom, score
      P1  H  6931  6943       L1    14  0.49
      P1  H  6934  6947       L1    14  0.55

> <Gold.Chemscore.Hbond.Weighted>
-4.1270

> <Gold.Chemscore.Metal.Weighted>
-0.0000

> <Gold.Chemscore.Lipo.Weighted>
-10.5888

> <Gold.Chemscore.Internal_Hbond.Weighted>
0.0000

> <Gold.Chemscore.DEClash.Weighted>
0.0437

> <Gold.Chemscore.DEInternal.Weighted>
1.1825

> <Gold.Chemscore.Rot.Weighted>
4.4017

> <Gold.Chemscore.Internal.Correction.Weighted>
   9.000000E+99

> <Gold.Protein.RotatedTorsions>
[ 6907 6896 6895 6894 ] final   76.05 input  -60.11 | X-H torsion
[ 7974 7965 7964 7962 ] final -175.64 input  175.53 | X-H torsion
[ 8008 7997 7996 7995 ] final  126.15 input   59.86 | X-H torsion
[ 10167 10162 10161 10158 ] final   54.82 input  -65.29 | X-H torsion
[ 10718 10713 10712 10709 ] final  139.40 input   66.30 | X-H torsion
[ 10763 10752 10751 10750 ] final  105.34 input  -60.55 | X-H torsion
[ 11005 11000 10999 10996 ] final -143.19 input  -57.11 | X-H torsion

> <Gold.Protein.ActiveResidues>
 VAL166  LYS551  ARG553  GLY616  TRP617  ASP618  TYR619  PRO620  LYS621  CYS622 
 ASP623  PHE694  ASN695  SER759  ASP760  ASP761  ALA762  ILE779  LEU786  VAL792 
 PHE793  MET794  SER795  GLU796  ALA797  LYS798  CYS799  TRP800  GLU811  SER814 

> <Gold.Protein.RotatedAtoms>
  152.5055  134.4028  159.9422 H   0  0  0  0  0  0  0  0  0  0  0  0  # atno 6907 bound_to 6896
  151.3993  133.3757  159.2738 H   0  0  0  0  0  0  0  0  0  0  0  0  # atno 6908 bound_to 6896
  150.9374  134.8806  159.7649 H   0  0  0  0  0  0  0  0  0  0  0  0  # atno 6909 bound_to 6896
  144.7128  140.1290  143.6400 H   0  0  0  0  0  0  0  0  0  0  0  0  # atno 7974 bound_to 7965
  156.2855  140.2699  156.2064 H   0  0  0  0  0  0  0  0  0  0  0  0  # atno 8008 bound_to 7997
  155.0308  140.0386  157.2491 H   0  0  0  0  0  0  0  0  0  0  0  0  # atno 8009 bound_to 7997
  154.7356  140.2715  155.6423 H   0  0  0  0  0  0  0  0  0  0  0  0  # atno 8010 bound_to 7997
  140.2260  144.3738  150.6432 H   0  0  0  0  0  0  0  0  0  0  0  0  # atno 10167 bound_to 10162
  157.4148  131.1032  151.0416 H   0  0  0  0  0  0  0  0  0  0  0  0  # atno 10718 bound_to 10713
  153.3781  135.3913  155.1837 H   0  0  0  0  0  0  0  0  0  0  0  0  # atno 10763 bound_to 10752
  154.8704  135.3719  154.4892 H   0  0  0  0  0  0  0  0  0  0  0  0  # atno 10764 bound_to 10752
  153.5366  135.7085  153.5718 H   0  0  0  0  0  0  0  0  0  0  0  0  # atno 10765 bound_to 10752
  140.8150  134.2699  157.4925 H   0  0  0  0  0  0  0  0  0  0  0  0  # atno 11005 bound_to 11000
  145.9303  139.2602  143.1329 LP  0  0  0  0  0  0  0  0  0  0  0  0  # atno 17320 bound_to 7965
  145.9529  140.8895  143.0250 LP  0  0  0  0  0  0  0  0  0  0  0  0  # atno 17321 bound_to 7965
  140.6220  143.2177  151.6674 LP  0  0  0  0  0  0  0  0  0  0  0  0  # atno 17342 bound_to 10162
  139.5127  144.3468  152.0689 LP  0  0  0  0  0  0  0  0  0  0  0  0  # atno 17343 bound_to 10162
  157.1368  130.6125  149.5544 LP  0  0  0  0  0  0  0  0  0  0  0  0  # atno 17370 bound_to 10713
  155.9862  130.4895  150.7066 LP  0  0  0  0  0  0  0  0  0  0  0  0  # atno 17371 bound_to 10713
  139.8711  134.9504  156.4054 LP  0  0  0  0  0  0  0  0  0  0  0  0  # atno 17394 bound_to 11000
  140.9158  133.7679  155.9847 LP  0  0  0  0  0  0  0  0  0  0  0  0  # atno 17395 bound_to 11000

$$$$
