AV-unprocessed.smi:3337|AV-procd|sdf|12865|dock1
  -GOLD-   2272019263D 1   1.00000     0.00000
 Structure written by MMmdl.
 46 47  0  0  0  0  0  0  0  0  2 V2000
  145.0326  135.8789  151.5278 C   0  0  0  0  0  0  0  0  0  0  0  0
  145.7112  134.5299  151.2497 C   0  0  2  0  0  0  0  0  0  0  0  0
  144.6744  133.4291  150.9615 C   0  0  0  0  0  0  0  0  0  0  0  0
  145.3430  132.0590  150.7442 C   0  0  1  0  0  0  0  0  0  0  0  0
  146.0425  131.9423  149.3787 C   0  0  0  0  0  0  0  0  0  0  0  0
  146.2899  131.7266  151.9147 C   0  0  0  0  0  0  0  0  0  0  0  0
  147.2870  132.8055  152.1425 N   0  3  2  0  0  0  0  0  0  0  0  0
  148.2933  132.4285  153.1675 C   0  0  0  0  0  0  0  0  0  0  0  0
  149.5833  133.2644  153.0637 C   0  0  0  0  0  0  0  0  0  0  0  0
  149.3697  134.6348  153.5120 N   0  0  0  0  0  0  0  0  0  0  0  0
  149.9345  135.1855  154.5993 C   0  0  0  0  0  0  0  0  0  0  0  0
  150.6711  134.5530  155.3574 O   0  0  0  0  0  0  0  0  0  0  0  0
  149.6065  136.6659  154.8694 C   0  0  1  0  0  0  0  0  0  0  0  0
  149.1100  136.9220  156.3067 C   0  0  0  0  0  0  0  0  0  0  0  0
  150.7405  137.5219  154.5399 N   0  0  0  0  0  0  0  0  0  0  0  0
  150.8537  138.8513  154.5768 C   0  0  0  0  0  0  0  0  0  0  0  0
  152.0359  139.3021  154.1814 N   0  0  0  0  0  0  0  0  0  0  0  0
  152.6486  138.1153  153.8946 C   0  0  0  0  0  0  0  0  0  0  0  0
  151.9160  137.0186  154.0870 N   0  0  0  0  0  0  0  0  0  0  0  0
  146.6259  134.1091  152.4162 C   0  0  0  0  0  0  0  0  0  0  0  0
  144.3929  135.8285  152.4096 H   0  0  0  0  0  0  0  0  0  0  0  0
  144.4138  136.1876  150.6846 H   0  0  0  0  0  0  0  0  0  0  0  0
  145.7709  136.6635  151.6969 H   0  0  0  0  0  0  0  0  0  0  0  0
  146.3327  134.6599  150.3629 H   0  0  0  0  0  0  0  0  0  0  0  0
  143.9843  133.3567  151.8036 H   0  0  0  0  0  0  0  0  0  0  0  0
  144.0677  133.6943  150.0947 H   0  0  0  0  0  0  0  0  0  0  0  0
  144.5501  131.3099  150.7445 H   0  0  0  0  0  0  0  0  0  0  0  0
  146.8779  132.6362  149.2860 H   0  0  0  0  0  0  0  0  0  0  0  0
  145.3479  132.1481  148.5637 H   0  0  0  0  0  0  0  0  0  0  0  0
  146.4341  130.9361  149.2265 H   0  0  0  0  0  0  0  0  0  0  0  0
  145.7125  131.5787  152.8287 H   0  0  0  0  0  0  0  0  0  0  0  0
  146.7978  130.7826  151.7125 H   0  0  0  0  0  0  0  0  0  0  0  0
  147.8562  132.5110  154.1639 H   0  0  0  0  0  0  0  0  0  0  0  0
  148.5562  131.3782  153.0330 H   0  0  0  0  0  0  0  0  0  0  0  0
  150.3866  132.8030  153.6411 H   0  0  0  0  0  0  0  0  0  0  0  0
  149.9340  133.3177  152.0340 H   0  0  0  0  0  0  0  0  0  0  0  0
  148.7736  135.2165  152.9406 H   0  0  0  0  0  0  0  0  0  0  0  0
  148.7946  136.9338  154.1915 H   0  0  0  0  0  0  0  0  0  0  0  0
  148.2118  136.3432  156.5246 H   0  0  0  0  0  0  0  0  0  0  0  0
  148.8609  137.9738  156.4501 H   0  0  0  0  0  0  0  0  0  0  0  0
  149.8635  136.6580  157.0500 H   0  0  0  0  0  0  0  0  0  0  0  0
  150.0543  139.5036  154.8962 H   0  0  0  0  0  0  0  0  0  0  0  0
  153.6630  138.0584  153.5284 H   0  0  0  0  0  0  0  0  0  0  0  0
  147.3737  134.8857  152.5710 H   0  0  0  0  0  0  0  0  0  0  0  0
  146.0521  134.0376  153.3417 H   0  0  0  0  0  0  0  0  0  0  0  0
  147.7916  132.9071  151.2734 H   0  0  0  0  0  0  0  0  0  0  0  0
  1  2  1  0  0  0  0
  1 21  1  0  0  0  0
  1 22  1  0  0  0  0
  1 23  1  0  0  0  0
  2 20  1  0  0  0  0
  2  3  1  0  0  0  0
  2 24  1  0  0  0  0
  3  4  1  0  0  0  0
  3 25  1  0  0  0  0
  3 26  1  0  0  0  0
  4  5  1  0  0  0  0
  4  6  1  0  0  0  0
  4 27  1  0  0  0  0
  5 28  1  0  0  0  0
  5 29  1  0  0  0  0
  5 30  1  0  0  0  0
  6  7  1  0  0  0  0
  6 31  1  0  0  0  0
  6 32  1  0  0  0  0
  7  8  1  0  0  0  0
  7 20  1  0  0  0  0
  7 46  1  0  0  0  0
  8  9  1  0  0  0  0
  8 33  1  0  0  0  0
  8 34  1  0  0  0  0
  9 10  1  0  0  0  0
  9 35  1  0  0  0  0
  9 36  1  0  0  0  0
 10 11  1  0  0  0  0
 10 37  1  0  0  0  0
 11 12  2  0  0  0  0
 11 13  1  0  0  0  0
 13 14  1  0  0  0  0
 13 15  1  0  0  0  0
 13 38  1  0  0  0  0
 14 39  1  0  0  0  0
 14 40  1  0  0  0  0
 14 41  1  0  0  0  0
 15 19  1  0  0  0  0
 15 16  1  0  0  0  0
 16 17  2  0  0  0  0
 16 42  1  0  0  0  0
 17 18  1  0  0  0  0
 18 19  2  0  0  0  0
 18 43  1  0  0  0  0
 20 44  1  0  0  0  0
 20 45  1  0  0  0  0
M  CHG  1   7   1
M  END
> <s_m_source_file>
AV-unprocessed.smi

> <i_m_source_file_index>
3337

> <i_lp_mmshare_version>
43012

> <i_f3d_flags>
0

> <s_epik_input>
W0NIM11bQ0BASF0xW0NIMl1bQ0BASF0oW0NIM10pW0NIMl1OKFtDSDJdMSlbQ0gyXVtDSDJdW05IXUMoPU8pW0NASF0oW0NIM10pbjJbY0hdbltjSF1uMg==

> <s_epik_cmdline>
J2VwaWtfcHl0aG9uJywgJy1waCcsICc3LjAnLCAnLXRuJywgJzgnLCAnLW1hJywgJzIwMCcsICctbWV0YWxfYmluZGluZycsICctaW1hZScsICc8aW5maWxlLm1hZT4nLCAnLW9tYWUnLCAnPG91dGZpbGUubWFlPic=

> <r_lp_tautomer_probability>
1

> <r_epik_Ionization_Penalty>
0.00175613

> <r_epik_Ionization_Penalty_Charging>
0.00174812

> <r_epik_Ionization_Penalty_Neutral>
8.01354e-06

> <r_epik_State_Penalty>
0.00118332

> <r_epik_Charging_Adjusted_Penalty>
0.00293143

> <i_epik_Tot_Q>
1

> <i_epik_Tot_abs_Q>
1

> <r_epik_Metal_State_Penalty>
-0

> <b_epik_Metal_Only>
0

> <s_lp_Force_Field>
OPLS_2005

> <r_lp_Energy>
24.7209

> <b_lp_Chiralities_Consistent>
1

> <s_lp_Variant>
AV-unprocessed.smi:3337-5

> <Gold.Version>
5.8.1

> <Gold.Id.Protein>
6NUR|6NUR_protein|mol2

> <Gold.PLP.Fitness>
42.5186

> <Gold.PLP.PLP>
-35.2272

> <Gold.PLP.part.hbond>
-2.9167

> <Gold.PLP.part.metal>
0.0000

> <Gold.PLP.part.buried>
-3.3061

> <Gold.PLP.part.nonpolar>
-28.6811

> <Gold.PLP.part.repulsive>
0.2668

> <Gold.PLP.ligand.clash>
0.0000

> <Gold.PLP.ligand.torsion>
0.4746

> <Gold.PLP.Chemscore.Hbond>
2.6880

> <Gold.PLP.Chemscore.CHOScore>
0.0000

> <Gold.PLP.Chemscore.Metal>
0.0000

> <Gold.Chemscore.Hbonds>
donor molecule, donor type, donor heavy atom, donor atom, acceptor molecule, acceptor atom, score
      L1  H    10    37       P1  7948  0.57
      P1  H  7989  7998       L1    17  0.78
      P1  H 10752 10765       L1    19  0.78

> <Gold.PLP.Chemscore.Internal.Correction>
0.1765

> <Gold.Rescore>
     Score         DG    S(hbond)    S(metal)    S(lipo)     H(rot)  DE(clash)    DE(int)     intcor
     11.16     -13.57       1.82        0.00      72.33       2.51       1.65       0.76       ----

> <Gold.Chemscore.Fitness>
11.1572

> <Gold.Chemscore.DG>
-13.5742

> <Gold.Chemscore.ZeroCoef>
-5.4800

> <Gold.Chemscore.Hbond>
1.8159

> <Gold.Chemscore.Metal>
0.0000

> <Gold.Chemscore.Lipo>
72.3267

> <Gold.Chemscore.Internal_Hbond>
0.0000

> <Gold.Chemscore.DEClash>
1.6520

> <Gold.Chemscore.DEInternal>
0.7650

> <Gold.Chemscore.Rot>
2.5129

> <Gold.Chemscore.Internal.Correction>
   9.000000E+99

> <Gold.Chemscore.Hbonds>
donor molecule, donor type, donor heavy atom, donor atom, acceptor molecule, acceptor atom, score
      L1  H    10    37       P1  7948  0.28
      P1  H  7989  7998       L1    17  0.35
      P1  H 10752 10765       L1    19  0.61

> <Gold.Chemscore.Hbond.Weighted>
-6.0650

> <Gold.Chemscore.Metal.Weighted>
-0.0000

> <Gold.Chemscore.Lipo.Weighted>
-8.4622

> <Gold.Chemscore.Internal_Hbond.Weighted>
0.0000

> <Gold.Chemscore.DEClash.Weighted>
1.6520

> <Gold.Chemscore.DEInternal.Weighted>
0.7650

> <Gold.Chemscore.Rot.Weighted>
6.4331

> <Gold.Chemscore.Internal.Correction.Weighted>
   9.000000E+99

> <Gold.Protein.RotatedTorsions>
[ 6907 6896 6895 6894 ] final  -13.62 input  -60.11 | X-H torsion
[ 7974 7965 7964 7962 ] final  -25.39 input  175.53 | X-H torsion
[ 8008 7997 7996 7995 ] final  -50.20 input   59.86 | X-H torsion
[ 10167 10162 10161 10158 ] final  105.82 input  -65.29 | X-H torsion
[ 10718 10713 10712 10709 ] final -179.00 input   66.30 | X-H torsion
[ 10763 10752 10751 10750 ] final -179.93 input  -60.55 | X-H torsion
[ 11005 11000 10999 10996 ] final   50.00 input  -57.11 | X-H torsion

> <Gold.Protein.ActiveResidues>
 VAL166  LYS551  ARG553  GLY616  TRP617  ASP618  TYR619  PRO620  LYS621  CYS622 
 ASP623  PHE694  ASN695  SER759  ASP760  ASP761  ALA762  ILE779  LEU786  VAL792 
 PHE793  MET794  SER795  GLU796  ALA797  LYS798  CYS799  TRP800  GLU811  SER814 

> <Gold.Protein.RotatedAtoms>
  151.3520  135.0886  159.9405 H   0  0  0  0  0  0  0  0  0  0  0  0  # atno 6907 bound_to 6896
  152.5184  133.9343  159.7606 H   0  0  0  0  0  0  0  0  0  0  0  0  # atno 6908 bound_to 6896
  150.9720  133.6280  159.2766 H   0  0  0  0  0  0  0  0  0  0  0  0  # atno 6909 bound_to 6896
  146.1494  140.4879  142.8618 H   0  0  0  0  0  0  0  0  0  0  0  0  # atno 7974 bound_to 7965
  154.4057  140.1278  156.4628 H   0  0  0  0  0  0  0  0  0  0  0  0  # atno 8008 bound_to 7997
  155.7256  140.3492  155.5016 H   0  0  0  0  0  0  0  0  0  0  0  0  # atno 8009 bound_to 7997
  155.9174  140.1046  157.1223 H   0  0  0  0  0  0  0  0  0  0  0  0  # atno 8010 bound_to 7997
  139.7060  144.7086  151.1106 H   0  0  0  0  0  0  0  0  0  0  0  0  # atno 10167 bound_to 10162
  156.8527  130.9724  151.3091 H   0  0  0  0  0  0  0  0  0  0  0  0  # atno 10718 bound_to 10713
  154.5288  135.2798  155.1198 H   0  0  0  0  0  0  0  0  0  0  0  0  # atno 10763 bound_to 10752
  154.2726  135.6301  153.5320 H   0  0  0  0  0  0  0  0  0  0  0  0  # atno 10764 bound_to 10752
  152.9952  135.5632  154.5797 H   0  0  0  0  0  0  0  0  0  0  0  0  # atno 10765 bound_to 10752
  140.1055  134.5024  155.8724 H   0  0  0  0  0  0  0  0  0  0  0  0  # atno 11005 bound_to 11000
  144.7886  140.5986  143.6557 LP  0  0  0  0  0  0  0  0  0  0  0  0  # atno 17320 bound_to 7965
  145.4859  139.1492  143.3736 LP  0  0  0  0  0  0  0  0  0  0  0  0  # atno 17321 bound_to 7965
  140.7722  143.5358  150.9370 LP  0  0  0  0  0  0  0  0  0  0  0  0  # atno 17342 bound_to 10162
  139.9041  143.6800  152.3126 LP  0  0  0  0  0  0  0  0  0  0  0  0  # atno 17343 bound_to 10162
  157.6294  130.8717  149.9247 LP  0  0  0  0  0  0  0  0  0  0  0  0  # atno 17370 bound_to 10713
  156.0819  130.3672  150.0563 LP  0  0  0  0  0  0  0  0  0  0  0  0  # atno 17371 bound_to 10713
  141.2117  133.6710  156.6603 LP  0  0  0  0  0  0  0  0  0  0  0  0  # atno 17394 bound_to 11000
  140.3161  134.8046  157.4215 LP  0  0  0  0  0  0  0  0  0  0  0  0  # atno 17395 bound_to 11000

$$$$
