AV-unprocessed.smi:2999|AV-procd|sdf|11427|dock5
  -GOLD-   2272016353D 1   1.00000     0.00000
 Structure written by MMmdl.
 37 39  0  0  0  0  0  0  0  0  3 V2000
  143.5583  136.6256  153.1159 O   0  0  0  0  0  0  0  0  0  0  0  0
  142.9995  135.6611  153.6432 C   0  0  0  0  0  0  0  0  0  0  0  0
  143.6345  134.4833  153.7295 N   0  0  0  0  0  0  0  0  0  0  0  0
  144.9720  134.1842  153.2240 C   0  0  0  0  0  0  0  0  0  0  0  0
  144.9951  132.9510  152.2999 C   0  0  2  0  0  0  0  0  0  0  0  0
  146.4088  132.3802  152.0374 C   0  0  0  0  0  0  0  0  0  0  0  0
  146.3671  131.2338  151.1006 N   0  3  1  0  0  0  0  0  0  0  0  0
  145.9007  129.9753  151.7274 C   0  0  0  0  0  0  0  0  0  0  0  0
  146.8446  129.4355  152.7764 C   0  0  0  0  0  0  0  0  0  0  0  0
  146.7757  128.7847  151.4128 C   0  0  0  0  0  0  0  0  0  0  0  0
  145.6285  131.5874  149.8653 C   0  0  0  0  0  0  0  0  0  0  0  0
  144.2448  132.1806  150.1898 C   0  0  0  0  0  0  0  0  0  0  0  0
  144.3899  133.2984  151.0577 O   0  0  0  0  0  0  0  0  0  0  0  0
  141.7501  135.6418  154.1580 N   0  5  0  0  0  0  0  0  0  0  0  0
  140.8755  136.6087  153.8356 C   0  0  0  0  0  0  0  0  0  0  0  0
  139.5508  136.4622  153.9536 N   0  0  0  0  0  0  0  0  0  0  0  0
  138.8310  137.5957  153.5703 C   0  0  0  0  0  0  0  0  0  0  0  0
  139.6268  138.6315  153.1580 C   0  0  0  0  0  0  0  0  0  0  0  0
  141.3140  138.2116  153.2385 S   0  0  0  0  0  0  0  0  0  0  0  0
  143.1360  133.7244  154.1712 H   0  0  0  0  0  0  0  0  0  0  0  0
  145.3925  135.0474  152.7060 H   0  0  0  0  0  0  0  0  0  0  0  0
  145.6204  134.0068  154.0823 H   0  0  0  0  0  0  0  0  0  0  0  0
  144.3816  132.1849  152.7764 H   0  0  0  0  0  0  0  0  0  0  0  0
  147.0452  133.1401  151.5841 H   0  0  0  0  0  0  0  0  0  0  0  0
  146.8898  132.0890  152.9718 H   0  0  0  0  0  0  0  0  0  0  0  0
  144.8259  129.8504  151.8426 H   0  0  0  0  0  0  0  0  0  0  0  0
  147.7362  130.0132  153.0135 H   0  0  0  0  0  0  0  0  0  0  0  0
  146.4080  128.8914  153.6114 H   0  0  0  0  0  0  0  0  0  0  0  0
  146.2945  127.8110  151.3492 H   0  0  0  0  0  0  0  0  0  0  0  0
  147.6229  128.9293  150.7445 H   0  0  0  0  0  0  0  0  0  0  0  0
  146.2153  132.3225  149.3131 H   0  0  0  0  0  0  0  0  0  0  0  0
  145.5339  130.7149  149.2178 H   0  0  0  0  0  0  0  0  0  0  0  0
  143.7571  132.5110  149.2727 H   0  0  0  0  0  0  0  0  0  0  0  0
  143.5896  131.4348  150.6421 H   0  0  0  0  0  0  0  0  0  0  0  0
  137.7527  137.5776  153.6252 H   0  0  0  0  0  0  0  0  0  0  0  0
  139.3267  139.6101  152.8147 H   0  0  0  0  0  0  0  0  0  0  0  0
  147.3229  131.0596  150.8236 H   0  0  0  0  0  0  0  0  0  0  0  0
  1  2  2  0  0  0  0
  2  3  1  0  0  0  0
  2 14  1  0  0  0  0
  3  4  1  0  0  0  0
  3 20  1  0  0  0  0
  4  5  1  0  0  0  0
  4 21  1  0  0  0  0
  4 22  1  0  0  0  0
  5 13  1  0  0  0  0
  5  6  1  0  0  0  0
  5 23  1  0  0  0  0
  6  7  1  0  0  0  0
  6 24  1  0  0  0  0
  6 25  1  0  0  0  0
  7  8  1  0  0  0  0
  7 11  1  0  0  0  0
  7 37  1  0  0  0  0
  8 10  1  0  0  0  0
  8  9  1  0  0  0  0
  8 26  1  0  0  0  0
  9 10  1  0  0  0  0
  9 27  1  0  0  0  0
  9 28  1  0  0  0  0
 10 29  1  0  0  0  0
 10 30  1  0  0  0  0
 11 12  1  0  0  0  0
 11 31  1  0  0  0  0
 11 32  1  0  0  0  0
 12 13  1  0  0  0  0
 12 33  1  0  0  0  0
 12 34  1  0  0  0  0
 14 15  1  0  0  0  0
 15 19  1  0  0  0  0
 15 16  2  0  0  0  0
 16 17  1  0  0  0  0
 17 18  2  0  0  0  0
 17 35  1  0  0  0  0
 18 19  1  0  0  0  0
 18 36  1  0  0  0  0
M  CHG  1   7   1
M  CHG  1  14  -1
M  END
> <s_m_source_file>
AV-unprocessed.smi

> <i_m_source_file_index>
2999

> <i_lp_mmshare_version>
43012

> <i_f3d_flags>
0

> <s_epik_input>
czFbY0hdW2NIXW5jMVtOSF1DKD1PKVtOSF1bQ0gyXVtDQEBIXTJbQ0gyXU4oW0NIMl1bQ0gyXU8yKVtDSF0zW0NIMl1bQ0gyXTM=

> <s_epik_cmdline>
J2VwaWtfcHl0aG9uJywgJy1waCcsICc3LjAnLCAnLXRuJywgJzgnLCAnLW1hJywgJzIwMCcsICctbWV0YWxfYmluZGluZycsICctaW1hZScsICc8aW5maWxlLm1hZT4nLCAnLW9tYWUnLCAnPG91dGZpbGUubWFlPic=

> <r_lp_tautomer_probability>
0.999

> <r_epik_Ionization_Penalty>
7.79196

> <r_epik_Ionization_Penalty_Charging>
6.93299

> <r_epik_Ionization_Penalty_Neutral>
0.858963

> <r_epik_State_Penalty>
7.05108

> <r_epik_Charging_Adjusted_Penalty>
13.9841

> <i_epik_Tot_Q>
0

> <i_epik_Tot_abs_Q>
2

> <r_epik_Metal_State_Penalty>
3.05936

> <b_epik_Metal_Only>
1

> <s_lp_Force_Field>
OPLS_2005

> <r_lp_Energy>
16.1762

> <b_lp_Chiralities_Consistent>
1

> <s_lp_Variant>
AV-unprocessed.smi:2999-11

> <Gold.Version>
5.8.1

> <Gold.Id.Protein>
6NUR|6NUR_protein|mol2

> <Gold.PLP.Fitness>
44.9344

> <Gold.PLP.PLP>
-37.2460

> <Gold.PLP.part.hbond>
-2.5463

> <Gold.PLP.part.metal>
0.0000

> <Gold.PLP.part.buried>
-6.8215

> <Gold.PLP.part.nonpolar>
-28.0798

> <Gold.PLP.part.repulsive>
0.5430

> <Gold.PLP.ligand.clash>
0.0000

> <Gold.PLP.ligand.torsion>
0.9566

> <Gold.PLP.Chemscore.Hbond>
2.0000

> <Gold.PLP.Chemscore.CHOScore>
0.7596

> <Gold.PLP.Chemscore.Metal>
0.0000

> <Gold.Chemscore.Hbonds>
donor molecule, donor type, donor heavy atom, donor atom, acceptor molecule, acceptor atom, score
      L1  H     3    20       P1 10957  0.81
      L1  H     7    37       P1 10747  1.00
      L1  C    18    36       P1 10160  0.76

> <Gold.PLP.Chemscore.Internal.Correction>
1.3229

> <Gold.Rescore>
     Score         DG    S(hbond)    S(metal)    S(lipo)     H(rot)  DE(clash)    DE(int)     intcor
     15.16     -18.99       1.98        0.00      92.79       1.55       1.38       2.45       ----

> <Gold.Chemscore.Fitness>
15.1567

> <Gold.Chemscore.DG>
-18.9887

> <Gold.Chemscore.ZeroCoef>
-5.4800

> <Gold.Chemscore.Hbond>
1.9824

> <Gold.Chemscore.Metal>
0.0000

> <Gold.Chemscore.Lipo>
92.7918

> <Gold.Chemscore.Internal_Hbond>
0.0000

> <Gold.Chemscore.DEClash>
1.3826

> <Gold.Chemscore.DEInternal>
2.4494

> <Gold.Chemscore.Rot>
1.5504

> <Gold.Chemscore.Internal.Correction>
   9.000000E+99

> <Gold.Chemscore.Hbonds>
donor molecule, donor type, donor heavy atom, donor atom, acceptor molecule, acceptor atom, score
      L1  H     3    20       P1 10957  0.80
      L1  H     7    37       P1 10747  1.00

> <Gold.Chemscore.Hbond.Weighted>
-6.6211

> <Gold.Chemscore.Metal.Weighted>
-0.0000

> <Gold.Chemscore.Lipo.Weighted>
-10.8566

> <Gold.Chemscore.Internal_Hbond.Weighted>
0.0000

> <Gold.Chemscore.DEClash.Weighted>
1.3826

> <Gold.Chemscore.DEInternal.Weighted>
2.4494

> <Gold.Chemscore.Rot.Weighted>
3.9690

> <Gold.Chemscore.Internal.Correction.Weighted>
   9.000000E+99

> <Gold.Protein.RotatedTorsions>
[ 6907 6896 6895 6894 ] final  117.29 input  -60.11 | X-H torsion
[ 7974 7965 7964 7962 ] final -132.92 input  175.53 | X-H torsion
[ 8008 7997 7996 7995 ] final -175.10 input   59.86 | X-H torsion
[ 10167 10162 10161 10158 ] final   82.59 input  -65.29 | X-H torsion
[ 10718 10713 10712 10709 ] final  115.57 input   66.30 | X-H torsion
[ 10763 10752 10751 10750 ] final  -59.22 input  -60.55 | X-H torsion
[ 11005 11000 10999 10996 ] final   74.14 input  -57.11 | X-H torsion

> <Gold.Protein.ActiveResidues>
 VAL166  LYS551  ARG553  GLY616  TRP617  ASP618  TYR619  PRO620  LYS621  CYS622 
 ASP623  PHE694  ASN695  SER759  ASP760  ASP761  ALA762  ILE779  LEU786  VAL792 
 PHE793  MET794  SER795  GLU796  ALA797  LYS798  CYS799  TRP800  GLU811  SER814 

> <Gold.Protein.RotatedAtoms>
  152.4622  133.7845  159.6868 H   0  0  0  0  0  0  0  0  0  0  0  0  # atno 6907 bound_to 6896
  150.8570  133.7690  159.3011 H   0  0  0  0  0  0  0  0  0  0  0  0  # atno 6908 bound_to 6896
  151.5268  135.1071  159.9944 H   0  0  0  0  0  0  0  0  0  0  0  0  # atno 6909 bound_to 6896
  144.9241  140.7050  143.4947 H   0  0  0  0  0  0  0  0  0  0  0  0  # atno 7974 bound_to 7965
  155.9784  140.1177  157.0749 H   0  0  0  0  0  0  0  0  0  0  0  0  # atno 8008 bound_to 7997
  154.4176  140.1149  156.5469 H   0  0  0  0  0  0  0  0  0  0  0  0  # atno 8009 bound_to 7997
  155.6504  140.3473  155.4748 H   0  0  0  0  0  0  0  0  0  0  0  0  # atno 8010 bound_to 7997
  139.9272  144.6175  150.8381 H   0  0  0  0  0  0  0  0  0  0  0  0  # atno 10167 bound_to 10162
  157.6214  131.1014  150.7349 H   0  0  0  0  0  0  0  0  0  0  0  0  # atno 10718 bound_to 10713
  154.2503  135.6327  153.5238 H   0  0  0  0  0  0  0  0  0  0  0  0  # atno 10763 bound_to 10752
  152.9913  135.5563  154.5814 H   0  0  0  0  0  0  0  0  0  0  0  0  # atno 10764 bound_to 10752
  154.5340  135.2890  155.1129 H   0  0  0  0  0  0  0  0  0  0  0  0  # atno 10765 bound_to 10752
  139.9405  134.7407  156.1111 H   0  0  0  0  0  0  0  0  0  0  0  0  # atno 11005 bound_to 11000
  145.3248  139.1777  143.4568 LP  0  0  0  0  0  0  0  0  0  0  0  0  # atno 17320 bound_to 7965
  146.3218  140.3270  142.8637 LP  0  0  0  0  0  0  0  0  0  0  0  0  # atno 17321 bound_to 7965
  140.7647  143.3255  151.2525 LP  0  0  0  0  0  0  0  0  0  0  0  0  # atno 17342 bound_to 10162
  139.6812  143.9851  152.2809 LP  0  0  0  0  0  0  0  0  0  0  0  0  # atno 17343 bound_to 10162
  156.7706  130.4827  149.5419 LP  0  0  0  0  0  0  0  0  0  0  0  0  # atno 17370 bound_to 10713
  156.1361  130.6212  151.0402 LP  0  0  0  0  0  0  0  0  0  0  0  0  # atno 17371 bound_to 10713
  141.1038  133.6667  156.2816 LP  0  0  0  0  0  0  0  0  0  0  0  0  # atno 17394 bound_to 11000
  140.5963  134.5600  157.5509 LP  0  0  0  0  0  0  0  0  0  0  0  0  # atno 17395 bound_to 11000

$$$$
