AV-unprocessed.smi:598|AV-procd|sdf|3021|dock8
  -GOLD-   2262023533D 1   1.00000     0.00000
 Structure written by MMmdl.
 43 44  0  0  0  0  0  0  0  0  3 V2000
  151.8409  144.5387  161.1901 C   0  0  0  0  0  0  0  0  0  0  0  0
  152.3564  143.1076  160.9544 C   0  0  2  0  0  0  0  0  0  0  0  0
  153.1587  142.6331  162.1838 C   0  0  0  0  0  0  0  0  0  0  0  0
  153.6851  141.2013  162.0164 C   0  0  0  0  0  0  0  0  0  0  0  0
  154.5272  141.0680  160.7386 C   0  0  0  0  0  0  0  0  0  0  0  0
  153.7516  141.5257  159.4894 C   0  0  1  0  0  0  0  0  0  0  0  0
  152.6781  140.5729  159.1988 N   0  0  0  0  0  0  0  0  0  0  0  0
  152.7551  139.5166  158.3746 C   0  0  0  0  0  0  0  0  0  0  0  0
  153.7860  139.1873  157.7872 O   0  0  0  0  0  0  0  0  0  0  0  0
  151.4616  138.7140  158.1883 C   0  0  0  0  0  0  0  0  0  0  0  0
  151.0335  138.6771  156.7808 N   0  0  0  0  0  0  0  0  0  0  0  0
  150.1885  139.7216  156.3562 C   0  0  0  0  0  0  0  0  0  0  0  0
  149.7457  139.8153  155.0876 C   0  0  0  0  0  0  0  0  0  0  0  0
  148.8877  140.9021  154.6696 N   0  3  0  0  0  0  0  0  0  0  0  0
  149.1278  141.4656  153.6069 O   0  0  0  0  0  0  0  0  0  0  0  0
  147.9475  141.2290  155.3883 O   0  5  0  0  0  0  0  0  0  0  0  0
  150.1664  138.7920  154.1504 C   0  0  0  0  0  0  0  0  0  0  0  0
  150.9774  137.7920  154.5491 C   0  0  0  0  0  0  0  0  0  0  0  0
  151.4635  137.6960  155.9298 C   0  0  0  0  0  0  0  0  0  0  0  0
  152.2128  136.7906  156.2955 O   0  0  0  0  0  0  0  0  0  0  0  0
  153.2098  142.9720  159.6622 C   0  0  1  0  0  0  0  0  0  0  0  0
  152.4757  143.4654  158.3984 C   0  0  0  0  0  0  0  0  0  0  0  0
  152.6615  145.2559  161.2255 H   0  0  0  0  0  0  0  0  0  0  0  0
  151.2994  144.6080  162.1340 H   0  0  0  0  0  0  0  0  0  0  0  0
  151.1511  144.8545  160.4077 H   0  0  0  0  0  0  0  0  0  0  0  0
  151.4818  142.4629  160.8575 H   0  0  0  0  0  0  0  0  0  0  0  0
  153.9986  143.3078  162.3561 H   0  0  0  0  0  0  0  0  0  0  0  0
  152.5367  142.6854  163.0783 H   0  0  0  0  0  0  0  0  0  0  0  0
  154.2841  140.9237  162.8843 H   0  0  0  0  0  0  0  0  0  0  0  0
  152.8479  140.5031  161.9860 H   0  0  0  0  0  0  0  0  0  0  0  0
  155.4299  141.6714  160.8418 H   0  0  0  0  0  0  0  0  0  0  0  0
  154.8645  140.0376  160.6185 H   0  0  0  0  0  0  0  0  0  0  0  0
  154.4602  141.5249  158.6593 H   0  0  0  0  0  0  0  0  0  0  0  0
  151.7895  140.7549  159.6421 H   0  0  0  0  0  0  0  0  0  0  0  0
  151.6135  137.7124  158.5932 H   0  0  0  0  0  0  0  0  0  0  0  0
  150.6665  139.1486  158.7969 H   0  0  0  0  0  0  0  0  0  0  0  0
  149.9406  140.4356  157.1286 H   0  0  0  0  0  0  0  0  0  0  0  0
  149.8365  138.8210  153.1225 H   0  0  0  0  0  0  0  0  0  0  0  0
  151.2800  137.0411  153.8339 H   0  0  0  0  0  0  0  0  0  0  0  0
  154.0808  143.6186  159.7817 H   0  0  0  0  0  0  0  0  0  0  0  0
  151.5120  142.9711  158.2719 H   0  0  0  0  0  0  0  0  0  0  0  0
  153.0683  143.2744  157.5033 H   0  0  0  0  0  0  0  0  0  0  0  0
  152.2951  144.5394  158.4324 H   0  0  0  0  0  0  0  0  0  0  0  0
  1  2  1  0  0  0  0
  1 23  1  0  0  0  0
  1 24  1  0  0  0  0
  1 25  1  0  0  0  0
  2 21  1  0  0  0  0
  2  3  1  0  0  0  0
  2 26  1  0  0  0  0
  3  4  1  0  0  0  0
  3 27  1  0  0  0  0
  3 28  1  0  0  0  0
  4  5  1  0  0  0  0
  4 29  1  0  0  0  0
  4 30  1  0  0  0  0
  5  6  1  0  0  0  0
  5 31  1  0  0  0  0
  5 32  1  0  0  0  0
  6  7  1  0  0  0  0
  6 21  1  0  0  0  0
  6 33  1  0  0  0  0
  7  8  1  0  0  0  0
  7 34  1  0  0  0  0
  8  9  2  0  0  0  0
  8 10  1  0  0  0  0
 10 11  1  0  0  0  0
 10 35  1  0  0  0  0
 10 36  1  0  0  0  0
 11 19  1  0  0  0  0
 11 12  1  0  0  0  0
 12 13  2  0  0  0  0
 12 37  1  0  0  0  0
 13 14  1  0  0  0  0
 13 17  1  0  0  0  0
 14 15  2  0  0  0  0
 14 16  1  0  0  0  0
 17 18  2  0  0  0  0
 17 38  1  0  0  0  0
 18 19  1  0  0  0  0
 18 39  1  0  0  0  0
 19 20  2  0  0  0  0
 21 22  1  0  0  0  0
 21 40  1  0  0  0  0
 22 41  1  0  0  0  0
 22 42  1  0  0  0  0
 22 43  1  0  0  0  0
M  CHG  1  14   1
M  CHG  1  16  -1
M  END
> <s_m_source_file>
AV-unprocessed.smi

> <i_m_source_file_index>
598

> <i_lp_mmshare_version>
43012

> <i_f3d_flags>
0

> <s_epik_input>
W0NIM11bQ0BASF0xW0NIMl1bQ0gyXVtDSDJdW0NASF0oW0NASF0xW0NIM10pW05IXUMoPU8pW0NIMl1uMltjSF1jKFtOK10oPU8pW08tXSlbY0hdW2NIXWMyPU8=

> <s_epik_cmdline>
J2VwaWtfcHl0aG9uJywgJy1waCcsICc3LjAnLCAnLXRuJywgJzgnLCAnLW1hJywgJzIwMCcsICctbWV0YWxfYmluZGluZycsICctaW1hZScsICc8aW5maWxlLm1hZT4nLCAnLW9tYWUnLCAnPG91dGZpbGUubWFlPic=

> <r_lp_tautomer_probability>
1

> <r_epik_Ionization_Penalty>
1.91291e-08

> <r_epik_Ionization_Penalty_Charging>
8.21931e-11

> <r_epik_Ionization_Penalty_Neutral>
1.90469e-08

> <r_epik_State_Penalty>
-0

> <r_epik_Charging_Adjusted_Penalty>
8.21931e-11

> <i_epik_Tot_Q>
0

> <i_epik_Tot_abs_Q>
2

> <r_epik_Metal_State_Penalty>
-0

> <b_epik_Metal_Only>
0

> <s_lp_Force_Field>
OPLS_2005

> <r_lp_Energy>
23.6598

> <b_lp_Chiralities_Consistent>
1

> <s_lp_Variant>
AV-unprocessed.smi:598-1

> <Gold.Version>
5.8.1

> <Gold.Id.Protein>
6NUR|6NUR_protein|mol2

> <Gold.PLP.Fitness>
48.6647

> <Gold.PLP.PLP>
-43.1663

> <Gold.PLP.part.hbond>
-3.6241

> <Gold.PLP.part.metal>
0.0000

> <Gold.PLP.part.buried>
-5.5194

> <Gold.PLP.part.nonpolar>
-37.3920

> <Gold.PLP.part.repulsive>
2.6561

> <Gold.PLP.ligand.clash>
0.0000

> <Gold.PLP.ligand.torsion>
1.4573

> <Gold.PLP.Chemscore.Hbond>
2.8000

> <Gold.PLP.Chemscore.CHOScore>
0.0000

> <Gold.PLP.Chemscore.Metal>
0.0000

> <Gold.Chemscore.Hbonds>
donor molecule, donor type, donor heavy atom, donor atom, acceptor molecule, acceptor atom, score
      P1  H  7997  8008       L1     9  0.83
      P1  H  8011  8017       L1    15  0.83
      P1  H 10752 10764       L1    20  0.99

> <Gold.PLP.Chemscore.Internal.Correction>
0.0130

> <Gold.Rescore>
     Score         DG    S(hbond)    S(metal)    S(lipo)     H(rot)  DE(clash)    DE(int)     intcor
     22.38     -24.44       2.70        0.00     118.69       1.54       0.58       1.49       ----

> <Gold.Chemscore.Fitness>
22.3794

> <Gold.Chemscore.DG>
-24.4443

> <Gold.Chemscore.ZeroCoef>
-5.4800

> <Gold.Chemscore.Hbond>
2.7000

> <Gold.Chemscore.Metal>
0.0000

> <Gold.Chemscore.Lipo>
118.6935

> <Gold.Chemscore.Internal_Hbond>
0.0000

> <Gold.Chemscore.DEClash>
0.5795

> <Gold.Chemscore.DEInternal>
1.4854

> <Gold.Chemscore.Rot>
1.5393

> <Gold.Chemscore.Internal.Correction>
   9.000000E+99

> <Gold.Chemscore.Hbonds>
donor molecule, donor type, donor heavy atom, donor atom, acceptor molecule, acceptor atom, score
      P1  H  7997  8008       L1     9  0.78
      P1  H  8011  8017       L1    15  0.81
      P1  H 10752 10764       L1    20  0.89

> <Gold.Chemscore.Hbond.Weighted>
-9.0178

> <Gold.Chemscore.Metal.Weighted>
-0.0000

> <Gold.Chemscore.Lipo.Weighted>
-13.8871

> <Gold.Chemscore.Internal_Hbond.Weighted>
0.0000

> <Gold.Chemscore.DEClash.Weighted>
0.5795

> <Gold.Chemscore.DEInternal.Weighted>
1.4854

> <Gold.Chemscore.Rot.Weighted>
3.9407

> <Gold.Chemscore.Internal.Correction.Weighted>
   9.000000E+99

> <Gold.Protein.RotatedTorsions>
[ 6907 6896 6895 6894 ] final  108.53 input  -60.11 | X-H torsion
[ 7974 7965 7964 7962 ] final  168.35 input  175.53 | X-H torsion
[ 8008 7997 7996 7995 ] final -108.91 input   59.86 | X-H torsion
[ 10167 10162 10161 10158 ] final   39.58 input  -65.29 | X-H torsion
[ 10718 10713 10712 10709 ] final  -15.47 input   66.30 | X-H torsion
[ 10763 10752 10751 10750 ] final  -33.53 input  -60.55 | X-H torsion
[ 11005 11000 10999 10996 ] final  152.88 input  -57.11 | X-H torsion

> <Gold.Protein.ActiveResidues>
 VAL166  LYS551  ARG553  GLY616  TRP617  ASP618  TYR619  PRO620  LYS621  CYS622 
 ASP623  PHE694  ASN695  SER759  ASP760  ASP761  ALA762  ILE779  LEU786  VAL792 
 PHE793  MET794  SER795  GLU796  ALA797  LYS798  CYS799  TRP800  GLU811  SER814 

> <Gold.Protein.RotatedAtoms>
  152.5108  133.9075  159.7471 H   0  0  0  0  0  0  0  0  0  0  0  0  # atno 6907 bound_to 6896
  150.9476  133.6576  159.2785 H   0  0  0  0  0  0  0  0  0  0  0  0  # atno 6908 bound_to 6896
  151.3866  135.0954  159.9565 H   0  0  0  0  0  0  0  0  0  0  0  0  # atno 6909 bound_to 6896
  144.7391  139.8895  143.6402 H   0  0  0  0  0  0  0  0  0  0  0  0  # atno 7974 bound_to 7965
  154.9514  140.0401  157.2145 H   0  0  0  0  0  0  0  0  0  0  0  0  # atno 8008 bound_to 7997
  154.7975  140.2846  155.5924 H   0  0  0  0  0  0  0  0  0  0  0  0  # atno 8009 bound_to 7997
  156.2957  140.2561  156.2836 H   0  0  0  0  0  0  0  0  0  0  0  0  # atno 8010 bound_to 7997
  140.3826  144.1959  150.6130 H   0  0  0  0  0  0  0  0  0  0  0  0  # atno 10167 bound_to 10162
  156.6013  130.4825  149.6238 H   0  0  0  0  0  0  0  0  0  0  0  0  # atno 10718 bound_to 10713
  153.8317  135.6865  153.4814 H   0  0  0  0  0  0  0  0  0  0  0  0  # atno 10763 bound_to 10752
  153.1507  135.4619  154.9630 H   0  0  0  0  0  0  0  0  0  0  0  0  # atno 10764 bound_to 10752
  154.7884  135.3293  154.7779 H   0  0  0  0  0  0  0  0  0  0  0  0  # atno 10765 bound_to 10752
  140.1348  134.8778  157.2252 H   0  0  0  0  0  0  0  0  0  0  0  0  # atno 11005 bound_to 11000
  146.1152  139.4162  143.0262 LP  0  0  0  0  0  0  0  0  0  0  0  0  # atno 17320 bound_to 7965
  145.7385  141.0017  143.1314 LP  0  0  0  0  0  0  0  0  0  0  0  0  # atno 17321 bound_to 7965
  140.4922  143.2344  151.8802 LP  0  0  0  0  0  0  0  0  0  0  0  0  # atno 17342 bound_to 10162
  139.4794  144.5153  151.8876 LP  0  0  0  0  0  0  0  0  0  0  0  0  # atno 17343 bound_to 10162
  156.2466  130.6883  151.1606 LP  0  0  0  0  0  0  0  0  0  0  0  0  # atno 17370 bound_to 10713
  157.7279  131.0636  150.5846 LP  0  0  0  0  0  0  0  0  0  0  0  0  # atno 17371 bound_to 10713
  140.2797  134.3365  155.7347 LP  0  0  0  0  0  0  0  0  0  0  0  0  # atno 17394 bound_to 11000
  141.2176  133.7471  156.9345 LP  0  0  0  0  0  0  0  0  0  0  0  0  # atno 17395 bound_to 11000

$$$$
