AV-unprocessed.smi:2916|AV-procd|sdf|11188|dock1
  -GOLD-   2272016 83D 1   1.00000     0.00000
 Structure written by MMmdl.
 38 39  0  0  0  0  0  0  0  0  2 V2000
  149.9039  138.9763  156.2548 N   0  0  0  0  0  0  0  0  0  0  0  0
  150.2729  140.0248  155.5109 C   0  0  0  0  0  0  0  0  0  0  0  0
  151.2330  139.9506  154.7465 O   0  0  0  0  0  0  0  0  0  0  0  0
  149.4243  141.3209  155.6083 C   0  0  0  0  0  0  0  0  0  0  0  0
  150.3339  142.4379  155.9844 N   0  3  0  0  0  0  0  0  0  0  0  0
  150.8863  142.4597  157.3618 C   0  0  0  0  0  0  0  0  0  0  0  0
  151.6736  143.7560  157.6191 C   0  0  0  0  0  0  0  0  0  0  0  0
  151.8517  144.0357  159.0339 N   0  0  0  0  0  0  0  0  0  0  0  0
  152.3815  143.2153  160.0077 C   0  0  0  0  0  0  0  0  0  0  0  0
  152.3308  143.8998  161.1880 C   0  0  0  0  0  0  0  0  0  0  0  0
  151.7326  145.1413  160.8342 C   0  0  0  0  0  0  0  0  0  0  0  0
  151.4431  145.2173  159.5454 N   0  0  0  0  0  0  0  0  0  0  0  0
  148.7989  141.6822  154.2304 C   0  0  0  0  0  0  0  0  0  0  0  0
  147.7064  140.6992  153.7716 C   0  0  0  0  0  0  0  0  0  0  0  0
  146.5811  140.6127  154.8103 C   0  0  0  0  0  0  0  0  0  0  0  0
  147.1351  140.2337  156.1899 C   0  0  0  0  0  0  0  0  0  0  0  0
  148.2565  141.1948  156.6354 C   0  0  0  0  0  0  0  0  0  0  0  0
  150.4545  138.1296  156.2278 H   0  0  0  0  0  0  0  0  0  0  0  0
  149.0966  139.0354  156.8582 H   0  0  0  0  0  0  0  0  0  0  0  0
  151.1095  142.4339  155.3381 H   0  0  0  0  0  0  0  0  0  0  0  0
  150.0866  142.3716  158.0965 H   0  0  0  0  0  0  0  0  0  0  0  0
  151.5493  141.6080  157.5138 H   0  0  0  0  0  0  0  0  0  0  0  0
  152.6603  143.6923  157.1587 H   0  0  0  0  0  0  0  0  0  0  0  0
  151.1655  144.6028  157.1559 H   0  0  0  0  0  0  0  0  0  0  0  0
  152.7489  142.2247  159.7832 H   0  0  0  0  0  0  0  0  0  0  0  0
  152.6651  143.5628  162.1581 H   0  0  0  0  0  0  0  0  0  0  0  0
  151.5006  145.9824  161.4707 H   0  0  0  0  0  0  0  0  0  0  0  0
  148.3563  142.6779  154.2905 H   0  0  0  0  0  0  0  0  0  0  0  0
  149.5643  141.7590  153.4571 H   0  0  0  0  0  0  0  0  0  0  0  0
  147.2973  141.0237  152.8143 H   0  0  0  0  0  0  0  0  0  0  0  0
  148.1323  139.7099  153.6018 H   0  0  0  0  0  0  0  0  0  0  0  0
  146.0676  141.5731  154.8740 H   0  0  0  0  0  0  0  0  0  0  0  0
  145.8348  139.8833  154.4938 H   0  0  0  0  0  0  0  0  0  0  0  0
  146.3290  140.2453  156.9239 H   0  0  0  0  0  0  0  0  0  0  0  0
  147.5026  139.2078  156.1645 H   0  0  0  0  0  0  0  0  0  0  0  0
  148.6211  140.8641  157.6085 H   0  0  0  0  0  0  0  0  0  0  0  0
  147.8197  142.1805  156.8038 H   0  0  0  0  0  0  0  0  0  0  0  0
  149.8221  143.2997  155.8577 H   0  0  0  0  0  0  0  0  0  0  0  0
  1  2  1  0  0  0  0
  1 18  1  0  0  0  0
  1 19  1  0  0  0  0
  2  3  2  0  0  0  0
  2  4  1  0  0  0  0
  4 17  1  0  0  0  0
  4  5  1  0  0  0  0
  4 13  1  0  0  0  0
  5  6  1  0  0  0  0
  5 20  1  0  0  0  0
  5 38  1  0  0  0  0
  6  7  1  0  0  0  0
  6 21  1  0  0  0  0
  6 22  1  0  0  0  0
  7  8  1  0  0  0  0
  7 23  1  0  0  0  0
  7 24  1  0  0  0  0
  8 12  1  0  0  0  0
  8  9  1  0  0  0  0
  9 10  2  0  0  0  0
  9 25  1  0  0  0  0
 10 11  1  0  0  0  0
 10 26  1  0  0  0  0
 11 12  2  0  0  0  0
 11 27  1  0  0  0  0
 13 14  1  0  0  0  0
 13 28  1  0  0  0  0
 13 29  1  0  0  0  0
 14 15  1  0  0  0  0
 14 30  1  0  0  0  0
 14 31  1  0  0  0  0
 15 16  1  0  0  0  0
 15 32  1  0  0  0  0
 15 33  1  0  0  0  0
 16 17  1  0  0  0  0
 16 34  1  0  0  0  0
 16 35  1  0  0  0  0
 17 36  1  0  0  0  0
 17 37  1  0  0  0  0
M  CHG  1   5   1
M  END
> <s_m_source_file>
AV-unprocessed.smi

> <i_m_source_file_index>
2916

> <i_lp_mmshare_version>
43012

> <i_f3d_flags>
0

> <s_epik_input>
W0NIMl0xW0NIMl1bQ0gyXVtDSDJdW0NIMl1DMShDKD1PKVtOSDJdKVtOSF1bQ0gyXVtDSDJdbjJbY0hdW2NIXVtjSF1uMg==

> <s_epik_cmdline>
J2VwaWtfcHl0aG9uJywgJy1waCcsICc3LjAnLCAnLXRuJywgJzgnLCAnLW1hJywgJzIwMCcsICctbWV0YWxfYmluZGluZycsICctaW1hZScsICc8aW5maWxlLm1hZT4nLCAnLW9tYWUnLCAnPG91dGZpbGUubWFlPic=

> <r_lp_tautomer_probability>
1

> <r_epik_Ionization_Penalty>
0.147888

> <r_epik_Ionization_Penalty_Charging>
0.147883

> <r_epik_Ionization_Penalty_Neutral>
4.65475e-06

> <r_epik_State_Penalty>
0.137176

> <r_epik_Charging_Adjusted_Penalty>
0.285059

> <i_epik_Tot_Q>
1

> <i_epik_Tot_abs_Q>
1

> <r_epik_Metal_State_Penalty>
0.137393

> <b_epik_Metal_Only>
0

> <s_lp_Force_Field>
OPLS_2005

> <r_lp_Energy>
14.4928

> <b_lp_Chiralities_Consistent>
1

> <s_lp_Variant>
AV-unprocessed.smi:2916-1

> <Gold.Version>
5.8.1

> <Gold.Id.Protein>
6NUR|6NUR_protein|mol2

> <Gold.PLP.Fitness>
43.5347

> <Gold.PLP.PLP>
-34.8456

> <Gold.PLP.part.hbond>
-2.0000

> <Gold.PLP.part.metal>
0.0000

> <Gold.PLP.part.buried>
-3.2731

> <Gold.PLP.part.nonpolar>
-29.8857

> <Gold.PLP.part.repulsive>
0.3272

> <Gold.PLP.ligand.clash>
0.0000

> <Gold.PLP.ligand.torsion>
0.2075

> <Gold.PLP.Chemscore.Hbond>
3.0000

> <Gold.PLP.Chemscore.CHOScore>
0.0000

> <Gold.PLP.Chemscore.Metal>
0.0000

> <Gold.Chemscore.Hbonds>
donor molecule, donor type, donor heavy atom, donor atom, acceptor molecule, acceptor atom, score
      L1  H     5    38       P1  8028  2.00
      P1  H  7989  7998       L1     3  1.00

> <Gold.PLP.Chemscore.Internal.Correction>
0.1041

> <Gold.Rescore>
     Score         DG    S(hbond)    S(metal)    S(lipo)     H(rot)  DE(clash)    DE(int)     intcor
     16.04     -16.52       2.00        0.00      86.81       2.26       0.26       0.22       ----

> <Gold.Chemscore.Fitness>
16.0418

> <Gold.Chemscore.DG>
-16.5185

> <Gold.Chemscore.ZeroCoef>
-5.4800

> <Gold.Chemscore.Hbond>
1.9975

> <Gold.Chemscore.Metal>
0.0000

> <Gold.Chemscore.Lipo>
86.8140

> <Gold.Chemscore.Internal_Hbond>
0.0000

> <Gold.Chemscore.DEClash>
0.2566

> <Gold.Chemscore.DEInternal>
0.2202

> <Gold.Chemscore.Rot>
2.2619

> <Gold.Chemscore.Internal.Correction>
   9.000000E+99

> <Gold.Chemscore.Hbonds>
donor molecule, donor type, donor heavy atom, donor atom, acceptor molecule, acceptor atom, score
      L1  H     5    38       P1  8028  1.00
      P1  H  7989  7998       L1     3  0.99

> <Gold.Chemscore.Hbond.Weighted>
-6.6717

> <Gold.Chemscore.Metal.Weighted>
-0.0000

> <Gold.Chemscore.Lipo.Weighted>
-10.1572

> <Gold.Chemscore.Internal_Hbond.Weighted>
0.0000

> <Gold.Chemscore.DEClash.Weighted>
0.2566

> <Gold.Chemscore.DEInternal.Weighted>
0.2202

> <Gold.Chemscore.Rot.Weighted>
5.7904

> <Gold.Chemscore.Internal.Correction.Weighted>
   9.000000E+99

> <Gold.Protein.RotatedTorsions>
[ 6907 6896 6895 6894 ] final -132.88 input  -60.11 | X-H torsion
[ 7974 7965 7964 7962 ] final  139.83 input  175.53 | X-H torsion
[ 8008 7997 7996 7995 ] final -114.39 input   59.86 | X-H torsion
[ 10167 10162 10161 10158 ] final   80.46 input  -65.29 | X-H torsion
[ 10718 10713 10712 10709 ] final  108.43 input   66.30 | X-H torsion
[ 10763 10752 10751 10750 ] final   -7.21 input  -60.55 | X-H torsion
[ 11005 11000 10999 10996 ] final  -93.92 input  -57.11 | X-H torsion

> <Gold.Protein.ActiveResidues>
 VAL166  LYS551  ARG553  GLY616  TRP617  ASP618  TYR619  PRO620  LYS621  CYS622 
 ASP623  PHE694  ASN695  SER759  ASP760  ASP761  ALA762  ILE779  LEU786  VAL792 
 PHE793  MET794  SER795  GLU796  ALA797  LYS798  CYS799  TRP800  GLU811  SER814 

> <Gold.Protein.RotatedAtoms>
  150.9675  133.6379  159.2743 H   0  0  0  0  0  0  0  0  0  0  0  0  # atno 6907 bound_to 6896
  151.3680  135.0916  159.9466 H   0  0  0  0  0  0  0  0  0  0  0  0  # atno 6908 bound_to 6896
  152.5171  133.9235  159.7600 H   0  0  0  0  0  0  0  0  0  0  0  0  # atno 6909 bound_to 6896
  144.9243  139.5128  143.5648 H   0  0  0  0  0  0  0  0  0  0  0  0  # atno 7974 bound_to 7965
  155.0355  140.0392  157.2490 H   0  0  0  0  0  0  0  0  0  0  0  0  # atno 8008 bound_to 7997
  154.7260  140.2721  155.6475 H   0  0  0  0  0  0  0  0  0  0  0  0  # atno 8009 bound_to 7997
  156.2829  140.2693  156.1946 H   0  0  0  0  0  0  0  0  0  0  0  0  # atno 8010 bound_to 7997
  139.9495  144.6036  150.8174 H   0  0  0  0  0  0  0  0  0  0  0  0  # atno 10167 bound_to 10162
  157.6586  131.0893  150.6304 H   0  0  0  0  0  0  0  0  0  0  0  0  # atno 10718 bound_to 10713
  153.4232  135.7010  153.6280 H   0  0  0  0  0  0  0  0  0  0  0  0  # atno 10763 bound_to 10752
  153.4726  135.3711  155.2399 H   0  0  0  0  0  0  0  0  0  0  0  0  # atno 10764 bound_to 10752
  154.8723  135.4046  154.3603 H   0  0  0  0  0  0  0  0  0  0  0  0  # atno 10765 bound_to 10752
  141.1484  133.7920  157.0226 H   0  0  0  0  0  0  0  0  0  0  0  0  # atno 11005 bound_to 11000
  146.3219  139.8145  142.8939 LP  0  0  0  0  0  0  0  0  0  0  0  0  # atno 17320 bound_to 7965
  145.3246  141.0252  143.3481 LP  0  0  0  0  0  0  0  0  0  0  0  0  # atno 17321 bound_to 7965
  140.7587  143.3113  151.2838 LP  0  0  0  0  0  0  0  0  0  0  0  0  # atno 17342 bound_to 10162
  139.6640  144.0138  152.2711 LP  0  0  0  0  0  0  0  0  0  0  0  0  # atno 17343 bound_to 10162
  156.6609  130.4512  149.5688 LP  0  0  0  0  0  0  0  0  0  0  0  0  # atno 17370 bound_to 10713
  156.2068  130.6654  151.1227 LP  0  0  0  0  0  0  0  0  0  0  0  0  # atno 17371 bound_to 10713
  140.0806  134.9650  157.1618 LP  0  0  0  0  0  0  0  0  0  0  0  0  # atno 17394 bound_to 11000
  140.3582  134.2523  155.7190 LP  0  0  0  0  0  0  0  0  0  0  0  0  # atno 17395 bound_to 11000

$$$$
