#       Name:                AV-unprocessed.smi:1223
#       Creating user name   scv26
#       Creation time:       Fri Mar 27 04:18:31 2020


#       File generated by GOLD software.
#

@<TRIPOS>MOLECULE
AV-unprocessed.smi:1223
    38    39     1
SMALL
NO_CHARGES


@<TRIPOS>ATOM
      1 ****         0.6231   2.0785  -1.3736 O.2            1 S1                 0.0000
      2 ****         1.2770   1.1805  -0.8435 C.2            1 S1                 0.0000
      3 ****         2.7893   1.3337  -0.6723 C.3            1 S1                 0.0000
      4 ****         3.1598   1.3711   0.7318 N.pl3          1 S1                 0.0000
      5 ****         3.0921   2.4351   1.6073 C.2            1 S1                 0.0000
      6 ****         3.5329   1.9913   2.8211 C.2            1 S1                 0.0000
      7 ****         3.8525   0.6248   2.5858 C.2            1 S1                 0.0000
      8 ****         3.6302   0.2568   1.3344 N.2            1 S1                 0.0000
      9 ****         0.7373   0.0358  -0.3950 N.am           1 S1                 0.0000
     10 ****        -0.6833  -0.3128  -0.4185 C.3            1 S1                 0.0000
     11 ****        -1.0607  -0.9109  -1.7921 C.3            1 S1                 0.0000
     12 ****        -2.5575  -0.8102  -2.1277 C.3            1 S1                 0.0000
     13 ****        -3.4839  -1.5871  -1.1804 C.3            1 S1                 0.0000
     14 ****        -3.4909  -1.0438   0.2589 C.3            1 S1                 0.0000
     15 ****        -2.3339  -1.4829   1.0287 N.am           1 S1                 0.0000
     16 ****        -1.0440  -1.2059   0.7843 C.2            1 S1                 0.0000
     17 ****        -0.1598  -1.6638   1.5080 O.2            1 S1                 0.0000
     18 ****         3.3033   0.5079  -1.1667 H              1 S1                 0.0000
     19 ****         3.1290   2.2549  -1.1476 H              1 S1                 0.0000
     20 ****         2.7363   3.4066   1.2969 H              1 S1                 0.0000
     21 ****         3.6129   2.5563   3.7377 H              1 S1                 0.0000
     22 ****         4.2366  -0.1060   3.2821 H              1 S1                 0.0000
     23 ****         1.3562  -0.6390   0.0321 H              1 S1                 0.0000
     24 ****        -1.2387   0.6172  -0.2829 H              1 S1                 0.0000
     25 ****        -0.5174  -0.3868  -2.5795 H              1 S1                 0.0000
     26 ****        -0.7328  -1.9498  -1.8516 H              1 S1                 0.0000
     27 ****        -2.8552   0.2390  -2.1488 H              1 S1                 0.0000
     28 ****        -2.7095  -1.1809  -3.1419 H              1 S1                 0.0000
     29 ****        -4.4982  -1.5217  -1.5752 H              1 S1                 0.0000
     30 ****        -3.2300  -2.6479  -1.1855 H              1 S1                 0.0000
     31 ****        -3.5657   0.0444   0.2698 H              1 S1                 0.0000
     32 ****        -4.3758  -1.4157   0.7758 H              1 S1                 0.0000
     33 ****        -2.5304  -2.0691   1.8272 H              1 S1                 0.0000
     34 ****         1.0805   2.9086  -1.6925 LP             1 S1                 0.0000
     35 ****        -0.3656   1.9780  -1.4853 LP             1 S1                 0.0000
     36 ****         3.7773  -0.6441   0.9261 LP             1 S1                 0.0000
     37 ****         0.7997  -1.4569   1.3171 LP             1 S1                 0.0000
     38 ****        -0.4011  -2.2427   2.2869 LP             1 S1                 0.0000
@<TRIPOS>BOND
    1    1    2 2     
    2    2    3 1     
    3    2    9 am    
    4    3    4 1     
    5    3   18 1     
    6    3   19 1     
    7    4    8 1     
    8    4    5 1     
    9    5    6 2     
   10    5   20 1     
   11    6    7 1     
   12    6   21 1     
   13    7    8 2     
   14    7   22 1     
   15    9   10 1     
   16    9   23 1     
   17   10   16 1     
   18   10   11 1     
   19   10   24 1     
   20   11   12 1     
   21   11   25 1     
   22   11   26 1     
   23   12   13 1     
   24   12   27 1     
   25   12   28 1     
   26   13   14 1     
   27   13   29 1     
   28   13   30 1     
   29   14   15 1     
   30   14   31 1     
   31   14   32 1     
   32   15   16 am    
   33   15   33 1     
   34   16   17 2     
   35    1   34 1     
   36    1   35 1     
   37    8   36 1     
   38   17   37 1     
   39   17   38 1     
@<TRIPOS>SUBSTRUCTURE
      1 S1             1
@<TRIPOS>SET
LONE_PAIRS      STATIC     ATOMS    <user>   **** ""
5 34 35 36 37 38
DONOR_HYDROGENS      STATIC     ATOMS    <user>   **** ""
2 23 33
ATOM$BLUE        STATIC     ATOMS    COLORGROUP SYSTEM
5 34 35 36 37 38
ATOM$RED        STATIC     ATOMS    COLORGROUP SYSTEM
2 23 33
