#       Name:                AV-unprocessed.smi:2248
#       Creating user name   scv26
#       Creation time:       Fri Mar 27 12:29:34 2020


#       File generated by GOLD software.
#

@<TRIPOS>MOLECULE
AV-unprocessed.smi:2248
    40    41     1
SMALL
NO_CHARGES


@<TRIPOS>ATOM
      1 ****        -3.0915   4.5920   0.2954 C.3            1 S1                 0.0000
      2 ****        -3.3670   3.1353  -0.0130 C.ar           1 S1                 0.0000
      3 ****        -4.6864   2.6483  -0.0918 C.ar           1 S1                 0.0000
      4 ****        -4.8733   1.2856  -0.3843 C.ar           1 S1                 0.0000
      5 ****        -3.7416   0.4719  -0.5858 C.ar           1 S1                 0.0000
      6 ****        -2.4512   1.0399  -0.4902 C.ar           1 S1                 0.0000
      7 ****        -1.3775   0.1368  -0.7096 N.am           1 S1                 0.0000
      8 ****        -0.0578   0.3946  -0.6893 C.2            1 S1                 0.0000
      9 ****         0.4515   1.4955  -0.4769 O.2            1 S1                 0.0000
     10 ****         0.6569  -0.7136  -0.9309 N.am           1 S1                 0.0000
     11 ****         2.1138  -0.7719  -0.9707 C.3            1 S1                 0.0000
     12 ****         2.5740  -2.0963  -1.5152 C.2            1 S1                 0.0000
     13 ****         3.4017  -2.7319  -0.6892 C.2            1 S1                 0.0000
     14 ****         3.6604  -1.9667   0.5836 C.3            1 S1                 0.0000
     15 ****         3.3578  -2.7887   1.8483 C.3            1 S1                 0.0000
     16 ****         4.2513  -3.8766   1.9600 O.3            1 S1                 0.0000
     17 ****         2.7573  -0.7154   0.4402 C.3            1 S1                 0.0000
     18 ****        -2.2818   2.3555  -0.2068 N.ar           1 S1                 0.0000
     19 ****         2.5072   0.0190  -1.6115 H              1 S1                 0.0000
     20 ****         4.7074  -1.6604   0.5847 H              1 S1                 0.0000
     21 ****        -3.9875   5.0935   0.6618 H              1 S1                 0.0000
     22 ****        -2.7525   5.1093  -0.6024 H              1 S1                 0.0000
     23 ****        -2.3171   4.6827   1.0578 H              1 S1                 0.0000
     24 ****        -5.5338   3.2989   0.0671 H              1 S1                 0.0000
     25 ****        -5.8677   0.8704  -0.4540 H              1 S1                 0.0000
     26 ****        -3.8683  -0.5769  -0.8118 H              1 S1                 0.0000
     27 ****        -1.6454  -0.8170  -0.9016 H              1 S1                 0.0000
     28 ****         0.1613  -1.5775  -1.0951 H              1 S1                 0.0000
     29 ****         2.2630  -2.4605  -2.4833 H              1 S1                 0.0000
     30 ****         3.8609  -3.6891  -0.8878 H              1 S1                 0.0000
     31 ****         3.4604  -2.1654   2.7371 H              1 S1                 0.0000
     32 ****         2.3341  -3.1644   1.8329 H              1 S1                 0.0000
     33 ****         4.0498  -4.3517   2.7519 H              1 S1                 0.0000
     34 ****         3.3381   0.1995   0.5634 H              1 S1                 0.0000
     35 ****         1.9926  -0.7041   1.2187 H              1 S1                 0.0000
     36 ****        -0.1299   2.2897  -0.3004 LP             1 S1                 0.0000
     37 ****         1.4465   1.5952  -0.4810 LP             1 S1                 0.0000
     38 ****         5.1914  -3.5379   2.0001 LP             1 S1                 0.0000
     39 ****         4.1480  -4.4801   1.1693 LP             1 S1                 0.0000
     40 ****        -1.3626   2.7439  -0.1421 LP             1 S1                 0.0000
@<TRIPOS>BOND
    1    1    2 1     
    2    1   21 1     
    3    1   22 1     
    4    1   23 1     
    5    2   18 ar    
    6    2    3 ar    
    7    3    4 ar    
    8    3   24 1     
    9    4    5 ar    
   10    4   25 1     
   11    5    6 ar    
   12    5   26 1     
   13    6    7 1     
   14    6   18 ar    
   15    7    8 am    
   16    7   27 1     
   17    8    9 2     
   18    8   10 am    
   19   10   11 1     
   20   10   28 1     
   21   11   19 1     
   22   11   17 1     
   23   11   12 1     
   24   12   13 2     
   25   12   29 1     
   26   13   14 1     
   27   13   30 1     
   28   14   20 1     
   29   14   15 1     
   30   14   17 1     
   31   15   16 1     
   32   15   31 1     
   33   15   32 1     
   34   16   33 1     
   35   17   34 1     
   36   17   35 1     
   37    9   36 1     
   38    9   37 1     
   39   16   38 1     
   40   16   39 1     
   41   18   40 1     
@<TRIPOS>SUBSTRUCTURE
      1 S1             1
@<TRIPOS>SET
LONE_PAIRS      STATIC     ATOMS    <user>   **** ""
5 36 37 38 39 40
DONOR_HYDROGENS      STATIC     ATOMS    <user>   **** ""
3 27 28 33
ATOM$BLUE        STATIC     ATOMS    COLORGROUP SYSTEM
5 36 37 38 39 40
ATOM$RED        STATIC     ATOMS    COLORGROUP SYSTEM
3 27 28 33
