AV-unprocessed.smi:1734|AV-procd|sdf|6982|dock4
  -GOLD-   22720 8193D 1   1.00000     0.00000
 Structure written by MMmdl.
 50 52  0  0  0  0  0  0  0  0  1 V2000
  147.7447  133.2395  152.4059 C   0  0  0  0  0  0  0  0  0  0  0  0
  146.4091  133.3487  151.6882 C   0  0  0  0  0  0  0  0  0  0  0  0
  145.7411  132.1712  151.2899 C   0  0  0  0  0  0  0  0  0  0  0  0
  144.5063  132.2741  150.6271 C   0  0  0  0  0  0  0  0  0  0  0  0
  143.9877  133.5585  150.3900 C   0  0  0  0  0  0  0  0  0  0  0  0
  144.6195  134.6889  150.7661 N   0  0  0  0  0  0  0  0  0  0  0  0
  145.8132  134.6073  151.4060 C   0  0  0  0  0  0  0  0  0  0  0  0
  146.5420  135.7577  151.8196 N   0  0  0  0  0  0  0  0  0  0  0  0
  146.0660  136.9437  152.2376 C   0  0  0  0  0  0  0  0  0  0  0  0
  144.8779  137.2164  152.4120 O   0  0  0  0  0  0  0  0  0  0  0  0
  147.0614  137.8184  152.4414 N   0  0  0  0  0  0  0  0  0  0  0  0
  146.8841  139.2067  152.8514 C   0  0  0  0  0  0  0  0  0  0  0  0
  147.4764  139.5268  154.2569 C   0  0  2  0  0  0  0  0  0  0  0  0
  146.9572  140.8792  154.8282 C   0  0  1  0  0  0  0  0  0  0  0  0
  146.8652  142.0315  153.8358 C   0  0  0  0  0  0  0  0  0  0  0  0
  145.8094  142.9596  154.4390 C   0  0  0  0  0  0  0  0  0  0  0  0
  145.1236  142.1966  155.4243 O   0  0  0  0  0  0  0  0  0  0  0  0
  145.5027  140.8347  155.3049 C   0  0  0  0  0  0  0  0  0  0  0  0
  148.9470  139.4443  154.3028 N   0  0  0  0  0  0  0  0  0  0  0  0
  149.4921  138.0907  154.2123 C   0  0  0  0  0  0  0  0  0  0  0  0
  151.0289  138.1057  154.1422 C   0  0  0  0  0  0  0  0  0  0  0  0
  151.5552  138.8089  155.2637 O   0  0  0  0  0  0  0  0  0  0  0  0
  151.0818  140.1500  155.3470 C   0  0  0  0  0  0  0  0  0  0  0  0
  149.5461  140.1498  155.4330 C   0  0  0  0  0  0  0  0  0  0  0  0
  148.0325  132.1981  152.5535 H   0  0  0  0  0  0  0  0  0  0  0  0
  147.6908  133.7130  153.3866 H   0  0  0  0  0  0  0  0  0  0  0  0
  148.5302  133.7263  151.8274 H   0  0  0  0  0  0  0  0  0  0  0  0
  146.1677  131.1988  151.4878 H   0  0  0  0  0  0  0  0  0  0  0  0
  143.9708  131.3918  150.3093 H   0  0  0  0  0  0  0  0  0  0  0  0
  143.0415  133.6829  149.8844 H   0  0  0  0  0  0  0  0  0  0  0  0
  147.5458  135.6772  151.7559 H   0  0  0  0  0  0  0  0  0  0  0  0
  148.0088  137.5103  152.2787 H   0  0  0  0  0  0  0  0  0  0  0  0
  147.3219  139.8354  152.0766 H   0  0  0  0  0  0  0  0  0  0  0  0
  145.8149  139.4195  152.8397 H   0  0  0  0  0  0  0  0  0  0  0  0
  147.1114  138.7596  154.9409 H   0  0  0  0  0  0  0  0  0  0  0  0
  147.5839  141.1970  155.6624 H   0  0  0  0  0  0  0  0  0  0  0  0
  147.8158  142.5439  153.6872 H   0  0  0  0  0  0  0  0  0  0  0  0
  146.5206  141.6698  152.8658 H   0  0  0  0  0  0  0  0  0  0  0  0
  146.2685  143.8252  154.9172 H   0  0  0  0  0  0  0  0  0  0  0  0
  145.1160  143.3204  153.6786 H   0  0  0  0  0  0  0  0  0  0  0  0
  144.8646  140.3496  154.5642 H   0  0  0  0  0  0  0  0  0  0  0  0
  145.3818  140.3122  156.2541 H   0  0  0  0  0  0  0  0  0  0  0  0
  149.1845  137.5044  155.0786 H   0  0  0  0  0  0  0  0  0  0  0  0
  149.1033  137.5804  153.3317 H   0  0  0  0  0  0  0  0  0  0  0  0
  151.4185  137.0878  154.1441 H   0  0  0  0  0  0  0  0  0  0  0  0
  151.3674  138.5770  153.2180 H   0  0  0  0  0  0  0  0  0  0  0  0
  151.5110  140.6258  156.2288 H   0  0  0  0  0  0  0  0  0  0  0  0
  151.4211  140.7175  154.4790 H   0  0  0  0  0  0  0  0  0  0  0  0
  149.1853  141.1784  155.4634 H   0  0  0  0  0  0  0  0  0  0  0  0
  149.2525  139.6858  156.3738 H   0  0  0  0  0  0  0  0  0  0  0  0
  1  2  1  0  0  0  0
  1 25  1  0  0  0  0
  1 26  1  0  0  0  0
  1 27  1  0  0  0  0
  2  7  1  0  0  0  0
  2  3  2  0  0  0  0
  3  4  1  0  0  0  0
  3 28  1  0  0  0  0
  4  5  2  0  0  0  0
  4 29  1  0  0  0  0
  5  6  1  0  0  0  0
  5 30  1  0  0  0  0
  6  7  2  0  0  0  0
  7  8  1  0  0  0  0
  8  9  1  0  0  0  0
  8 31  1  0  0  0  0
  9 10  2  0  0  0  0
  9 11  1  0  0  0  0
 11 12  1  0  0  0  0
 11 32  1  0  0  0  0
 12 13  1  0  0  0  0
 12 33  1  0  0  0  0
 12 34  1  0  0  0  0
 13 14  1  0  0  0  0
 13 19  1  0  0  0  0
 13 35  1  0  0  0  0
 14 18  1  0  0  0  0
 14 15  1  0  0  0  0
 14 36  1  0  0  0  0
 15 16  1  0  0  0  0
 15 37  1  0  0  0  0
 15 38  1  0  0  0  0
 16 17  1  0  0  0  0
 16 39  1  0  0  0  0
 16 40  1  0  0  0  0
 17 18  1  0  0  0  0
 18 41  1  0  0  0  0
 18 42  1  0  0  0  0
 19 24  1  0  0  0  0
 19 20  1  0  0  0  0
 20 21  1  0  0  0  0
 20 43  1  0  0  0  0
 20 44  1  0  0  0  0
 21 22  1  0  0  0  0
 21 45  1  0  0  0  0
 21 46  1  0  0  0  0
 22 23  1  0  0  0  0
 23 24  1  0  0  0  0
 23 47  1  0  0  0  0
 23 48  1  0  0  0  0
 24 49  1  0  0  0  0
 24 50  1  0  0  0  0
M  END
> <s_m_source_file>
AV-unprocessed.smi

> <i_m_source_file_index>
1734

> <i_lp_mmshare_version>
43012

> <i_f3d_flags>
0

> <s_epik_input>
W0NIM11jMVtjSF1bY0hdW2NIXW5jMVtOSF1DKD1PKVtOSF1bQ0gyXVtDQEhdKFtDQEBIXTJbQ0gyXVtDSDJdT1tDSDJdMilOM1tDSDJdW0NIMl1PW0NIMl1bQ0gyXTM=

> <s_epik_cmdline>
J2VwaWtfcHl0aG9uJywgJy1waCcsICc3LjAnLCAnLXRuJywgJzgnLCAnLW1hJywgJzIwMCcsICctbWV0YWxfYmluZGluZycsICctaW1hZScsICc8aW5maWxlLm1hZT4nLCAnLW9tYWUnLCAnPG91dGZpbGUubWFlPic=

> <r_epik_Ionization_Penalty>
0.125073

> <r_epik_Ionization_Penalty_Charging>
0

> <r_epik_Ionization_Penalty_Neutral>
0.125073

> <r_epik_State_Penalty>
0.114484

> <r_epik_Charging_Adjusted_Penalty>
0.114484

> <i_epik_Tot_Q>
0

> <i_epik_Tot_abs_Q>
0

> <r_epik_Metal_State_Penalty>
0.114483

> <b_epik_Metal_Only>
0

> <s_lp_Force_Field>
OPLS_2005

> <r_lp_Energy>
51.317

> <b_lp_Chiralities_Consistent>
1

> <s_lp_Variant>
AV-unprocessed.smi:1734-3

> <Gold.Version>
5.8.1

> <Gold.Id.Protein>
6NUR|6NUR_protein|mol2

> <Gold.PLP.Fitness>
44.6689

> <Gold.PLP.PLP>
-37.6190

> <Gold.PLP.part.hbond>
-1.8328

> <Gold.PLP.part.metal>
0.0000

> <Gold.PLP.part.buried>
-3.5738

> <Gold.PLP.part.nonpolar>
-33.4887

> <Gold.PLP.part.repulsive>
1.1111

> <Gold.PLP.ligand.clash>
0.0000

> <Gold.PLP.ligand.torsion>
1.0694

> <Gold.PLP.Chemscore.Hbond>
1.9353

> <Gold.PLP.Chemscore.CHOScore>
1.0000

> <Gold.PLP.Chemscore.Metal>
0.0000

> <Gold.Chemscore.Hbonds>
donor molecule, donor type, donor heavy atom, donor atom, acceptor molecule, acceptor atom, score
      L1  H     8    31       P1  7948  0.88
      L1  H    11    32       P1  7948  0.91
      L1  C     5    30       P1 10186  1.00

> <Gold.PLP.Chemscore.Internal.Correction>
0.3829

> <Gold.Rescore>
     Score         DG    S(hbond)    S(metal)    S(lipo)     H(rot)  DE(clash)    DE(int)     intcor
     15.47     -18.24       1.94        0.00      89.80       1.65       0.23       2.54       ----

> <Gold.Chemscore.Fitness>
15.4688

> <Gold.Chemscore.DG>
-18.2373

> <Gold.Chemscore.ZeroCoef>
-5.4800

> <Gold.Chemscore.Hbond>
1.9370

> <Gold.Chemscore.Metal>
0.0000

> <Gold.Chemscore.Lipo>
89.8008

> <Gold.Chemscore.Internal_Hbond>
0.0000

> <Gold.Chemscore.DEClash>
0.2280

> <Gold.Chemscore.DEInternal>
2.5405

> <Gold.Chemscore.Rot>
1.6480

> <Gold.Chemscore.Internal.Correction>
   9.000000E+99

> <Gold.Chemscore.Hbonds>
donor molecule, donor type, donor heavy atom, donor atom, acceptor molecule, acceptor atom, score
      L1  H     8    31       P1  7948  0.82
      L1  H    11    32       P1  7948  0.89

> <Gold.Chemscore.Hbond.Weighted>
-6.4695

> <Gold.Chemscore.Metal.Weighted>
-0.0000

> <Gold.Chemscore.Lipo.Weighted>
-10.5067

> <Gold.Chemscore.Internal_Hbond.Weighted>
0.0000

> <Gold.Chemscore.DEClash.Weighted>
0.2280

> <Gold.Chemscore.DEInternal.Weighted>
2.5405

> <Gold.Chemscore.Rot.Weighted>
4.2188

> <Gold.Chemscore.Internal.Correction.Weighted>
   9.000000E+99

> <Gold.Protein.RotatedTorsions>
[ 6907 6896 6895 6894 ] final   33.03 input  -60.11 | X-H torsion
[ 7974 7965 7964 7962 ] final  124.68 input  175.53 | X-H torsion
[ 8008 7997 7996 7995 ] final -154.87 input   59.86 | X-H torsion
[ 10167 10162 10161 10158 ] final  157.15 input  -65.29 | X-H torsion
[ 10718 10713 10712 10709 ] final  -59.31 input   66.30 | X-H torsion
[ 10763 10752 10751 10750 ] final -149.74 input  -60.55 | X-H torsion
[ 11005 11000 10999 10996 ] final  -15.41 input  -57.11 | X-H torsion

> <Gold.Protein.ActiveResidues>
 VAL166  LYS551  ARG553  GLY616  TRP617  ASP618  TYR619  PRO620  LYS621  CYS622 
 ASP623  PHE694  ASN695  SER759  ASP760  ASP761  ALA762  ILE779  LEU786  VAL792 
 PHE793  MET794  SER795  GLU796  ALA797  LYS798  CYS799  TRP800  GLU811  SER814 

> <Gold.Protein.RotatedAtoms>
  152.0828  134.9459  160.0572 H   0  0  0  0  0  0  0  0  0  0  0  0  # atno 6907 bound_to 6896
  152.0741  133.4116  159.4480 H   0  0  0  0  0  0  0  0  0  0  0  0  # atno 6908 bound_to 6896
  150.6836  134.2977  159.4737 H   0  0  0  0  0  0  0  0  0  0  0  0  # atno 6909 bound_to 6896
  145.0816  139.3653  143.4906 H   0  0  0  0  0  0  0  0  0  0  0  0  # atno 7974 bound_to 7965
  155.6930  140.0757  157.2440 H   0  0  0  0  0  0  0  0  0  0  0  0  # atno 8008 bound_to 7997
  154.4085  140.1661  156.2160 H   0  0  0  0  0  0  0  0  0  0  0  0  # atno 8009 bound_to 7997
  155.9435  140.3382  155.6350 H   0  0  0  0  0  0  0  0  0  0  0  0  # atno 8010 bound_to 7997
  139.4822  144.4943  151.8262 H   0  0  0  0  0  0  0  0  0  0  0  0  # atno 10167 bound_to 10162
  156.1071  130.4179  150.0697 H   0  0  0  0  0  0  0  0  0  0  0  0  # atno 10718 bound_to 10713
  154.8160  135.3301  154.7175 H   0  0  0  0  0  0  0  0  0  0  0  0  # atno 10763 bound_to 10752
  153.7816  135.6918  153.4892 H   0  0  0  0  0  0  0  0  0  0  0  0  # atno 10764 bound_to 10752
  153.1976  135.4528  155.0175 H   0  0  0  0  0  0  0  0  0  0  0  0  # atno 10765 bound_to 10752
  140.7964  133.8248  155.9428 H   0  0  0  0  0  0  0  0  0  0  0  0  # atno 11005 bound_to 11000
  146.3531  140.0609  142.8629 LP  0  0  0  0  0  0  0  0  0  0  0  0  # atno 17320 bound_to 7965
  145.1171  140.9440  143.4622 LP  0  0  0  0  0  0  0  0  0  0  0  0  # atno 17321 bound_to 7965
  140.4430  144.1960  150.5892 LP  0  0  0  0  0  0  0  0  0  0  0  0  # atno 17342 bound_to 10162
  140.4663  143.2429  151.9151 LP  0  0  0  0  0  0  0  0  0  0  0  0  # atno 17343 bound_to 10162
  156.8670  130.9511  151.3613 LP  0  0  0  0  0  0  0  0  0  0  0  0  # atno 17370 bound_to 10713
  157.6249  130.8684  149.9172 LP  0  0  0  0  0  0  0  0  0  0  0  0  # atno 17371 bound_to 10713
  140.9339  134.1987  157.4845 LP  0  0  0  0  0  0  0  0  0  0  0  0  # atno 17394 bound_to 11000
  139.8726  134.9844  156.5238 LP  0  0  0  0  0  0  0  0  0  0  0  0  # atno 17395 bound_to 11000

$$$$
