AV-unprocessed.smi:2942|AV-procd|sdf|11267|dock7
  -GOLD-   2272016163D 1   1.00000     0.00000
 Structure written by MMmdl.
 46 49  0  0  0  0  0  0  0  0  2 V2000
  152.4852  137.0984  160.2805 O   0  0  0  0  0  0  0  0  0  0  0  0
  153.0505  137.9880  160.9172 C   0  0  0  0  0  0  0  0  0  0  0  0
  153.1378  139.2481  160.4596 N   0  0  0  0  0  0  0  0  0  0  0  0
  152.5331  139.7419  159.2264 C   0  0  0  0  0  0  0  0  0  0  0  0
  153.1913  141.0370  158.7043 C   0  0  0  0  0  0  0  0  0  0  0  0
  152.5530  142.3099  159.2359 C   0  0  0  0  0  0  0  0  0  0  0  0
  152.3006  142.5033  160.6112 C   0  0  0  0  0  0  0  0  0  0  0  0
  151.6895  143.7010  161.0380 C   0  0  0  0  0  0  0  0  0  0  0  0
  151.3413  144.6780  160.0820 C   0  0  0  0  0  0  0  0  0  0  0  0
  151.6166  144.4336  158.7211 C   0  0  0  0  0  0  0  0  0  0  0  0
  152.2066  143.2756  158.3531 N   0  3  0  0  0  0  0  0  0  0  0  0
  153.6509  137.6722  162.3068 C   0  0  0  0  0  0  0  0  0  0  0  0
  152.5226  137.1445  163.2361 C   0  0  0  0  0  0  0  0  0  0  0  0
  153.0955  136.7713  164.6197 C   0  0  1  0  0  0  0  0  0  0  0  0
  154.1612  135.6680  164.4552 C   0  0  0  0  0  0  0  0  0  0  0  0
  155.2984  136.1902  163.5524 C   0  0  2  0  0  0  0  0  0  0  0  0
  155.9431  137.4330  164.1998 C   0  0  0  0  0  0  0  0  0  0  0  0
  154.8738  138.5323  164.3670 C   0  0  2  0  0  0  0  0  0  0  0  0
  153.7335  138.0166  165.2692 C   0  0  0  0  0  0  0  0  0  0  0  0
  154.3048  138.9141  162.9842 C   0  0  0  0  0  0  0  0  0  0  0  0
  154.7290  136.5629  162.1661 C   0  0  0  0  0  0  0  0  0  0  0  0
  153.6295  139.9228  161.0282 H   0  0  0  0  0  0  0  0  0  0  0  0
  152.6387  138.9570  158.4772 H   0  0  0  0  0  0  0  0  0  0  0  0
  151.4612  139.8901  159.3668 H   0  0  0  0  0  0  0  0  0  0  0  0
  154.2508  141.0365  158.9624 H   0  0  0  0  0  0  0  0  0  0  0  0
  153.1516  141.0576  157.6143 H   0  0  0  0  0  0  0  0  0  0  0  0
  152.5682  141.7434  161.3310 H   0  0  0  0  0  0  0  0  0  0  0  0
  151.4877  143.8671  162.0861 H   0  0  0  0  0  0  0  0  0  0  0  0
  150.8697  145.6003  160.3883 H   0  0  0  0  0  0  0  0  0  0  0  0
  151.3835  145.1223  157.9220 H   0  0  0  0  0  0  0  0  0  0  0  0
  151.7428  137.8985  163.3531 H   0  0  0  0  0  0  0  0  0  0  0  0
  152.0371  136.2705  162.7988 H   0  0  0  0  0  0  0  0  0  0  0  0
  152.2906  136.4039  165.2569 H   0  0  0  0  0  0  0  0  0  0  0  0
  154.5555  135.3749  165.4291 H   0  0  0  0  0  0  0  0  0  0  0  0
  153.7151  134.7725  164.0210 H   0  0  0  0  0  0  0  0  0  0  0  0
  156.0527  135.4115  163.4357 H   0  0  0  0  0  0  0  0  0  0  0  0
  156.3737  137.1743  165.1681 H   0  0  0  0  0  0  0  0  0  0  0  0
  156.7664  137.7961  163.5833 H   0  0  0  0  0  0  0  0  0  0  0  0
  155.3283  139.4108  164.8262 H   0  0  0  0  0  0  0  0  0  0  0  0
  152.9830  138.7949  165.4128 H   0  0  0  0  0  0  0  0  0  0  0  0
  154.1171  137.7715  166.2605 H   0  0  0  0  0  0  0  0  0  0  0  0
  155.1072  139.3141  162.3618 H   0  0  0  0  0  0  0  0  0  0  0  0
  153.5758  139.7170  163.1052 H   0  0  0  0  0  0  0  0  0  0  0  0
  154.3105  135.6719  161.6952 H   0  0  0  0  0  0  0  0  0  0  0  0
  155.5369  136.8998  161.5146 H   0  0  0  0  0  0  0  0  0  0  0  0
  152.3943  143.1176  157.3626 H   0  0  0  0  0  0  0  0  0  0  0  0
  1  2  2  0  0  0  0
  2  3  1  0  0  0  0
  2 12  1  0  0  0  0
  3  4  1  0  0  0  0
  3 22  1  0  0  0  0
  4  5  1  0  0  0  0
  4 23  1  0  0  0  0
  4 24  1  0  0  0  0
  5  6  1  0  0  0  0
  5 25  1  0  0  0  0
  5 26  1  0  0  0  0
  6 11  1  0  0  0  0
  6  7  2  0  0  0  0
  7  8  1  0  0  0  0
  7 27  1  0  0  0  0
  8  9  2  0  0  0  0
  8 28  1  0  0  0  0
  9 10  1  0  0  0  0
  9 29  1  0  0  0  0
 10 11  2  0  0  0  0
 10 30  1  0  0  0  0
 11 46  1  0  0  0  0
 12 20  1  0  0  0  0
 12 21  1  0  0  0  0
 12 13  1  0  0  0  0
 13 14  1  0  0  0  0
 13 31  1  0  0  0  0
 13 32  1  0  0  0  0
 14 19  1  0  0  0  0
 14 15  1  0  0  0  0
 14 33  1  0  0  0  0
 15 16  1  0  0  0  0
 15 34  1  0  0  0  0
 15 35  1  0  0  0  0
 16 17  1  0  0  0  0
 16 21  1  0  0  0  0
 16 36  1  0  0  0  0
 17 18  1  0  0  0  0
 17 37  1  0  0  0  0
 17 38  1  0  0  0  0
 18 19  1  0  0  0  0
 18 20  1  0  0  0  0
 18 39  1  0  0  0  0
 19 40  1  0  0  0  0
 19 41  1  0  0  0  0
 20 42  1  0  0  0  0
 20 43  1  0  0  0  0
 21 44  1  0  0  0  0
 21 45  1  0  0  0  0
M  CHG  1  11   1
M  END
> <s_m_source_file>
AV-unprocessed.smi

> <i_m_source_file_index>
2942

> <i_lp_mmshare_version>
43012

> <i_f3d_flags>
0

> <s_epik_input>
W0NIMl0xW0NASF0oW0NIMl0yKVtDSDJdW0NASF0oW0NIMl0zKVtDSDJdW0NAQEhdMVtDSDJdQzIzQyg9TylbTkhdW0NIMl1bQ0gyXWM0W2NIXVtjSF1bY0hdW2NIXW40

> <s_epik_cmdline>
J2VwaWtfcHl0aG9uJywgJy1waCcsICc3LjAnLCAnLXRuJywgJzgnLCAnLW1hJywgJzIwMCcsICctbWV0YWxfYmluZGluZycsICctaW1hZScsICc8aW5maWxlLm1hZT4nLCAnLW9tYWUnLCAnPG91dGZpbGUubWFlPic=

> <r_epik_Ionization_Penalty>
1.81477

> <r_epik_Ionization_Penalty_Charging>
1.81477

> <r_epik_Ionization_Penalty_Neutral>
2.68418e-08

> <r_epik_State_Penalty>
1.92951

> <r_epik_Charging_Adjusted_Penalty>
3.74429

> <i_epik_Tot_Q>
1

> <i_epik_Tot_abs_Q>
1

> <r_epik_Metal_State_Penalty>
1.95679

> <b_epik_Metal_Only>
0

> <s_lp_Force_Field>
OPLS_2005

> <r_lp_Energy>
40.8466

> <b_lp_Chiralities_Consistent>
1

> <s_lp_Variant>
AV-unprocessed.smi:2942-2

> <Gold.Version>
5.8.1

> <Gold.Id.Protein>
6NUR|6NUR_protein|mol2

> <Gold.PLP.Fitness>
43.9949

> <Gold.PLP.PLP>
-41.8814

> <Gold.PLP.part.hbond>
-0.9447

> <Gold.PLP.part.metal>
0.0000

> <Gold.PLP.part.buried>
-5.1059

> <Gold.PLP.part.nonpolar>
-37.0782

> <Gold.PLP.part.repulsive>
0.0901

> <Gold.PLP.ligand.clash>
0.0000

> <Gold.PLP.ligand.torsion>
0.4393

> <Gold.PLP.Chemscore.Hbond>
0.9913

> <Gold.PLP.Chemscore.CHOScore>
0.0000

> <Gold.PLP.Chemscore.Metal>
0.0000

> <Gold.Chemscore.Hbonds>
donor molecule, donor type, donor heavy atom, donor atom, acceptor molecule, acceptor atom, score
      P1  H  6896  6907       L1     1  0.88

> <Gold.PLP.Chemscore.Internal.Correction>
0.0183

> <Gold.Rescore>
     Score         DG    S(hbond)    S(metal)    S(lipo)     H(rot)  DE(clash)    DE(int)     intcor
     20.50     -20.97       0.93        0.00     136.69       1.41       0.09       0.38       ----

> <Gold.Chemscore.Fitness>
20.4972

> <Gold.Chemscore.DG>
-20.9738

> <Gold.Chemscore.ZeroCoef>
-5.4800

> <Gold.Chemscore.Hbond>
0.9347

> <Gold.Chemscore.Metal>
0.0000

> <Gold.Chemscore.Lipo>
136.6930

> <Gold.Chemscore.Internal_Hbond>
0.0000

> <Gold.Chemscore.DEClash>
0.0927

> <Gold.Chemscore.DEInternal>
0.3839

> <Gold.Chemscore.Rot>
1.4145

> <Gold.Chemscore.Internal.Correction>
   9.000000E+99

> <Gold.Chemscore.Hbonds>
donor molecule, donor type, donor heavy atom, donor atom, acceptor molecule, acceptor atom, score
      P1  H  6896  6907       L1     1  0.84

> <Gold.Chemscore.Hbond.Weighted>
-3.1218

> <Gold.Chemscore.Metal.Weighted>
-0.0000

> <Gold.Chemscore.Lipo.Weighted>
-15.9931

> <Gold.Chemscore.Internal_Hbond.Weighted>
0.0000

> <Gold.Chemscore.DEClash.Weighted>
0.0927

> <Gold.Chemscore.DEInternal.Weighted>
0.3839

> <Gold.Chemscore.Rot.Weighted>
3.6210

> <Gold.Chemscore.Internal.Correction.Weighted>
   9.000000E+99

> <Gold.Protein.RotatedTorsions>
[ 6907 6896 6895 6894 ] final   18.67 input  -60.11 | X-H torsion
[ 7974 7965 7964 7962 ] final  -45.16 input  175.53 | X-H torsion
[ 8008 7997 7996 7995 ] final  -81.61 input   59.86 | X-H torsion
[ 10167 10162 10161 10158 ] final   11.48 input  -65.29 | X-H torsion
[ 10718 10713 10712 10709 ] final  -99.91 input   66.30 | X-H torsion
[ 10763 10752 10751 10750 ] final   71.60 input  -60.55 | X-H torsion
[ 11005 11000 10999 10996 ] final  124.40 input  -57.11 | X-H torsion

> <Gold.Protein.ActiveResidues>
 VAL166  LYS551  ARG553  GLY616  TRP617  ASP618  TYR619  PRO620  LYS621  CYS622 
 ASP623  PHE694  ASN695  SER759  ASP760  ASP761  ALA762  ILE779  LEU786  VAL792 
 PHE793  MET794  SER795  GLU796  ALA797  LYS798  CYS799  TRP800  GLU811  SER814 

> <Gold.Protein.RotatedAtoms>
  151.8689  135.0497  160.0476 H   0  0  0  0  0  0  0  0  0  0  0  0  # atno 6907 bound_to 6896
  152.2604  133.5288  159.5386 H   0  0  0  0  0  0  0  0  0  0  0  0  # atno 6908 bound_to 6896
  150.7114  134.0754  159.3921 H   0  0  0  0  0  0  0  0  0  0  0  0  # atno 6909 bound_to 6896
  145.9849  140.7244  142.9345 H   0  0  0  0  0  0  0  0  0  0  0  0  # atno 7974 bound_to 7965
  154.6001  140.0645  156.9356 H   0  0  0  0  0  0  0  0  0  0  0  0  # atno 8008 bound_to 7997
  155.2147  140.3325  155.4305 H   0  0  0  0  0  0  0  0  0  0  0  0  # atno 8009 bound_to 7997
  156.2312  140.1842  156.7221 H   0  0  0  0  0  0  0  0  0  0  0  0  # atno 8010 bound_to 7997
  140.6129  143.8370  150.7085 H   0  0  0  0  0  0  0  0  0  0  0  0  # atno 10167 bound_to 10162
  156.0147  130.5304  150.6739 H   0  0  0  0  0  0  0  0  0  0  0  0  # atno 10718 bound_to 10713
  153.0409  135.5131  154.7618 H   0  0  0  0  0  0  0  0  0  0  0  0  # atno 10763 bound_to 10752
  154.6557  135.2931  154.9933 H   0  0  0  0  0  0  0  0  0  0  0  0  # atno 10764 bound_to 10752
  154.0802  135.6665  153.4889 H   0  0  0  0  0  0  0  0  0  0  0  0  # atno 10765 bound_to 10752
  139.9357  134.9639  156.8403 H   0  0  0  0  0  0  0  0  0  0  0  0  # atno 11005 bound_to 11000
  144.6872  140.2970  143.7269 LP  0  0  0  0  0  0  0  0  0  0  0  0  # atno 17320 bound_to 7965
  145.7716  139.1859  143.2209 LP  0  0  0  0  0  0  0  0  0  0  0  0  # atno 17321 bound_to 7965
  140.1942  143.4011  152.1840 LP  0  0  0  0  0  0  0  0  0  0  0  0  # atno 17342 bound_to 10162
  139.5375  144.7224  151.4843 LP  0  0  0  0  0  0  0  0  0  0  0  0  # atno 17343 bound_to 10162
  157.4456  131.0866  151.0899 LP  0  0  0  0  0  0  0  0  0  0  0  0  # atno 17370 bound_to 10713
  157.1430  130.6151  149.5560 LP  0  0  0  0  0  0  0  0  0  0  0  0  # atno 17371 bound_to 10713
  140.6083  134.0107  155.7566 LP  0  0  0  0  0  0  0  0  0  0  0  0  # atno 17394 bound_to 11000
  141.0969  133.9829  157.3145 LP  0  0  0  0  0  0  0  0  0  0  0  0  # atno 17395 bound_to 11000

$$$$
