AV-unprocessed.smi:213|AV-procd|sdf|1638|dock5
  -GOLD-   2262020 03D 1   1.00000     0.00000
 Structure written by MMmdl.
 59 62  0  0  0  0  0  0  0  0  2 V2000
  149.0410  133.4899  154.9902 C   0  0  0  0  0  0  0  0  0  0  0  0
  148.7247  134.9925  154.8760 C   0  0  1  0  0  0  0  0  0  0  0  0
  147.2200  135.2638  154.6518 C   0  0  0  0  0  0  0  0  0  0  0  0
  146.8001  135.0595  153.2417 N   0  3  0  0  0  0  0  0  0  0  0  0
  146.6560  133.6252  152.8951 C   0  0  0  0  0  0  0  0  0  0  0  0
  146.2806  133.4640  151.4122 C   0  0  0  0  0  0  0  0  0  0  0  0
  145.0836  134.1826  151.1423 O   0  0  0  0  0  0  0  0  0  0  0  0
  145.2327  135.5753  151.3875 C   0  0  0  0  0  0  0  0  0  0  0  0
  145.5724  135.8062  152.8698 C   0  0  0  0  0  0  0  0  0  0  0  0
  149.2286  135.7201  156.0476 N   0  0  0  0  0  0  0  0  0  0  0  0
  149.4992  135.0205  157.3006 C   0  0  0  0  0  0  0  0  0  0  0  0
  149.8537  136.9070  155.8332 C   0  0  0  0  0  0  0  0  0  0  0  0
  150.1053  137.2672  154.5471 N   0  0  0  0  0  0  0  0  0  0  0  0
  150.7086  138.4275  154.2739 C   0  0  0  0  0  0  0  0  0  0  0  0
  151.1403  139.3627  155.1211 N   0  0  0  0  0  0  0  0  0  0  0  0
  150.8963  139.0075  156.4146 C   0  0  0  0  0  0  0  0  0  0  0  0
  150.2624  137.8114  156.8584 C   0  0  0  0  0  0  0  0  0  0  0  0
  150.2049  137.8036  158.2486 N   0  0  0  0  0  0  0  0  0  0  0  0
  150.7638  138.9285  158.6028 C   0  0  0  0  0  0  0  0  0  0  0  0
  151.2104  139.7108  157.5632 N   0  0  0  0  0  0  0  0  0  0  0  0
  151.8731  140.9994  157.6610 C   0  0  0  0  0  0  0  0  0  0  0  0
  151.4377  141.7887  158.9115 C   0  0  2  0  0  0  0  0  0  0  0  0
  150.1044  142.2315  158.7403 O   0  0  0  0  0  0  0  0  0  0  0  0
  152.3376  143.0096  159.1766 C   0  0  1  0  0  0  0  0  0  0  0  0
  152.3700  144.0329  158.0384 C   0  0  0  0  0  0  0  0  0  0  0  0
  152.6857  145.3480  158.7358 C   0  0  0  0  0  0  0  0  0  0  0  0
  152.4973  145.0374  160.2224 C   0  0  0  0  0  0  0  0  0  0  0  0
  151.8287  143.7851  160.2509 O   0  0  0  0  0  0  0  0  0  0  0  0
  148.7697  132.9572  154.0788 H   0  0  0  0  0  0  0  0  0  0  0  0
  148.5017  133.0260  155.8163 H   0  0  0  0  0  0  0  0  0  0  0  0
  150.1068  133.3267  155.1548 H   0  0  0  0  0  0  0  0  0  0  0  0
  149.2576  135.3487  153.9962 H   0  0  0  0  0  0  0  0  0  0  0  0
  146.6421  134.5943  155.2894 H   0  0  0  0  0  0  0  0  0  0  0  0
  146.9632  136.2789  154.9599 H   0  0  0  0  0  0  0  0  0  0  0  0
  147.5903  133.0986  153.0935 H   0  0  0  0  0  0  0  0  0  0  0  0
  145.8905  133.1710  153.5264 H   0  0  0  0  0  0  0  0  0  0  0  0
  147.0856  133.8170  150.7654 H   0  0  0  0  0  0  0  0  0  0  0  0
  146.1216  132.4114  151.1769 H   0  0  0  0  0  0  0  0  0  0  0  0
  146.0073  135.9907  150.7406 H   0  0  0  0  0  0  0  0  0  0  0  0
  144.3008  136.0802  151.1324 H   0  0  0  0  0  0  0  0  0  0  0  0
  144.7408  135.4800  153.4963 H   0  0  0  0  0  0  0  0  0  0  0  0
  145.7029  136.8735  153.0436 H   0  0  0  0  0  0  0  0  0  0  0  0
  149.6230  135.7259  158.1231 H   0  0  0  0  0  0  0  0  0  0  0  0
  150.4063  134.4211  157.2209 H   0  0  0  0  0  0  0  0  0  0  0  0
  148.6784  134.3566  157.5673 H   0  0  0  0  0  0  0  0  0  0  0  0
  150.8674  138.6373  153.2263 H   0  0  0  0  0  0  0  0  0  0  0  0
  150.8722  139.2161  159.6386 H   0  0  0  0  0  0  0  0  0  0  0  0
  152.9493  140.8233  157.6788 H   0  0  0  0  0  0  0  0  0  0  0  0
  151.6659  141.5707  156.7550 H   0  0  0  0  0  0  0  0  0  0  0  0
  151.4636  141.1293  159.7802 H   0  0  0  0  0  0  0  0  0  0  0  0
  149.5582  141.7889  159.3715 H   0  0  0  0  0  0  0  0  0  0  0  0
  153.3532  142.6921  159.4221 H   0  0  0  0  0  0  0  0  0  0  0  0
  153.0981  143.7775  157.2680 H   0  0  0  0  0  0  0  0  0  0  0  0
  151.3907  144.1011  157.5625 H   0  0  0  0  0  0  0  0  0  0  0  0
  153.7052  145.6790  158.5351 H   0  0  0  0  0  0  0  0  0  0  0  0
  152.0056  146.1323  158.4021 H   0  0  0  0  0  0  0  0  0  0  0  0
  153.4637  144.9388  160.7190 H   0  0  0  0  0  0  0  0  0  0  0  0
  151.9239  145.8045  160.7431 H   0  0  0  0  0  0  0  0  0  0  0  0
  147.5496  135.4151  152.6654 H   0  0  0  0  0  0  0  0  0  0  0  0
  1  2  1  0  0  0  0
  1 29  1  0  0  0  0
  1 30  1  0  0  0  0
  1 31  1  0  0  0  0
  2  3  1  0  0  0  0
  2 10  1  0  0  0  0
  2 32  1  0  0  0  0
  3  4  1  0  0  0  0
  3 33  1  0  0  0  0
  3 34  1  0  0  0  0
  4  9  1  0  0  0  0
  4  5  1  0  0  0  0
  4 59  1  0  0  0  0
  5  6  1  0  0  0  0
  5 35  1  0  0  0  0
  5 36  1  0  0  0  0
  6  7  1  0  0  0  0
  6 37  1  0  0  0  0
  6 38  1  0  0  0  0
  7  8  1  0  0  0  0
  8  9  1  0  0  0  0
  8 39  1  0  0  0  0
  8 40  1  0  0  0  0
  9 41  1  0  0  0  0
  9 42  1  0  0  0  0
 10 11  1  0  0  0  0
 10 12  1  0  0  0  0
 11 43  1  0  0  0  0
 11 44  1  0  0  0  0
 11 45  1  0  0  0  0
 12 17  1  0  0  0  0
 12 13  2  0  0  0  0
 13 14  1  0  0  0  0
 14 15  2  0  0  0  0
 14 46  1  0  0  0  0
 15 16  1  0  0  0  0
 16 20  1  0  0  0  0
 16 17  2  0  0  0  0
 17 18  1  0  0  0  0
 18 19  2  0  0  0  0
 19 20  1  0  0  0  0
 19 47  1  0  0  0  0
 20 21  1  0  0  0  0
 21 22  1  0  0  0  0
 21 48  1  0  0  0  0
 21 49  1  0  0  0  0
 22 23  1  0  0  0  0
 22 24  1  0  0  0  0
 22 50  1  0  0  0  0
 23 51  1  0  0  0  0
 24 28  1  0  0  0  0
 24 25  1  0  0  0  0
 24 52  1  0  0  0  0
 25 26  1  0  0  0  0
 25 53  1  0  0  0  0
 25 54  1  0  0  0  0
 26 27  1  0  0  0  0
 26 55  1  0  0  0  0
 26 56  1  0  0  0  0
 27 28  1  0  0  0  0
 27 57  1  0  0  0  0
 27 58  1  0  0  0  0
M  CHG  1   4   1
M  END
> <s_m_source_file>
AV-unprocessed.smi

> <i_m_source_file_index>
213

> <i_lp_mmshare_version>
43012

> <i_f3d_flags>
0

> <s_epik_input>
W0NIMl0xW0NIMl1PW0NIMl1bQ0gyXU4xW0NIMl1bQ0BASF0oW0NIM10pTihbQ0gzXSljKG5bY0hdbjIpYyhjMjMpbltjSF1uM1tDSDJdW0NASF0oW09IXSlbQ0BASF00W0NIMl1bQ0gyXVtDSDJdTzQ=

> <s_epik_cmdline>
J2VwaWtfcHl0aG9uJywgJy1waCcsICc3LjAnLCAnLXRuJywgJzgnLCAnLW1hJywgJzIwMCcsICctbWV0YWxfYmluZGluZycsICctaW1hZScsICc8aW5maWxlLm1hZT4nLCAnLW9tYWUnLCAnPG91dGZpbGUubWFlPic=

> <r_lp_tautomer_probability>
1

> <r_epik_Ionization_Penalty>
0.399679

> <r_epik_Ionization_Penalty_Charging>
0.399433

> <r_epik_Ionization_Penalty_Neutral>
0.000246213

> <r_epik_State_Penalty>
0.286032

> <r_epik_Charging_Adjusted_Penalty>
0.685465

> <i_epik_Tot_Q>
1

> <i_epik_Tot_abs_Q>
1

> <r_epik_Metal_State_Penalty>
0.286072

> <b_epik_Metal_Only>
0

> <s_lp_Force_Field>
OPLS_2005

> <r_lp_Energy>
45.5564

> <b_lp_Chiralities_Consistent>
1

> <s_lp_Variant>
AV-unprocessed.smi:213-6

> <Gold.Version>
5.8.1

> <Gold.Id.Protein>
6NUR|6NUR_protein|mol2

> <Gold.PLP.Fitness>
52.6014

> <Gold.PLP.PLP>
-43.9088

> <Gold.PLP.part.hbond>
-2.8829

> <Gold.PLP.part.metal>
0.0000

> <Gold.PLP.part.buried>
-6.1813

> <Gold.PLP.part.nonpolar>
-36.0837

> <Gold.PLP.part.repulsive>
1.5400

> <Gold.PLP.ligand.clash>
0.0000

> <Gold.PLP.ligand.torsion>
1.5888

> <Gold.PLP.Chemscore.Hbond>
2.6598

> <Gold.PLP.Chemscore.CHOScore>
1.0000

> <Gold.PLP.Chemscore.Metal>
0.0000

> <Gold.Chemscore.Hbonds>
donor molecule, donor type, donor heavy atom, donor atom, acceptor molecule, acceptor atom, score
      L1  H     4    59       P1  7948  2.00
      P1  H  7989  7998       L1    15  0.30
      L1  C    14    46       P1  7957  0.39

> <Gold.PLP.Chemscore.Internal.Correction>
0.8909

> <Gold.Rescore>
     Score         DG    S(hbond)    S(metal)    S(lipo)     H(rot)  DE(clash)    DE(int)     intcor
     10.86     -14.02       1.05        0.00     104.77       2.83       0.51       2.65       ----

> <Gold.Chemscore.Fitness>
10.8629

> <Gold.Chemscore.DG>
-14.0219

> <Gold.Chemscore.ZeroCoef>
-5.4800

> <Gold.Chemscore.Hbond>
1.0530

> <Gold.Chemscore.Metal>
0.0000

> <Gold.Chemscore.Lipo>
104.7677

> <Gold.Chemscore.Internal_Hbond>
0.0000

> <Gold.Chemscore.DEClash>
0.5099

> <Gold.Chemscore.DEInternal>
2.6490

> <Gold.Chemscore.Rot>
2.8254

> <Gold.Chemscore.Internal.Correction>
   9.000000E+99

> <Gold.Chemscore.Hbonds>
donor molecule, donor type, donor heavy atom, donor atom, acceptor molecule, acceptor atom, score
      L1  H     4    59       P1  7948  1.00
      P1  H  7989  7998       L1    15  0.04

> <Gold.Chemscore.Hbond.Weighted>
-3.5170

> <Gold.Chemscore.Metal.Weighted>
-0.0000

> <Gold.Chemscore.Lipo.Weighted>
-12.2578

> <Gold.Chemscore.Internal_Hbond.Weighted>
0.0000

> <Gold.Chemscore.DEClash.Weighted>
0.5099

> <Gold.Chemscore.DEInternal.Weighted>
2.6490

> <Gold.Chemscore.Rot.Weighted>
7.2330

> <Gold.Chemscore.Internal.Correction.Weighted>
   9.000000E+99

> <Gold.Protein.RotatedTorsions>
[ 6907 6896 6895 6894 ] final   17.96 input  -60.11 | X-H torsion
[ 7974 7965 7964 7962 ] final  -54.34 input  175.53 | X-H torsion
[ 8008 7997 7996 7995 ] final  166.60 input   59.86 | X-H torsion
[ 10167 10162 10161 10158 ] final  -53.96 input  -65.29 | X-H torsion
[ 10718 10713 10712 10709 ] final -121.70 input   66.30 | X-H torsion
[ 10763 10752 10751 10750 ] final   38.50 input  -60.55 | X-H torsion
[ 11005 11000 10999 10996 ] final  161.48 input  -57.11 | X-H torsion

> <Gold.Protein.ActiveResidues>
 VAL166  LYS551  ARG553  GLY616  TRP617  ASP618  TYR619  PRO620  LYS621  CYS622 
 ASP623  PHE694  ASN695  SER759  ASP760  ASP761  ALA762  ILE779  LEU786  VAL792 
 PHE793  MET794  SER795  GLU796  ALA797  LYS798  CYS799  TRP800  GLU811  SER814 

> <Gold.Protein.RotatedAtoms>
  151.8578  135.0535  160.0465 H   0  0  0  0  0  0  0  0  0  0  0  0  # atno 6907 bound_to 6896
  152.2686  133.5358  159.5434 H   0  0  0  0  0  0  0  0  0  0  0  0  # atno 6908 bound_to 6896
  150.7143  134.0645  159.3885 H   0  0  0  0  0  0  0  0  0  0  0  0  # atno 6909 bound_to 6896
  145.8867  140.8102  142.9812 H   0  0  0  0  0  0  0  0  0  0  0  0  # atno 7974 bound_to 7965
  156.1705  140.1639  156.8456 H   0  0  0  0  0  0  0  0  0  0  0  0  # atno 8008 bound_to 7997
  154.5251  140.0769  156.8279 H   0  0  0  0  0  0  0  0  0  0  0  0  # atno 8009 bound_to 7997
  155.3523  140.3390  155.4242 H   0  0  0  0  0  0  0  0  0  0  0  0  # atno 8010 bound_to 7997
  140.6456  143.2533  151.4868 H   0  0  0  0  0  0  0  0  0  0  0  0  # atno 10167 bound_to 10162
  156.1359  130.6430  150.9694 H   0  0  0  0  0  0  0  0  0  0  0  0  # atno 10718 bound_to 10713
  152.9999  135.6247  154.2315 H   0  0  0  0  0  0  0  0  0  0  0  0  # atno 10763 bound_to 10752
  154.2057  135.2802  155.2977 H   0  0  0  0  0  0  0  0  0  0  0  0  # atno 10764 bound_to 10752
  154.5648  135.5694  153.7099 H   0  0  0  0  0  0  0  0  0  0  0  0  # atno 10765 bound_to 10752
  140.2162  134.8230  157.3173 H   0  0  0  0  0  0  0  0  0  0  0  0  # atno 11005 bound_to 11000
  144.6729  140.1467  143.7433 LP  0  0  0  0  0  0  0  0  0  0  0  0  # atno 17320 bound_to 7965
  145.8958  139.2402  143.1523 LP  0  0  0  0  0  0  0  0  0  0  0  0  # atno 17321 bound_to 7965
  139.5667  144.2026  152.1775 LP  0  0  0  0  0  0  0  0  0  0  0  0  # atno 17342 bound_to 10162
  140.1310  144.5288  150.6803 LP  0  0  0  0  0  0  0  0  0  0  0  0  # atno 17343 bound_to 10162
  157.6531  131.0894  150.8007 LP  0  0  0  0  0  0  0  0  0  0  0  0  # atno 17370 bound_to 10713
  156.8087  130.4945  149.5359 LP  0  0  0  0  0  0  0  0  0  0  0  0  # atno 17371 bound_to 10713
  140.1898  134.4386  155.7722 LP  0  0  0  0  0  0  0  0  0  0  0  0  # atno 17394 bound_to 11000
  141.2225  133.7022  156.8008 LP  0  0  0  0  0  0  0  0  0  0  0  0  # atno 17395 bound_to 11000

$$$$
