AV-unprocessed.smi:157|AV-procd|sdf|1307|dock9
  -GOLD-   2262018593D 1   1.00000     0.00000
 Structure written by MMmdl.
 36 38  0  0  0  0  0  0  0  0  2 V2000
  155.5964  138.6116  154.7205 O   0  0  0  0  0  0  0  0  0  0  0  0
  154.3539  138.6221  154.0506 C   0  0  0  0  0  0  0  0  0  0  0  0
  153.2171  138.3405  155.0453 C   0  0  1  0  0  0  0  0  0  0  0  0
  153.0953  139.4427  155.9384 O   0  0  0  0  0  0  0  0  0  0  0  0
  151.7786  139.4946  156.3624 C   0  0  1  0  0  0  0  0  0  0  0  0
  151.5054  140.8598  156.9043 N   0  0  0  0  0  0  0  0  0  0  0  0
  150.7551  141.8036  156.2997 C   0  0  0  0  0  0  0  0  0  0  0  0
  150.6453  142.9324  156.9795 N   0  3  0  0  0  0  0  0  0  0  0  0
  151.3650  142.7600  158.1429 C   0  0  0  0  0  0  0  0  0  0  0  0
  151.8981  141.4699  158.0765 C   0  0  0  0  0  0  0  0  0  0  0  0
  152.7103  140.7884  158.9973 N   0  0  0  0  0  0  0  0  0  0  0  0
  153.3524  141.3854  159.9479 C   0  0  0  0  0  0  0  0  0  0  0  0
  153.3176  142.7188  160.3201 N   0  0  0  0  0  0  0  0  0  0  0  0
  152.0797  143.4599  160.4837 C   0  0  0  0  0  0  0  0  0  0  0  0
  151.4205  143.8601  159.1570 C   0  0  1  0  0  0  0  0  0  0  0  0
  152.0620  145.0188  158.6653 O   0  0  0  0  0  0  0  0  0  0  0  0
  150.9417  139.2029  155.1243 C   0  0  0  0  0  0  0  0  0  0  0  0
  151.8302  138.2200  154.3733 C   0  0  2  0  0  0  0  0  0  0  0  0
  151.3255  136.9060  154.5079 O   0  0  0  0  0  0  0  0  0  0  0  0
  153.4287  137.4419  155.6290 H   0  0  0  0  0  0  0  0  0  0  0  0
  151.6051  138.7961  157.1831 H   0  0  0  0  0  0  0  0  0  0  0  0
  150.3947  144.1579  159.3767 H   0  0  0  0  0  0  0  0  0  0  0  0
  151.8624  138.4786  153.3139 H   0  0  0  0  0  0  0  0  0  0  0  0
  155.9503  137.7361  154.6859 H   0  0  0  0  0  0  0  0  0  0  0  0
  154.2053  139.5719  153.5358 H   0  0  0  0  0  0  0  0  0  0  0  0
  154.3891  137.8416  153.2898 H   0  0  0  0  0  0  0  0  0  0  0  0
  150.2859  141.6459  155.3451 H   0  0  0  0  0  0  0  0  0  0  0  0
  154.0232  140.8012  160.5793 H   0  0  0  0  0  0  0  0  0  0  0  0
  154.0413  143.0689  160.9320 H   0  0  0  0  0  0  0  0  0  0  0  0
  151.3910  142.8235  161.0416 H   0  0  0  0  0  0  0  0  0  0  0  0
  152.2551  144.3354  161.1100 H   0  0  0  0  0  0  0  0  0  0  0  0
  152.7529  144.7573  158.0764 H   0  0  0  0  0  0  0  0  0  0  0  0
  149.9576  138.8181  155.3956 H   0  0  0  0  0  0  0  0  0  0  0  0
  150.8143  140.1132  154.5377 H   0  0  0  0  0  0  0  0  0  0  0  0
  150.8736  136.8385  155.3350 H   0  0  0  0  0  0  0  0  0  0  0  0
  150.1245  143.7540  156.7002 H   0  0  0  0  0  0  0  0  0  0  0  0
  1  2  1  0  0  0  0
  1 24  1  0  0  0  0
  2  3  1  0  0  0  0
  2 25  1  0  0  0  0
  2 26  1  0  0  0  0
  3 20  1  0  0  0  0
  3 18  1  0  0  0  0
  3  4  1  0  0  0  0
  4  5  1  0  0  0  0
  5 21  1  0  0  0  0
  5  6  1  0  0  0  0
  5 17  1  0  0  0  0
  6 10  1  0  0  0  0
  6  7  1  0  0  0  0
  7  8  2  0  0  0  0
  7 27  1  0  0  0  0
  8  9  1  0  0  0  0
  8 36  1  0  0  0  0
  9 15  1  0  0  0  0
  9 10  2  0  0  0  0
 10 11  1  0  0  0  0
 11 12  2  0  0  0  0
 12 13  1  0  0  0  0
 12 28  1  0  0  0  0
 13 14  1  0  0  0  0
 13 29  1  0  0  0  0
 14 15  1  0  0  0  0
 14 30  1  0  0  0  0
 14 31  1  0  0  0  0
 15 22  1  0  0  0  0
 15 16  1  0  0  0  0
 16 32  1  0  0  0  0
 17 18  1  0  0  0  0
 17 33  1  0  0  0  0
 17 34  1  0  0  0  0
 18 23  1  0  0  0  0
 18 19  1  0  0  0  0
 19 35  1  0  0  0  0
M  CHG  1   8   1
M  END
> <s_m_source_file>
AV-unprocessed.smi

> <i_m_source_file_index>
157

> <i_lp_mmshare_version>
43012

> <i_f3d_flags>
0

> <s_epik_input>
W09IXVtDSDJdW0NASF0xT1tDQEhdKFtDSDJdW0NAQEhdMVtPSF0pbihbY0hdbjIpYyhjMjMpTj1bQ0hdW05IXVtDSDJdW0NASF0zW09IXQ==

> <s_epik_cmdline>
J2VwaWtfcHl0aG9uJywgJy1waCcsICc3LjAnLCAnLXRuJywgJzgnLCAnLW1hJywgJzIwMCcsICctbWV0YWxfYmluZGluZycsICctaW1hZScsICc8aW5maWxlLm1hZT4nLCAnLW9tYWUnLCAnPG91dGZpbGUubWFlPic=

> <r_epik_Ionization_Penalty>
1.68594

> <r_epik_Ionization_Penalty_Charging>
0

> <r_epik_Ionization_Penalty_Neutral>
1.68594

> <r_epik_State_Penalty>
1.79006

> <r_epik_Charging_Adjusted_Penalty>
1.79006

> <i_epik_Tot_Q>
1

> <i_epik_Tot_abs_Q>
1

> <r_epik_Metal_State_Penalty>
5.85324

> <b_epik_Metal_Only>
0

> <s_epik_Chemistry_Notes>
This compound has an imine and may undergo hydrolysis. This compound contains an acetal/aminal-like group ( X-CH(R)-Y where X, Y are N, S, or O) that may be acid/base labile, releasing an aldehyde.

> <s_lp_Force_Field>
OPLS_2005

> <r_lp_Energy>
53.8219

> <b_lp_Chiralities_Consistent>
1

> <s_lp_Variant>
AV-unprocessed.smi:157-17

> <Gold.Version>
5.8.1

> <Gold.Id.Protein>
6NUR|6NUR_protein|mol2

> <Gold.PLP.Fitness>
50.3818

> <Gold.PLP.PLP>
-37.5519

> <Gold.PLP.part.hbond>
-4.3695

> <Gold.PLP.part.metal>
0.0000

> <Gold.PLP.part.buried>
-7.1310

> <Gold.PLP.part.nonpolar>
-26.8116

> <Gold.PLP.part.repulsive>
0.0457

> <Gold.PLP.ligand.clash>
0.0000

> <Gold.PLP.ligand.torsion>
0.2422

> <Gold.PLP.Chemscore.Hbond>
4.4310

> <Gold.PLP.Chemscore.CHOScore>
0.0000

> <Gold.PLP.Chemscore.Metal>
0.0000

> <Gold.Chemscore.Hbonds>
donor molecule, donor type, donor heavy atom, donor atom, acceptor molecule, acceptor atom, score
      L1  H     8    36       P1  8028  2.00
      P1  H  7997  8008       L1     1  0.43
      P1  H  7997  8010       L1     4  0.98
      P1  H 10752 10765       L1    19  0.96

> <Gold.PLP.Chemscore.Internal.Correction>
0.0212

> <Gold.Rescore>
     Score         DG    S(hbond)    S(metal)    S(lipo)     H(rot)  DE(clash)    DE(int)     intcor
     12.54     -13.99       2.99        0.00      67.58       3.67       1.31       0.14       ----

> <Gold.Chemscore.Fitness>
12.5353

> <Gold.Chemscore.DG>
-13.9866

> <Gold.Chemscore.ZeroCoef>
-5.4800

> <Gold.Chemscore.Hbond>
2.9894

> <Gold.Chemscore.Metal>
0.0000

> <Gold.Chemscore.Lipo>
67.5799

> <Gold.Chemscore.Internal_Hbond>
0.0000

> <Gold.Chemscore.DEClash>
1.3077

> <Gold.Chemscore.DEInternal>
0.1436

> <Gold.Chemscore.Rot>
3.6659

> <Gold.Chemscore.Internal.Correction>
   9.000000E+99

> <Gold.Chemscore.Hbonds>
donor molecule, donor type, donor heavy atom, donor atom, acceptor molecule, acceptor atom, score
      L1  H     8    36       P1  8028  0.98
      P1  H  7997  8008       L1     1  0.13
      P1  H  7997  8010       L1     4  0.86
      P1  H 10752 10765       L1    19  0.46

> <Gold.Chemscore.Hbond.Weighted>
-9.9846

> <Gold.Chemscore.Metal.Weighted>
-0.0000

> <Gold.Chemscore.Lipo.Weighted>
-7.9068

> <Gold.Chemscore.Internal_Hbond.Weighted>
0.0000

> <Gold.Chemscore.DEClash.Weighted>
1.3077

> <Gold.Chemscore.DEInternal.Weighted>
0.1436

> <Gold.Chemscore.Rot.Weighted>
9.3848

> <Gold.Chemscore.Internal.Correction.Weighted>
   9.000000E+99

> <Gold.Protein.RotatedTorsions>
[ 6907 6896 6895 6894 ] final  -63.79 input  -60.11 | X-H torsion
[ 7974 7965 7964 7962 ] final  143.63 input  175.53 | X-H torsion
[ 8008 7997 7996 7995 ] final   63.69 input   59.86 | X-H torsion
[ 10167 10162 10161 10158 ] final  118.79 input  -65.29 | X-H torsion
[ 10718 10713 10712 10709 ] final   30.90 input   66.30 | X-H torsion
[ 10763 10752 10751 10750 ] final  162.59 input  -60.55 | X-H torsion
[ 11005 11000 10999 10996 ] final -154.43 input  -57.11 | X-H torsion

> <Gold.Protein.ActiveResidues>
 VAL166  LYS551  ARG553  GLY616  TRP617  ASP618  TYR619  PRO620  LYS621  CYS622 
 ASP623  PHE694  ASN695  SER759  ASP760  ASP761  ALA762  ILE779  LEU786  VAL792 
 PHE793  MET794  SER795  GLU796  ALA797  LYS798  CYS799  TRP800  GLU811  SER814 

> <Gold.Protein.RotatedAtoms>
  150.7626  134.6387  159.6224 H   0  0  0  0  0  0  0  0  0  0  0  0  # atno 6907 bound_to 6896
  152.3642  134.6825  160.0206 H   0  0  0  0  0  0  0  0  0  0  0  0  # atno 6908 bound_to 6896
  151.7205  133.3278  159.3350 H   0  0  0  0  0  0  0  0  0  0  0  0  # atno 6909 bound_to 6896
  144.8904  139.5566  143.5801 H   0  0  0  0  0  0  0  0  0  0  0  0  # atno 7974 bound_to 7965
  155.6342  140.3496  155.4693 H   0  0  0  0  0  0  0  0  0  0  0  0  # atno 8008 bound_to 7997
  155.9978  140.1207  157.0600 H   0  0  0  0  0  0  0  0  0  0  0  0  # atno 8009 bound_to 7997
  154.4239  140.1106  156.5641 H   0  0  0  0  0  0  0  0  0  0  0  0  # atno 8010 bound_to 7997
  139.6089  144.7077  151.2890 H   0  0  0  0  0  0  0  0  0  0  0  0  # atno 10167 bound_to 10162
  157.2656  130.7182  149.6477 H   0  0  0  0  0  0  0  0  0  0  0  0  # atno 10718 bound_to 10713
  154.2806  135.2763  155.2698 H   0  0  0  0  0  0  0  0  0  0  0  0  # atno 10763 bound_to 10752
  154.5221  135.5753  153.6693 H   0  0  0  0  0  0  0  0  0  0  0  0  # atno 10764 bound_to 10752
  152.9930  135.6207  154.2966 H   0  0  0  0  0  0  0  0  0  0  0  0  # atno 10765 bound_to 10752
  140.6974  134.3974  157.5213 H   0  0  0  0  0  0  0  0  0  0  0  0  # atno 11005 bound_to 11000
  146.3050  139.7551  142.9063 LP  0  0  0  0  0  0  0  0  0  0  0  0  # atno 17320 bound_to 7965
  145.3793  141.0355  143.3187 LP  0  0  0  0  0  0  0  0  0  0  0  0  # atno 17321 bound_to 7965
  140.7304  143.6879  150.7946 LP  0  0  0  0  0  0  0  0  0  0  0  0  # atno 17342 bound_to 10162
  140.0470  143.5288  152.2691 LP  0  0  0  0  0  0  0  0  0  0  0  0  # atno 17343 bound_to 10162
  155.9663  130.4384  150.5214 LP  0  0  0  0  0  0  0  0  0  0  0  0  # atno 17370 bound_to 10713
  157.3128  131.0667  151.1989 LP  0  0  0  0  0  0  0  0  0  0  0  0  # atno 17371 bound_to 10713
  139.8906  134.8800  156.2361 LP  0  0  0  0  0  0  0  0  0  0  0  0  # atno 17394 bound_to 11000
  141.0191  133.7051  156.1239 LP  0  0  0  0  0  0  0  0  0  0  0  0  # atno 17395 bound_to 11000

$$$$
