#       Name:                AV-unprocessed.smi:3072
#       Creating user name   scv26
#       Creation time:       Fri Mar 27 17:12:00 2020


#       File generated by GOLD software.
#

@<TRIPOS>MOLECULE
AV-unprocessed.smi:3072
    26    27     1
SMALL
NO_CHARGES


@<TRIPOS>ATOM
      1 ****        -2.4509   1.6841   0.0125 C.2            1 S1                 0.0000
      2 ****        -3.7371   1.3731   0.0298 N.2            1 S1                 0.0000
      3 ****        -3.7398   0.0278   0.0246 N.pl3          1 S1                 0.0000
      4 ****        -2.4744  -0.5092   0.0041 C.2            1 S1                 0.0000
      5 ****        -1.5974   0.5410  -0.0019 C.2            1 S1                 0.0000
      6 ****        -0.0902   0.5233  -0.0169 C.3            1 S1                 0.0000
      7 ****         0.4524  -0.1726  -1.2803 C.3            1 S1                 0.0000
      8 ****         1.9883  -0.2179  -1.2537 C.3            1 S1                 0.0000
      9 ****         2.4972  -0.8732   0.0408 C.3            1 S1                 0.0000
     10 ****         1.9505  -0.1798   1.2272 N.4            1 S1                 1.0000
     11 ****         0.4715  -0.1545   1.2501 C.3            1 S1                 0.0000
     12 ****        -4.6003  -0.5016   0.0347 H              1 S1                 0.0000
     13 ****        -2.1729   2.7278   0.0132 H              1 S1                 0.0000
     14 ****        -2.3066  -1.5762  -0.0032 H              1 S1                 0.0000
     15 ****         0.2769   1.5510  -0.0274 H              1 S1                 0.0000
     16 ****         0.0620  -1.1892  -1.3462 H              1 S1                 0.0000
     17 ****         0.1121   0.3503  -2.1749 H              1 S1                 0.0000
     18 ****         2.3604  -0.7647  -2.1205 H              1 S1                 0.0000
     19 ****         2.3862   0.7948  -1.3329 H              1 S1                 0.0000
     20 ****         2.2079  -1.9246   0.0737 H              1 S1                 0.0000
     21 ****         3.5863  -0.8408   0.0791 H              1 S1                 0.0000
     22 ****         2.2836  -0.6431   2.0606 H              1 S1                 0.0000
     23 ****         0.1447   0.3796   2.1429 H              1 S1                 0.0000
     24 ****         0.1016  -1.1771   1.3376 H              1 S1                 0.0000
     25 ****         2.2880   0.7722   1.2267 H              1 S1                 0.0000
     26 ****        -4.5222   1.9923   0.0435 LP             1 S1                 0.0000
@<TRIPOS>BOND
    1    1    5 1     
    2    1    2 2     
    3    1   13 1     
    4    2    3 1     
    5    3   12 1     
    6    3    4 1     
    7    4    5 2     
    8    4   14 1     
    9    5    6 1     
   10    6   11 1     
   11    6    7 1     
   12    6   15 1     
   13    7    8 1     
   14    7   16 1     
   15    7   17 1     
   16    8    9 1     
   17    8   18 1     
   18    8   19 1     
   19    9   10 1     
   20    9   20 1     
   21    9   21 1     
   22   10   11 1     
   23   10   22 1     
   24   10   25 1     
   25   11   23 1     
   26   11   24 1     
   27    2   26 1     
@<TRIPOS>SUBSTRUCTURE
      1 S1             1
@<TRIPOS>SET
LONE_PAIRS      STATIC     ATOMS    <user>   **** ""
1 26
DONOR_HYDROGENS      STATIC     ATOMS    <user>   **** ""
3 12 22 25
ATOM$BLUE        STATIC     ATOMS    COLORGROUP SYSTEM
1 26
ATOM$RED        STATIC     ATOMS    COLORGROUP SYSTEM
3 12 22 25
