AV-unprocessed.smi:1412|AV-procd|sdf|5747|dock4
  -GOLD-   22720 5383D 1   1.00000     0.00000
 Structure written by MMmdl.
 41 42  0  0  0  0  0  0  0  0  3 V2000
  150.7943  133.2619  155.7641 C   0  0  0  0  0  0  0  0  0  0  0  0
  149.8272  133.2901  154.5673 C   0  0  0  0  0  0  0  0  0  0  0  0
  148.4919  134.0675  154.7758 C   0  0  2  0  0  0  0  0  0  0  0  0
  148.8050  135.4994  155.2874 C   0  0  0  0  0  0  0  0  0  0  0  0
  147.6265  133.3736  155.8707 C   0  0  0  0  0  0  0  0  0  0  0  0
  148.1704  133.5735  157.2156 N   0  0  0  0  0  0  0  0  0  0  0  0
  147.8818  134.5772  158.0563 C   0  0  0  0  0  0  0  0  0  0  0  0
  146.9986  135.3888  157.7728 O   0  0  0  0  0  0  0  0  0  0  0  0
  148.6584  134.5967  159.1611 N   0  5  0  0  0  0  0  0  0  0  0  0
  148.2746  135.3080  160.2337 C   0  0  0  0  0  0  0  0  0  0  0  0
  148.2349  136.6503  160.2257 N   0  0  0  0  0  0  0  0  0  0  0  0
  147.8056  137.1903  161.4302 N   0  0  0  0  0  0  0  0  0  0  0  0
  147.5421  136.2368  162.3236 C   0  0  0  0  0  0  0  0  0  0  0  0
  147.7922  134.5931  161.7738 S   0  0  0  0  0  0  0  0  0  0  0  0
  147.6985  134.1244  153.4924 N   0  3  0  0  0  0  0  0  0  0  0  0
  147.3640  132.8292  152.8375 C   0  0  0  0  0  0  0  0  0  0  0  0
  146.7596  133.0817  151.4437 C   0  0  0  0  0  0  0  0  0  0  0  0
  145.6196  133.9250  151.5444 O   0  0  0  0  0  0  0  0  0  0  0  0
  145.9469  135.1912  152.1015 C   0  0  0  0  0  0  0  0  0  0  0  0
  146.4826  134.9832  153.5256 C   0  0  0  0  0  0  0  0  0  0  0  0
  151.6720  132.6606  155.5263 H   0  0  0  0  0  0  0  0  0  0  0  0
  150.3348  132.8236  156.6493 H   0  0  0  0  0  0  0  0  0  0  0  0
  151.1522  134.2580  156.0233 H   0  0  0  0  0  0  0  0  0  0  0  0
  150.3620  133.7081  153.7140 H   0  0  0  0  0  0  0  0  0  0  0  0
  149.6161  132.2526  154.3081 H   0  0  0  0  0  0  0  0  0  0  0  0
  149.1872  135.4891  156.3083 H   0  0  0  0  0  0  0  0  0  0  0  0
  147.9152  136.1301  155.2968 H   0  0  0  0  0  0  0  0  0  0  0  0
  149.5607  135.9951  154.6773 H   0  0  0  0  0  0  0  0  0  0  0  0
  146.5869  133.6980  155.8195 H   0  0  0  0  0  0  0  0  0  0  0  0
  147.5922  132.2973  155.7029 H   0  0  0  0  0  0  0  0  0  0  0  0
  148.8847  132.9239  157.5117 H   0  0  0  0  0  0  0  0  0  0  0  0
  147.1991  136.5029  163.3122 H   0  0  0  0  0  0  0  0  0  0  0  0
  148.2437  132.2046  152.6931 H   0  0  0  0  0  0  0  0  0  0  0  0
  146.6655  132.2672  153.4584 H   0  0  0  0  0  0  0  0  0  0  0  0
  147.4980  133.5337  150.7789 H   0  0  0  0  0  0  0  0  0  0  0  0
  146.4601  132.1376  150.9886 H   0  0  0  0  0  0  0  0  0  0  0  0
  146.6777  135.7083  151.4772 H   0  0  0  0  0  0  0  0  0  0  0  0
  145.0494  135.8093  152.1234 H   0  0  0  0  0  0  0  0  0  0  0  0
  145.7057  134.5147  154.1312 H   0  0  0  0  0  0  0  0  0  0  0  0
  146.6902  135.9522  153.9747 H   0  0  0  0  0  0  0  0  0  0  0  0
  148.3264  134.5808  152.8445 H   0  0  0  0  0  0  0  0  0  0  0  0
  1  2  1  0  0  0  0
  1 21  1  0  0  0  0
  1 22  1  0  0  0  0
  1 23  1  0  0  0  0
  2  3  1  0  0  0  0
  2 24  1  0  0  0  0
  2 25  1  0  0  0  0
  3  4  1  0  0  0  0
  3  5  1  0  0  0  0
  3 15  1  0  0  0  0
  4 26  1  0  0  0  0
  4 27  1  0  0  0  0
  4 28  1  0  0  0  0
  5  6  1  0  0  0  0
  5 29  1  0  0  0  0
  5 30  1  0  0  0  0
  6  7  1  0  0  0  0
  6 31  1  0  0  0  0
  7  8  2  0  0  0  0
  7  9  1  0  0  0  0
  9 10  1  0  0  0  0
 10 14  1  0  0  0  0
 10 11  2  0  0  0  0
 11 12  1  0  0  0  0
 12 13  2  0  0  0  0
 13 14  1  0  0  0  0
 13 32  1  0  0  0  0
 15 20  1  0  0  0  0
 15 16  1  0  0  0  0
 15 41  1  0  0  0  0
 16 17  1  0  0  0  0
 16 33  1  0  0  0  0
 16 34  1  0  0  0  0
 17 18  1  0  0  0  0
 17 35  1  0  0  0  0
 17 36  1  0  0  0  0
 18 19  1  0  0  0  0
 19 20  1  0  0  0  0
 19 37  1  0  0  0  0
 19 38  1  0  0  0  0
 20 39  1  0  0  0  0
 20 40  1  0  0  0  0
M  CHG  1   9  -1
M  CHG  1  15   1
M  END
> <s_m_source_file>
AV-unprocessed.smi

> <i_m_source_file_index>
1412

> <i_lp_mmshare_version>
43012

> <i_f3d_flags>
0

> <s_epik_input>
W0NIMl0xW0NIMl1PW0NIMl1bQ0gyXU4xW0NAQF0oW0NIM10pKFtDSDJdW0NIM10pW0NIMl1bTkhdQyg9TylbTkhdYzJubltjSF1zMg==

> <s_epik_cmdline>
J2VwaWtfcHl0aG9uJywgJy1waCcsICc3LjAnLCAnLXRuJywgJzgnLCAnLW1hJywgJzIwMCcsICctbWV0YWxfYmluZGluZycsICctaW1hZScsICc8aW5maWxlLm1hZT4nLCAnLW9tYWUnLCAnPG91dGZpbGUubWFlPic=

> <r_lp_tautomer_probability>
1

> <r_epik_Ionization_Penalty>
4.35651

> <r_epik_Ionization_Penalty_Charging>
4.3235

> <r_epik_Ionization_Penalty_Neutral>
0.0330098

> <r_epik_State_Penalty>
4.4846

> <r_epik_Charging_Adjusted_Penalty>
8.8081

> <i_epik_Tot_Q>
0

> <i_epik_Tot_abs_Q>
2

> <r_epik_Metal_State_Penalty>
1.11611

> <b_epik_Metal_Only>
1

> <s_lp_Force_Field>
OPLS_2005

> <r_lp_Energy>
23.2358

> <b_lp_Chiralities_Consistent>
1

> <s_lp_Variant>
AV-unprocessed.smi:1412-8

> <Gold.Version>
5.8.1

> <Gold.Id.Protein>
6NUR|6NUR_protein|mol2

> <Gold.PLP.Fitness>
42.4741

> <Gold.PLP.PLP>
-27.2179

> <Gold.PLP.part.hbond>
-4.0201

> <Gold.PLP.part.metal>
0.0000

> <Gold.PLP.part.buried>
-2.9779

> <Gold.PLP.part.nonpolar>
-19.2349

> <Gold.PLP.part.repulsive>
0.1510

> <Gold.PLP.ligand.clash>
0.0000

> <Gold.PLP.ligand.torsion>
1.1172

> <Gold.PLP.Chemscore.Hbond>
5.7175

> <Gold.PLP.Chemscore.CHOScore>
0.0000

> <Gold.PLP.Chemscore.Metal>
0.0000

> <Gold.Chemscore.Hbonds>
donor molecule, donor type, donor heavy atom, donor atom, acceptor molecule, acceptor atom, score
      L1  H    15    41       P1  7948  2.00
      P1  H  6896  6908       L1     9  2.00
      P1  H  6931  6943       L1    12  1.00
      P1  H  6934  6947       L1    12  0.74

> <Gold.PLP.Chemscore.Internal.Correction>
0.3381

> <Gold.Rescore>
     Score         DG    S(hbond)    S(metal)    S(lipo)     H(rot)  DE(clash)    DE(int)     intcor
     12.10     -14.26       2.14        0.00      55.00       1.88       0.00       2.16       ----

> <Gold.Chemscore.Fitness>
12.0961

> <Gold.Chemscore.DG>
-14.2625

> <Gold.Chemscore.ZeroCoef>
-5.4800

> <Gold.Chemscore.Hbond>
2.1423

> <Gold.Chemscore.Metal>
0.0000

> <Gold.Chemscore.Lipo>
54.9958

> <Gold.Chemscore.Internal_Hbond>
0.0000

> <Gold.Chemscore.DEClash>
0.0048

> <Gold.Chemscore.DEInternal>
2.1616

> <Gold.Chemscore.Rot>
1.8779

> <Gold.Chemscore.Internal.Correction>
   9.000000E+99

> <Gold.Chemscore.Hbonds>
donor molecule, donor type, donor heavy atom, donor atom, acceptor molecule, acceptor atom, score
      L1  H    15    41       P1  7948  0.38
      P1  H  6896  6908       L1     9  0.38
      P1  H  6931  6943       L1    12  0.47
      P1  H  6934  6947       L1    12  0.32

> <Gold.Chemscore.Hbond.Weighted>
-7.1553

> <Gold.Chemscore.Metal.Weighted>
-0.0000

> <Gold.Chemscore.Lipo.Weighted>
-6.4345

> <Gold.Chemscore.Internal_Hbond.Weighted>
0.0000

> <Gold.Chemscore.DEClash.Weighted>
0.0048

> <Gold.Chemscore.DEInternal.Weighted>
2.1616

> <Gold.Chemscore.Rot.Weighted>
4.8074

> <Gold.Chemscore.Internal.Correction.Weighted>
   9.000000E+99

> <Gold.Protein.RotatedTorsions>
[ 6907 6896 6895 6894 ] final  154.13 input  -60.11 | X-H torsion
[ 7974 7965 7964 7962 ] final  -46.89 input  175.53 | X-H torsion
[ 8008 7997 7996 7995 ] final  -44.03 input   59.86 | X-H torsion
[ 10167 10162 10161 10158 ] final   84.95 input  -65.29 | X-H torsion
[ 10718 10713 10712 10709 ] final  159.33 input   66.30 | X-H torsion
[ 10763 10752 10751 10750 ] final  -81.54 input  -60.55 | X-H torsion
[ 11005 11000 10999 10996 ] final   -6.64 input  -57.11 | X-H torsion

> <Gold.Protein.ActiveResidues>
 VAL166  LYS551  ARG553  GLY616  TRP617  ASP618  TYR619  PRO620  LYS621  CYS622 
 ASP623  PHE694  ASN695  SER759  ASP760  ASP761  ALA762  ILE779  LEU786  VAL792 
 PHE793  MET794  SER795  GLU796  ALA797  LYS798  CYS799  TRP800  GLU811  SER814 

> <Gold.Protein.RotatedAtoms>
  152.0629  133.4070  159.4425 H   0  0  0  0  0  0  0  0  0  0  0  0  # atno 6907 bound_to 6896
  150.6865  134.3180  159.4783 H   0  0  0  0  0  0  0  0  0  0  0  0  # atno 6908 bound_to 6896
  152.1003  134.9346  160.0620 H   0  0  0  0  0  0  0  0  0  0  0  0  # atno 6909 bound_to 6896
  145.9673  140.7419  142.9428 H   0  0  0  0  0  0  0  0  0  0  0  0  # atno 7974 bound_to 7965
  154.3997  140.1432  156.3616 H   0  0  0  0  0  0  0  0  0  0  0  0  # atno 8008 bound_to 7997
  155.8176  140.3470  155.5474 H   0  0  0  0  0  0  0  0  0  0  0  0  # atno 8009 bound_to 7997
  155.8322  140.0914  157.1776 H   0  0  0  0  0  0  0  0  0  0  0  0  # atno 8010 bound_to 7997
  139.9027  144.6319  150.8620 H   0  0  0  0  0  0  0  0  0  0  0  0  # atno 10167 bound_to 10162
  157.1657  131.0598  151.2209 H   0  0  0  0  0  0  0  0  0  0  0  0  # atno 10718 bound_to 10713
  154.5649  135.5622  153.7041 H   0  0  0  0  0  0  0  0  0  0  0  0  # atno 10763 bound_to 10752
  153.0029  135.6283  154.2194 H   0  0  0  0  0  0  0  0  0  0  0  0  # atno 10764 bound_to 10752
  154.2133  135.2872  155.2930 H   0  0  0  0  0  0  0  0  0  0  0  0  # atno 10765 bound_to 10752
  140.7041  133.8964  155.8704 H   0  0  0  0  0  0  0  0  0  0  0  0  # atno 11005 bound_to 11000
  144.6828  140.2690  143.7308 LP  0  0  0  0  0  0  0  0  0  0  0  0  # atno 17320 bound_to 7965
  145.7956  139.1944  143.2078 LP  0  0  0  0  0  0  0  0  0  0  0  0  # atno 17321 bound_to 7965
  140.7703  143.3424  151.2180 LP  0  0  0  0  0  0  0  0  0  0  0  0  # atno 17342 bound_to 10162
  139.7011  143.9532  152.2906 LP  0  0  0  0  0  0  0  0  0  0  0  0  # atno 17343 bound_to 10162
  157.4091  130.7375  149.6825 LP  0  0  0  0  0  0  0  0  0  0  0  0  # atno 17370 bound_to 10713
  155.9746  130.4100  150.3909 LP  0  0  0  0  0  0  0  0  0  0  0  0  # atno 17371 bound_to 10713
  141.0139  134.0983  157.4193 LP  0  0  0  0  0  0  0  0  0  0  0  0  # atno 17394 bound_to 11000
  139.8889  135.0101  156.6646 LP  0  0  0  0  0  0  0  0  0  0  0  0  # atno 17395 bound_to 11000

$$$$
