AV-unprocessed.smi:3343|AV-procd|sdf|12896|dock4
  -GOLD-   2272019303D 1   1.00000     0.00000
 Structure written by MMmdl.
 42 43  0  0  0  0  0  0  0  0  2 V2000
  150.2312  135.0787  156.2092 C   0  0  0  0  0  0  0  0  0  0  0  0
  149.6186  135.9937  155.1325 C   0  0  1  0  0  0  0  0  0  0  0  0
  148.0885  136.0835  155.2341 C   0  0  0  0  0  0  0  0  0  0  0  0
  147.5416  136.3064  156.3152 O   0  0  0  0  0  0  0  0  0  0  0  0
  147.4058  135.9090  154.0916 N   0  0  0  0  0  0  0  0  0  0  0  0
  145.9543  135.9655  153.9659 C   0  0  0  0  0  0  0  0  0  0  0  0
  145.5050  135.7856  152.5030 C   0  0  0  0  0  0  0  0  0  0  0  0
  145.1216  134.3850  152.1976 N   0  3  0  0  0  0  0  0  0  0  0  0
  146.2871  133.4679  152.1862 C   0  0  0  0  0  0  0  0  0  0  0  0
  145.8306  132.0107  151.9624 C   0  0  0  0  0  0  0  0  0  0  0  0
  145.0639  131.8568  150.7251 N   0  0  0  0  0  0  0  0  0  0  0  0
  145.8848  131.9691  149.5242 C   0  0  0  0  0  0  0  0  0  0  0  0
  143.9215  132.7720  150.7294 C   0  0  0  0  0  0  0  0  0  0  0  0
  144.3501  134.2401  150.9376 C   0  0  0  0  0  0  0  0  0  0  0  0
  150.2038  137.3262  155.1777 N   0  0  0  0  0  0  0  0  0  0  0  0
  150.2168  138.3096  154.2732 C   0  0  0  0  0  0  0  0  0  0  0  0
  150.8736  139.3919  154.6656 N   0  0  0  0  0  0  0  0  0  0  0  0
  151.2711  138.9799  155.9059 C   0  0  0  0  0  0  0  0  0  0  0  0
  150.9011  137.7489  156.2594 N   0  0  0  0  0  0  0  0  0  0  0  0
  149.7979  134.0785  156.1705 H   0  0  0  0  0  0  0  0  0  0  0  0
  150.0739  135.4702  157.2150 H   0  0  0  0  0  0  0  0  0  0  0  0
  151.3065  134.9738  156.0617 H   0  0  0  0  0  0  0  0  0  0  0  0
  149.8572  135.5542  154.1618 H   0  0  0  0  0  0  0  0  0  0  0  0
  147.9332  135.7385  153.2469 H   0  0  0  0  0  0  0  0  0  0  0  0
  145.4956  135.2077  154.6034 H   0  0  0  0  0  0  0  0  0  0  0  0
  145.6350  136.9321  154.3539 H   0  0  0  0  0  0  0  0  0  0  0  0
  144.6786  136.4571  152.2647 H   0  0  0  0  0  0  0  0  0  0  0  0
  146.3313  136.0723  151.8510 H   0  0  0  0  0  0  0  0  0  0  0  0
  147.0021  133.7792  151.4236 H   0  0  0  0  0  0  0  0  0  0  0  0
  146.8071  133.5307  153.1428 H   0  0  0  0  0  0  0  0  0  0  0  0
  146.6903  131.3396  151.9474 H   0  0  0  0  0  0  0  0  0  0  0  0
  145.2060  131.6924  152.7984 H   0  0  0  0  0  0  0  0  0  0  0  0
  145.2796  131.7851  148.6360 H   0  0  0  0  0  0  0  0  0  0  0  0
  146.6804  131.2236  149.5409 H   0  0  0  0  0  0  0  0  0  0  0  0
  146.3452  132.9506  149.4202 H   0  0  0  0  0  0  0  0  0  0  0  0
  143.3642  132.6664  149.7979 H   0  0  0  0  0  0  0  0  0  0  0  0
  143.2427  132.4744  151.5299 H   0  0  0  0  0  0  0  0  0  0  0  0
  143.4546  134.8593  150.9747 H   0  0  0  0  0  0  0  0  0  0  0  0
  144.9393  134.5999  150.0932 H   0  0  0  0  0  0  0  0  0  0  0  0
  149.7380  138.2312  153.3079 H   0  0  0  0  0  0  0  0  0  0  0  0
  151.8538  139.6048  156.5667 H   0  0  0  0  0  0  0  0  0  0  0  0
  144.5251  134.0740  152.9509 H   0  0  0  0  0  0  0  0  0  0  0  0
  1  2  1  0  0  0  0
  1 20  1  0  0  0  0
  1 21  1  0  0  0  0
  1 22  1  0  0  0  0
  2  3  1  0  0  0  0
  2 15  1  0  0  0  0
  2 23  1  0  0  0  0
  3  4  2  0  0  0  0
  3  5  1  0  0  0  0
  5  6  1  0  0  0  0
  5 24  1  0  0  0  0
  6  7  1  0  0  0  0
  6 25  1  0  0  0  0
  6 26  1  0  0  0  0
  7  8  1  0  0  0  0
  7 27  1  0  0  0  0
  7 28  1  0  0  0  0
  8 14  1  0  0  0  0
  8  9  1  0  0  0  0
  8 42  1  0  0  0  0
  9 10  1  0  0  0  0
  9 29  1  0  0  0  0
  9 30  1  0  0  0  0
 10 11  1  0  0  0  0
 10 31  1  0  0  0  0
 10 32  1  0  0  0  0
 11 12  1  0  0  0  0
 11 13  1  0  0  0  0
 12 33  1  0  0  0  0
 12 34  1  0  0  0  0
 12 35  1  0  0  0  0
 13 14  1  0  0  0  0
 13 36  1  0  0  0  0
 13 37  1  0  0  0  0
 14 38  1  0  0  0  0
 14 39  1  0  0  0  0
 15 19  1  0  0  0  0
 15 16  1  0  0  0  0
 16 17  2  0  0  0  0
 16 40  1  0  0  0  0
 17 18  1  0  0  0  0
 18 19  2  0  0  0  0
 18 41  1  0  0  0  0
M  CHG  1   8   1
M  END
> <s_m_source_file>
AV-unprocessed.smi

> <i_m_source_file_index>
3343

> <i_lp_mmshare_version>
43012

> <i_f3d_flags>
0

> <s_epik_input>
bjFbY0hdbltjSF1uMVtDQEhdKFtDSDNdKUMoPU8pW05IXVtDSDJdW0NIMl1OMltDSDJdW0NIMl1OKFtDSDNdKVtDSDJdW0NIMl0y

> <s_epik_cmdline>
J2VwaWtfcHl0aG9uJywgJy1waCcsICc3LjAnLCAnLXRuJywgJzgnLCAnLW1hJywgJzIwMCcsICctbWV0YWxfYmluZGluZycsICctaW1hZScsICc8aW5maWxlLm1hZT4nLCAnLW9tYWUnLCAnPG91dGZpbGUubWFlPic=

> <r_epik_Ionization_Penalty>
0.559944

> <r_epik_Ionization_Penalty_Charging>
0.558624

> <r_epik_Ionization_Penalty_Neutral>
0.00131959

> <r_epik_State_Penalty>
2.08679

> <r_epik_Charging_Adjusted_Penalty>
2.64542

> <i_epik_Tot_Q>
1

> <i_epik_Tot_abs_Q>
1

> <r_epik_Metal_State_Penalty>
2.0868

> <b_epik_Metal_Only>
0

> <s_lp_Force_Field>
OPLS_2005

> <r_lp_Energy>
21.6118

> <b_lp_Chiralities_Consistent>
1

> <s_lp_Variant>
AV-unprocessed.smi:3343-6

> <Gold.Version>
5.8.1

> <Gold.Id.Protein>
6NUR|6NUR_protein|mol2

> <Gold.PLP.Fitness>
37.3141

> <Gold.PLP.PLP>
-27.4496

> <Gold.PLP.part.hbond>
-1.8391

> <Gold.PLP.part.metal>
0.0000

> <Gold.PLP.part.buried>
-2.3709

> <Gold.PLP.part.nonpolar>
-22.2578

> <Gold.PLP.part.repulsive>
0.2853

> <Gold.PLP.ligand.clash>
0.0000

> <Gold.PLP.ligand.torsion>
1.0271

> <Gold.PLP.Chemscore.Hbond>
1.9913

> <Gold.PLP.Chemscore.CHOScore>
1.9459

> <Gold.PLP.Chemscore.Metal>
0.0000

> <Gold.Chemscore.Hbonds>
donor molecule, donor type, donor heavy atom, donor atom, acceptor molecule, acceptor atom, score
      L1  H     5    24       P1  7948  1.00
      P1  H  7989  7998       L1    17  1.00
      L1  C    16    40       P1  7948  0.95
      L1  C    16    40       P1  7957  0.34

> <Gold.PLP.Chemscore.Internal.Correction>
0.1074

> <Gold.Rescore>
     Score         DG    S(hbond)    S(metal)    S(lipo)     H(rot)  DE(clash)    DE(int)     intcor
     10.62     -11.27       1.96        0.00      51.00       2.63       0.00       0.65       ----

> <Gold.Chemscore.Fitness>
10.6206

> <Gold.Chemscore.DG>
-11.2659

> <Gold.Chemscore.ZeroCoef>
-5.4800

> <Gold.Chemscore.Hbond>
1.9597

> <Gold.Chemscore.Metal>
0.0000

> <Gold.Chemscore.Lipo>
51.0047

> <Gold.Chemscore.Internal_Hbond>
0.0000

> <Gold.Chemscore.DEClash>
0.0000

> <Gold.Chemscore.DEInternal>
0.6453

> <Gold.Chemscore.Rot>
2.6278

> <Gold.Chemscore.Internal.Correction>
   9.000000E+99

> <Gold.Chemscore.Hbonds>
donor molecule, donor type, donor heavy atom, donor atom, acceptor molecule, acceptor atom, score
      L1  H     5    24       P1  7948  0.98
      P1  H  7989  7998       L1    17  0.93

> <Gold.Chemscore.Hbond.Weighted>
-6.5455

> <Gold.Chemscore.Metal.Weighted>
-0.0000

> <Gold.Chemscore.Lipo.Weighted>
-5.9675

> <Gold.Chemscore.Internal_Hbond.Weighted>
0.0000

> <Gold.Chemscore.DEClash.Weighted>
0.0000

> <Gold.Chemscore.DEInternal.Weighted>
0.6453

> <Gold.Chemscore.Rot.Weighted>
6.7271

> <Gold.Chemscore.Internal.Correction.Weighted>
   9.000000E+99

> <Gold.Protein.RotatedTorsions>
[ 6907 6896 6895 6894 ] final   16.19 input  -60.11 | X-H torsion
[ 7974 7965 7964 7962 ] final  -13.97 input  175.53 | X-H torsion
[ 8008 7997 7996 7995 ] final  161.56 input   59.86 | X-H torsion
[ 10167 10162 10161 10158 ] final   22.37 input  -65.29 | X-H torsion
[ 10718 10713 10712 10709 ] final -146.38 input   66.30 | X-H torsion
[ 10763 10752 10751 10750 ] final   45.14 input  -60.55 | X-H torsion
[ 11005 11000 10999 10996 ] final -149.70 input  -57.11 | X-H torsion

> <Gold.Protein.ActiveResidues>
 VAL166  LYS551  ARG553  GLY616  TRP617  ASP618  TYR619  PRO620  LYS621  CYS622 
 ASP623  PHE694  ASN695  SER759  ASP760  ASP761  ALA762  ILE779  LEU786  VAL792 
 PHE793  MET794  SER795  GLU796  ALA797  LYS798  CYS799  TRP800  GLU811  SER814 

> <Gold.Protein.RotatedAtoms>
  151.8300  135.0624  160.0435 H   0  0  0  0  0  0  0  0  0  0  0  0  # atno 6907 bound_to 6896
  152.2888  133.5536  159.5552 H   0  0  0  0  0  0  0  0  0  0  0  0  # atno 6908 bound_to 6896
  150.7221  134.0375  159.3796 H   0  0  0  0  0  0  0  0  0  0  0  0  # atno 6909 bound_to 6896
  146.2093  140.3281  142.8396 H   0  0  0  0  0  0  0  0  0  0  0  0  # atno 7974 bound_to 7965
  156.2094  140.1774  156.7728 H   0  0  0  0  0  0  0  0  0  0  0  0  # atno 8008 bound_to 7997
  154.5701  140.0684  156.8981 H   0  0  0  0  0  0  0  0  0  0  0  0  # atno 8009 bound_to 7997
  155.2689  140.3341  155.4269 H   0  0  0  0  0  0  0  0  0  0  0  0  # atno 8010 bound_to 7997
  140.5353  143.9771  150.6488 H   0  0  0  0  0  0  0  0  0  0  0  0  # atno 10167 bound_to 10162
  156.3942  130.7901  151.2106 H   0  0  0  0  0  0  0  0  0  0  0  0  # atno 10718 bound_to 10713
  152.9829  135.6049  154.3388 H   0  0  0  0  0  0  0  0  0  0  0  0  # atno 10763 bound_to 10752
  154.3086  135.2771  155.2579 H   0  0  0  0  0  0  0  0  0  0  0  0  # atno 10764 bound_to 10752
  154.4798  135.5920  153.6437 H   0  0  0  0  0  0  0  0  0  0  0  0  # atno 10765 bound_to 10752
  140.7480  134.3439  157.5132 H   0  0  0  0  0  0  0  0  0  0  0  0  # atno 11005 bound_to 11000
  144.8872  140.7477  143.5949 LP  0  0  0  0  0  0  0  0  0  0  0  0  # atno 17320 bound_to 7965
  145.3202  139.1791  143.4592 LP  0  0  0  0  0  0  0  0  0  0  0  0  # atno 17321 bound_to 7965
  140.3157  143.3169  152.0835 LP  0  0  0  0  0  0  0  0  0  0  0  0  # atno 17342 bound_to 10162
  139.4969  144.6607  151.6471 LP  0  0  0  0  0  0  0  0  0  0  0  0  # atno 17343 bound_to 10162
  157.7500  131.0306  150.4146 LP  0  0  0  0  0  0  0  0  0  0  0  0  # atno 17370 bound_to 10713
  156.4413  130.3992  149.6695 LP  0  0  0  0  0  0  0  0  0  0  0  0  # atno 17371 bound_to 10713
  139.8793  134.9123  156.3058 LP  0  0  0  0  0  0  0  0  0  0  0  0  # atno 17394 bound_to 11000
  140.9777  133.7287  156.0626 LP  0  0  0  0  0  0  0  0  0  0  0  0  # atno 17395 bound_to 11000

$$$$
