AV-unprocessed.smi:1570|AV-procd|sdf|6322|dock2
  -GOLD-   22720 6533D 1   1.00000     0.00000
 Structure written by MMmdl.
 52 54  0  0  0  0  0  0  0  0  2 V2000
  153.7597  140.0612  160.6424 C   0  0  0  0  0  0  0  0  0  0  0  0
  153.9335  141.5652  160.3955 C   0  0  0  0  0  0  0  0  0  0  0  0
  152.8816  142.0810  159.5235 N   0  0  0  0  0  0  0  0  0  0  0  0
  152.3822  141.4775  158.4194 C   0  0  0  0  0  0  0  0  0  0  0  0
  152.7254  140.3820  157.9756 O   0  0  0  0  0  0  0  0  0  0  0  0
  151.4668  142.3066  157.8639 N   0  0  0  0  0  0  0  0  0  0  0  0
  150.7138  142.0770  156.6313 C   0  0  0  0  0  0  0  0  0  0  0  0
  149.7474  140.8815  156.7574 C   0  0  2  0  0  0  0  0  0  0  0  0
  150.5214  139.6994  156.7818 O   0  0  0  0  0  0  0  0  0  0  0  0
  148.7396  140.7865  155.5909 C   0  0  0  0  0  0  0  0  0  0  0  0
  147.6383  141.7751  155.7039 N   0  3  1  0  0  0  0  0  0  0  0  0
  147.1931  142.3160  154.3969 C   0  0  0  0  0  0  0  0  0  0  0  0
  146.1150  143.3950  154.6008 C   0  0  1  0  0  0  0  0  0  0  0  0
  145.5666  143.9158  153.2676 C   0  0  0  0  0  0  0  0  0  0  0  0
  145.0268  142.8450  155.3384 O   0  0  0  0  0  0  0  0  0  0  0  0
  145.3767  142.3093  156.6144 C   0  0  2  0  0  0  0  0  0  0  0  0
  145.7206  143.4090  157.6344 C   0  0  0  0  0  0  0  0  0  0  0  0
  146.4802  141.2442  156.4606 C   0  0  0  0  0  0  0  0  0  0  0  0
  151.3882  143.4795  158.6284 C   0  0  0  0  0  0  0  0  0  0  0  0
  150.6097  144.6385  158.4655 C   0  0  0  0  0  0  0  0  0  0  0  0
  150.7757  145.6682  159.4211 C   0  0  0  0  0  0  0  0  0  0  0  0
  151.6944  145.5240  160.4930 C   0  0  0  0  0  0  0  0  0  0  0  0
  152.4662  144.3467  160.6329 C   0  0  0  0  0  0  0  0  0  0  0  0
  152.2795  143.3385  159.6713 C   0  0  0  0  0  0  0  0  0  0  0  0
  154.5467  139.6819  161.2939 H   0  0  0  0  0  0  0  0  0  0  0  0
  153.8027  139.5000  159.7085 H   0  0  0  0  0  0  0  0  0  0  0  0
  152.8026  139.8472  161.1190 H   0  0  0  0  0  0  0  0  0  0  0  0
  153.9235  142.1001  161.3463 H   0  0  0  0  0  0  0  0  0  0  0  0
  154.9085  141.7614  159.9489 H   0  0  0  0  0  0  0  0  0  0  0  0
  150.1686  142.9782  156.3452 H   0  0  0  0  0  0  0  0  0  0  0  0
  151.4301  141.8952  155.8288 H   0  0  0  0  0  0  0  0  0  0  0  0
  149.2285  140.9531  157.7125 H   0  0  0  0  0  0  0  0  0  0  0  0
  151.4346  139.9347  156.7129 H   0  0  0  0  0  0  0  0  0  0  0  0
  149.2332  140.9326  154.6300 H   0  0  0  0  0  0  0  0  0  0  0  0
  148.3303  139.7750  155.5691 H   0  0  0  0  0  0  0  0  0  0  0  0
  148.0342  142.7472  153.8556 H   0  0  0  0  0  0  0  0  0  0  0  0
  146.8024  141.5042  153.7811 H   0  0  0  0  0  0  0  0  0  0  0  0
  146.5396  144.2397  155.1436 H   0  0  0  0  0  0  0  0  0  0  0  0
  146.3573  144.3639  152.6654 H   0  0  0  0  0  0  0  0  0  0  0  0
  144.8026  144.6762  153.4306 H   0  0  0  0  0  0  0  0  0  0  0  0
  145.1165  143.1121  152.6840 H   0  0  0  0  0  0  0  0  0  0  0  0
  144.4824  141.8074  156.9850 H   0  0  0  0  0  0  0  0  0  0  0  0
  145.8521  142.9845  158.6298 H   0  0  0  0  0  0  0  0  0  0  0  0
  144.9196  144.1461  157.6954 H   0  0  0  0  0  0  0  0  0  0  0  0
  146.6413  143.9349  157.3836 H   0  0  0  0  0  0  0  0  0  0  0  0
  146.0814  140.3760  155.9335 H   0  0  0  0  0  0  0  0  0  0  0  0
  146.7997  140.8964  157.4439 H   0  0  0  0  0  0  0  0  0  0  0  0
  149.9141  144.7439  157.6463 H   0  0  0  0  0  0  0  0  0  0  0  0
  150.1971  146.5760  159.3333 H   0  0  0  0  0  0  0  0  0  0  0  0
  151.8064  146.3231  161.2110 H   0  0  0  0  0  0  0  0  0  0  0  0
  153.1690  144.2328  161.4449 H   0  0  0  0  0  0  0  0  0  0  0  0
  148.0023  142.5480  156.2434 H   0  0  0  0  0  0  0  0  0  0  0  0
  1  2  1  0  0  0  0
  1 25  1  0  0  0  0
  1 26  1  0  0  0  0
  1 27  1  0  0  0  0
  2  3  1  0  0  0  0
  2 28  1  0  0  0  0
  2 29  1  0  0  0  0
  3 24  1  0  0  0  0
  3  4  1  0  0  0  0
  4  5  2  0  0  0  0
  4  6  1  0  0  0  0
  6  7  1  0  0  0  0
  6 19  1  0  0  0  0
  7  8  1  0  0  0  0
  7 30  1  0  0  0  0
  7 31  1  0  0  0  0
  8  9  1  0  0  0  0
  8 10  1  0  0  0  0
  8 32  1  0  0  0  0
  9 33  1  0  0  0  0
 10 11  1  0  0  0  0
 10 34  1  0  0  0  0
 10 35  1  0  0  0  0
 11 18  1  0  0  0  0
 11 12  1  0  0  0  0
 11 52  1  0  0  0  0
 12 13  1  0  0  0  0
 12 36  1  0  0  0  0
 12 37  1  0  0  0  0
 13 14  1  0  0  0  0
 13 15  1  0  0  0  0
 13 38  1  0  0  0  0
 14 39  1  0  0  0  0
 14 40  1  0  0  0  0
 14 41  1  0  0  0  0
 15 16  1  0  0  0  0
 16 17  1  0  0  0  0
 16 18  1  0  0  0  0
 16 42  1  0  0  0  0
 17 43  1  0  0  0  0
 17 44  1  0  0  0  0
 17 45  1  0  0  0  0
 18 46  1  0  0  0  0
 18 47  1  0  0  0  0
 19 24  2  0  0  0  0
 19 20  1  0  0  0  0
 20 21  2  0  0  0  0
 20 48  1  0  0  0  0
 21 22  1  0  0  0  0
 21 49  1  0  0  0  0
 22 23  2  0  0  0  0
 22 50  1  0  0  0  0
 23 24  1  0  0  0  0
 23 51  1  0  0  0  0
M  CHG  1  11   1
M  END
> <s_m_source_file>
AV-unprocessed.smi

> <i_m_source_file_index>
1570

> <i_lp_mmshare_version>
43012

> <i_f3d_flags>
0

> <s_epik_input>
W2NIXTFbY0hdW2NIXVtjSF1jKGMxMiluKFtDSDJdW0NIM10pYyg9TyluMltDSDJdW0NASF0oW09IXSlbQ0gyXU4zW0NIMl1bQ0BASF0oW0NIM10pT1tDQEBIXShbQ0gzXSlbQ0gyXTM=

> <s_epik_cmdline>
J2VwaWtfcHl0aG9uJywgJy1waCcsICc3LjAnLCAnLXRuJywgJzgnLCAnLW1hJywgJzIwMCcsICctbWV0YWxfYmluZGluZycsICctaW1hZScsICc8aW5maWxlLm1hZT4nLCAnLW9tYWUnLCAnPG91dGZpbGUubWFlPic=

> <r_epik_Ionization_Penalty>
0.706332

> <r_epik_Ionization_Penalty_Charging>
0.706318

> <r_epik_Ionization_Penalty_Neutral>
1.42224e-05

> <r_epik_State_Penalty>
0.729493

> <r_epik_Charging_Adjusted_Penalty>
1.43581

> <i_epik_Tot_Q>
1

> <i_epik_Tot_abs_Q>
1

> <r_epik_Metal_State_Penalty>
0.729493

> <b_epik_Metal_Only>
0

> <s_lp_Force_Field>
OPLS_2005

> <r_lp_Energy>
53.4907

> <b_lp_Chiralities_Consistent>
1

> <s_lp_Variant>
AV-unprocessed.smi:1570-11

> <Gold.Version>
5.8.1

> <Gold.Id.Protein>
6NUR|6NUR_protein|mol2

> <Gold.PLP.Fitness>
48.9871

> <Gold.PLP.PLP>
-47.6397

> <Gold.PLP.part.hbond>
-1.0000

> <Gold.PLP.part.metal>
0.0000

> <Gold.PLP.part.buried>
-7.1406

> <Gold.PLP.part.nonpolar>
-40.0085

> <Gold.PLP.part.repulsive>
0.1931

> <Gold.PLP.ligand.clash>
0.0000

> <Gold.PLP.ligand.torsion>
0.9374

> <Gold.PLP.Chemscore.Hbond>
1.0000

> <Gold.PLP.Chemscore.CHOScore>
0.0000

> <Gold.PLP.Chemscore.Metal>
0.0000

> <Gold.Chemscore.Hbonds>
donor molecule, donor type, donor heavy atom, donor atom, acceptor molecule, acceptor atom, score
      L1  H    11    52       P1  8028  0.11
      P1  H  7997  8008       L1     5  0.60

> <Gold.PLP.Chemscore.Internal.Correction>
0.2222

> <Gold.Rescore>
     Score         DG    S(hbond)    S(metal)    S(lipo)     H(rot)  DE(clash)    DE(int)     intcor
     15.76     -17.67       0.89        0.00     125.31       2.13       0.32       1.59       ----

> <Gold.Chemscore.Fitness>
15.7560

> <Gold.Chemscore.DG>
-17.6653

> <Gold.Chemscore.ZeroCoef>
-5.4800

> <Gold.Chemscore.Hbond>
0.8916

> <Gold.Chemscore.Metal>
0.0000

> <Gold.Chemscore.Lipo>
125.3065

> <Gold.Chemscore.Internal_Hbond>
0.0000

> <Gold.Chemscore.DEClash>
0.3168

> <Gold.Chemscore.DEInternal>
1.5925

> <Gold.Chemscore.Rot>
2.1303

> <Gold.Chemscore.Internal.Correction>
   9.000000E+99

> <Gold.Chemscore.Hbonds>
donor molecule, donor type, donor heavy atom, donor atom, acceptor molecule, acceptor atom, score
      L1  H    11    52       P1  8028  0.06
      P1  H  7997  8008       L1     5  0.59

> <Gold.Chemscore.Hbond.Weighted>
-2.9780

> <Gold.Chemscore.Metal.Weighted>
-0.0000

> <Gold.Chemscore.Lipo.Weighted>
-14.6609

> <Gold.Chemscore.Internal_Hbond.Weighted>
0.0000

> <Gold.Chemscore.DEClash.Weighted>
0.3168

> <Gold.Chemscore.DEInternal.Weighted>
1.5925

> <Gold.Chemscore.Rot.Weighted>
5.4535

> <Gold.Chemscore.Internal.Correction.Weighted>
   9.000000E+99

> <Gold.Protein.RotatedTorsions>
[ 6907 6896 6895 6894 ] final -130.92 input  -60.11 | X-H torsion
[ 7974 7965 7964 7962 ] final   82.47 input  175.53 | X-H torsion
[ 8008 7997 7996 7995 ] final  -60.55 input   59.86 | X-H torsion
[ 10167 10162 10161 10158 ] final  -60.54 input  -65.29 | X-H torsion
[ 10718 10713 10712 10709 ] final   56.28 input   66.30 | X-H torsion
[ 10763 10752 10751 10750 ] final  150.40 input  -60.55 | X-H torsion
[ 11005 11000 10999 10996 ] final   47.67 input  -57.11 | X-H torsion

> <Gold.Protein.ActiveResidues>
 VAL166  LYS551  ARG553  GLY616  TRP617  ASP618  TYR619  PRO620  LYS621  CYS622 
 ASP623  PHE694  ASN695  SER759  ASP760  ASP761  ALA762  ILE779  LEU786  VAL792 
 PHE793  MET794  SER795  GLU796  ALA797  LYS798  CYS799  TRP800  GLU811  SER814 

> <Gold.Protein.RotatedAtoms>
  150.9452  133.6611  159.2782 H   0  0  0  0  0  0  0  0  0  0  0  0  # atno 6907 bound_to 6896
  151.3987  135.0966  159.9558 H   0  0  0  0  0  0  0  0  0  0  0  0  # atno 6908 bound_to 6896
  152.5086  133.8950  159.7468 H   0  0  0  0  0  0  0  0  0  0  0  0  # atno 6909 bound_to 6896
  145.6246  139.2392  143.2119 H   0  0  0  0  0  0  0  0  0  0  0  0  # atno 7974 bound_to 7965
  154.4404  140.1037  156.6291 H   0  0  0  0  0  0  0  0  0  0  0  0  # atno 8008 bound_to 7997
  155.5624  140.3488  155.4476 H   0  0  0  0  0  0  0  0  0  0  0  0  # atno 8009 bound_to 7997
  156.0450  140.1291  157.0103 H   0  0  0  0  0  0  0  0  0  0  0  0  # atno 8010 bound_to 7997
  140.6064  143.2375  151.5810 H   0  0  0  0  0  0  0  0  0  0  0  0  # atno 10167 bound_to 10162
  157.5417  130.8702  149.8832 H   0  0  0  0  0  0  0  0  0  0  0  0  # atno 10718 bound_to 10713
  154.0869  135.2855  155.3279 H   0  0  0  0  0  0  0  0  0  0  0  0  # atno 10763 bound_to 10752
  154.6646  135.5322  153.8064 H   0  0  0  0  0  0  0  0  0  0  0  0  # atno 10764 bound_to 10752
  153.0428  135.6542  154.1041 H   0  0  0  0  0  0  0  0  0  0  0  0  # atno 10765 bound_to 10752
  140.1258  134.4770  155.8560 H   0  0  0  0  0  0  0  0  0  0  0  0  # atno 11005 bound_to 11000
  146.1404  140.7065  142.9370 LP  0  0  0  0  0  0  0  0  0  0  0  0  # atno 17320 bound_to 7965
  144.7217  140.4395  143.7003 LP  0  0  0  0  0  0  0  0  0  0  0  0  # atno 17321 bound_to 7965
  139.5328  144.2865  152.1186 LP  0  0  0  0  0  0  0  0  0  0  0  0  # atno 17342 bound_to 10162
  140.2056  144.4614  150.6410 LP  0  0  0  0  0  0  0  0  0  0  0  0  # atno 17343 bound_to 10162
  156.0502  130.3719  150.1218 LP  0  0  0  0  0  0  0  0  0  0  0  0  # atno 17370 bound_to 10713
  156.9398  130.9740  151.3518 LP  0  0  0  0  0  0  0  0  0  0  0  0  # atno 17371 bound_to 10713
  141.2161  133.6777  156.6976 LP  0  0  0  0  0  0  0  0  0  0  0  0  # atno 17394 bound_to 11000
  140.2906  134.8244  157.4013 LP  0  0  0  0  0  0  0  0  0  0  0  0  # atno 17395 bound_to 11000

$$$$
