AV-unprocessed.smi:2246|AV-procd|sdf|9085|dock7
  -GOLD-   2272012283D 1   1.00000     0.00000
 Structure written by MMmdl.
 28 29  0  0  0  0  0  0  0  0  2 V2000
  150.4917  141.0337  159.0067 O   0  0  0  0  0  0  0  0  0  0  0  0
  150.7959  141.9190  158.2081 C   0  0  0  0  0  0  0  0  0  0  0  0
  150.2734  141.9502  156.7728 C   0  0  2  0  0  0  0  0  0  0  0  0
  150.7521  140.7714  156.0098 N   0  0  0  0  0  0  0  0  0  0  0  0
  151.6135  139.8502  156.6443 C   0  0  0  0  0  0  0  0  0  0  0  0
  152.0577  138.7364  156.0322 C   0  0  0  0  0  0  0  0  0  0  0  0
  153.1092  137.6330  156.8457 Cl  0  0  0  0  0  0  0  0  0  0  0  0
  151.6149  138.4841  154.6643 C   0  0  0  0  0  0  0  0  0  0  0  0
  152.0175  137.4864  154.0676 O   0  0  0  0  0  0  0  0  0  0  0  0
  150.7558  139.3826  154.1024 N   0  5  0  0  0  0  0  0  0  0  0  0
  150.3035  140.5037  154.7443 C   0  0  0  0  0  0  0  0  0  0  0  0
  149.5090  141.2783  154.2113 O   0  0  0  0  0  0  0  0  0  0  0  0
  150.8320  143.2879  156.2394 C   0  0  0  0  0  0  0  0  0  0  0  0
  151.7563  143.8505  157.3276 C   0  0  0  0  0  0  0  0  0  0  0  0
  151.5890  142.9650  158.4662 N   0  0  0  0  0  0  0  0  0  0  0  0
  152.2628  143.2495  159.7319 C   0  0  0  0  0  0  0  0  0  0  0  0
  151.6959  144.4982  160.4329 C   0  0  0  0  0  0  0  0  0  0  0  0
  152.2000  144.5685  161.6643 F   0  0  0  0  0  0  0  0  0  0  0  0
  152.0230  145.6127  159.7794 F   0  0  0  0  0  0  0  0  0  0  0  0
  150.3682  144.4173  160.5227 F   0  0  0  0  0  0  0  0  0  0  0  0
  149.1855  142.0218  156.8095 H   0  0  0  0  0  0  0  0  0  0  0  0
  151.8839  140.0927  157.6608 H   0  0  0  0  0  0  0  0  0  0  0  0
  151.3433  143.1966  155.2804 H   0  0  0  0  0  0  0  0  0  0  0  0
  150.0057  143.9807  156.0746 H   0  0  0  0  0  0  0  0  0  0  0  0
  152.7970  143.8388  157.0020 H   0  0  0  0  0  0  0  0  0  0  0  0
  151.4911  144.8761  157.5868 H   0  0  0  0  0  0  0  0  0  0  0  0
  152.1621  142.3846  160.3892 H   0  0  0  0  0  0  0  0  0  0  0  0
  153.3327  143.3729  159.5562 H   0  0  0  0  0  0  0  0  0  0  0  0
  1  2  2  0  0  0  0
  2 15  1  0  0  0  0
  2  3  1  0  0  0  0
  3  4  1  0  0  0  0
  3 13  1  0  0  0  0
  3 21  1  0  0  0  0
  4 11  1  0  0  0  0
  4  5  1  0  0  0  0
  5  6  2  0  0  0  0
  5 22  1  0  0  0  0
  6  7  1  0  0  0  0
  6  8  1  0  0  0  0
  8  9  2  0  0  0  0
  8 10  1  0  0  0  0
 10 11  1  0  0  0  0
 11 12  2  0  0  0  0
 13 14  1  0  0  0  0
 13 23  1  0  0  0  0
 13 24  1  0  0  0  0
 14 15  1  0  0  0  0
 14 25  1  0  0  0  0
 14 26  1  0  0  0  0
 15 16  1  0  0  0  0
 16 17  1  0  0  0  0
 16 27  1  0  0  0  0
 16 28  1  0  0  0  0
 17 18  1  0  0  0  0
 17 19  1  0  0  0  0
 17 20  1  0  0  0  0
M  CHG  1  10  -1
M  END
> <s_m_source_file>
AV-unprocessed.smi

> <i_m_source_file_index>
2246

> <i_lp_mmshare_version>
43012

> <i_f3d_flags>
0

> <s_epik_input>
RkMoRikoRilbQ0gyXU4xW0NIMl1bQ0gyXVtDQEBIXShDMT1PKW4yW2NIXWMoQ2wpYyg9TylbbkhdYzI9Tw==

> <s_epik_cmdline>
J2VwaWtfcHl0aG9uJywgJy1waCcsICc3LjAnLCAnLXRuJywgJzgnLCAnLW1hJywgJzIwMCcsICctbWV0YWxfYmluZGluZycsICctaW1hZScsICc8aW5maWxlLm1hZT4nLCAnLW9tYWUnLCAnPG91dGZpbGUubWFlPic=

> <r_epik_Ionization_Penalty>
1.33611

> <r_epik_Ionization_Penalty_Charging>
6.88308e-09

> <r_epik_Ionization_Penalty_Neutral>
1.33611

> <r_epik_State_Penalty>
1.41295

> <r_epik_Charging_Adjusted_Penalty>
1.41295

> <i_epik_Tot_Q>
-1

> <i_epik_Tot_abs_Q>
1

> <r_epik_Metal_State_Penalty>
0.00581136

> <b_epik_Metal_Only>
0

> <s_lp_Force_Field>
OPLS_2005

> <r_lp_Energy>
31.0989

> <b_lp_Chiralities_Consistent>
1

> <s_lp_Variant>
AV-unprocessed.smi:2246-4

> <Gold.Version>
5.8.1

> <Gold.Id.Protein>
6NUR|6NUR_protein|mol2

> <Gold.PLP.Fitness>
39.2372

> <Gold.PLP.PLP>
-36.7122

> <Gold.PLP.part.hbond>
-4.8305

> <Gold.PLP.part.metal>
0.0000

> <Gold.PLP.part.buried>
4.7413

> <Gold.PLP.part.nonpolar>
-37.6368

> <Gold.PLP.part.repulsive>
0.7525

> <Gold.PLP.ligand.clash>
1.1154

> <Gold.PLP.ligand.torsion>
0.2641

> <Gold.PLP.Chemscore.Hbond>
1.3535

> <Gold.PLP.Chemscore.CHOScore>
0.0000

> <Gold.PLP.Chemscore.Metal>
0.0000

> <Gold.Chemscore.Hbonds>
donor molecule, donor type, donor heavy atom, donor atom, acceptor molecule, acceptor atom, score
      P1  H  8011  8017       L1    12  0.40
      P1  H 10752 10765       L1     9  0.94

> <Gold.PLP.Chemscore.Internal.Correction>
0.1082

> <Gold.Rescore>
     Score         DG    S(hbond)    S(metal)    S(lipo)     H(rot)  DE(clash)    DE(int)     intcor
      9.26     -13.53       1.09        0.00      69.27       1.45       2.63       1.65       ----

> <Gold.Chemscore.Fitness>
9.2554

> <Gold.Chemscore.DG>
-13.5336

> <Gold.Chemscore.ZeroCoef>
-5.4800

> <Gold.Chemscore.Hbond>
1.0942

> <Gold.Chemscore.Metal>
0.0000

> <Gold.Chemscore.Lipo>
69.2711

> <Gold.Chemscore.Internal_Hbond>
0.0000

> <Gold.Chemscore.DEClash>
2.6276

> <Gold.Chemscore.DEInternal>
1.6505

> <Gold.Chemscore.Rot>
1.4476

> <Gold.Chemscore.Internal.Correction>
   9.000000E+99

> <Gold.Chemscore.Hbonds>
donor molecule, donor type, donor heavy atom, donor atom, acceptor molecule, acceptor atom, score
      P1  H  8011  8017       L1    12  0.39
      P1  H 10752 10765       L1     9  0.85

> <Gold.Chemscore.Hbond.Weighted>
-3.6548

> <Gold.Chemscore.Metal.Weighted>
-0.0000

> <Gold.Chemscore.Lipo.Weighted>
-8.1047

> <Gold.Chemscore.Internal_Hbond.Weighted>
0.0000

> <Gold.Chemscore.DEClash.Weighted>
2.6276

> <Gold.Chemscore.DEInternal.Weighted>
1.6505

> <Gold.Chemscore.Rot.Weighted>
3.7059

> <Gold.Chemscore.Internal.Correction.Weighted>
   9.000000E+99

> <Gold.Protein.RotatedTorsions>
[ 6907 6896 6895 6894 ] final   -0.17 input  -60.11 | X-H torsion
[ 7974 7965 7964 7962 ] final  -96.46 input  175.53 | X-H torsion
[ 8008 7997 7996 7995 ] final  171.75 input   59.86 | X-H torsion
[ 10167 10162 10161 10158 ] final  -60.48 input  -65.29 | X-H torsion
[ 10718 10713 10712 10709 ] final -173.68 input   66.30 | X-H torsion
[ 10763 10752 10751 10750 ] final  152.95 input  -60.55 | X-H torsion
[ 11005 11000 10999 10996 ] final  112.99 input  -57.11 | X-H torsion

> <Gold.Protein.ActiveResidues>
 VAL166  LYS551  ARG553  GLY616  TRP617  ASP618  TYR619  PRO620  LYS621  CYS622 
 ASP623  PHE694  ASN695  SER759  ASP760  ASP761  ALA762  ILE779  LEU786  VAL792 
 PHE793  MET794  SER795  GLU796  ALA797  LYS798  CYS799  TRP800  GLU811  SER814 

> <Gold.Protein.RotatedAtoms>
  151.5667  135.1064  159.9985 H   0  0  0  0  0  0  0  0  0  0  0  0  # atno 6907 bound_to 6896
  152.4421  133.7463  159.6679 H   0  0  0  0  0  0  0  0  0  0  0  0  # atno 6908 bound_to 6896
  150.8328  133.7994  159.3115 H   0  0  0  0  0  0  0  0  0  0  0  0  # atno 6909 bound_to 6896
  145.3465  140.9469  143.2578 H   0  0  0  0  0  0  0  0  0  0  0  0  # atno 7974 bound_to 7965
  156.1241  140.1504  156.9161 H   0  0  0  0  0  0  0  0  0  0  0  0  # atno 8008 bound_to 7997
  154.4858  140.0865  156.7524 H   0  0  0  0  0  0  0  0  0  0  0  0  # atno 8009 bound_to 7997
  155.4374  140.3429  155.4288 H   0  0  0  0  0  0  0  0  0  0  0  0  # atno 8010 bound_to 7997
  140.6068  143.2376  151.5802 H   0  0  0  0  0  0  0  0  0  0  0  0  # atno 10167 bound_to 10162
  156.7740  130.9459  151.3120 H   0  0  0  0  0  0  0  0  0  0  0  0  # atno 10718 bound_to 10713
  154.1284  135.2828  155.3191 H   0  0  0  0  0  0  0  0  0  0  0  0  # atno 10763 bound_to 10752
  154.6373  135.5414  153.7752 H   0  0  0  0  0  0  0  0  0  0  0  0  # atno 10764 bound_to 10752
  153.0289  135.6477  154.1435 H   0  0  0  0  0  0  0  0  0  0  0  0  # atno 10765 bound_to 10752
  139.8941  134.9541  156.6671 H   0  0  0  0  0  0  0  0  0  0  0  0  # atno 11005 bound_to 11000
  144.8750  139.4984  143.6750 LP  0  0  0  0  0  0  0  0  0  0  0  0  # atno 17320 bound_to 7965
  146.2986  139.7354  142.9108 LP  0  0  0  0  0  0  0  0  0  0  0  0  # atno 17321 bound_to 7965
  139.5331  144.2858  152.1192 LP  0  0  0  0  0  0  0  0  0  0  0  0  # atno 17342 bound_to 10162
  140.2050  144.4620  150.6413 LP  0  0  0  0  0  0  0  0  0  0  0  0  # atno 17343 bound_to 10162
  157.6678  130.9023  149.9971 LP  0  0  0  0  0  0  0  0  0  0  0  0  # atno 17370 bound_to 10713
  156.1260  130.3644  149.9809 LP  0  0  0  0  0  0  0  0  0  0  0  0  # atno 17371 bound_to 10713
  140.7402  133.8984  155.8272 LP  0  0  0  0  0  0  0  0  0  0  0  0  # atno 17394 bound_to 11000
  141.0084  134.1055  157.4247 LP  0  0  0  0  0  0  0  0  0  0  0  0  # atno 17395 bound_to 11000

$$$$
