AV-unprocessed.smi:1748|AV-procd|sdf|7042|dock3
  -GOLD-   22720 8263D 1   1.00000     0.00000
 Structure written by MMmdl.
 39 40  0  0  0  0  0  0  0  0  3 V2000
  146.5320  133.3546  150.9181 C   0  0  0  0  0  0  0  0  0  0  0  0
  146.4493  134.5909  151.7247 N   0  3  1  0  0  0  0  0  0  0  0  0
  145.4197  135.5328  151.2179 C   0  0  0  0  0  0  0  0  0  0  0  0
  145.4505  136.8601  151.9961 C   0  0  0  0  0  0  0  0  0  0  0  0
  145.3219  136.6260  153.5116 C   0  0  0  0  0  0  0  0  0  0  0  0
  146.3699  135.6114  154.0051 C   0  0  2  0  0  0  0  0  0  0  0  0
  147.7063  136.2020  153.9313 N   0  0  0  0  0  0  0  0  0  0  0  0
  148.1820  137.1532  154.7475 C   0  0  0  0  0  0  0  0  0  0  0  0
  147.5230  137.6444  155.6635 O   0  0  0  0  0  0  0  0  0  0  0  0
  149.4568  137.4514  154.4408 N   0  0  0  0  0  0  0  0  0  0  0  0
  150.3219  138.3789  155.0449 C   0  0  0  0  0  0  0  0  0  0  0  0
  149.9184  139.4689  155.7545 C   0  0  0  0  0  0  0  0  0  0  0  0
  150.8636  140.4068  156.3471 C   0  0  0  0  0  0  0  0  0  0  0  0
  150.4523  141.5754  157.2252 C   0  0  0  0  0  0  0  0  0  0  0  0
  149.1259  141.7066  157.2594 F   0  0  0  0  0  0  0  0  0  0  0  0
  150.8828  141.3802  158.4710 F   0  0  0  0  0  0  0  0  0  0  0  0
  150.9766  142.7166  156.7780 F   0  0  0  0  0  0  0  0  0  0  0  0
  152.1766  140.0496  156.1084 C   0  0  0  0  0  0  0  0  0  0  0  0
  152.6585  139.0066  155.3972 N   0  5  0  0  0  0  0  0  0  0  0  0
  151.7658  138.1367  154.8462 C   0  0  0  0  0  0  0  0  0  0  0  0
  152.1355  137.1605  154.1925 O   0  0  0  0  0  0  0  0  0  0  0  0
  146.2740  134.3133  153.1723 C   0  0  0  0  0  0  0  0  0  0  0  0
  145.6025  132.7867  150.9743 H   0  0  0  0  0  0  0  0  0  0  0  0
  147.3442  132.7186  151.2719 H   0  0  0  0  0  0  0  0  0  0  0  0
  146.7279  133.5904  149.8717 H   0  0  0  0  0  0  0  0  0  0  0  0
  145.5925  135.7286  150.1589 H   0  0  0  0  0  0  0  0  0  0  0  0
  144.4334  135.0732  151.2991 H   0  0  0  0  0  0  0  0  0  0  0  0
  146.3816  137.3863  151.7817 H   0  0  0  0  0  0  0  0  0  0  0  0
  144.6464  137.5111  151.6519 H   0  0  0  0  0  0  0  0  0  0  0  0
  145.4184  137.5697  154.0500 H   0  0  0  0  0  0  0  0  0  0  0  0
  144.3226  136.2487  153.7330 H   0  0  0  0  0  0  0  0  0  0  0  0
  146.1583  135.3804  155.0507 H   0  0  0  0  0  0  0  0  0  0  0  0
  148.3149  135.8612  153.2012 H   0  0  0  0  0  0  0  0  0  0  0  0
  149.8835  136.9086  153.7042 H   0  0  0  0  0  0  0  0  0  0  0  0
  148.8712  139.6880  155.8828 H   0  0  0  0  0  0  0  0  0  0  0  0
  152.9575  140.6968  156.5615 H   0  0  0  0  0  0  0  0  0  0  0  0
  145.3060  133.8366  153.3346 H   0  0  0  0  0  0  0  0  0  0  0  0
  147.0272  133.5967  153.5021 H   0  0  0  0  0  0  0  0  0  0  0  0
  147.3414  135.0552  151.6283 H   0  0  0  0  0  0  0  0  0  0  0  0
  1  2  1  0  0  0  0
  1 23  1  0  0  0  0
  1 24  1  0  0  0  0
  1 25  1  0  0  0  0
  2 22  1  0  0  0  0
  2  3  1  0  0  0  0
  2 39  1  0  0  0  0
  3  4  1  0  0  0  0
  3 26  1  0  0  0  0
  3 27  1  0  0  0  0
  4  5  1  0  0  0  0
  4 28  1  0  0  0  0
  4 29  1  0  0  0  0
  5  6  1  0  0  0  0
  5 30  1  0  0  0  0
  5 31  1  0  0  0  0
  6  7  1  0  0  0  0
  6 22  1  0  0  0  0
  6 32  1  0  0  0  0
  7  8  1  0  0  0  0
  7 33  1  0  0  0  0
  8  9  2  0  0  0  0
  8 10  1  0  0  0  0
 10 11  1  0  0  0  0
 10 34  1  0  0  0  0
 11 20  1  0  0  0  0
 11 12  2  0  0  0  0
 12 13  1  0  0  0  0
 12 35  1  0  0  0  0
 13 14  1  0  0  0  0
 13 18  2  0  0  0  0
 14 15  1  0  0  0  0
 14 16  1  0  0  0  0
 14 17  1  0  0  0  0
 18 19  1  0  0  0  0
 18 36  1  0  0  0  0
 19 20  1  0  0  0  0
 20 21  2  0  0  0  0
 22 37  1  0  0  0  0
 22 38  1  0  0  0  0
M  CHG  1   2   1
M  CHG  1  19  -1
M  END
> <s_m_source_file>
AV-unprocessed.smi

> <i_m_source_file_index>
1748

> <i_lp_mmshare_version>
43012

> <i_f3d_flags>
0

> <s_epik_input>
W0NIM11OMVtDSDJdW0NIMl1bQ0gyXVtDQEhdKFtDSDJdMSlbTkhdQyg9TylbTkhdYzJbY0hdYyhDKEYpKEYpRilbY0hdW25IXWMyPU8=

> <s_epik_cmdline>
J2VwaWtfcHl0aG9uJywgJy1waCcsICc3LjAnLCAnLXRuJywgJzgnLCAnLW1hJywgJzIwMCcsICctbWV0YWxfYmluZGluZycsICctaW1hZScsICc8aW5maWxlLm1hZT4nLCAnLW9tYWUnLCAnPG91dGZpbGUubWFlPic=

> <r_lp_tautomer_probability>
1

> <r_epik_Ionization_Penalty>
3.00907

> <r_epik_Ionization_Penalty_Charging>
0.148702

> <r_epik_Ionization_Penalty_Neutral>
2.86036

> <r_epik_State_Penalty>
2.85557

> <r_epik_Charging_Adjusted_Penalty>
3.00428

> <i_epik_Tot_Q>
0

> <i_epik_Tot_abs_Q>
2

> <r_epik_Metal_State_Penalty>
0.443779

> <b_epik_Metal_Only>
1

> <s_lp_Force_Field>
OPLS_2005

> <r_lp_Energy>
33.4181

> <b_lp_Chiralities_Consistent>
1

> <s_lp_Variant>
AV-unprocessed.smi:1748-7

> <Gold.Version>
5.8.1

> <Gold.Id.Protein>
6NUR|6NUR_protein|mol2

> <Gold.PLP.Fitness>
42.9574

> <Gold.PLP.PLP>
-30.6796

> <Gold.PLP.part.hbond>
-4.0393

> <Gold.PLP.part.metal>
0.0000

> <Gold.PLP.part.buried>
-3.3528

> <Gold.PLP.part.nonpolar>
-24.5542

> <Gold.PLP.part.repulsive>
0.9684

> <Gold.PLP.ligand.clash>
0.0000

> <Gold.PLP.ligand.torsion>
0.3542

> <Gold.PLP.Chemscore.Hbond>
4.3120

> <Gold.PLP.Chemscore.CHOScore>
0.0000

> <Gold.PLP.Chemscore.Metal>
0.0000

> <Gold.Chemscore.Hbonds>
donor molecule, donor type, donor heavy atom, donor atom, acceptor molecule, acceptor atom, score
      L1  H     2    39       P1  7948  2.00
      L1  H     7    33       P1  7948  0.87
      L1  H    10    34       P1  7948  0.42
      P1  H 10752 10765       L1    21  0.93

> <Gold.PLP.Chemscore.Internal.Correction>
0.0501

> <Gold.Rescore>
     Score         DG    S(hbond)    S(metal)    S(lipo)     H(rot)  DE(clash)    DE(int)     intcor
     17.70     -19.38       3.16        0.00      50.31       1.00       0.32       1.36       ----

> <Gold.Chemscore.Fitness>
17.6990

> <Gold.Chemscore.DG>
-19.3754

> <Gold.Chemscore.ZeroCoef>
-5.4800

> <Gold.Chemscore.Hbond>
3.1645

> <Gold.Chemscore.Metal>
0.0000

> <Gold.Chemscore.Lipo>
50.3076

> <Gold.Chemscore.Internal_Hbond>
0.0000

> <Gold.Chemscore.DEClash>
0.3167

> <Gold.Chemscore.DEInternal>
1.3598

> <Gold.Chemscore.Rot>
1.0000

> <Gold.Chemscore.Internal.Correction>
   9.000000E+99

> <Gold.Chemscore.Hbonds>
donor molecule, donor type, donor heavy atom, donor atom, acceptor molecule, acceptor atom, score
      L1  H     2    39       P1  7948  0.81
      L1  H     7    33       P1  7948  0.80
      L1  H    10    34       P1  7948  0.19
      P1  H 10752 10765       L1    21  0.90

> <Gold.Chemscore.Hbond.Weighted>
-10.5694

> <Gold.Chemscore.Metal.Weighted>
-0.0000

> <Gold.Chemscore.Lipo.Weighted>
-5.8860

> <Gold.Chemscore.Internal_Hbond.Weighted>
0.0000

> <Gold.Chemscore.DEClash.Weighted>
0.3167

> <Gold.Chemscore.DEInternal.Weighted>
1.3598

> <Gold.Chemscore.Rot.Weighted>
2.5600

> <Gold.Chemscore.Internal.Correction.Weighted>
   9.000000E+99

> <Gold.Protein.RotatedTorsions>
[ 6907 6896 6895 6894 ] final  151.52 input  -60.11 | X-H torsion
[ 7974 7965 7964 7962 ] final  -21.37 input  175.53 | X-H torsion
[ 8008 7997 7996 7995 ] final   66.82 input   59.86 | X-H torsion
[ 10167 10162 10161 10158 ] final  -46.36 input  -65.29 | X-H torsion
[ 10718 10713 10712 10709 ] final -166.81 input   66.30 | X-H torsion
[ 10763 10752 10751 10750 ] final  148.51 input  -60.55 | X-H torsion
[ 11005 11000 10999 10996 ] final -132.64 input  -57.11 | X-H torsion

> <Gold.Protein.ActiveResidues>
 VAL166  LYS551  ARG553  GLY616  TRP617  ASP618  TYR619  PRO620  LYS621  CYS622 
 ASP623  PHE694  ASN695  SER759  ASP760  ASP761  ALA762  ILE779  LEU786  VAL792 
 PHE793  MET794  SER795  GLU796  ALA797  LYS798  CYS799  TRP800  GLU811  SER814 

> <Gold.Protein.RotatedAtoms>
  152.0994  133.4242  159.4579 H   0  0  0  0  0  0  0  0  0  0  0  0  # atno 6907 bound_to 6896
  150.6864  134.2778  159.4624 H   0  0  0  0  0  0  0  0  0  0  0  0  # atno 6908 bound_to 6896
  152.0637  134.9578  160.0625 H   0  0  0  0  0  0  0  0  0  0  0  0  # atno 6909 bound_to 6896
  146.1737  140.4331  142.8522 H   0  0  0  0  0  0  0  0  0  0  0  0  # atno 7974 bound_to 7965
  155.6834  140.3496  155.4864 H   0  0  0  0  0  0  0  0  0  0  0  0  # atno 8008 bound_to 7997
  155.9587  140.1133  157.0937 H   0  0  0  0  0  0  0  0  0  0  0  0  # atno 8009 bound_to 7997
  154.4138  140.1180  156.5136 H   0  0  0  0  0  0  0  0  0  0  0  0  # atno 8010 bound_to 7997
  140.6820  143.2835  151.3771 H   0  0  0  0  0  0  0  0  0  0  0  0  # atno 10167 bound_to 10162
  156.6733  130.9092  151.3047 H   0  0  0  0  0  0  0  0  0  0  0  0  # atno 10718 bound_to 10713
  154.0560  135.2878  155.3333 H   0  0  0  0  0  0  0  0  0  0  0  0  # atno 10763 bound_to 10752
  154.6839  135.5253  153.8303 H   0  0  0  0  0  0  0  0  0  0  0  0  # atno 10764 bound_to 10752
  153.0541  135.6588  154.0752 H   0  0  0  0  0  0  0  0  0  0  0  0  # atno 10765 bound_to 10752
  140.9152  134.1516  157.4358 H   0  0  0  0  0  0  0  0  0  0  0  0  # atno 11005 bound_to 11000
  144.8202  140.6537  143.6358 LP  0  0  0  0  0  0  0  0  0  0  0  0  # atno 17320 bound_to 7965
  145.4271  139.1555  143.4042 LP  0  0  0  0  0  0  0  0  0  0  0  0  # atno 17321 bound_to 7965
  139.6150  144.1021  152.2337 LP  0  0  0  0  0  0  0  0  0  0  0  0  # atno 17342 bound_to 10162
  140.0447  144.5980  150.7383 LP  0  0  0  0  0  0  0  0  0  0  0  0  # atno 17343 bound_to 10162
  157.7070  130.9396  150.0962 LP  0  0  0  0  0  0  0  0  0  0  0  0  # atno 17370 bound_to 10713
  156.1922  130.3655  149.8894 LP  0  0  0  0  0  0  0  0  0  0  0  0  # atno 17371 bound_to 10713
  139.8765  134.9951  156.5726 LP  0  0  0  0  0  0  0  0  0  0  0  0  # atno 17394 bound_to 11000
  140.8058  133.8468  155.8767 LP  0  0  0  0  0  0  0  0  0  0  0  0  # atno 17395 bound_to 11000

$$$$
