AV-unprocessed.smi:1401|AV-procd|sdf|5689|dock1
  -GOLD-   22720 5313D 1   1.00000     0.00000
 Structure written by MMmdl.
 48 50  0  0  0  0  0  0  0  0  1 V2000
  146.7537  139.7827  154.1843 C   0  0  0  0  0  0  0  0  0  0  0  0
  147.9939  138.9646  154.4221 C   0  0  0  0  0  0  0  0  0  0  0  0
  147.8432  137.6820  154.4630 N   0  0  0  0  0  0  0  0  0  0  0  0
  148.9111  136.8371  154.7008 N   0  0  0  0  0  0  0  0  0  0  0  0
  148.5259  135.4201  154.8214 C   0  0  0  0  0  0  0  0  0  0  0  0
  147.0587  135.1413  154.4487 C   0  0  0  0  0  0  0  0  0  0  0  0
  146.2310  134.9631  155.3413 O   0  0  0  0  0  0  0  0  0  0  0  0
  146.7551  135.0616  153.1426 N   0  0  0  0  0  0  0  0  0  0  0  0
  145.4895  134.6206  152.5697 C   0  0  1  0  0  0  0  0  0  0  0  0
  144.4811  135.7820  152.5421 C   0  0  0  0  0  0  0  0  0  0  0  0
  145.7501  134.0468  151.1562 C   0  0  2  0  0  0  0  0  0  0  0  0
  144.5261  134.0636  150.2142 C   0  0  0  0  0  0  0  0  0  0  0  0
  144.4859  132.6207  149.6749 C   0  0  2  0  0  0  0  0  0  0  0  0
  143.9863  131.6787  150.7865 C   0  0  0  0  0  0  0  0  0  0  0  0
  145.1878  131.6215  151.7475 C   0  0  0  0  0  0  0  0  0  0  0  0
  146.2047  132.5663  151.0759 C   0  0  1  0  0  0  0  0  0  0  0  0
  145.9654  132.2616  149.6013 C   0  0  0  0  0  0  0  0  0  0  0  0
  150.1977  137.2491  154.8921 C   0  0  0  0  0  0  0  0  0  0  0  0
  151.1183  136.4634  155.1203 O   0  0  0  0  0  0  0  0  0  0  0  0
  150.3638  138.7031  154.8280 C   0  0  0  0  0  0  0  0  0  0  0  0
  151.6954  139.1776  155.0262 C   0  0  0  0  0  0  0  0  0  0  0  0
  152.7699  139.5804  155.1780 N   0  0  0  0  0  0  0  0  0  0  0  0
  149.3203  139.5420  154.6092 C   0  0  0  0  0  0  0  0  0  0  0  0
  149.4362  141.0589  154.5508 C   0  0  0  0  0  0  0  0  0  0  0  0
  146.8454  140.3685  153.2695 H   0  0  0  0  0  0  0  0  0  0  0  0
  146.5804  140.4702  155.0124 H   0  0  0  0  0  0  0  0  0  0  0  0
  145.8655  139.1563  154.0879 H   0  0  0  0  0  0  0  0  0  0  0  0
  149.1637  134.8191  154.1706 H   0  0  0  0  0  0  0  0  0  0  0  0
  148.7068  135.0420  155.8287 H   0  0  0  0  0  0  0  0  0  0  0  0
  147.5007  135.2405  152.4859 H   0  0  0  0  0  0  0  0  0  0  0  0
  145.0821  133.8298  153.2015 H   0  0  0  0  0  0  0  0  0  0  0  0
  143.5261  135.4648  152.1230 H   0  0  0  0  0  0  0  0  0  0  0  0
  144.8487  136.6131  151.9394 H   0  0  0  0  0  0  0  0  0  0  0  0
  144.2852  136.1610  153.5454 H   0  0  0  0  0  0  0  0  0  0  0  0
  146.5399  134.6446  150.6972 H   0  0  0  0  0  0  0  0  0  0  0  0
  143.5985  134.3309  150.7218 H   0  0  0  0  0  0  0  0  0  0  0  0
  144.6773  134.7801  149.4060 H   0  0  0  0  0  0  0  0  0  0  0  0
  143.9382  132.5192  148.7376 H   0  0  0  0  0  0  0  0  0  0  0  0
  143.0832  132.0520  151.2709 H   0  0  0  0  0  0  0  0  0  0  0  0
  143.7672  130.6870  150.3886 H   0  0  0  0  0  0  0  0  0  0  0  0
  144.9304  131.9159  152.7644 H   0  0  0  0  0  0  0  0  0  0  0  0
  145.5866  130.6074  151.7958 H   0  0  0  0  0  0  0  0  0  0  0  0
  147.2319  132.4060  151.4043 H   0  0  0  0  0  0  0  0  0  0  0  0
  146.1459  131.2174  149.3394 H   0  0  0  0  0  0  0  0  0  0  0  0
  146.5344  132.9033  148.9261 H   0  0  0  0  0  0  0  0  0  0  0  0
  150.4626  141.4008  154.6818 H   0  0  0  0  0  0  0  0  0  0  0  0
  148.8352  141.5174  155.3372 H   0  0  0  0  0  0  0  0  0  0  0  0
  149.0875  141.4335  153.5878 H   0  0  0  0  0  0  0  0  0  0  0  0
  1  2  1  0  0  0  0
  1 25  1  0  0  0  0
  1 26  1  0  0  0  0
  1 27  1  0  0  0  0
  2 23  1  0  0  0  0
  2  3  2  0  0  0  0
  3  4  1  0  0  0  0
  4  5  1  0  0  0  0
  4 18  1  0  0  0  0
  5  6  1  0  0  0  0
  5 28  1  0  0  0  0
  5 29  1  0  0  0  0
  6  7  2  0  0  0  0
  6  8  1  0  0  0  0
  8  9  1  0  0  0  0
  8 30  1  0  0  0  0
  9 10  1  0  0  0  0
  9 11  1  0  0  0  0
  9 31  1  0  0  0  0
 10 32  1  0  0  0  0
 10 33  1  0  0  0  0
 10 34  1  0  0  0  0
 11 16  1  0  0  0  0
 11 12  1  0  0  0  0
 11 35  1  0  0  0  0
 12 13  1  0  0  0  0
 12 36  1  0  0  0  0
 12 37  1  0  0  0  0
 13 17  1  0  0  0  0
 13 14  1  0  0  0  0
 13 38  1  0  0  0  0
 14 15  1  0  0  0  0
 14 39  1  0  0  0  0
 14 40  1  0  0  0  0
 15 16  1  0  0  0  0
 15 41  1  0  0  0  0
 15 42  1  0  0  0  0
 16 17  1  0  0  0  0
 16 43  1  0  0  0  0
 17 44  1  0  0  0  0
 17 45  1  0  0  0  0
 18 19  2  0  0  0  0
 18 20  1  0  0  0  0
 20 21  1  0  0  0  0
 20 23  2  0  0  0  0
 21 22  3  0  0  0  0
 23 24  1  0  0  0  0
 24 46  1  0  0  0  0
 24 47  1  0  0  0  0
 24 48  1  0  0  0  0
M  END
> <s_m_source_file>
AV-unprocessed.smi

> <i_m_source_file_index>
1401

> <i_lp_mmshare_version>
43012

> <i_f3d_flags>
0

> <s_epik_input>
TiNDYyhjMVtDSDNdKWMoPU8pbihuYzFbQ0gzXSlbQ0gyXUMoPU8pW05IXVtDQEhdKFtDSDNdKVtDQEhdKFtDSDJdW0NASF0yMylbQ0BIXShbQ0gyXTMpW0NIMl1bQ0gyXTI=

> <s_epik_cmdline>
J2VwaWtfcHl0aG9uJywgJy1waCcsICc3LjAnLCAnLXRuJywgJzgnLCAnLW1hJywgJzIwMCcsICctbWV0YWxfYmluZGluZycsICctaW1hZScsICc8aW5maWxlLm1hZT4nLCAnLW9tYWUnLCAnPG91dGZpbGUubWFlPic=

> <r_lp_tautomer_probability>
1

> <r_epik_Ionization_Penalty>
2.16501e-08

> <r_epik_Ionization_Penalty_Charging>
2.29436e-11

> <r_epik_Ionization_Penalty_Neutral>
2.16271e-08

> <r_epik_State_Penalty>
-0

> <r_epik_Charging_Adjusted_Penalty>
2.29436e-11

> <i_epik_Tot_Q>
0

> <i_epik_Tot_abs_Q>
0

> <r_epik_Metal_State_Penalty>
-0

> <b_epik_Metal_Only>
0

> <s_lp_Force_Field>
OPLS_2005

> <r_lp_Energy>
65.4856

> <b_lp_Chiralities_Consistent>
1

> <s_lp_Variant>
AV-unprocessed.smi:1401-2

> <Gold.Version>
5.8.1

> <Gold.Id.Protein>
6NUR|6NUR_protein|mol2

> <Gold.PLP.Fitness>
44.7440

> <Gold.PLP.PLP>
-38.0641

> <Gold.PLP.part.hbond>
-4.0000

> <Gold.PLP.part.metal>
0.0000

> <Gold.PLP.part.buried>
0.8705

> <Gold.PLP.part.nonpolar>
-34.9045

> <Gold.PLP.part.repulsive>
0.4188

> <Gold.PLP.ligand.clash>
0.0000

> <Gold.PLP.ligand.torsion>
1.1929

> <Gold.PLP.Chemscore.Hbond>
3.0000

> <Gold.PLP.Chemscore.CHOScore>
0.0000

> <Gold.PLP.Chemscore.Metal>
0.0000

> <Gold.Chemscore.Hbonds>
donor molecule, donor type, donor heavy atom, donor atom, acceptor molecule, acceptor atom, score
      L1  H     8    30       P1  7948  1.00
      P1  H  7997  8008       L1    22  1.00
      P1  H 10752 10764       L1    19  0.86

> <Gold.PLP.Chemscore.Internal.Correction>
0.0658

> <Gold.Rescore>
     Score         DG    S(hbond)    S(metal)    S(lipo)     H(rot)  DE(clash)    DE(int)     intcor
     20.87     -22.07       2.94        0.00      93.49       1.63       0.07       1.12       ----

> <Gold.Chemscore.Fitness>
20.8741

> <Gold.Chemscore.DG>
-22.0679

> <Gold.Chemscore.ZeroCoef>
-5.4800

> <Gold.Chemscore.Hbond>
2.9392

> <Gold.Chemscore.Metal>
0.0000

> <Gold.Chemscore.Lipo>
93.4932

> <Gold.Chemscore.Internal_Hbond>
0.0000

> <Gold.Chemscore.DEClash>
0.0739

> <Gold.Chemscore.DEInternal>
1.1199

> <Gold.Chemscore.Rot>
1.6281

> <Gold.Chemscore.Internal.Correction>
   9.000000E+99

> <Gold.Chemscore.Hbonds>
donor molecule, donor type, donor heavy atom, donor atom, acceptor molecule, acceptor atom, score
      L1  H     8    30       P1  7948  0.97
      P1  H  7997  8008       L1    22  0.95
      P1  H 10752 10764       L1    19  0.84

> <Gold.Chemscore.Hbond.Weighted>
-9.8170

> <Gold.Chemscore.Metal.Weighted>
-0.0000

> <Gold.Chemscore.Lipo.Weighted>
-10.9387

> <Gold.Chemscore.Internal_Hbond.Weighted>
0.0000

> <Gold.Chemscore.DEClash.Weighted>
0.0739

> <Gold.Chemscore.DEInternal.Weighted>
1.1199

> <Gold.Chemscore.Rot.Weighted>
4.1678

> <Gold.Chemscore.Internal.Correction.Weighted>
   9.000000E+99

> <Gold.Protein.RotatedTorsions>
[ 6907 6896 6895 6894 ] final   86.94 input  -60.11 | X-H torsion
[ 7974 7965 7964 7962 ] final -133.85 input  175.53 | X-H torsion
[ 8008 7997 7996 7995 ] final  -38.90 input   59.86 | X-H torsion
[ 10167 10162 10161 10158 ] final  157.72 input  -65.29 | X-H torsion
[ 10718 10713 10712 10709 ] final  -44.76 input   66.30 | X-H torsion
[ 10763 10752 10751 10750 ] final  -55.13 input  -60.55 | X-H torsion
[ 11005 11000 10999 10996 ] final  104.46 input  -57.11 | X-H torsion

> <Gold.Protein.ActiveResidues>
 VAL166  LYS551  ARG553  GLY616  TRP617  ASP618  TYR619  PRO620  LYS621  CYS622 
 ASP623  PHE694  ASN695  SER759  ASP760  ASP761  ALA762  ILE779  LEU786  VAL792 
 PHE793  MET794  SER795  GLU796  ALA797  LYS798  CYS799  TRP800  GLU811  SER814 

> <Gold.Protein.RotatedAtoms>
  152.5403  134.2353  159.8840 H   0  0  0  0  0  0  0  0  0  0  0  0  # atno 6907 bound_to 6896
  151.2323  133.4437  159.2612 H   0  0  0  0  0  0  0  0  0  0  0  0  # atno 6908 bound_to 6896
  151.0704  134.9808  159.8362 H   0  0  0  0  0  0  0  0  0  0  0  0  # atno 6909 bound_to 6896
  144.9156  140.6950  143.4998 H   0  0  0  0  0  0  0  0  0  0  0  0  # atno 7974 bound_to 7965
  154.4030  140.1565  156.2776 H   0  0  0  0  0  0  0  0  0  0  0  0  # atno 8008 bound_to 7997
  155.8898  140.3439  155.5926 H   0  0  0  0  0  0  0  0  0  0  0  0  # atno 8009 bound_to 7997
  155.7571  140.0812  157.2164 H   0  0  0  0  0  0  0  0  0  0  0  0  # atno 8010 bound_to 7997
  139.4824  144.4891  151.8335 H   0  0  0  0  0  0  0  0  0  0  0  0  # atno 10167 bound_to 10162
  156.2352  130.4175  149.8826 H   0  0  0  0  0  0  0  0  0  0  0  0  # atno 10718 bound_to 10713
  154.1859  135.6435  153.5046 H   0  0  0  0  0  0  0  0  0  0  0  0  # atno 10763 bound_to 10752
  153.0047  135.5417  154.6466 H   0  0  0  0  0  0  0  0  0  0  0  0  # atno 10764 bound_to 10752
  154.5842  135.2928  155.0674 H   0  0  0  0  0  0  0  0  0  0  0  0  # atno 10765 bound_to 10752
  139.8792  134.9301  156.5365 H   0  0  0  0  0  0  0  0  0  0  0  0  # atno 11005 bound_to 11000
  145.3382  139.1740  143.4500 LP  0  0  0  0  0  0  0  0  0  0  0  0  # atno 17320 bound_to 7965
  146.3180  140.3419  142.8649 LP  0  0  0  0  0  0  0  0  0  0  0  0  # atno 17321 bound_to 7965
  140.4373  144.2034  150.5890 LP  0  0  0  0  0  0  0  0  0  0  0  0  # atno 17342 bound_to 10162
  140.4719  143.2410  151.9078 LP  0  0  0  0  0  0  0  0  0  0  0  0  # atno 17343 bound_to 10162
  156.6427  130.8711  151.3517 LP  0  0  0  0  0  0  0  0  0  0  0  0  # atno 17370 bound_to 10713
  157.7151  130.9487  150.1226 LP  0  0  0  0  0  0  0  0  0  0  0  0  # atno 17371 bound_to 10713
  140.8342  133.8255  155.9013 LP  0  0  0  0  0  0  0  0  0  0  0  0  # atno 17394 bound_to 11000
  140.9300  134.2034  157.4870 LP  0  0  0  0  0  0  0  0  0  0  0  0  # atno 17395 bound_to 11000

$$$$
