AV-unprocessed.smi:2819|AV-procd|sdf|10852|dock3
  -GOLD-   2272015293D 1   1.00000     0.00000
 Structure written by MMmdl.
 49 50  0  0  0  0  0  0  0  0  1 V2000
  145.6627  133.7605  150.9352 C   0  0  0  0  0  0  0  0  0  0  0  0
  144.2631  133.5961  151.3131 N   0  0  0  0  0  0  0  0  0  0  0  0
  143.5743  132.3402  151.0444 C   0  0  0  0  0  0  0  0  0  0  0  0
  143.6005  134.6291  152.0128 C   0  0  0  0  0  0  0  0  0  0  0  0
  142.3144  134.4467  152.5764 C   0  0  0  0  0  0  0  0  0  0  0  0
  141.7545  135.5470  153.2535 C   0  0  0  0  0  0  0  0  0  0  0  0
  142.4067  136.7218  153.3635 N   0  0  0  0  0  0  0  0  0  0  0  0
  143.6184  136.8056  152.8000 C   0  0  0  0  0  0  0  0  0  0  0  0
  144.3395  137.9778  152.8736 N   0  0  0  0  0  0  0  0  0  0  0  0
  145.6471  138.1944  153.1120 C   0  0  0  0  0  0  0  0  0  0  0  0
  146.4900  137.3210  153.3213 O   0  0  0  0  0  0  0  0  0  0  0  0
  145.9326  139.5044  153.0821 N   0  0  0  0  0  0  0  0  0  0  0  0
  147.2597  140.0949  153.2591 C   0  0  0  0  0  0  0  0  0  0  0  0
  147.2741  141.2488  154.3055 C   0  0  0  0  0  0  0  0  0  0  0  0
  148.7477  141.6914  154.4752 C   0  0  0  0  0  0  0  0  0  0  0  0
  146.5136  142.4381  153.6647 C   0  0  0  0  0  0  0  0  0  0  0  0
  146.6391  140.8343  155.5887 N   0  0  0  0  0  0  0  0  0  0  0  0
  146.4376  141.9173  156.5580 C   0  0  0  0  0  0  0  0  0  0  0  0
  145.6698  141.4432  157.8038 C   0  0  0  0  0  0  0  0  0  0  0  0
  146.3589  140.3550  158.4071 O   0  0  0  0  0  0  0  0  0  0  0  0
  146.5235  139.2574  157.5178 C   0  0  0  0  0  0  0  0  0  0  0  0
  147.2987  139.7138  156.2701 C   0  0  0  0  0  0  0  0  0  0  0  0
  144.2337  135.8224  152.1365 N   0  0  0  0  0  0  0  0  0  0  0  0
  145.7849  134.6291  150.2874 H   0  0  0  0  0  0  0  0  0  0  0  0
  146.0352  132.8889  150.3966 H   0  0  0  0  0  0  0  0  0  0  0  0
  146.2843  133.8972  151.8206 H   0  0  0  0  0  0  0  0  0  0  0  0
  143.2550  131.8706  151.9754 H   0  0  0  0  0  0  0  0  0  0  0  0
  144.2219  131.6358  150.5222 H   0  0  0  0  0  0  0  0  0  0  0  0
  142.6964  132.5102  150.4204 H   0  0  0  0  0  0  0  0  0  0  0  0
  141.7669  133.5191  152.5057 H   0  0  0  0  0  0  0  0  0  0  0  0
  140.7772  135.4830  153.7086 H   0  0  0  0  0  0  0  0  0  0  0  0
  143.7922  138.8097  152.7105 H   0  0  0  0  0  0  0  0  0  0  0  0
  145.1780  140.1486  152.8956 H   0  0  0  0  0  0  0  0  0  0  0  0
  147.9414  139.2960  153.5499 H   0  0  0  0  0  0  0  0  0  0  0  0
  147.6523  140.4474  152.3037 H   0  0  0  0  0  0  0  0  0  0  0  0
  149.1732  142.0061  153.5215 H   0  0  0  0  0  0  0  0  0  0  0  0
  149.3790  140.8850  154.8479 H   0  0  0  0  0  0  0  0  0  0  0  0
  148.8494  142.5355  155.1567 H   0  0  0  0  0  0  0  0  0  0  0  0
  146.8547  142.6288  152.6464 H   0  0  0  0  0  0  0  0  0  0  0  0
  146.6628  143.3680  154.2134 H   0  0  0  0  0  0  0  0  0  0  0  0
  145.4399  142.2532  153.6179 H   0  0  0  0  0  0  0  0  0  0  0  0
  147.3975  142.3272  156.8715 H   0  0  0  0  0  0  0  0  0  0  0  0
  145.8731  142.7358  156.1151 H   0  0  0  0  0  0  0  0  0  0  0  0
  145.5844  142.2545  158.5269 H   0  0  0  0  0  0  0  0  0  0  0  0
  144.6552  141.1404  157.5402 H   0  0  0  0  0  0  0  0  0  0  0  0
  147.0656  138.4626  158.0304 H   0  0  0  0  0  0  0  0  0  0  0  0
  145.5484  138.8533  157.2407 H   0  0  0  0  0  0  0  0  0  0  0  0
  147.3945  138.8553  155.6081 H   0  0  0  0  0  0  0  0  0  0  0  0
  148.3076  139.9968  156.5700 H   0  0  0  0  0  0  0  0  0  0  0  0
  1  2  1  0  0  0  0
  1 24  1  0  0  0  0
  1 25  1  0  0  0  0
  1 26  1  0  0  0  0
  2  3  1  0  0  0  0
  2  4  1  0  0  0  0
  3 27  1  0  0  0  0
  3 28  1  0  0  0  0
  3 29  1  0  0  0  0
  4 23  1  0  0  0  0
  4  5  2  0  0  0  0
  5  6  1  0  0  0  0
  5 30  1  0  0  0  0
  6  7  2  0  0  0  0
  6 31  1  0  0  0  0
  7  8  1  0  0  0  0
  8  9  1  0  0  0  0
  8 23  2  0  0  0  0
  9 10  1  0  0  0  0
  9 32  1  0  0  0  0
 10 11  2  0  0  0  0
 10 12  1  0  0  0  0
 12 13  1  0  0  0  0
 12 33  1  0  0  0  0
 13 14  1  0  0  0  0
 13 34  1  0  0  0  0
 13 35  1  0  0  0  0
 14 15  1  0  0  0  0
 14 16  1  0  0  0  0
 14 17  1  0  0  0  0
 15 36  1  0  0  0  0
 15 37  1  0  0  0  0
 15 38  1  0  0  0  0
 16 39  1  0  0  0  0
 16 40  1  0  0  0  0
 16 41  1  0  0  0  0
 17 22  1  0  0  0  0
 17 18  1  0  0  0  0
 18 19  1  0  0  0  0
 18 42  1  0  0  0  0
 18 43  1  0  0  0  0
 19 20  1  0  0  0  0
 19 44  1  0  0  0  0
 19 45  1  0  0  0  0
 20 21  1  0  0  0  0
 21 22  1  0  0  0  0
 21 46  1  0  0  0  0
 21 47  1  0  0  0  0
 22 48  1  0  0  0  0
 22 49  1  0  0  0  0
M  END
> <s_m_source_file>
AV-unprocessed.smi

> <i_m_source_file_index>
2819

> <i_lp_mmshare_version>
43012

> <i_f3d_flags>
0

> <s_epik_input>
W0NIM11OKFtDSDNdKWMxW2NIXVtjSF1uYyhuMSlbTkhdQyg9TylbTkhdW0NIMl1DKFtDSDNdKShbQ0gzXSlOMltDSDJdW0NIMl1PW0NIMl1bQ0gyXTI=

> <s_epik_cmdline>
J2VwaWtfcHl0aG9uJywgJy1waCcsICc3LjAnLCAnLXRuJywgJzgnLCAnLW1hJywgJzIwMCcsICctbWV0YWxfYmluZGluZycsICctaW1hZScsICc8aW5maWxlLm1hZT4nLCAnLW9tYWUnLCAnPG91dGZpbGUubWFlPic=

> <r_lp_tautomer_probability>
1

> <r_epik_Ionization_Penalty>
1.38931

> <r_epik_Ionization_Penalty_Charging>
0

> <r_epik_Ionization_Penalty_Neutral>
1.38931

> <r_epik_State_Penalty>
1.41304

> <r_epik_Charging_Adjusted_Penalty>
1.41304

> <i_epik_Tot_Q>
0

> <i_epik_Tot_abs_Q>
0

> <r_epik_Metal_State_Penalty>
0.631353

> <b_epik_Metal_Only>
0

> <s_lp_Force_Field>
OPLS_2005

> <r_lp_Energy>
40.3447

> <b_lp_Chiralities_Consistent>
1

> <s_lp_Variant>
AV-unprocessed.smi:2819-3

> <Gold.Version>
5.8.1

> <Gold.Id.Protein>
6NUR|6NUR_protein|mol2

> <Gold.PLP.Fitness>
39.0828

> <Gold.PLP.PLP>
-33.9841

> <Gold.PLP.part.hbond>
-3.3340

> <Gold.PLP.part.metal>
0.0000

> <Gold.PLP.part.buried>
-4.2272

> <Gold.PLP.part.nonpolar>
-26.2155

> <Gold.PLP.part.repulsive>
1.0502

> <Gold.PLP.ligand.clash>
0.0000

> <Gold.PLP.ligand.torsion>
0.5145

> <Gold.PLP.Chemscore.Hbond>
2.0083

> <Gold.PLP.Chemscore.CHOScore>
0.0000

> <Gold.PLP.Chemscore.Metal>
0.0000

> <Gold.Chemscore.Hbonds>
donor molecule, donor type, donor heavy atom, donor atom, acceptor molecule, acceptor atom, score
      L1  H     9    32       P1 10175  1.00
      L1  H    12    33       P1 10175  1.00
      P1  H  6934  6946       L1    20  0.02

> <Gold.PLP.Chemscore.Internal.Correction>
0.1028

> <Gold.Rescore>
     Score         DG    S(hbond)    S(metal)    S(lipo)     H(rot)  DE(clash)    DE(int)     intcor
     13.39     -15.20       1.96        0.00      60.17       1.51       0.30       1.52       ----

> <Gold.Chemscore.Fitness>
13.3885

> <Gold.Chemscore.DG>
-15.2046

> <Gold.Chemscore.ZeroCoef>
-5.4800

> <Gold.Chemscore.Hbond>
1.9591

> <Gold.Chemscore.Metal>
0.0000

> <Gold.Chemscore.Lipo>
60.1746

> <Gold.Chemscore.Internal_Hbond>
0.0000

> <Gold.Chemscore.DEClash>
0.2973

> <Gold.Chemscore.DEInternal>
1.5189

> <Gold.Chemscore.Rot>
1.5075

> <Gold.Chemscore.Internal.Correction>
   9.000000E+99

> <Gold.Chemscore.Hbonds>
donor molecule, donor type, donor heavy atom, donor atom, acceptor molecule, acceptor atom, score
      L1  H     9    32       P1 10175  0.97
      L1  H    12    33       P1 10175  0.94
      P1  H  6934  6946       L1    20  0.02

> <Gold.Chemscore.Hbond.Weighted>
-6.5433

> <Gold.Chemscore.Metal.Weighted>
-0.0000

> <Gold.Chemscore.Lipo.Weighted>
-7.0404

> <Gold.Chemscore.Internal_Hbond.Weighted>
0.0000

> <Gold.Chemscore.DEClash.Weighted>
0.2973

> <Gold.Chemscore.DEInternal.Weighted>
1.5189

> <Gold.Chemscore.Rot.Weighted>
3.8591

> <Gold.Chemscore.Internal.Correction.Weighted>
   9.000000E+99

> <Gold.Protein.RotatedTorsions>
[ 6907 6896 6895 6894 ] final   10.58 input  -60.11 | X-H torsion
[ 7974 7965 7964 7962 ] final  106.15 input  175.53 | X-H torsion
[ 8008 7997 7996 7995 ] final  172.14 input   59.86 | X-H torsion
[ 10167 10162 10161 10158 ] final  138.09 input  -65.29 | X-H torsion
[ 10718 10713 10712 10709 ] final  -11.11 input   66.30 | X-H torsion
[ 10763 10752 10751 10750 ] final -132.46 input  -60.55 | X-H torsion
[ 11005 11000 10999 10996 ] final  -80.15 input  -57.11 | X-H torsion

> <Gold.Protein.ActiveResidues>
 VAL166  LYS551  ARG553  GLY616  TRP617  ASP618  TYR619  PRO620  LYS621  CYS622 
 ASP623  PHE694  ASN695  SER759  ASP760  ASP761  ALA762  ILE779  LEU786  VAL792 
 PHE793  MET794  SER795  GLU796  ALA797  LYS798  CYS799  TRP800  GLU811  SER814 

> <Gold.Protein.RotatedAtoms>
  151.7406  135.0855  160.0314 H   0  0  0  0  0  0  0  0  0  0  0  0  # atno 6907 bound_to 6896
  152.3482  133.6143  159.5934 H   0  0  0  0  0  0  0  0  0  0  0  0  # atno 6908 bound_to 6896
  150.7522  133.9532  159.3534 H   0  0  0  0  0  0  0  0  0  0  0  0  # atno 6909 bound_to 6896
  145.3104  139.2542  143.3766 H   0  0  0  0  0  0  0  0  0  0  0  0  # atno 7974 bound_to 7965
  156.1203  140.1493  156.9214 H   0  0  0  0  0  0  0  0  0  0  0  0  # atno 8008 bound_to 7997
  154.4831  140.0873  156.7465 H   0  0  0  0  0  0  0  0  0  0  0  0  # atno 8009 bound_to 7997
  155.4440  140.3432  155.4295 H   0  0  0  0  0  0  0  0  0  0  0  0  # atno 8010 bound_to 7997
  139.5122  144.6373  151.5662 H   0  0  0  0  0  0  0  0  0  0  0  0  # atno 10167 bound_to 10162
  156.6638  130.4989  149.6022 H   0  0  0  0  0  0  0  0  0  0  0  0  # atno 10718 bound_to 10713
  154.8743  135.3797  154.4413 H   0  0  0  0  0  0  0  0  0  0  0  0  # atno 10763 bound_to 10752
  153.5098  135.7030  153.5792 H   0  0  0  0  0  0  0  0  0  0  0  0  # atno 10764 bound_to 10752
  153.4087  135.3930  155.2002 H   0  0  0  0  0  0  0  0  0  0  0  0  # atno 10765 bound_to 10752
  141.1668  133.7137  156.8229 H   0  0  0  0  0  0  0  0  0  0  0  0  # atno 11005 bound_to 11000
  146.3120  140.3638  142.8667 LP  0  0  0  0  0  0  0  0  0  0  0  0  # atno 17320 bound_to 7965
  144.9021  140.7655  143.5861 LP  0  0  0  0  0  0  0  0  0  0  0  0  # atno 17321 bound_to 7965
  140.6127  143.9406  150.6465 LP  0  0  0  0  0  0  0  0  0  0  0  0  # atno 17342 bound_to 10162
  140.2654  143.3494  152.1285 LP  0  0  0  0  0  0  0  0  0  0  0  0  # atno 17343 bound_to 10162
  156.1991  130.6608  151.1147 LP  0  0  0  0  0  0  0  0  0  0  0  0  # atno 17370 bound_to 10713
  157.7101  131.0738  150.6532 LP  0  0  0  0  0  0  0  0  0  0  0  0  # atno 17371 bound_to 10713
  140.2106  134.8830  157.3270 LP  0  0  0  0  0  0  0  0  0  0  0  0  # atno 17394 bound_to 11000
  140.2090  134.4161  155.7622 LP  0  0  0  0  0  0  0  0  0  0  0  0  # atno 17395 bound_to 11000

$$$$
