AV-unprocessed.smi:3048|AV-procd|sdf|11625|dock4
  -GOLD-   2272017 13D 1   1.00000     0.00000
 Structure written by MMmdl.
 38 39  0  0  0  0  0  0  0  0  2 V2000
  146.0129  138.0950  152.7392 C   0  0  0  0  0  0  0  0  0  0  0  0
  146.9436  138.9915  153.5037 C   0  0  0  0  0  0  0  0  0  0  0  0
  146.7293  140.3429  153.8976 C   0  0  0  0  0  0  0  0  0  0  0  0
  147.7502  140.8505  154.5690 N   0  0  0  0  0  0  0  0  0  0  0  0
  148.6515  139.8467  154.6219 N   0  0  0  0  0  0  0  0  0  0  0  0
  149.9140  140.0454  155.3111 C   0  0  0  0  0  0  0  0  0  0  0  0
  150.1137  141.5095  155.7327 C   0  0  0  0  0  0  0  0  0  0  0  0
  149.0105  141.9800  156.5941 N   0  3  0  0  0  0  0  0  0  0  0  0
  149.3315  142.0026  158.0340 C   0  0  0  0  0  0  0  0  0  0  0  0
  150.0896  143.2844  158.4062 C   0  0  2  0  0  0  0  0  0  0  0  0
  151.4646  143.3611  157.7150 C   0  0  0  0  0  0  0  0  0  0  0  0
  152.2345  144.6021  158.1813 C   0  0  0  0  0  0  0  0  0  0  0  0
  152.2989  144.6273  159.7119 C   0  0  0  0  0  0  0  0  0  0  0  0
  150.8906  144.4769  160.3083 C   0  0  0  0  0  0  0  0  0  0  0  0
  150.2821  143.2852  159.8197 O   0  0  0  0  0  0  0  0  0  0  0  0
  148.1906  138.7128  153.9873 C   0  0  0  0  0  0  0  0  0  0  0  0
  145.0783  138.5976  152.4896 H   0  0  0  0  0  0  0  0  0  0  0  0
  145.7543  137.2031  153.3101 H   0  0  0  0  0  0  0  0  0  0  0  0
  146.4574  137.7604  151.8018 H   0  0  0  0  0  0  0  0  0  0  0  0
  145.8650  140.9656  153.7184 H   0  0  0  0  0  0  0  0  0  0  0  0
  149.9246  139.4016  156.1914 H   0  0  0  0  0  0  0  0  0  0  0  0
  150.7313  139.7112  154.6696 H   0  0  0  0  0  0  0  0  0  0  0  0
  151.0622  141.6145  156.2615 H   0  0  0  0  0  0  0  0  0  0  0  0
  150.1685  142.1459  154.8489 H   0  0  0  0  0  0  0  0  0  0  0  0
  148.7401  142.9080  156.3017 H   0  0  0  0  0  0  0  0  0  0  0  0
  148.4122  141.9289  158.6169 H   0  0  0  0  0  0  0  0  0  0  0  0
  149.9365  141.1267  158.2720 H   0  0  0  0  0  0  0  0  0  0  0  0
  149.4899  144.1507  158.1197 H   0  0  0  0  0  0  0  0  0  0  0  0
  152.0438  142.4660  157.9464 H   0  0  0  0  0  0  0  0  0  0  0  0
  151.3441  143.3838  156.6315 H   0  0  0  0  0  0  0  0  0  0  0  0
  153.2392  144.6088  157.7578 H   0  0  0  0  0  0  0  0  0  0  0  0
  151.7353  145.5019  157.8196 H   0  0  0  0  0  0  0  0  0  0  0  0
  152.9325  143.8131  160.0664 H   0  0  0  0  0  0  0  0  0  0  0  0
  152.7584  145.5545  160.0556 H   0  0  0  0  0  0  0  0  0  0  0  0
  150.9483  144.4225  161.3955 H   0  0  0  0  0  0  0  0  0  0  0  0
  150.2705  145.3412  160.0659 H   0  0  0  0  0  0  0  0  0  0  0  0
  148.7797  137.8087  153.9365 H   0  0  0  0  0  0  0  0  0  0  0  0
  148.2234  141.3606  156.4589 H   0  0  0  0  0  0  0  0  0  0  0  0
  1  2  1  0  0  0  0
  1 17  1  0  0  0  0
  1 18  1  0  0  0  0
  1 19  1  0  0  0  0
  2 16  2  0  0  0  0
  2  3  1  0  0  0  0
  3  4  2  0  0  0  0
  3 20  1  0  0  0  0
  4  5  1  0  0  0  0
  5  6  1  0  0  0  0
  5 16  1  0  0  0  0
  6  7  1  0  0  0  0
  6 21  1  0  0  0  0
  6 22  1  0  0  0  0
  7  8  1  0  0  0  0
  7 23  1  0  0  0  0
  7 24  1  0  0  0  0
  8  9  1  0  0  0  0
  8 25  1  0  0  0  0
  8 38  1  0  0  0  0
  9 10  1  0  0  0  0
  9 26  1  0  0  0  0
  9 27  1  0  0  0  0
 10 15  1  0  0  0  0
 10 11  1  0  0  0  0
 10 28  1  0  0  0  0
 11 12  1  0  0  0  0
 11 29  1  0  0  0  0
 11 30  1  0  0  0  0
 12 13  1  0  0  0  0
 12 31  1  0  0  0  0
 12 32  1  0  0  0  0
 13 14  1  0  0  0  0
 13 33  1  0  0  0  0
 13 34  1  0  0  0  0
 14 15  1  0  0  0  0
 14 35  1  0  0  0  0
 14 36  1  0  0  0  0
 16 37  1  0  0  0  0
M  CHG  1   8   1
M  END
> <s_m_source_file>
AV-unprocessed.smi

> <i_m_source_file_index>
3048

> <i_lp_mmshare_version>
43012

> <i_f3d_flags>
0

> <s_epik_input>
W0NIM11jMVtjSF1ubihbY0hdMSlbQ0gyXVtDSDJdW05IXVtDSDJdW0NAQEhdMltDSDJdW0NIMl1bQ0gyXVtDSDJdTzI=

> <s_epik_cmdline>
J2VwaWtfcHl0aG9uJywgJy1waCcsICc3LjAnLCAnLXRuJywgJzgnLCAnLW1hJywgJzIwMCcsICctbWV0YWxfYmluZGluZycsICctaW1hZScsICc8aW5maWxlLm1hZT4nLCAnLW9tYWUnLCAnPG91dGZpbGUubWFlPic=

> <r_lp_tautomer_probability>
1

> <r_epik_Ionization_Penalty>
0.0084937

> <r_epik_Ionization_Penalty_Charging>
0.00848754

> <r_epik_Ionization_Penalty_Neutral>
6.1613e-06

> <r_epik_State_Penalty>
0.00639836

> <r_epik_Charging_Adjusted_Penalty>
0.0148859

> <i_epik_Tot_Q>
1

> <i_epik_Tot_abs_Q>
1

> <r_epik_Metal_State_Penalty>
0.00642541

> <b_epik_Metal_Only>
0

> <s_lp_Force_Field>
OPLS_2005

> <r_lp_Energy>
10.6877

> <b_lp_Chiralities_Consistent>
1

> <s_lp_Variant>
AV-unprocessed.smi:3048-1

> <Gold.Version>
5.8.1

> <Gold.Id.Protein>
6NUR|6NUR_protein|mol2

> <Gold.PLP.Fitness>
44.9024

> <Gold.PLP.PLP>
-34.2184

> <Gold.PLP.part.hbond>
-2.0000

> <Gold.PLP.part.metal>
0.0000

> <Gold.PLP.part.buried>
-3.0538

> <Gold.PLP.part.nonpolar>
-31.0542

> <Gold.PLP.part.repulsive>
0.2508

> <Gold.PLP.ligand.clash>
0.0000

> <Gold.PLP.ligand.torsion>
0.4728

> <Gold.PLP.Chemscore.Hbond>
2.0000

> <Gold.PLP.Chemscore.CHOScore>
1.8693

> <Gold.PLP.Chemscore.Metal>
0.0000

> <Gold.Chemscore.Hbonds>
donor molecule, donor type, donor heavy atom, donor atom, acceptor molecule, acceptor atom, score
      L1  H     8    25       P1  8028  2.00
      L1  C     3    20       P1 10175  0.95
      L1  C    16    37       P1  7948  0.76

> <Gold.PLP.Chemscore.Internal.Correction>
0.0218

> <Gold.Rescore>
     Score         DG    S(hbond)    S(metal)    S(lipo)     H(rot)  DE(clash)    DE(int)     intcor
     15.92     -16.47       1.00        0.00     100.72       1.61       0.11       0.44       ----

> <Gold.Chemscore.Fitness>
15.9221

> <Gold.Chemscore.DG>
-16.4702

> <Gold.Chemscore.ZeroCoef>
-5.4800

> <Gold.Chemscore.Hbond>
1.0001

> <Gold.Chemscore.Metal>
0.0000

> <Gold.Chemscore.Lipo>
100.7175

> <Gold.Chemscore.Internal_Hbond>
0.0000

> <Gold.Chemscore.DEClash>
0.1089

> <Gold.Chemscore.DEInternal>
0.4393

> <Gold.Chemscore.Rot>
1.6149

> <Gold.Chemscore.Internal.Correction>
   9.000000E+99

> <Gold.Chemscore.Hbonds>
donor molecule, donor type, donor heavy atom, donor atom, acceptor molecule, acceptor atom, score
      L1  H     8    25       P1  8028  0.98

> <Gold.Chemscore.Hbond.Weighted>
-3.3404

> <Gold.Chemscore.Metal.Weighted>
-0.0000

> <Gold.Chemscore.Lipo.Weighted>
-11.7839

> <Gold.Chemscore.Internal_Hbond.Weighted>
0.0000

> <Gold.Chemscore.DEClash.Weighted>
0.1089

> <Gold.Chemscore.DEInternal.Weighted>
0.4393

> <Gold.Chemscore.Rot.Weighted>
4.1341

> <Gold.Chemscore.Internal.Correction.Weighted>
   9.000000E+99

> <Gold.Protein.RotatedTorsions>
[ 6907 6896 6895 6894 ] final   88.09 input  -60.11 | X-H torsion
[ 7974 7965 7964 7962 ] final   65.67 input  175.53 | X-H torsion
[ 8008 7997 7996 7995 ] final  -64.98 input   59.86 | X-H torsion
[ 10167 10162 10161 10158 ] final   15.47 input  -65.29 | X-H torsion
[ 10718 10713 10712 10709 ] final   17.36 input   66.30 | X-H torsion
[ 10763 10752 10751 10750 ] final   74.68 input  -60.55 | X-H torsion
[ 11005 11000 10999 10996 ] final  143.82 input  -57.11 | X-H torsion

> <Gold.Protein.ActiveResidues>
 VAL166  LYS551  ARG553  GLY616  TRP617  ASP618  TYR619  PRO620  LYS621  CYS622 
 ASP623  PHE694  ASN695  SER759  ASP760  ASP761  ALA762  ILE779  LEU786  VAL792 
 PHE793  MET794  SER795  GLU796  ALA797  LYS798  CYS799  TRP800  GLU811  SER814 

> <Gold.Protein.RotatedAtoms>
  152.5420  134.2175  159.8773 H   0  0  0  0  0  0  0  0  0  0  0  0  # atno 6907 bound_to 6896
  151.2154  133.4526  159.2607 H   0  0  0  0  0  0  0  0  0  0  0  0  # atno 6908 bound_to 6896
  151.0857  134.9898  159.8434 H   0  0  0  0  0  0  0  0  0  0  0  0  # atno 6909 bound_to 6896
  145.8357  139.3165  143.0961 H   0  0  0  0  0  0  0  0  0  0  0  0  # atno 7974 bound_to 7965
  154.4644  140.0942  156.6980 H   0  0  0  0  0  0  0  0  0  0  0  0  # atno 8008 bound_to 7997
  155.4901  140.3470  155.4335 H   0  0  0  0  0  0  0  0  0  0  0  0  # atno 8009 bound_to 7997
  156.0929  140.1402  156.9557 H   0  0  0  0  0  0  0  0  0  0  0  0  # atno 8010 bound_to 7997
  140.5865  143.8879  150.6835 H   0  0  0  0  0  0  0  0  0  0  0  0  # atno 10167 bound_to 10162
  157.0810  130.6388  149.5826 H   0  0  0  0  0  0  0  0  0  0  0  0  # atno 10718 bound_to 10713
  153.0603  135.5016  154.8078 H   0  0  0  0  0  0  0  0  0  0  0  0  # atno 10763 bound_to 10752
  154.6872  135.2978  154.9532 H   0  0  0  0  0  0  0  0  0  0  0  0  # atno 10764 bound_to 10752
  154.0299  135.6731  153.4832 H   0  0  0  0  0  0  0  0  0  0  0  0  # atno 10765 bound_to 10752
  140.0583  134.9218  157.1140 H   0  0  0  0  0  0  0  0  0  0  0  0  # atno 11005 bound_to 11000
  145.9522  140.8900  143.0253 LP  0  0  0  0  0  0  0  0  0  0  0  0  # atno 17320 bound_to 7965
  144.6736  140.1695  143.7415 LP  0  0  0  0  0  0  0  0  0  0  0  0  # atno 17321 bound_to 7965
  140.2392  143.3677  152.1501 LP  0  0  0  0  0  0  0  0  0  0  0  0  # atno 17342 bound_to 10162
  139.5201  144.7028  151.5443 LP  0  0  0  0  0  0  0  0  0  0  0  0  # atno 17343 bound_to 10162
  155.9923  130.4981  150.7336 LP  0  0  0  0  0  0  0  0  0  0  0  0  # atno 17370 bound_to 10713
  157.4800  131.0901  151.0547 LP  0  0  0  0  0  0  0  0  0  0  0  0  # atno 17371 bound_to 10713
  140.3809  134.2288  155.7171 LP  0  0  0  0  0  0  0  0  0  0  0  0  # atno 17394 bound_to 11000
  141.1962  133.8088  157.0682 LP  0  0  0  0  0  0  0  0  0  0  0  0  # atno 17395 bound_to 11000

$$$$
