#       Name:                AV-unprocessed.smi:160
#       Creating user name   scv26
#       Creation time:       Thu Mar 26 19:08:59 2020


#       File generated by GOLD software.
#

@<TRIPOS>MOLECULE
AV-unprocessed.smi:160
    41    42     1
SMALL
NO_CHARGES


@<TRIPOS>ATOM
      1 ****        -5.0348   0.8010  -0.6542 N.pl3          1 S1                -1.0000
      2 ****        -3.8329   1.2052  -1.1185 C.2            1 S1                 0.0000
      3 ****        -3.6012   2.2479  -1.7304 O.2            1 S1                 0.0000
      4 ****        -2.7007   0.2491  -0.8287 C.2            1 S1                 0.0000
      5 ****        -2.8753  -0.9330  -0.1581 N.2            1 S1                 0.0000
      6 ****        -1.6240  -1.3698  -0.1725 C.2            1 S1                 0.0000
      7 ****        -0.7561  -0.5352  -0.7565 N.pl3          1 S1                 0.0000
      8 ****         0.7093  -0.6796  -1.0398 C.3            1 S1                 0.0000
      9 ****         1.2702   0.6002  -1.1265 O.3            1 S1                 0.0000
     10 ****         1.9580   0.9466   0.0723 C.3            1 S1                 0.0000
     11 ****         0.9891   1.6078   1.0812 C.3            1 S1                 0.0000
     12 ****         0.7310   2.9392   0.6910 O.3            1 S1                 0.0000
     13 ****         2.5308  -0.4148   0.4900 C.3            1 S1                 0.0000
     14 ****         2.8480  -0.4856   1.8663 O.3            1 S1                 0.0000
     15 ****         1.4359  -1.4057   0.1118 C.3            1 S1                 0.0000
     16 ****         2.0161  -2.6214  -0.3170 O.3            1 S1                 0.0000
     17 ****        -1.4592   0.5223  -1.2331 N.2            1 S1                 0.0000
     18 ****         0.7495  -1.1919  -2.0019 H              1 S1                 0.0000
     19 ****         2.7730   1.6368  -0.1499 H              1 S1                 0.0000
     20 ****         3.4319  -0.6056  -0.0956 H              1 S1                 0.0000
     21 ****         0.7636  -1.5739   0.9538 H              1 S1                 0.0000
     22 ****        -5.0889  -0.0946  -0.1541 H              1 S1                 0.0000
     23 ****        -1.3386  -2.3218   0.2496 H              1 S1                 0.0000
     24 ****         0.0554   1.0595   1.1934 H              1 S1                 0.0000
     25 ****         1.4412   1.6601   2.0712 H              1 S1                 0.0000
     26 ****         0.1077   3.3135   1.2947 H              1 S1                 0.0000
     27 ****         3.1759  -1.3524   2.0511 H              1 S1                 0.0000
     28 ****         1.3243  -3.2043  -0.5907 H              1 S1                 0.0000
     29 ****        -5.8522   1.3598  -0.7938 LP             1 S1                 0.0000
     30 ****        -4.3437   2.8885  -1.9257 LP             1 S1                 0.0000
     31 ****        -2.6704   2.4542  -2.0321 LP             1 S1                 0.0000
     32 ****        -3.7013  -1.3440   0.2276 LP             1 S1                 0.0000
     33 ****         0.5409   1.2653  -1.2873 LP             1 S1                 0.0000
     34 ****         1.9155   0.6220  -1.8901 LP             1 S1                 0.0000
     35 ****         0.3534   2.9522  -0.2348 LP             1 S1                 0.0000
     36 ****         1.5799   3.4674   0.7122 LP             1 S1                 0.0000
     37 ****         2.0283  -0.3108   2.4117 LP             1 S1                 0.0000
     38 ****         3.5469   0.1946   2.0877 LP             1 S1                 0.0000
     39 ****         2.5274  -3.0351   0.4363 LP             1 S1                 0.0000
     40 ****         2.6342  -2.4480  -1.0838 LP             1 S1                 0.0000
     41 ****        -1.1298   1.3085  -1.7559 LP             1 S1                 0.0000
@<TRIPOS>BOND
    1    1    2 1     
    2    1   22 1     
    3    2    3 2     
    4    2    4 1     
    5    4   17 2     
    6    4    5 1     
    7    5    6 2     
    8    6    7 1     
    9    6   23 1     
   10    7    8 1     
   11    7   17 1     
   12    8   18 1     
   13    8   15 1     
   14    8    9 1     
   15    9   10 1     
   16   10   19 1     
   17   10   11 1     
   18   10   13 1     
   19   11   12 1     
   20   11   24 1     
   21   11   25 1     
   22   12   26 1     
   23   13   20 1     
   24   13   14 1     
   25   13   15 1     
   26   14   27 1     
   27   15   21 1     
   28   15   16 1     
   29   16   28 1     
   30    1   29 1     
   31    3   30 1     
   32    3   31 1     
   33    5   32 1     
   34    9   33 1     
   35    9   34 1     
   36   12   35 1     
   37   12   36 1     
   38   14   37 1     
   39   14   38 1     
   40   16   39 1     
   41   16   40 1     
   42   17   41 1     
@<TRIPOS>SUBSTRUCTURE
      1 S1             1
@<TRIPOS>SET
LONE_PAIRS      STATIC     ATOMS    <user>   **** ""
13 29 30 31 32 33 34 35 36 37 38 39 40 41
DONOR_HYDROGENS      STATIC     ATOMS    <user>   **** ""
4 22 26 27 28
ATOM$BLUE        STATIC     ATOMS    COLORGROUP SYSTEM
13 29 30 31 32 33 34 35 36 37 38 39 40 41
ATOM$RED        STATIC     ATOMS    COLORGROUP SYSTEM
4 22 26 27 28
