AV-unprocessed.smi:2149|AV-procd|sdf|8754|dock6
  -GOLD-   2272011533D 1   1.00000     0.00000
 Structure written by MMmdl.
 43 44  0  0  0  0  0  0  0  0  2 V2000
  149.8890  133.8427  154.7970 C   0  0  0  0  0  0  0  0  0  0  0  0
  150.3361  134.1303  156.5578 S   0  0  0  0  0  0  0  0  0  0  0  0
  149.7323  133.0589  157.3643 O   0  0  0  0  0  0  0  0  0  0  0  0
  151.7862  134.3692  156.6287 O   0  0  0  0  0  0  0  0  0  0  0  0
  149.5305  135.6183  156.9643 N   0  0  0  0  0  0  0  0  0  0  0  0
  148.0574  135.7103  156.8923 C   0  0  0  0  0  0  0  0  0  0  0  0
  147.5923  136.4577  155.6284 C   0  0  0  0  0  0  0  0  0  0  0  0
  148.2799  137.8230  155.4973 C   0  0  0  0  0  0  0  0  0  0  0  0
  149.8053  137.6292  155.5085 C   0  0  1  0  0  0  0  0  0  0  0  0
  150.5554  138.9597  155.3742 C   0  0  0  0  0  0  0  0  0  0  0  0
  151.1578  139.2370  154.3370 O   0  0  0  0  0  0  0  0  0  0  0  0
  150.4704  139.7943  156.4211 N   0  0  0  0  0  0  0  0  0  0  0  0
  150.9663  141.1671  156.4490 C   0  0  0  0  0  0  0  0  0  0  0  0
  150.0280  142.1297  157.2094 C   0  0  0  0  0  0  0  0  0  0  0  0
  150.7479  143.0304  158.2005 C   0  0  0  0  0  0  0  0  0  0  0  0
  151.4955  142.5096  159.2796 C   0  0  0  0  0  0  0  0  0  0  0  0
  152.1726  143.3957  160.1428 C   0  0  0  0  0  0  0  0  0  0  0  0
  152.0808  144.7840  159.9146 C   0  0  0  0  0  0  0  0  0  0  0  0
  151.3120  145.2510  158.8288 C   0  0  0  0  0  0  0  0  0  0  0  0
  150.6814  144.3694  158.0212 N   0  3  0  0  0  0  0  0  0  0  0  0
  150.2357  136.9035  156.8011 C   0  0  0  0  0  0  0  0  0  0  0  0
  150.3323  132.9034  154.4672 H   0  0  0  0  0  0  0  0  0  0  0  0
  150.2744  134.6503  154.1778 H   0  0  0  0  0  0  0  0  0  0  0  0
  148.8071  133.7763  154.6953 H   0  0  0  0  0  0  0  0  0  0  0  0
  147.6125  134.7164  156.9312 H   0  0  0  0  0  0  0  0  0  0  0  0
  147.7045  136.2400  157.7779 H   0  0  0  0  0  0  0  0  0  0  0  0
  147.7986  135.8582  154.7425 H   0  0  0  0  0  0  0  0  0  0  0  0
  146.5105  136.5908  155.6583 H   0  0  0  0  0  0  0  0  0  0  0  0
  147.9623  138.3110  154.5747 H   0  0  0  0  0  0  0  0  0  0  0  0
  147.9689  138.4698  156.3193 H   0  0  0  0  0  0  0  0  0  0  0  0
  150.0698  137.0094  154.6519 H   0  0  0  0  0  0  0  0  0  0  0  0
  149.9689  139.4758  157.2375 H   0  0  0  0  0  0  0  0  0  0  0  0
  151.9348  141.1420  156.9487 H   0  0  0  0  0  0  0  0  0  0  0  0
  151.1517  141.5292  155.4365 H   0  0  0  0  0  0  0  0  0  0  0  0
  149.4751  142.7459  156.4991 H   0  0  0  0  0  0  0  0  0  0  0  0
  149.2773  141.5516  157.7497 H   0  0  0  0  0  0  0  0  0  0  0  0
  151.5640  141.4426  159.4359 H   0  0  0  0  0  0  0  0  0  0  0  0
  152.7587  143.0143  160.9663 H   0  0  0  0  0  0  0  0  0  0  0  0
  152.5936  145.4795  160.5631 H   0  0  0  0  0  0  0  0  0  0  0  0
  151.1874  146.2950  158.5811 H   0  0  0  0  0  0  0  0  0  0  0  0
  150.0170  137.5238  157.6718 H   0  0  0  0  0  0  0  0  0  0  0  0
  151.3121  136.7388  156.8078 H   0  0  0  0  0  0  0  0  0  0  0  0
  150.1370  144.7302  157.2375 H   0  0  0  0  0  0  0  0  0  0  0  0
  1  2  1  0  0  0  0
  1 22  1  0  0  0  0
  1 23  1  0  0  0  0
  1 24  1  0  0  0  0
  2  3  2  0  0  0  0
  2  4  2  0  0  0  0
  2  5  1  0  0  0  0
  5 21  1  0  0  0  0
  5  6  1  0  0  0  0
  6  7  1  0  0  0  0
  6 25  1  0  0  0  0
  6 26  1  0  0  0  0
  7  8  1  0  0  0  0
  7 27  1  0  0  0  0
  7 28  1  0  0  0  0
  8  9  1  0  0  0  0
  8 29  1  0  0  0  0
  8 30  1  0  0  0  0
  9 10  1  0  0  0  0
  9 21  1  0  0  0  0
  9 31  1  0  0  0  0
 10 11  2  0  0  0  0
 10 12  1  0  0  0  0
 12 13  1  0  0  0  0
 12 32  1  0  0  0  0
 13 14  1  0  0  0  0
 13 33  1  0  0  0  0
 13 34  1  0  0  0  0
 14 15  1  0  0  0  0
 14 35  1  0  0  0  0
 14 36  1  0  0  0  0
 15 20  1  0  0  0  0
 15 16  2  0  0  0  0
 16 17  1  0  0  0  0
 16 37  1  0  0  0  0
 17 18  2  0  0  0  0
 17 38  1  0  0  0  0
 18 19  1  0  0  0  0
 18 39  1  0  0  0  0
 19 20  2  0  0  0  0
 19 40  1  0  0  0  0
 20 43  1  0  0  0  0
 21 41  1  0  0  0  0
 21 42  1  0  0  0  0
M  CHG  1  20   1
M  END
> <s_m_source_file>
AV-unprocessed.smi

> <i_m_source_file_index>
2149

> <i_lp_mmshare_version>
43012

> <i_f3d_flags>
0

> <s_epik_input>
W0NIM11TKD1PKSg9TylOMVtDSDJdW0NIMl1bQ0gyXVtDQEhdKFtDSDJdMSlDKD1PKVtOSF1bQ0gyXVtDSDJdYzJbY0hdW2NIXVtjSF1bY0hdbjI=

> <s_epik_cmdline>
J2VwaWtfcHl0aG9uJywgJy1waCcsICc3LjAnLCAnLXRuJywgJzgnLCAnLW1hJywgJzIwMCcsICctbWV0YWxfYmluZGluZycsICctaW1hZScsICc8aW5maWxlLm1hZT4nLCAnLW9tYWUnLCAnPG91dGZpbGUubWFlPic=

> <r_epik_Ionization_Penalty>
1.83523

> <r_epik_Ionization_Penalty_Charging>
1.83523

> <r_epik_Ionization_Penalty_Neutral>
2.62835e-08

> <r_epik_State_Penalty>
1.95153

> <r_epik_Charging_Adjusted_Penalty>
3.78676

> <i_epik_Tot_Q>
1

> <i_epik_Tot_abs_Q>
1

> <r_epik_Metal_State_Penalty>
1.97791

> <b_epik_Metal_Only>
0

> <s_lp_Force_Field>
OPLS_2005

> <r_lp_Energy>
6.48015

> <b_lp_Chiralities_Consistent>
1

> <s_lp_Variant>
AV-unprocessed.smi:2149-3

> <Gold.Version>
5.8.1

> <Gold.Id.Protein>
6NUR|6NUR_protein|mol2

> <Gold.PLP.Fitness>
43.7439

> <Gold.PLP.PLP>
-30.6831

> <Gold.PLP.part.hbond>
-4.2060

> <Gold.PLP.part.metal>
0.0000

> <Gold.PLP.part.buried>
-2.4507

> <Gold.PLP.part.nonpolar>
-23.0700

> <Gold.PLP.part.repulsive>
0.2723

> <Gold.PLP.ligand.clash>
0.0000

> <Gold.PLP.ligand.torsion>
1.6687

> <Gold.PLP.Chemscore.Hbond>
4.7613

> <Gold.PLP.Chemscore.CHOScore>
0.0000

> <Gold.PLP.Chemscore.Metal>
0.0000

> <Gold.Chemscore.Hbonds>
donor molecule, donor type, donor heavy atom, donor atom, acceptor molecule, acceptor atom, score
      L1  H    20    43       P1  8028  2.00
      P1  H  6896  6908       L1     3  0.15
      P1  H  7989  7998       L1    11  1.00
      P1  H 10752 10764       L1     4  0.24

> <Gold.PLP.Chemscore.Internal.Correction>
2.1145

> <Gold.Rescore>
     Score         DG    S(hbond)    S(metal)    S(lipo)     H(rot)  DE(clash)    DE(int)     intcor
     18.32     -21.23       2.97        0.00      86.09       1.65       1.32       1.59       ----

> <Gold.Chemscore.Fitness>
18.3184

> <Gold.Chemscore.DG>
-21.2265

> <Gold.Chemscore.ZeroCoef>
-5.4800

> <Gold.Chemscore.Hbond>
2.9663

> <Gold.Chemscore.Metal>
0.0000

> <Gold.Chemscore.Lipo>
86.0920

> <Gold.Chemscore.Internal_Hbond>
0.0000

> <Gold.Chemscore.DEClash>
1.3191

> <Gold.Chemscore.DEInternal>
1.5890

> <Gold.Chemscore.Rot>
1.6538

> <Gold.Chemscore.Internal.Correction>
   9.000000E+99

> <Gold.Chemscore.Hbonds>
donor molecule, donor type, donor heavy atom, donor atom, acceptor molecule, acceptor atom, score
      L1  H    20    43       P1  8028  0.25
      P1  H  6896  6908       L1     3  0.01
      P1  H  7989  7998       L1    11  1.00
      P1  H 10752 10764       L1     4  0.24

> <Gold.Chemscore.Hbond.Weighted>
-9.9074

> <Gold.Chemscore.Metal.Weighted>
-0.0000

> <Gold.Chemscore.Lipo.Weighted>
-10.0728

> <Gold.Chemscore.Internal_Hbond.Weighted>
0.0000

> <Gold.Chemscore.DEClash.Weighted>
1.3191

> <Gold.Chemscore.DEInternal.Weighted>
1.5890

> <Gold.Chemscore.Rot.Weighted>
4.2337

> <Gold.Chemscore.Internal.Correction.Weighted>
   9.000000E+99

> <Gold.Protein.RotatedTorsions>
[ 6907 6896 6895 6894 ] final   92.74 input  -60.11 | X-H torsion
[ 7974 7965 7964 7962 ] final  145.50 input  175.53 | X-H torsion
[ 8008 7997 7996 7995 ] final  -57.00 input   59.86 | X-H torsion
[ 10167 10162 10161 10158 ] final   78.26 input  -65.29 | X-H torsion
[ 10718 10713 10712 10709 ] final   69.66 input   66.30 | X-H torsion
[ 10763 10752 10751 10750 ] final  -15.38 input  -60.55 | X-H torsion
[ 11005 11000 10999 10996 ] final  -90.08 input  -57.11 | X-H torsion

> <Gold.Protein.ActiveResidues>
 VAL166  LYS551  ARG553  GLY616  TRP617  ASP618  TYR619  PRO620  LYS621  CYS622 
 ASP623  PHE694  ASN695  SER759  ASP760  ASP761  ALA762  ILE779  LEU786  VAL792 
 PHE793  MET794  SER795  GLU796  ALA797  LYS798  CYS799  TRP800  GLU811  SER814 

> <Gold.Protein.RotatedAtoms>
  152.5453  134.1455  159.8496 H   0  0  0  0  0  0  0  0  0  0  0  0  # atno 6907 bound_to 6896
  151.1487  133.4915  159.2603 H   0  0  0  0  0  0  0  0  0  0  0  0  # atno 6908 bound_to 6896
  151.1495  135.0231  159.8717 H   0  0  0  0  0  0  0  0  0  0  0  0  # atno 6909 bound_to 6896
  144.8748  139.5790  143.5870 H   0  0  0  0  0  0  0  0  0  0  0  0  # atno 7974 bound_to 7965
  154.4251  140.1117  156.5727 H   0  0  0  0  0  0  0  0  0  0  0  0  # atno 8008 bound_to 7997
  155.6195  140.3495  155.4628 H   0  0  0  0  0  0  0  0  0  0  0  0  # atno 8009 bound_to 7997
  156.0035  140.1204  157.0514 H   0  0  0  0  0  0  0  0  0  0  0  0  # atno 8010 bound_to 7997
  139.9729  144.5882  150.7969 H   0  0  0  0  0  0  0  0  0  0  0  0  # atno 10167 bound_to 10162
  157.6358  130.9437  150.0544 H   0  0  0  0  0  0  0  0  0  0  0  0  # atno 10718 bound_to 10713
  153.5425  135.7013  153.5630 H   0  0  0  0  0  0  0  0  0  0  0  0  # atno 10763 bound_to 10752
  153.3589  135.3975  155.1703 H   0  0  0  0  0  0  0  0  0  0  0  0  # atno 10764 bound_to 10752
  154.8672  135.3784  154.4931 H   0  0  0  0  0  0  0  0  0  0  0  0  # atno 10765 bound_to 10752
  141.1572  133.7670  156.9687 H   0  0  0  0  0  0  0  0  0  0  0  0  # atno 11005 bound_to 11000
  146.2955  139.7265  142.9130 LP  0  0  0  0  0  0  0  0  0  0  0  0  # atno 17320 bound_to 7965
  145.4064  141.0391  143.3042 LP  0  0  0  0  0  0  0  0  0  0  0  0  # atno 17321 bound_to 7965
  140.7516  143.2975  151.3166 LP  0  0  0  0  0  0  0  0  0  0  0  0  # atno 17342 bound_to 10162
  139.6468  144.0437  152.2596 LP  0  0  0  0  0  0  0  0  0  0  0  0  # atno 17343 bound_to 10162
  156.1596  130.3643  149.9318 LP  0  0  0  0  0  0  0  0  0  0  0  0  # atno 17370 bound_to 10713
  156.7320  130.9047  151.3626 LP  0  0  0  0  0  0  0  0  0  0  0  0  # atno 17371 bound_to 10713
  140.1144  134.9457  157.2112 LP  0  0  0  0  0  0  0  0  0  0  0  0  # atno 17394 bound_to 11000
  140.3152  134.2978  155.7258 LP  0  0  0  0  0  0  0  0  0  0  0  0  # atno 17395 bound_to 11000

$$$$
