#       Name:                AV-unprocessed.smi:3350
#       Creating user name   scv26
#       Creation time:       Fri Mar 27 19:38:11 2020


#       File generated by GOLD software.
#

@<TRIPOS>MOLECULE
AV-unprocessed.smi:3350
    46    47     1
SMALL
NO_CHARGES


@<TRIPOS>ATOM
      1 ****        -3.6373  -1.5313  -1.5986 C.3            1 S1                 0.0000
      2 ****        -3.0559  -0.7259  -0.4289 C.3            1 S1                 0.0000
      3 ****        -3.5280  -1.2875   0.9300 C.3            1 S1                 0.0000
      4 ****        -3.1107  -0.4665   2.0533 N.pl3          1 S1                 0.0000
      5 ****        -2.0799  -0.6906   2.9423 C.2            1 S1                 0.0000
      6 ****        -2.0542   0.3645   3.8082 C.2            1 S1                 0.0000
      7 ****        -3.1252   1.1905   3.3658 C.2            1 S1                 0.0000
      8 ****        -3.7584   0.6885   2.3180 N.2            1 S1                 0.0000
      9 ****        -1.5960  -0.7442  -0.5175 N.am           1 S1                 0.0000
     10 ****        -0.7877   0.2979  -0.2742 C.2            1 S1                 0.0000
     11 ****        -1.1816   1.4293   0.0088 O.2            1 S1                 0.0000
     12 ****         0.5040  -0.0502  -0.3467 N.am           1 S1                 0.0000
     13 ****         1.6316   0.8391  -0.0781 C.3            1 S1                 0.0000
     14 ****         1.8776   0.9306   1.4379 C.3            1 S1                 0.0000
     15 ****         2.8795   0.3397  -0.8302 C.3            1 S1                 0.0000
     16 ****         2.7124   0.2266  -2.3462 C.3            1 S1                 0.0000
     17 ****         4.1365   0.3312  -2.8672 C.3            1 S1                 0.0000
     18 ****         4.9198   0.9313  -1.6955 C.3            1 S1                 0.0000
     19 ****         3.9416   1.2748  -0.7235 O.3            1 S1                 0.0000
     20 ****        -4.7275  -1.5150  -1.5809 H              1 S1                 0.0000
     21 ****        -3.3196  -2.5739  -1.5618 H              1 S1                 0.0000
     22 ****        -3.3188  -1.1187  -2.5566 H              1 S1                 0.0000
     23 ****        -3.4211   0.2977  -0.5314 H              1 S1                 0.0000
     24 ****        -4.6166  -1.3583   0.9498 H              1 S1                 0.0000
     25 ****        -3.1493  -2.2998   1.0783 H              1 S1                 0.0000
     26 ****        -1.4518  -1.5670   2.8784 H              1 S1                 0.0000
     27 ****        -1.3726   0.5236   4.6305 H              1 S1                 0.0000
     28 ****        -3.4590   2.1336   3.7726 H              1 S1                 0.0000
     29 ****        -1.1686  -1.6301  -0.7439 H              1 S1                 0.0000
     30 ****         0.7266  -1.0054  -0.5851 H              1 S1                 0.0000
     31 ****         1.3894   1.8360  -0.4515 H              1 S1                 0.0000
     32 ****         2.7054   1.6037   1.6620 H              1 S1                 0.0000
     33 ****         2.1193  -0.0451   1.8607 H              1 S1                 0.0000
     34 ****         0.9995   1.3112   1.9609 H              1 S1                 0.0000
     35 ****         3.2113  -0.6182  -0.4241 H              1 S1                 0.0000
     36 ****         2.2169  -0.6958  -2.6507 H              1 S1                 0.0000
     37 ****         2.1238   1.0646  -2.7223 H              1 S1                 0.0000
     38 ****         4.5351  -0.6497  -3.1289 H              1 S1                 0.0000
     39 ****         4.1847   0.9616  -3.7558 H              1 S1                 0.0000
     40 ****         5.6023   0.1930  -1.2727 H              1 S1                 0.0000
     41 ****         5.5024   1.8056  -1.9861 H              1 S1                 0.0000
     42 ****        -4.5408   1.0771   1.8314 LP             1 S1                 0.0000
     43 ****        -2.1620   1.6168   0.0693 LP             1 S1                 0.0000
     44 ****        -0.5212   2.1608   0.1782 LP             1 S1                 0.0000
     45 ****         4.3418   1.2325   0.1920 LP             1 S1                 0.0000
     46 ****         3.6003   2.1988  -0.8957 LP             1 S1                 0.0000
@<TRIPOS>BOND
    1    1    2 1     
    2    1   20 1     
    3    1   21 1     
    4    1   22 1     
    5    2    3 1     
    6    2    9 1     
    7    2   23 1     
    8    3    4 1     
    9    3   24 1     
   10    3   25 1     
   11    4    8 1     
   12    4    5 1     
   13    5    6 2     
   14    5   26 1     
   15    6    7 1     
   16    6   27 1     
   17    7    8 2     
   18    7   28 1     
   19    9   10 am    
   20    9   29 1     
   21   10   11 2     
   22   10   12 am    
   23   12   13 1     
   24   12   30 1     
   25   13   14 1     
   26   13   15 1     
   27   13   31 1     
   28   14   32 1     
   29   14   33 1     
   30   14   34 1     
   31   15   19 1     
   32   15   16 1     
   33   15   35 1     
   34   16   17 1     
   35   16   36 1     
   36   16   37 1     
   37   17   18 1     
   38   17   38 1     
   39   17   39 1     
   40   18   19 1     
   41   18   40 1     
   42   18   41 1     
   43    8   42 1     
   44   11   43 1     
   45   11   44 1     
   46   19   45 1     
   47   19   46 1     
@<TRIPOS>SUBSTRUCTURE
      1 S1             1
@<TRIPOS>SET
LONE_PAIRS      STATIC     ATOMS    <user>   **** ""
5 42 43 44 45 46
DONOR_HYDROGENS      STATIC     ATOMS    <user>   **** ""
2 29 30
ATOM$BLUE        STATIC     ATOMS    COLORGROUP SYSTEM
5 42 43 44 45 46
ATOM$RED        STATIC     ATOMS    COLORGROUP SYSTEM
2 29 30
