AV-unprocessed.smi:3232|AV-procd|sdf|12345|dock2
  -GOLD-   2272018203D 1   1.00000     0.00000
 Structure written by MMmdl.
 40 41  0  0  0  0  0  0  0  0  2 V2000
  144.8613  135.3160  152.3080 C   0  0  0  0  0  0  0  0  0  0  0  0
  145.4201  135.3704  150.8792 C   0  0  0  0  0  0  0  0  0  0  0  0
  145.4006  134.0427  150.2159 N   0  3  2  0  0  0  0  0  0  0  0  0
  144.1251  133.3028  150.3494 C   0  0  0  0  0  0  0  0  0  0  0  0
  144.4726  131.8101  150.2575 C   0  0  0  0  0  0  0  0  0  0  0  0
  145.9649  131.7748  149.9313 C   0  0  0  0  0  0  0  0  0  0  0  0
  146.5001  133.0899  150.5133 C   0  0  2  0  0  0  0  0  0  0  0  0
  146.8468  133.0033  152.0236 C   0  0  0  0  0  0  0  0  0  0  0  0
  147.8239  131.9547  152.2978 N   0  0  0  0  0  0  0  0  0  0  0  0
  148.3041  131.6369  153.5114 C   0  0  0  0  0  0  0  0  0  0  0  0
  148.0030  132.2525  154.5348 O   0  0  0  0  0  0  0  0  0  0  0  0
  149.2452  130.4226  153.5707 C   0  0  1  0  0  0  0  0  0  0  0  0
  149.6201  130.0189  155.0106 C   0  0  0  0  0  0  0  0  0  0  0  0
  148.6719  129.3057  152.8292 N   0  0  0  0  0  0  0  0  0  0  0  0
  149.2011  128.1218  152.5131 C   0  0  0  0  0  0  0  0  0  0  0  0
  148.4040  127.3534  151.7841 N   0  0  0  0  0  0  0  0  0  0  0  0
  147.3229  128.1815  151.6775 C   0  0  0  0  0  0  0  0  0  0  0  0
  147.4339  129.3662  152.2776 N   0  0  0  0  0  0  0  0  0  0  0  0
  144.9437  136.2902  152.7904 H   0  0  0  0  0  0  0  0  0  0  0  0
  145.4103  134.5978  152.9179 H   0  0  0  0  0  0  0  0  0  0  0  0
  143.8090  135.0329  152.3222 H   0  0  0  0  0  0  0  0  0  0  0  0
  144.8922  136.1142  150.2822 H   0  0  0  0  0  0  0  0  0  0  0  0
  146.4565  135.7066  150.9294 H   0  0  0  0  0  0  0  0  0  0  0  0
  143.6509  133.5163  151.3088 H   0  0  0  0  0  0  0  0  0  0  0  0
  143.4367  133.6090  149.5611 H   0  0  0  0  0  0  0  0  0  0  0  0
  144.2913  131.3277  151.2189 H   0  0  0  0  0  0  0  0  0  0  0  0
  143.8769  131.2875  149.5086 H   0  0  0  0  0  0  0  0  0  0  0  0
  146.4594  130.8770  150.3004 H   0  0  0  0  0  0  0  0  0  0  0  0
  146.0942  131.7839  148.8481 H   0  0  0  0  0  0  0  0  0  0  0  0
  147.3943  133.3950  149.9681 H   0  0  0  0  0  0  0  0  0  0  0  0
  147.2993  133.9343  152.3637 H   0  0  0  0  0  0  0  0  0  0  0  0
  145.9437  132.8702  152.6215 H   0  0  0  0  0  0  0  0  0  0  0  0
  148.1291  131.4003  151.5110 H   0  0  0  0  0  0  0  0  0  0  0  0
  150.1678  130.7081  153.0627 H   0  0  0  0  0  0  0  0  0  0  0  0
  150.0969  130.8448  155.5400 H   0  0  0  0  0  0  0  0  0  0  0  0
  150.3227  129.1851  155.0086 H   0  0  0  0  0  0  0  0  0  0  0  0
  148.7482  129.7130  155.5904 H   0  0  0  0  0  0  0  0  0  0  0  0
  150.1918  127.8177  152.8178 H   0  0  0  0  0  0  0  0  0  0  0  0
  146.4303  127.9061  151.1355 H   0  0  0  0  0  0  0  0  0  0  0  0
  145.4836  134.2279  149.2264 H   0  0  0  0  0  0  0  0  0  0  0  0
  1  2  1  0  0  0  0
  1 19  1  0  0  0  0
  1 20  1  0  0  0  0
  1 21  1  0  0  0  0
  2  3  1  0  0  0  0
  2 22  1  0  0  0  0
  2 23  1  0  0  0  0
  3  7  1  0  0  0  0
  3  4  1  0  0  0  0
  3 40  1  0  0  0  0
  4  5  1  0  0  0  0
  4 24  1  0  0  0  0
  4 25  1  0  0  0  0
  5  6  1  0  0  0  0
  5 26  1  0  0  0  0
  5 27  1  0  0  0  0
  6  7  1  0  0  0  0
  6 28  1  0  0  0  0
  6 29  1  0  0  0  0
  7  8  1  0  0  0  0
  7 30  1  0  0  0  0
  8  9  1  0  0  0  0
  8 31  1  0  0  0  0
  8 32  1  0  0  0  0
  9 10  1  0  0  0  0
  9 33  1  0  0  0  0
 10 11  2  0  0  0  0
 10 12  1  0  0  0  0
 12 13  1  0  0  0  0
 12 14  1  0  0  0  0
 12 34  1  0  0  0  0
 13 35  1  0  0  0  0
 13 36  1  0  0  0  0
 13 37  1  0  0  0  0
 14 18  1  0  0  0  0
 14 15  1  0  0  0  0
 15 16  2  0  0  0  0
 15 38  1  0  0  0  0
 16 17  1  0  0  0  0
 17 18  2  0  0  0  0
 17 39  1  0  0  0  0
M  CHG  1   3   1
M  END
> <s_m_source_file>
AV-unprocessed.smi

> <i_m_source_file_index>
3232

> <i_lp_mmshare_version>
43012

> <i_f3d_flags>
0

> <s_epik_input>
W0NIM11bQ0gyXU4xW0NIMl1bQ0gyXVtDSDJdW0NASF0xW0NIMl1bTkhdQyg9TylbQ0BIXShbQ0gzXSluMltjSF1uW2NIXW4y

> <s_epik_cmdline>
J2VwaWtfcHl0aG9uJywgJy1waCcsICc3LjAnLCAnLXRuJywgJzgnLCAnLW1hJywgJzIwMCcsICctbWV0YWxfYmluZGluZycsICctaW1hZScsICc8aW5maWxlLm1hZT4nLCAnLW9tYWUnLCAnPG91dGZpbGUubWFlPic=

> <r_lp_tautomer_probability>
1

> <r_epik_Ionization_Penalty>
0.00177695

> <r_epik_Ionization_Penalty_Charging>
0.00176881

> <r_epik_Ionization_Penalty_Neutral>
8.13528e-06

> <r_epik_State_Penalty>
0.00119827

> <r_epik_Charging_Adjusted_Penalty>
0.00296709

> <i_epik_Tot_Q>
1

> <i_epik_Tot_abs_Q>
1

> <r_epik_Metal_State_Penalty>
-0

> <b_epik_Metal_Only>
0

> <s_lp_Force_Field>
OPLS_2005

> <r_lp_Energy>
36.5981

> <b_lp_Chiralities_Consistent>
1

> <s_lp_Variant>
AV-unprocessed.smi:3232-7

> <Gold.Version>
5.8.1

> <Gold.Id.Protein>
6NUR|6NUR_protein|mol2

> <Gold.PLP.Fitness>
43.2251

> <Gold.PLP.PLP>
-34.7032

> <Gold.PLP.part.hbond>
-2.0000

> <Gold.PLP.part.metal>
0.0000

> <Gold.PLP.part.buried>
-5.1380

> <Gold.PLP.part.nonpolar>
-28.2117

> <Gold.PLP.part.repulsive>
0.5628

> <Gold.PLP.ligand.clash>
0.0000

> <Gold.PLP.ligand.torsion>
0.3661

> <Gold.PLP.Chemscore.Hbond>
2.0000

> <Gold.PLP.Chemscore.CHOScore>
1.0000

> <Gold.PLP.Chemscore.Metal>
0.0000

> <Gold.Chemscore.Hbonds>
donor molecule, donor type, donor heavy atom, donor atom, acceptor molecule, acceptor atom, score
      L1  H     3    40       P1  7921  1.00
      L1  H     9    33       P1 10747  1.00
      L1  C    15    38       P1 10737  1.00

> <Gold.PLP.Chemscore.Internal.Correction>
0.2541

> <Gold.Rescore>
     Score         DG    S(hbond)    S(metal)    S(lipo)     H(rot)  DE(clash)    DE(int)     intcor
     11.59     -13.42       1.95        0.00      66.75       2.49       0.10       1.73       ----

> <Gold.Chemscore.Fitness>
11.5898

> <Gold.Chemscore.DG>
-13.4206

> <Gold.Chemscore.ZeroCoef>
-5.4800

> <Gold.Chemscore.Hbond>
1.9464

> <Gold.Chemscore.Metal>
0.0000

> <Gold.Chemscore.Lipo>
66.7474

> <Gold.Chemscore.Internal_Hbond>
0.0000

> <Gold.Chemscore.DEClash>
0.0958

> <Gold.Chemscore.DEInternal>
1.7349

> <Gold.Chemscore.Rot>
2.4882

> <Gold.Chemscore.Internal.Correction>
   9.000000E+99

> <Gold.Chemscore.Hbonds>
donor molecule, donor type, donor heavy atom, donor atom, acceptor molecule, acceptor atom, score
      L1  H     3    40       P1  7921  0.88
      L1  H     9    33       P1 10747  0.98

> <Gold.Chemscore.Hbond.Weighted>
-6.5009

> <Gold.Chemscore.Metal.Weighted>
-0.0000

> <Gold.Chemscore.Lipo.Weighted>
-7.8095

> <Gold.Chemscore.Internal_Hbond.Weighted>
0.0000

> <Gold.Chemscore.DEClash.Weighted>
0.0958

> <Gold.Chemscore.DEInternal.Weighted>
1.7349

> <Gold.Chemscore.Rot.Weighted>
6.3697

> <Gold.Chemscore.Internal.Correction.Weighted>
   9.000000E+99

> <Gold.Protein.RotatedTorsions>
[ 6907 6896 6895 6894 ] final   25.86 input  -60.11 | X-H torsion
[ 7974 7965 7964 7962 ] final -111.97 input  175.53 | X-H torsion
[ 8008 7997 7996 7995 ] final   21.10 input   59.86 | X-H torsion
[ 10167 10162 10161 10158 ] final -115.20 input  -65.29 | X-H torsion
[ 10718 10713 10712 10709 ] final   78.98 input   66.30 | X-H torsion
[ 10763 10752 10751 10750 ] final   76.98 input  -60.55 | X-H torsion
[ 11005 11000 10999 10996 ] final   18.70 input  -57.11 | X-H torsion

> <Gold.Protein.ActiveResidues>
 VAL166  LYS551  ARG553  GLY616  TRP617  ASP618  TYR619  PRO620  LYS621  CYS622 
 ASP623  PHE694  ASN695  SER759  ASP760  ASP761  ALA762  ILE779  LEU786  VAL792 
 PHE793  MET794  SER795  GLU796  ALA797  LYS798  CYS799  TRP800  GLU811  SER814 

> <Gold.Protein.RotatedAtoms>
  151.9789  135.0039  160.0556 H   0  0  0  0  0  0  0  0  0  0  0  0  # atno 6907 bound_to 6896
  152.1715  133.4642  159.4920 H   0  0  0  0  0  0  0  0  0  0  0  0  # atno 6908 bound_to 6896
  150.6902  134.1865  159.4311 H   0  0  0  0  0  0  0  0  0  0  0  0  # atno 6909 bound_to 6896
  145.1496  140.8822  143.3654 H   0  0  0  0  0  0  0  0  0  0  0  0  # atno 7974 bound_to 7965
  154.9455  140.3059  155.5100 H   0  0  0  0  0  0  0  0  0  0  0  0  # atno 8008 bound_to 7997
  156.2992  140.2328  156.4465 H   0  0  0  0  0  0  0  0  0  0  0  0  # atno 8009 bound_to 7997
  154.8105  140.0429  157.1327 H   0  0  0  0  0  0  0  0  0  0  0  0  # atno 8010 bound_to 7997
  140.0926  143.4685  152.1860 H   0  0  0  0  0  0  0  0  0  0  0  0  # atno 10167 bound_to 10162
  157.6762  130.9893  150.1865 H   0  0  0  0  0  0  0  0  0  0  0  0  # atno 10718 bound_to 10713
  153.0765  135.4931  154.8414 H   0  0  0  0  0  0  0  0  0  0  0  0  # atno 10763 bound_to 10752
  154.7094  135.3017  154.9223 H   0  0  0  0  0  0  0  0  0  0  0  0  # atno 10764 bound_to 10752
  153.9922  135.6777  153.4807 H   0  0  0  0  0  0  0  0  0  0  0  0  # atno 10765 bound_to 10752
  140.4219  134.1510  155.7673 H   0  0  0  0  0  0  0  0  0  0  0  0  # atno 11005 bound_to 11000
  145.0444  139.3233  143.5960 LP  0  0  0  0  0  0  0  0  0  0  0  0  # atno 17320 bound_to 7965
  146.3496  139.9830  142.8694 LP  0  0  0  0  0  0  0  0  0  0  0  0  # atno 17321 bound_to 7965
  139.5716  144.7465  151.3876 LP  0  0  0  0  0  0  0  0  0  0  0  0  # atno 17342 bound_to 10162
  140.7020  143.7607  150.7419 LP  0  0  0  0  0  0  0  0  0  0  0  0  # atno 17343 bound_to 10162
  156.2586  130.3708  149.8155 LP  0  0  0  0  0  0  0  0  0  0  0  0  # atno 17370 bound_to 10713
  156.5907  130.8505  151.3407 LP  0  0  0  0  0  0  0  0  0  0  0  0  # atno 17371 bound_to 10713
  141.1781  133.8472  157.1354 LP  0  0  0  0  0  0  0  0  0  0  0  0  # atno 17394 bound_to 11000
  140.0194  134.9952  157.0561 LP  0  0  0  0  0  0  0  0  0  0  0  0  # atno 17395 bound_to 11000

$$$$
