AV-unprocessed.smi:1605|AV-procd|sdf|6453|dock4
  -GOLD-   22720 7103D 1   1.00000     0.00000
 Structure written by MMmdl.
 51 53  0  0  0  0  0  0  0  0  2 V2000
  144.7507  131.2395  151.2993 C   0  0  0  0  0  0  0  0  0  0  0  0
  145.3335  132.1065  152.2600 O   0  0  0  0  0  0  0  0  0  0  0  0
  146.5790  132.6704  151.8647 C   0  0  2  0  0  0  0  0  0  0  0  0
  147.0978  133.5335  153.0251 C   0  0  0  0  0  0  0  0  0  0  0  0
  146.2202  134.7786  153.2453 C   0  0  0  0  0  0  0  0  0  0  0  0
  146.1106  135.5869  152.0038 N   0  3  2  0  0  0  0  0  0  0  0  0
  145.3861  136.8658  152.2228 C   0  0  0  0  0  0  0  0  0  0  0  0
  146.2413  138.0948  151.8570 C   0  0  2  0  0  0  0  0  0  0  0  0
  146.4985  138.0757  150.4656 O   0  0  0  0  0  0  0  0  0  0  0  0
  147.5791  138.1172  152.6208 C   0  0  0  0  0  0  0  0  0  0  0  0
  147.6947  139.2737  153.4908 N   0  0  0  0  0  0  0  0  0  0  0  0
  146.7463  140.1914  153.7613 C   0  0  0  0  0  0  0  0  0  0  0  0
  147.0702  141.1719  154.5993 N   0  0  0  0  0  0  0  0  0  0  0  0
  148.3832  140.8565  154.9051 C   0  0  0  0  0  0  0  0  0  0  0  0
  149.3102  141.5046  155.7502 C   0  0  0  0  0  0  0  0  0  0  0  0
  150.6193  140.9978  155.9140 C   0  0  0  0  0  0  0  0  0  0  0  0
  151.5836  141.7260  156.8338 C   0  0  0  0  0  0  0  0  0  0  0  0
  151.0185  139.8241  155.2252 C   0  0  0  0  0  0  0  0  0  0  0  0
  152.4208  139.2633  155.3832 C   0  0  0  0  0  0  0  0  0  0  0  0
  150.1041  139.1627  154.3790 C   0  0  0  0  0  0  0  0  0  0  0  0
  148.8045  139.6767  154.2249 C   0  0  0  0  0  0  0  0  0  0  0  0
  145.5622  134.7845  150.8777 C   0  0  0  0  0  0  0  0  0  0  0  0
  146.4318  133.5453  150.6053 C   0  0  0  0  0  0  0  0  0  0  0  0
  143.8235  130.8291  151.6989 H   0  0  0  0  0  0  0  0  0  0  0  0
  145.4120  130.4036  151.0678 H   0  0  0  0  0  0  0  0  0  0  0  0
  144.5081  131.7611  150.3739 H   0  0  0  0  0  0  0  0  0  0  0  0
  147.2989  131.8708  151.6813 H   0  0  0  0  0  0  0  0  0  0  0  0
  147.1434  132.9412  153.9398 H   0  0  0  0  0  0  0  0  0  0  0  0
  148.1208  133.8474  152.8135 H   0  0  0  0  0  0  0  0  0  0  0  0
  145.2238  134.4864  153.5806 H   0  0  0  0  0  0  0  0  0  0  0  0
  146.6568  135.3835  154.0410 H   0  0  0  0  0  0  0  0  0  0  0  0
  144.4608  136.8559  151.6448 H   0  0  0  0  0  0  0  0  0  0  0  0
  145.0872  136.9519  153.2688 H   0  0  0  0  0  0  0  0  0  0  0  0
  145.6996  139.0117  152.0860 H   0  0  0  0  0  0  0  0  0  0  0  0
  145.6776  138.1553  150.0037 H   0  0  0  0  0  0  0  0  0  0  0  0
  147.6768  137.2222  153.2367 H   0  0  0  0  0  0  0  0  0  0  0  0
  148.4210  138.1122  151.9267 H   0  0  0  0  0  0  0  0  0  0  0  0
  145.7608  140.1339  153.3226 H   0  0  0  0  0  0  0  0  0  0  0  0
  149.0060  142.3986  156.2743 H   0  0  0  0  0  0  0  0  0  0  0  0
  151.9119  141.0697  157.6400 H   0  0  0  0  0  0  0  0  0  0  0  0
  151.1182  142.6029  157.2848 H   0  0  0  0  0  0  0  0  0  0  0  0
  152.4611  142.0612  156.2806 H   0  0  0  0  0  0  0  0  0  0  0  0
  152.5652  138.3737  154.7694 H   0  0  0  0  0  0  0  0  0  0  0  0
  152.6073  138.9882  156.4215 H   0  0  0  0  0  0  0  0  0  0  0  0
  153.1641  140.0015  155.0812 H   0  0  0  0  0  0  0  0  0  0  0  0
  150.3949  138.2672  153.8501 H   0  0  0  0  0  0  0  0  0  0  0  0
  144.5391  134.4820  151.1070 H   0  0  0  0  0  0  0  0  0  0  0  0
  145.5139  135.3842  149.9698 H   0  0  0  0  0  0  0  0  0  0  0  0
  147.4203  133.8700  150.2780 H   0  0  0  0  0  0  0  0  0  0  0  0
  146.0184  132.9725  149.7758 H   0  0  0  0  0  0  0  0  0  0  0  0
  147.0551  135.8421  151.7517 H   0  0  0  0  0  0  0  0  0  0  0  0
  1  2  1  0  0  0  0
  1 24  1  0  0  0  0
  1 25  1  0  0  0  0
  1 26  1  0  0  0  0
  2  3  1  0  0  0  0
  3 23  1  0  0  0  0
  3  4  1  0  0  0  0
  3 27  1  0  0  0  0
  4  5  1  0  0  0  0
  4 28  1  0  0  0  0
  4 29  1  0  0  0  0
  5  6  1  0  0  0  0
  5 30  1  0  0  0  0
  5 31  1  0  0  0  0
  6  7  1  0  0  0  0
  6 22  1  0  0  0  0
  6 51  1  0  0  0  0
  7  8  1  0  0  0  0
  7 32  1  0  0  0  0
  7 33  1  0  0  0  0
  8  9  1  0  0  0  0
  8 10  1  0  0  0  0
  8 34  1  0  0  0  0
  9 35  1  0  0  0  0
 10 11  1  0  0  0  0
 10 36  1  0  0  0  0
 10 37  1  0  0  0  0
 11 21  1  0  0  0  0
 11 12  1  0  0  0  0
 12 13  2  0  0  0  0
 12 38  1  0  0  0  0
 13 14  1  0  0  0  0
 14 21  2  0  0  0  0
 14 15  1  0  0  0  0
 15 16  2  0  0  0  0
 15 39  1  0  0  0  0
 16 17  1  0  0  0  0
 16 18  1  0  0  0  0
 17 40  1  0  0  0  0
 17 41  1  0  0  0  0
 17 42  1  0  0  0  0
 18 19  1  0  0  0  0
 18 20  2  0  0  0  0
 19 43  1  0  0  0  0
 19 44  1  0  0  0  0
 19 45  1  0  0  0  0
 20 21  1  0  0  0  0
 20 46  1  0  0  0  0
 22 23  1  0  0  0  0
 22 47  1  0  0  0  0
 22 48  1  0  0  0  0
 23 49  1  0  0  0  0
 23 50  1  0  0  0  0
M  CHG  1   6   1
M  END
> <s_m_source_file>
AV-unprocessed.smi

> <i_m_source_file_index>
1605

> <i_lp_mmshare_version>
43012

> <i_f3d_flags>
0

> <s_epik_input>
W0NIM11PW0NIXTFbQ0gyXVtDSDJdTihbQ0gyXVtDSDJdMSlbQ0gyXVtDQEhdKFtPSF0pW0NIMl1uKFtjSF1uMiljKGMyMylbY0hdYyhbQ0gzXSljKFtjSF0zKVtDSDNd

> <s_epik_cmdline>
J2VwaWtfcHl0aG9uJywgJy1waCcsICc3LjAnLCAnLXRuJywgJzgnLCAnLW1hJywgJzIwMCcsICctbWV0YWxfYmluZGluZycsICctaW1hZScsICc8aW5maWxlLm1hZT4nLCAnLW9tYWUnLCAnPG91dGZpbGUubWFlPic=

> <r_epik_Ionization_Penalty>
0.110943

> <r_epik_Ionization_Penalty_Charging>
0.0229283

> <r_epik_Ionization_Penalty_Neutral>
0.0880146

> <r_epik_State_Penalty>
0.0947554

> <r_epik_Charging_Adjusted_Penalty>
0.117684

> <i_epik_Tot_Q>
1

> <i_epik_Tot_abs_Q>
1

> <r_epik_Metal_State_Penalty>
0.0192456

> <b_epik_Metal_Only>
0

> <s_lp_Force_Field>
OPLS_2005

> <r_lp_Energy>
23.6879

> <b_lp_Chiralities_Consistent>
1

> <s_lp_Variant>
AV-unprocessed.smi:1605-3

> <Gold.Version>
5.8.1

> <Gold.Id.Protein>
6NUR|6NUR_protein|mol2

> <Gold.PLP.Fitness>
50.8891

> <Gold.PLP.PLP>
-39.2221

> <Gold.PLP.part.hbond>
-3.0000

> <Gold.PLP.part.metal>
0.0000

> <Gold.PLP.part.buried>
3.3698

> <Gold.PLP.part.nonpolar>
-38.5973

> <Gold.PLP.part.repulsive>
0.2931

> <Gold.PLP.ligand.clash>
0.0000

> <Gold.PLP.ligand.torsion>
1.5315

> <Gold.PLP.Chemscore.Hbond>
3.8800

> <Gold.PLP.Chemscore.CHOScore>
1.0000

> <Gold.PLP.Chemscore.Metal>
0.0000

> <Gold.Chemscore.Hbonds>
donor molecule, donor type, donor heavy atom, donor atom, acceptor molecule, acceptor atom, score
      L1  H     6    51       P1  7948  2.00
      L1  H     9    35       P1 10171  1.00
      P1  H  7954  7966       L1     9  0.88
      L1  C    12    38       P1 10175  1.00

> <Gold.PLP.Chemscore.Internal.Correction>
0.0901

> <Gold.Rescore>
     Score         DG    S(hbond)    S(metal)    S(lipo)     H(rot)  DE(clash)    DE(int)     intcor
     18.88     -22.09       2.88        0.00     108.16       2.22       1.67       1.54       ----

> <Gold.Chemscore.Fitness>
18.8788

> <Gold.Chemscore.DG>
-22.0878

> <Gold.Chemscore.ZeroCoef>
-5.4800

> <Gold.Chemscore.Hbond>
2.8828

> <Gold.Chemscore.Metal>
0.0000

> <Gold.Chemscore.Lipo>
108.1597

> <Gold.Chemscore.Internal_Hbond>
0.0000

> <Gold.Chemscore.DEClash>
1.6715

> <Gold.Chemscore.DEInternal>
1.5374

> <Gold.Chemscore.Rot>
2.2169

> <Gold.Chemscore.Internal.Correction>
   9.000000E+99

> <Gold.Chemscore.Hbonds>
donor molecule, donor type, donor heavy atom, donor atom, acceptor molecule, acceptor atom, score
      L1  H     6    51       P1  7948  1.00
      L1  H     9    35       P1 10171  0.99
      P1  H  7954  7966       L1     9  0.85

> <Gold.Chemscore.Hbond.Weighted>
-9.6284

> <Gold.Chemscore.Metal.Weighted>
-0.0000

> <Gold.Chemscore.Lipo.Weighted>
-12.6547

> <Gold.Chemscore.Internal_Hbond.Weighted>
0.0000

> <Gold.Chemscore.DEClash.Weighted>
1.6715

> <Gold.Chemscore.DEInternal.Weighted>
1.5374

> <Gold.Chemscore.Rot.Weighted>
5.6753

> <Gold.Chemscore.Internal.Correction.Weighted>
   9.000000E+99

> <Gold.Protein.RotatedTorsions>
[ 6907 6896 6895 6894 ] final  -54.18 input  -60.11 | X-H torsion
[ 7974 7965 7964 7962 ] final -171.52 input  175.53 | X-H torsion
[ 8008 7997 7996 7995 ] final  -98.37 input   59.86 | X-H torsion
[ 10167 10162 10161 10158 ] final  162.96 input  -65.29 | X-H torsion
[ 10718 10713 10712 10709 ] final    0.38 input   66.30 | X-H torsion
[ 10763 10752 10751 10750 ] final  143.80 input  -60.55 | X-H torsion
[ 11005 11000 10999 10996 ] final   56.82 input  -57.11 | X-H torsion

> <Gold.Protein.ActiveResidues>
 VAL166  LYS551  ARG553  GLY616  TRP617  ASP618  TYR619  PRO620  LYS621  CYS622 
 ASP623  PHE694  ASN695  SER759  ASP760  ASP761  ALA762  ILE779  LEU786  VAL792 
 PHE793  MET794  SER795  GLU796  ALA797  LYS798  CYS799  TRP800  GLU811  SER814 

> <Gold.Protein.RotatedAtoms>
  150.8361  134.7634  159.6893 H   0  0  0  0  0  0  0  0  0  0  0  0  # atno 6907 bound_to 6896
  152.4457  134.5496  159.9872 H   0  0  0  0  0  0  0  0  0  0  0  0  # atno 6908 bound_to 6896
  151.5646  133.3360  159.3013 H   0  0  0  0  0  0  0  0  0  0  0  0  # atno 6909 bound_to 6896
  144.7156  140.1910  143.6348 H   0  0  0  0  0  0  0  0  0  0  0  0  # atno 7974 bound_to 7965
  154.8004  140.0455  157.1268 H   0  0  0  0  0  0  0  0  0  0  0  0  # atno 8008 bound_to 7997
  154.9486  140.3062  155.5066 H   0  0  0  0  0  0  0  0  0  0  0  0  # atno 8009 bound_to 7997
  156.2961  140.2292  156.4562 H   0  0  0  0  0  0  0  0  0  0  0  0  # atno 8010 bound_to 7997
  139.4867  144.4385  151.8982 H   0  0  0  0  0  0  0  0  0  0  0  0  # atno 10167 bound_to 10162
  156.8325  130.5493  149.5685 H   0  0  0  0  0  0  0  0  0  0  0  0  # atno 10718 bound_to 10713
  153.9783  135.2944  155.3422 H   0  0  0  0  0  0  0  0  0  0  0  0  # atno 10763 bound_to 10752
  154.7283  135.5079  153.8925 H   0  0  0  0  0  0  0  0  0  0  0  0  # atno 10764 bound_to 10752
  153.0866  135.6695  154.0050 H   0  0  0  0  0  0  0  0  0  0  0  0  # atno 10765 bound_to 10752
  140.0500  134.5751  155.9276 H   0  0  0  0  0  0  0  0  0  0  0  0  # atno 11005 bound_to 11000
  145.8768  139.2301  143.1628 LP  0  0  0  0  0  0  0  0  0  0  0  0  # atno 17320 bound_to 7965
  146.0032  140.8501  143.0008 LP  0  0  0  0  0  0  0  0  0  0  0  0  # atno 17321 bound_to 7965
  140.3835  144.2706  150.5906 LP  0  0  0  0  0  0  0  0  0  0  0  0  # atno 17342 bound_to 10162
  140.5211  143.2265  151.8387 LP  0  0  0  0  0  0  0  0  0  0  0  0  # atno 17343 bound_to 10162
  156.0926  130.5907  150.9759 LP  0  0  0  0  0  0  0  0  0  0  0  0  # atno 17370 bound_to 10713
  157.6399  131.0911  150.8272 LP  0  0  0  0  0  0  0  0  0  0  0  0  # atno 17371 bound_to 10713
  141.1925  133.6575  156.5507 LP  0  0  0  0  0  0  0  0  0  0  0  0  # atno 17394 bound_to 11000
  140.3933  134.7421  157.4735 LP  0  0  0  0  0  0  0  0  0  0  0  0  # atno 17395 bound_to 11000

$$$$
