AV-unprocessed.smi:663|AV-procd|sdf|3249|dock8
  -GOLD-   22720 0203D 1   1.00000     0.00000
 Structure written by MMmdl.
 29 30  0  0  0  0  0  0  0  0  2 V2000
  150.6790  137.7662  153.9009 N   0  0  0  0  0  0  0  0  0  0  0  0
  151.1673  138.6349  154.7897 C   0  0  0  0  0  0  0  0  0  0  0  0
  150.9971  139.8474  154.6798 O   0  0  0  0  0  0  0  0  0  0  0  0
  151.9676  138.0554  155.9615 C   0  0  0  0  0  0  0  0  0  0  0  0
  151.5071  138.5529  157.3541 C   0  0  2  0  0  0  0  0  0  0  0  0
  150.2544  137.8899  157.7119 N   0  0  0  0  0  0  0  0  0  0  0  0
  149.9867  137.2521  158.8612 C   0  0  0  0  0  0  0  0  0  0  0  0
  150.8461  137.1802  159.7426 O   0  0  0  0  0  0  0  0  0  0  0  0
  148.7380  136.7348  158.9157 N   0  5  0  0  0  0  0  0  0  0  0  0
  148.2246  136.3379  160.0917 C   0  0  0  0  0  0  0  0  0  0  0  0
  148.0397  137.1851  161.1170 N   0  0  0  0  0  0  0  0  0  0  0  0
  147.5064  136.5721  162.2428 N   0  0  0  0  0  0  0  0  0  0  0  0
  147.3093  135.2698  162.0392 C   0  0  0  0  0  0  0  0  0  0  0  0
  147.7591  134.6737  160.4554 S   0  0  0  0  0  0  0  0  0  0  0  0
  151.3728  140.0675  157.4073 C   0  0  0  0  0  0  0  0  0  0  0  0
  151.4993  140.8405  158.7004 C   0  0  0  0  0  0  0  0  0  0  0  0
  150.1545  140.7138  158.0222 C   0  0  0  0  0  0  0  0  0  0  0  0
  150.1457  138.1032  153.1125 H   0  0  0  0  0  0  0  0  0  0  0  0
  150.8447  136.7775  154.0199 H   0  0  0  0  0  0  0  0  0  0  0  0
  151.9359  136.9651  155.9310 H   0  0  0  0  0  0  0  0  0  0  0  0
  153.0099  138.3312  155.7959 H   0  0  0  0  0  0  0  0  0  0  0  0
  152.2578  138.2718  158.0957 H   0  0  0  0  0  0  0  0  0  0  0  0
  149.5166  137.9198  157.0237 H   0  0  0  0  0  0  0  0  0  0  0  0
  146.8991  134.6560  162.8273 H   0  0  0  0  0  0  0  0  0  0  0  0
  151.7653  140.5649  156.5220 H   0  0  0  0  0  0  0  0  0  0  0  0
  151.6460  140.2797  159.6212 H   0  0  0  0  0  0  0  0  0  0  0  0
  151.9967  141.8072  158.6591 H   0  0  0  0  0  0  0  0  0  0  0  0
  149.7528  141.5967  157.5293 H   0  0  0  0  0  0  0  0  0  0  0  0
  149.4171  140.0625  158.4872 H   0  0  0  0  0  0  0  0  0  0  0  0
  1  2  1  0  0  0  0
  1 18  1  0  0  0  0
  1 19  1  0  0  0  0
  2  3  2  0  0  0  0
  2  4  1  0  0  0  0
  4  5  1  0  0  0  0
  4 20  1  0  0  0  0
  4 21  1  0  0  0  0
  5  6  1  0  0  0  0
  5 15  1  0  0  0  0
  5 22  1  0  0  0  0
  6  7  1  0  0  0  0
  6 23  1  0  0  0  0
  7  8  2  0  0  0  0
  7  9  1  0  0  0  0
  9 10  1  0  0  0  0
 10 14  1  0  0  0  0
 10 11  2  0  0  0  0
 11 12  1  0  0  0  0
 12 13  2  0  0  0  0
 13 14  1  0  0  0  0
 13 24  1  0  0  0  0
 15 17  1  0  0  0  0
 15 16  1  0  0  0  0
 15 25  1  0  0  0  0
 16 17  1  0  0  0  0
 16 26  1  0  0  0  0
 16 27  1  0  0  0  0
 17 28  1  0  0  0  0
 17 29  1  0  0  0  0
M  CHG  1   9  -1
M  END
> <s_m_source_file>
AV-unprocessed.smi

> <i_m_source_file_index>
663

> <i_lp_mmshare_version>
43012

> <i_f3d_flags>
0

> <s_epik_input>
W05IMl1DKD1PKVtDSDJdW0NAQEhdKFtDSF0xW0NIMl1bQ0gyXTEpW05IXUMoPU8pW05IXWMybm5bY0hdczI=

> <s_epik_cmdline>
J2VwaWtfcHl0aG9uJywgJy1waCcsICc3LjAnLCAnLXRuJywgJzgnLCAnLW1hJywgJzIwMCcsICctbWV0YWxfYmluZGluZycsICctaW1hZScsICc8aW5maWxlLm1hZT4nLCAnLW9tYWUnLCAnPG91dGZpbGUubWFlPic=

> <r_lp_tautomer_probability>
1

> <r_epik_Ionization_Penalty>
4.41895

> <r_epik_Ionization_Penalty_Charging>
4.37725

> <r_epik_Ionization_Penalty_Neutral>
0.0416999

> <r_epik_State_Penalty>
4.37688

> <r_epik_Charging_Adjusted_Penalty>
8.75413

> <i_epik_Tot_Q>
-1

> <i_epik_Tot_abs_Q>
1

> <r_epik_Metal_State_Penalty>
0.761195

> <b_epik_Metal_Only>
1

> <s_lp_Force_Field>
OPLS_2005

> <r_lp_Energy>
9.70165

> <b_lp_Chiralities_Consistent>
1

> <s_lp_Variant>
AV-unprocessed.smi:663-3

> <Gold.Version>
5.8.1

> <Gold.Id.Protein>
6NUR|6NUR_protein|mol2

> <Gold.PLP.Fitness>
35.1709

> <Gold.PLP.PLP>
-27.1266

> <Gold.PLP.part.hbond>
-6.2160

> <Gold.PLP.part.metal>
0.0000

> <Gold.PLP.part.buried>
-6.0635

> <Gold.PLP.part.nonpolar>
-15.6842

> <Gold.PLP.part.repulsive>
0.2162

> <Gold.PLP.ligand.clash>
0.0000

> <Gold.PLP.ligand.torsion>
1.8490

> <Gold.PLP.Chemscore.Hbond>
3.5403

> <Gold.PLP.Chemscore.CHOScore>
0.0000

> <Gold.PLP.Chemscore.Metal>
0.0000

> <Gold.Chemscore.Hbonds>
donor molecule, donor type, donor heavy atom, donor atom, acceptor molecule, acceptor atom, score
      P1  H  6896  6907       L1     8  0.84
      P1  H  6931  6943       L1    11  0.90
      P1  H  6934  6947       L1    11  0.70
      P1  H  7989  7998       L1     3  1.00

> <Gold.PLP.Chemscore.Internal.Correction>
1.1212

> <Gold.Rescore>
     Score         DG    S(hbond)    S(metal)    S(lipo)     H(rot)  DE(clash)    DE(int)     intcor
     11.83     -14.86       3.47        0.00      35.55       2.49       0.00       3.03       ----

> <Gold.Chemscore.Fitness>
11.8288

> <Gold.Chemscore.DG>
-14.8621

> <Gold.Chemscore.ZeroCoef>
-5.4800

> <Gold.Chemscore.Hbond>
3.4693

> <Gold.Chemscore.Metal>
0.0000

> <Gold.Chemscore.Lipo>
35.5505

> <Gold.Chemscore.Internal_Hbond>
0.0000

> <Gold.Chemscore.DEClash>
0.0009

> <Gold.Chemscore.DEInternal>
3.0324

> <Gold.Chemscore.Rot>
2.4863

> <Gold.Chemscore.Internal.Correction>
   9.000000E+99

> <Gold.Chemscore.Hbonds>
donor molecule, donor type, donor heavy atom, donor atom, acceptor molecule, acceptor atom, score
      P1  H  6896  6907       L1     8  0.46
      P1  H  6931  6943       L1    11  0.17
      P1  H  6934  6947       L1    11  0.42
      P1  H  7989  7998       L1     3  1.00

> <Gold.Chemscore.Hbond.Weighted>
-11.5875

> <Gold.Chemscore.Metal.Weighted>
-0.0000

> <Gold.Chemscore.Lipo.Weighted>
-4.1594

> <Gold.Chemscore.Internal_Hbond.Weighted>
0.0000

> <Gold.Chemscore.DEClash.Weighted>
0.0009

> <Gold.Chemscore.DEInternal.Weighted>
3.0324

> <Gold.Chemscore.Rot.Weighted>
6.3648

> <Gold.Chemscore.Internal.Correction.Weighted>
   9.000000E+99

> <Gold.Protein.RotatedTorsions>
[ 6907 6896 6895 6894 ] final  -15.24 input  -60.11 | X-H torsion
[ 7974 7965 7964 7962 ] final   53.68 input  175.53 | X-H torsion
[ 8008 7997 7996 7995 ] final  -42.55 input   59.86 | X-H torsion
[ 10167 10162 10161 10158 ] final   72.25 input  -65.29 | X-H torsion
[ 10718 10713 10712 10709 ] final  132.70 input   66.30 | X-H torsion
[ 10763 10752 10751 10750 ] final   27.98 input  -60.55 | X-H torsion
[ 11005 11000 10999 10996 ] final -163.22 input  -57.11 | X-H torsion

> <Gold.Protein.ActiveResidues>
 VAL166  LYS551  ARG553  GLY616  TRP617  ASP618  TYR619  PRO620  LYS621  CYS622 
 ASP623  PHE694  ASN695  SER759  ASP760  ASP761  ALA762  ILE779  LEU786  VAL792 
 PHE793  MET794  SER795  GLU796  ALA797  LYS798  CYS799  TRP800  GLU811  SER814 

> <Gold.Protein.RotatedAtoms>
  151.3270  135.0832  159.9325 H   0  0  0  0  0  0  0  0  0  0  0  0  # atno 6907 bound_to 6896
  152.5243  133.9581  159.7714 H   0  0  0  0  0  0  0  0  0  0  0  0  # atno 6908 bound_to 6896
  150.9913  133.6094  159.2738 H   0  0  0  0  0  0  0  0  0  0  0  0  # atno 6909 bound_to 6896
  145.9686  139.4127  143.0204 H   0  0  0  0  0  0  0  0  0  0  0  0  # atno 7974 bound_to 7965
  154.3998  140.1470  156.3374 H   0  0  0  0  0  0  0  0  0  0  0  0  # atno 8008 bound_to 7997
  155.8388  140.3463  155.5597 H   0  0  0  0  0  0  0  0  0  0  0  0  # atno 8009 bound_to 7997
  155.8109  140.0884  157.1895 H   0  0  0  0  0  0  0  0  0  0  0  0  # atno 8010 bound_to 7997
  140.0373  144.5417  150.7461 H   0  0  0  0  0  0  0  0  0  0  0  0  # atno 10167 bound_to 10162
  157.4846  131.1087  150.9637 H   0  0  0  0  0  0  0  0  0  0  0  0  # atno 10718 bound_to 10713
  153.0520  135.6524  154.0669 H   0  0  0  0  0  0  0  0  0  0  0  0  # atno 10763 bound_to 10752
  154.0355  135.2908  155.3364 H   0  0  0  0  0  0  0  0  0  0  0  0  # atno 10764 bound_to 10752
  154.6815  135.5318  153.8336 H   0  0  0  0  0  0  0  0  0  0  0  0  # atno 10765 bound_to 10752
  140.6005  134.4952  157.5204 H   0  0  0  0  0  0  0  0  0  0  0  0  # atno 11005 bound_to 11000
  145.7938  140.9802  143.1035 LP  0  0  0  0  0  0  0  0  0  0  0  0  # atno 17320 bound_to 7965
  144.6831  139.9715  143.7482 LP  0  0  0  0  0  0  0  0  0  0  0  0  # atno 17321 bound_to 7965
  140.7276  143.2653  151.4067 LP  0  0  0  0  0  0  0  0  0  0  0  0  # atno 17342 bound_to 10162
  139.6036  144.1243  152.2225 LP  0  0  0  0  0  0  0  0  0  0  0  0  # atno 17343 bound_to 10162
  157.0359  130.5730  149.5349 LP  0  0  0  0  0  0  0  0  0  0  0  0  # atno 17370 bound_to 10713
  156.0140  130.5233  150.8076 LP  0  0  0  0  0  0  0  0  0  0  0  0  # atno 17371 bound_to 10713
  139.9234  134.8103  156.1140 LP  0  0  0  0  0  0  0  0  0  0  0  0  # atno 17394 bound_to 11000
  141.0875  133.6728  156.2468 LP  0  0  0  0  0  0  0  0  0  0  0  0  # atno 17395 bound_to 11000

$$$$
