AV-unprocessed.smi:260|AV-procd|sdf|1982|dock4
  -GOLD-   2262021153D 1   1.00000     0.00000
 Structure written by MMmdl.
 53 56  0  0  0  0  0  0  0  0  1 V2000
  152.1845  130.8284  155.6953 C   0  0  0  0  0  0  0  0  0  0  0  0
  151.0566  131.7466  155.7179 N   0  0  0  0  0  0  0  0  0  0  0  0
  150.6412  132.4130  156.8071 C   0  0  0  0  0  0  0  0  0  0  0  0
  151.1932  132.2833  157.9008 O   0  0  0  0  0  0  0  0  0  0  0  0
  149.4277  133.3706  156.6743 C   0  0  2  0  0  0  0  0  0  0  0  0
  148.3164  132.9090  157.6373 C   0  0  0  0  0  0  0  0  0  0  0  0
  148.9062  133.5386  155.2281 C   0  0  0  0  0  0  0  0  0  0  0  0
  149.8214  134.5966  154.5972 C   0  0  0  0  0  0  0  0  0  0  0  0
  150.3886  135.3331  155.7172 N   0  0  0  0  0  0  0  0  0  0  0  0
  150.8130  136.6161  155.5869 C   0  0  0  0  0  0  0  0  0  0  0  0
  151.4606  136.9760  154.4469 N   0  0  0  0  0  0  0  0  0  0  0  0
  151.8897  138.2294  154.2761 C   0  0  0  0  0  0  0  0  0  0  0  0
  151.7744  139.2702  155.1020 N   0  0  0  0  0  0  0  0  0  0  0  0
  151.1162  138.9217  156.2438 C   0  0  0  0  0  0  0  0  0  0  0  0
  150.6060  137.6313  156.5672 C   0  0  0  0  0  0  0  0  0  0  0  0
  149.9889  137.6739  157.8136 N   0  0  0  0  0  0  0  0  0  0  0  0
  150.1311  138.9109  158.2038 C   0  0  0  0  0  0  0  0  0  0  0  0
  150.7946  139.7291  157.3195 N   0  0  0  0  0  0  0  0  0  0  0  0
  151.0843  141.1418  157.4876 C   0  0  0  0  0  0  0  0  0  0  0  0
  152.0400  141.4061  158.6674 C   0  0  1  0  0  0  0  0  0  0  0  0
  153.1547  140.5361  158.6108 O   0  0  0  0  0  0  0  0  0  0  0  0
  152.5038  142.8745  158.7442 C   0  0  1  0  0  0  0  0  0  0  0  0
  151.5325  143.9257  158.2009 C   0  0  0  0  0  0  0  0  0  0  0  0
  152.0017  145.1641  158.9311 C   0  0  0  0  0  0  0  0  0  0  0  0
  152.3547  144.6011  160.3059 C   0  0  0  0  0  0  0  0  0  0  0  0
  152.8079  143.2685  160.0803 O   0  0  0  0  0  0  0  0  0  0  0  0
  149.8704  134.8148  156.9769 C   0  0  0  0  0  0  0  0  0  0  0  0
  152.3181  130.4287  154.6900 H   0  0  0  0  0  0  0  0  0  0  0  0
  152.0187  129.9924  156.3761 H   0  0  0  0  0  0  0  0  0  0  0  0
  153.1048  131.3374  155.9854 H   0  0  0  0  0  0  0  0  0  0  0  0
  150.5646  131.8958  154.8490 H   0  0  0  0  0  0  0  0  0  0  0  0
  147.4575  133.5800  157.6033 H   0  0  0  0  0  0  0  0  0  0  0  0
  148.6627  132.8830  158.6714 H   0  0  0  0  0  0  0  0  0  0  0  0
  147.9600  131.9106  157.3806 H   0  0  0  0  0  0  0  0  0  0  0  0
  148.8626  132.6168  154.6475 H   0  0  0  0  0  0  0  0  0  0  0  0
  147.8883  133.9308  155.2535 H   0  0  0  0  0  0  0  0  0  0  0  0
  150.6296  134.1256  154.0368 H   0  0  0  0  0  0  0  0  0  0  0  0
  149.2629  135.2432  153.9193 H   0  0  0  0  0  0  0  0  0  0  0  0
  152.3967  138.4263  153.3430 H   0  0  0  0  0  0  0  0  0  0  0  0
  149.7473  139.2642  159.1498 H   0  0  0  0  0  0  0  0  0  0  0  0
  151.5064  141.5229  156.5569 H   0  0  0  0  0  0  0  0  0  0  0  0
  150.1410  141.6674  157.6410 H   0  0  0  0  0  0  0  0  0  0  0  0
  151.5148  141.1751  159.5952 H   0  0  0  0  0  0  0  0  0  0  0  0
  153.3402  140.2338  159.4869 H   0  0  0  0  0  0  0  0  0  0  0  0
  153.4376  142.9679  158.1869 H   0  0  0  0  0  0  0  0  0  0  0  0
  151.5765  144.0250  157.1159 H   0  0  0  0  0  0  0  0  0  0  0  0
  150.5019  143.7064  158.4815 H   0  0  0  0  0  0  0  0  0  0  0  0
  152.8932  145.5684  158.4495 H   0  0  0  0  0  0  0  0  0  0  0  0
  151.2475  145.9505  158.9730 H   0  0  0  0  0  0  0  0  0  0  0  0
  153.1088  145.1976  160.8197 H   0  0  0  0  0  0  0  0  0  0  0  0
  151.4667  144.5607  160.9381 H   0  0  0  0  0  0  0  0  0  0  0  0
  149.0224  135.4226  157.2966 H   0  0  0  0  0  0  0  0  0  0  0  0
  150.6280  134.8647  157.7608 H   0  0  0  0  0  0  0  0  0  0  0  0
  1  2  1  0  0  0  0
  1 28  1  0  0  0  0
  1 29  1  0  0  0  0
  1 30  1  0  0  0  0
  2  3  1  0  0  0  0
  2 31  1  0  0  0  0
  3  4  2  0  0  0  0
  3  5  1  0  0  0  0
  5 27  1  0  0  0  0
  5  6  1  0  0  0  0
  5  7  1  0  0  0  0
  6 32  1  0  0  0  0
  6 33  1  0  0  0  0
  6 34  1  0  0  0  0
  7  8  1  0  0  0  0
  7 35  1  0  0  0  0
  7 36  1  0  0  0  0
  8  9  1  0  0  0  0
  8 37  1  0  0  0  0
  8 38  1  0  0  0  0
  9 10  1  0  0  0  0
  9 27  1  0  0  0  0
 10 15  1  0  0  0  0
 10 11  2  0  0  0  0
 11 12  1  0  0  0  0
 12 13  2  0  0  0  0
 12 39  1  0  0  0  0
 13 14  1  0  0  0  0
 14 18  1  0  0  0  0
 14 15  2  0  0  0  0
 15 16  1  0  0  0  0
 16 17  2  0  0  0  0
 17 18  1  0  0  0  0
 17 40  1  0  0  0  0
 18 19  1  0  0  0  0
 19 20  1  0  0  0  0
 19 41  1  0  0  0  0
 19 42  1  0  0  0  0
 20 21  1  0  0  0  0
 20 22  1  0  0  0  0
 20 43  1  0  0  0  0
 21 44  1  0  0  0  0
 22 26  1  0  0  0  0
 22 23  1  0  0  0  0
 22 45  1  0  0  0  0
 23 24  1  0  0  0  0
 23 46  1  0  0  0  0
 23 47  1  0  0  0  0
 24 25  1  0  0  0  0
 24 48  1  0  0  0  0
 24 49  1  0  0  0  0
 25 26  1  0  0  0  0
 25 50  1  0  0  0  0
 25 51  1  0  0  0  0
 27 52  1  0  0  0  0
 27 53  1  0  0  0  0
M  END
> <s_m_source_file>
AV-unprocessed.smi

> <i_m_source_file_index>
260

> <i_lp_mmshare_version>
43012

> <i_f3d_flags>
0

> <s_epik_input>
W0NIM11bTkhdQyg9TylbQ0BAXTEoW0NIM10pW0NIMl1bQ0gyXU4oW0NIMl0xKWMobltjSF1uMiljKGMyMyluW2NIXW4zW0NIMl1bQ0BIXShbT0hdKVtDQEBIXTRbQ0gyXVtDSDJdW0NIMl1PNA==

> <s_epik_cmdline>
J2VwaWtfcHl0aG9uJywgJy1waCcsICc3LjAnLCAnLXRuJywgJzgnLCAnLW1hJywgJzIwMCcsICctbWV0YWxfYmluZGluZycsICctaW1hZScsICc8aW5maWxlLm1hZT4nLCAnLW9tYWUnLCAnPG91dGZpbGUubWFlPic=

> <r_lp_tautomer_probability>
1

> <r_epik_Ionization_Penalty>
0.00115068

> <r_epik_Ionization_Penalty_Charging>
0

> <r_epik_Ionization_Penalty_Neutral>
0.00115068

> <r_epik_State_Penalty>
0.000668876

> <r_epik_Charging_Adjusted_Penalty>
0.000668876

> <i_epik_Tot_Q>
0

> <i_epik_Tot_abs_Q>
0

> <r_epik_Metal_State_Penalty>
-0

> <b_epik_Metal_Only>
0

> <s_lp_Force_Field>
OPLS_2005

> <r_lp_Energy>
50.4325

> <b_lp_Chiralities_Consistent>
1

> <s_lp_Variant>
AV-unprocessed.smi:260-8

> <Gold.Version>
5.8.1

> <Gold.Id.Protein>
6NUR|6NUR_protein|mol2

> <Gold.PLP.Fitness>
50.2941

> <Gold.PLP.PLP>
-42.3893

> <Gold.PLP.part.hbond>
-3.8412

> <Gold.PLP.part.metal>
0.0000

> <Gold.PLP.part.buried>
-6.2860

> <Gold.PLP.part.nonpolar>
-30.6475

> <Gold.PLP.part.repulsive>
0.8756

> <Gold.PLP.ligand.clash>
0.0000

> <Gold.PLP.ligand.torsion>
1.0852

> <Gold.PLP.Chemscore.Hbond>
3.2475

> <Gold.PLP.Chemscore.CHOScore>
0.0000

> <Gold.PLP.Chemscore.Metal>
0.0000

> <Gold.Chemscore.Hbonds>
donor molecule, donor type, donor heavy atom, donor atom, acceptor molecule, acceptor atom, score
      P1  H  6896  6907       L1     4  1.00
      P1  H  7989  7998       L1    13  0.34
      P1  H  7997  8009       L1    21  0.49
      P1  H 10752 10764       L1    11  1.00

> <Gold.PLP.Chemscore.Internal.Correction>
0.3328

> <Gold.Rescore>
     Score         DG    S(hbond)    S(metal)    S(lipo)     H(rot)  DE(clash)    DE(int)     intcor
     15.02     -16.90       2.29        0.00      87.48       2.53       0.08       1.81       ----

> <Gold.Chemscore.Fitness>
15.0172

> <Gold.Chemscore.DG>
-16.8978

> <Gold.Chemscore.ZeroCoef>
-5.4800

> <Gold.Chemscore.Hbond>
2.2903

> <Gold.Chemscore.Metal>
0.0000

> <Gold.Chemscore.Lipo>
87.4751

> <Gold.Chemscore.Internal_Hbond>
0.0000

> <Gold.Chemscore.DEClash>
0.0752

> <Gold.Chemscore.DEInternal>
1.8055

> <Gold.Chemscore.Rot>
2.5259

> <Gold.Chemscore.Internal.Correction>
   9.000000E+99

> <Gold.Chemscore.Hbonds>
donor molecule, donor type, donor heavy atom, donor atom, acceptor molecule, acceptor atom, score
      P1  H  6896  6907       L1     4  1.00
      P1  H  7989  7998       L1    13  0.05
      P1  H  7997  8009       L1    21  0.47
      P1  H 10752 10764       L1    11  0.49

> <Gold.Chemscore.Hbond.Weighted>
-7.6496

> <Gold.Chemscore.Metal.Weighted>
-0.0000

> <Gold.Chemscore.Lipo.Weighted>
-10.2346

> <Gold.Chemscore.Internal_Hbond.Weighted>
0.0000

> <Gold.Chemscore.DEClash.Weighted>
0.0752

> <Gold.Chemscore.DEInternal.Weighted>
1.8055

> <Gold.Chemscore.Rot.Weighted>
6.4663

> <Gold.Chemscore.Internal.Correction.Weighted>
   9.000000E+99

> <Gold.Protein.RotatedTorsions>
[ 6907 6896 6895 6894 ] final -172.15 input  -60.11 | X-H torsion
[ 7974 7965 7964 7962 ] final -141.00 input  175.53 | X-H torsion
[ 8008 7997 7996 7995 ] final  153.09 input   59.86 | X-H torsion
[ 10167 10162 10161 10158 ] final -108.05 input  -65.29 | X-H torsion
[ 10718 10713 10712 10709 ] final   11.75 input   66.30 | X-H torsion
[ 10763 10752 10751 10750 ] final  -87.61 input  -60.55 | X-H torsion
[ 11005 11000 10999 10996 ] final   83.26 input  -57.11 | X-H torsion

> <Gold.Protein.ActiveResidues>
 VAL166  LYS551  ARG553  GLY616  TRP617  ASP618  TYR619  PRO620  LYS621  CYS622 
 ASP623  PHE694  ASN695  SER759  ASP760  ASP761  ALA762  ILE779  LEU786  VAL792 
 PHE793  MET794  SER795  GLU796  ALA797  LYS798  CYS799  TRP800  GLU811  SER814 

> <Gold.Protein.RotatedAtoms>
  151.5353  133.3442  159.2925 H   0  0  0  0  0  0  0  0  0  0  0  0  # atno 6907 bound_to 6896
  150.8569  134.7912  159.7063 H   0  0  0  0  0  0  0  0  0  0  0  0  # atno 6908 bound_to 6896
  152.4600  134.5215  159.9835 H   0  0  0  0  0  0  0  0  0  0  0  0  # atno 6909 bound_to 6896
  144.8553  140.6132  143.5363 H   0  0  0  0  0  0  0  0  0  0  0  0  # atno 7974 bound_to 7965
  156.2598  140.2003  156.6436 H   0  0  0  0  0  0  0  0  0  0  0  0  # atno 8008 bound_to 7997
  154.6590  140.0563  157.0066 H   0  0  0  0  0  0  0  0  0  0  0  0  # atno 8009 bound_to 7997
  155.1304  140.3233  155.4478 H   0  0  0  0  0  0  0  0  0  0  0  0  # atno 8010 bound_to 7997
  140.1703  143.4048  152.1359 H   0  0  0  0  0  0  0  0  0  0  0  0  # atno 10167 bound_to 10162
  157.0001  130.6076  149.5695 H   0  0  0  0  0  0  0  0  0  0  0  0  # atno 10718 bound_to 10713
  154.6355  135.5407  153.7729 H   0  0  0  0  0  0  0  0  0  0  0  0  # atno 10763 bound_to 10752
  153.0306  135.6446  154.1238 H   0  0  0  0  0  0  0  0  0  0  0  0  # atno 10764 bound_to 10752
  154.1165  135.2923  155.3198 H   0  0  0  0  0  0  0  0  0  0  0  0  # atno 10765 bound_to 10752
  139.9037  134.8131  156.2285 H   0  0  0  0  0  0  0  0  0  0  0  0  # atno 11005 bound_to 11000
  145.4418  139.1534  143.3966 LP  0  0  0  0  0  0  0  0  0  0  0  0  # atno 17320 bound_to 7965
  146.2818  140.4540  142.8773 LP  0  0  0  0  0  0  0  0  0  0  0  0  # atno 17321 bound_to 7965
  139.5341  144.7191  151.4954 LP  0  0  0  0  0  0  0  0  0  0  0  0  # atno 17342 bound_to 10162
  140.6586  143.8546  150.6863 LP  0  0  0  0  0  0  0  0  0  0  0  0  # atno 17343 bound_to 10162
  156.0174  130.5268  150.8175 LP  0  0  0  0  0  0  0  0  0  0  0  0  # atno 17370 bound_to 10713
  157.5396  131.0940  150.9845 LP  0  0  0  0  0  0  0  0  0  0  0  0  # atno 17371 bound_to 10713
  141.0360  133.6963  156.1514 LP  0  0  0  0  0  0  0  0  0  0  0  0  # atno 17394 bound_to 11000
  140.7026  134.4548  157.5585 LP  0  0  0  0  0  0  0  0  0  0  0  0  # atno 17395 bound_to 11000

$$$$
