AV-unprocessed.smi:514|AV-procd|sdf|2778|dock4
  -GOLD-   2262023243D 1   1.00000     0.00000
 Structure written by MMmdl.
 45 47  0  0  0  0  0  0  0  0  3 V2000
  147.8100  141.7604  153.9588 C   0  0  0  0  0  0  0  0  0  0  0  0
  148.1204  141.4494  155.4246 C   0  0  0  0  0  0  0  0  0  0  0  0
  149.5076  141.6344  155.6497 O   0  0  0  0  0  0  0  0  0  0  0  0
  149.8633  141.4938  157.0145 C   0  0  0  0  0  0  0  0  0  0  0  0
  151.3376  141.8965  157.1812 C   0  0  0  0  0  0  0  0  0  0  0  0
  151.9904  141.1805  158.2741 N   0  0  0  0  0  0  0  0  0  0  0  0
  152.5102  141.6733  159.4365 C   0  0  0  0  0  0  0  0  0  0  0  0
  152.4752  143.0294  159.7946 N   0  0  0  0  0  0  0  0  0  0  0  0
  152.6548  144.1120  158.8257 C   0  0  0  0  0  0  0  0  0  0  0  0
  151.5456  145.1728  158.9442 C   0  0  0  0  0  0  0  0  0  0  0  0
  151.4891  145.7155  160.3163 N   0  3  0  0  0  0  0  0  0  0  0  0
  151.3889  144.6550  161.3386 C   0  0  0  0  0  0  0  0  0  0  0  0
  152.5016  143.6088  161.1398 C   0  0  0  0  0  0  0  0  0  0  0  0
  153.1000  140.7527  160.2032 N   0  0  0  0  0  0  0  0  0  0  0  0
  152.9287  139.5793  159.4885 C   0  0  0  0  0  0  0  0  0  0  0  0
  152.2718  139.8097  158.3215 C   0  0  0  0  0  0  0  0  0  0  0  0
  151.9703  138.7530  157.3286 C   0  0  0  0  0  0  0  0  0  0  0  0
  151.3971  139.0168  156.2737 O   0  0  0  0  0  0  0  0  0  0  0  0
  152.4030  137.5186  157.7378 N   0  5  0  0  0  0  0  0  0  0  0  0
  153.0651  137.2411  158.9143 C   0  0  0  0  0  0  0  0  0  0  0  0
  153.4202  136.0985  159.2071 O   0  0  0  0  0  0  0  0  0  0  0  0
  153.3434  138.2544  159.7935 N   0  0  0  0  0  0  0  0  0  0  0  0
  154.0556  137.9916  161.0472 C   0  0  0  0  0  0  0  0  0  0  0  0
  146.7485  141.6275  153.7494 H   0  0  0  0  0  0  0  0  0  0  0  0
  148.3674  141.1014  153.2930 H   0  0  0  0  0  0  0  0  0  0  0  0
  148.0744  142.7889  153.7122 H   0  0  0  0  0  0  0  0  0  0  0  0
  147.5418  142.1073  156.0747 H   0  0  0  0  0  0  0  0  0  0  0  0
  147.8354  140.4218  155.6549 H   0  0  0  0  0  0  0  0  0  0  0  0
  149.2159  142.1174  157.6313 H   0  0  0  0  0  0  0  0  0  0  0  0
  149.7079  140.4643  157.3372 H   0  0  0  0  0  0  0  0  0  0  0  0
  151.8860  141.7105  156.2581 H   0  0  0  0  0  0  0  0  0  0  0  0
  151.4294  142.9675  157.3421 H   0  0  0  0  0  0  0  0  0  0  0  0
  153.6344  144.5677  158.9757 H   0  0  0  0  0  0  0  0  0  0  0  0
  152.6547  143.7117  157.8114 H   0  0  0  0  0  0  0  0  0  0  0  0
  151.7193  145.9881  158.2419 H   0  0  0  0  0  0  0  0  0  0  0  0
  150.5786  144.7342  158.6942 H   0  0  0  0  0  0  0  0  0  0  0  0
  152.3381  146.2359  160.4841 H   0  0  0  0  0  0  0  0  0  0  0  0
  151.4588  145.1035  162.3295 H   0  0  0  0  0  0  0  0  0  0  0  0
  150.4063  144.1876  161.2681 H   0  0  0  0  0  0  0  0  0  0  0  0
  152.4336  142.8398  161.9027 H   0  0  0  0  0  0  0  0  0  0  0  0
  153.4746  144.0784  161.2926 H   0  0  0  0  0  0  0  0  0  0  0  0
  153.4718  137.3263  161.6845 H   0  0  0  0  0  0  0  0  0  0  0  0
  154.2548  138.8992  161.6161 H   0  0  0  0  0  0  0  0  0  0  0  0
  155.0181  137.5175  160.8495 H   0  0  0  0  0  0  0  0  0  0  0  0
  150.6996  146.3398  160.3993 H   0  0  0  0  0  0  0  0  0  0  0  0
  1  2  1  0  0  0  0
  1 24  1  0  0  0  0
  1 25  1  0  0  0  0
  1 26  1  0  0  0  0
  2  3  1  0  0  0  0
  2 27  1  0  0  0  0
  2 28  1  0  0  0  0
  3  4  1  0  0  0  0
  4  5  1  0  0  0  0
  4 29  1  0  0  0  0
  4 30  1  0  0  0  0
  5  6  1  0  0  0  0
  5 31  1  0  0  0  0
  5 32  1  0  0  0  0
  6 16  1  0  0  0  0
  6  7  1  0  0  0  0
  7  8  1  0  0  0  0
  7 14  2  0  0  0  0
  8 13  1  0  0  0  0
  8  9  1  0  0  0  0
  9 10  1  0  0  0  0
  9 33  1  0  0  0  0
  9 34  1  0  0  0  0
 10 11  1  0  0  0  0
 10 35  1  0  0  0  0
 10 36  1  0  0  0  0
 11 12  1  0  0  0  0
 11 37  1  0  0  0  0
 11 45  1  0  0  0  0
 12 13  1  0  0  0  0
 12 38  1  0  0  0  0
 12 39  1  0  0  0  0
 13 40  1  0  0  0  0
 13 41  1  0  0  0  0
 14 15  1  0  0  0  0
 15 22  1  0  0  0  0
 15 16  2  0  0  0  0
 16 17  1  0  0  0  0
 17 18  2  0  0  0  0
 17 19  1  0  0  0  0
 19 20  1  0  0  0  0
 20 21  2  0  0  0  0
 20 22  1  0  0  0  0
 22 23  1  0  0  0  0
 23 42  1  0  0  0  0
 23 43  1  0  0  0  0
 23 44  1  0  0  0  0
M  CHG  1  11   1
M  CHG  1  19  -1
M  END
> <s_m_source_file>
AV-unprocessed.smi

> <i_m_source_file_index>
514

> <i_lp_mmshare_version>
43012

> <i_f3d_flags>
0

> <s_epik_input>
W0NIM11uMWMoPU8pW25IXWMoPU8pYyhjMTIpbihbQ0gyXVtDSDJdT1tDSDJdW0NIM10pYyhuMilOM1tDSDJdW0NIMl1bTkhdW0NIMl1bQ0gyXTM=

> <s_epik_cmdline>
J2VwaWtfcHl0aG9uJywgJy1waCcsICc3LjAnLCAnLXRuJywgJzgnLCAnLW1hJywgJzIwMCcsICctbWV0YWxfYmluZGluZycsICctaW1hZScsICc8aW5maWxlLm1hZT4nLCAnLW9tYWUnLCAnPG91dGZpbGUubWFlPic=

> <r_epik_Ionization_Penalty>
5.92505

> <r_epik_Ionization_Penalty_Charging>
0.0655308

> <r_epik_Ionization_Penalty_Neutral>
5.85952

> <r_epik_State_Penalty>
5.86593

> <r_epik_Charging_Adjusted_Penalty>
5.93146

> <i_epik_Tot_Q>
0

> <i_epik_Tot_abs_Q>
2

> <r_epik_Metal_State_Penalty>
1.83024

> <b_epik_Metal_Only>
1

> <s_lp_Force_Field>
OPLS_2005

> <r_lp_Energy>
48.6867

> <b_lp_Chiralities_Consistent>
1

> <s_lp_Variant>
AV-unprocessed.smi:514-3

> <Gold.Version>
5.8.1

> <Gold.Id.Protein>
6NUR|6NUR_protein|mol2

> <Gold.PLP.Fitness>
44.4674

> <Gold.PLP.PLP>
-42.8134

> <Gold.PLP.part.hbond>
-1.2484

> <Gold.PLP.part.metal>
0.0000

> <Gold.PLP.part.buried>
-5.1814

> <Gold.PLP.part.nonpolar>
-35.7900

> <Gold.PLP.part.repulsive>
0.2967

> <Gold.PLP.ligand.clash>
0.0000

> <Gold.PLP.ligand.torsion>
0.6939

> <Gold.PLP.Chemscore.Hbond>
0.9600

> <Gold.PLP.Chemscore.CHOScore>
0.0000

> <Gold.PLP.Chemscore.Metal>
0.0000

> <Gold.Chemscore.Hbonds>
donor molecule, donor type, donor heavy atom, donor atom, acceptor molecule, acceptor atom, score
      P1  H  6896  6908       L1    21  0.94

> <Gold.PLP.Chemscore.Internal.Correction>
0.1619

> <Gold.Rescore>
     Score         DG    S(hbond)    S(metal)    S(lipo)     H(rot)  DE(clash)    DE(int)     intcor
     12.61     -14.28       0.91        0.00      86.88       1.72       0.06       1.61       ----

> <Gold.Chemscore.Fitness>
12.6067

> <Gold.Chemscore.DG>
-14.2794

> <Gold.Chemscore.ZeroCoef>
-5.4800

> <Gold.Chemscore.Hbond>
0.9105

> <Gold.Chemscore.Metal>
0.0000

> <Gold.Chemscore.Lipo>
86.8830

> <Gold.Chemscore.Internal_Hbond>
0.0000

> <Gold.Chemscore.DEClash>
0.0580

> <Gold.Chemscore.DEInternal>
1.6147

> <Gold.Chemscore.Rot>
1.7214

> <Gold.Chemscore.Internal.Correction>
   9.000000E+99

> <Gold.Chemscore.Hbonds>
donor molecule, donor type, donor heavy atom, donor atom, acceptor molecule, acceptor atom, score
      P1  H  6896  6908       L1    21  0.91

> <Gold.Chemscore.Hbond.Weighted>
-3.0410

> <Gold.Chemscore.Metal.Weighted>
-0.0000

> <Gold.Chemscore.Lipo.Weighted>
-10.1653

> <Gold.Chemscore.Internal_Hbond.Weighted>
0.0000

> <Gold.Chemscore.DEClash.Weighted>
0.0580

> <Gold.Chemscore.DEInternal.Weighted>
1.6147

> <Gold.Chemscore.Rot.Weighted>
4.4069

> <Gold.Chemscore.Internal.Correction.Weighted>
   9.000000E+99

> <Gold.Protein.RotatedTorsions>
[ 6907 6896 6895 6894 ] final  -63.29 input  -60.11 | X-H torsion
[ 7974 7965 7964 7962 ] final  179.64 input  175.53 | X-H torsion
[ 8008 7997 7996 7995 ] final   51.27 input   59.86 | X-H torsion
[ 10167 10162 10161 10158 ] final  108.44 input  -65.29 | X-H torsion
[ 10718 10713 10712 10709 ] final  127.23 input   66.30 | X-H torsion
[ 10763 10752 10751 10750 ] final  110.30 input  -60.55 | X-H torsion
[ 11005 11000 10999 10996 ] final  -37.08 input  -57.11 | X-H torsion

> <Gold.Protein.ActiveResidues>
 VAL166  LYS551  ARG553  GLY616  TRP617  ASP618  TYR619  PRO620  LYS621  CYS622 
 ASP623  PHE694  ASN695  SER759  ASP760  ASP761  ALA762  ILE779  LEU786  VAL792 
 PHE793  MET794  SER795  GLU796  ALA797  LYS798  CYS799  TRP800  GLU811  SER814 

> <Gold.Protein.RotatedAtoms>
  150.7659  134.6456  159.6259 H   0  0  0  0  0  0  0  0  0  0  0  0  # atno 6907 bound_to 6896
  152.3690  134.6758  160.0191 H   0  0  0  0  0  0  0  0  0  0  0  0  # atno 6908 bound_to 6896
  151.7124  133.3276  159.3330 H   0  0  0  0  0  0  0  0  0  0  0  0  # atno 6909 bound_to 6896
  144.7144  140.0579  143.6433 H   0  0  0  0  0  0  0  0  0  0  0  0  # atno 7974 bound_to 7965
  155.4326  140.3451  155.4281 H   0  0  0  0  0  0  0  0  0  0  0  0  # atno 8008 bound_to 7997
  156.1327  140.1519  156.9071 H   0  0  0  0  0  0  0  0  0  0  0  0  # atno 8009 bound_to 7997
  154.4907  140.0842  156.7569 H   0  0  0  0  0  0  0  0  0  0  0  0  # atno 8010 bound_to 7997
  139.6846  144.7115  151.1455 H   0  0  0  0  0  0  0  0  0  0  0  0  # atno 10167 bound_to 10162
  157.5351  131.1098  150.8948 H   0  0  0  0  0  0  0  0  0  0  0  0  # atno 10718 bound_to 10713
  153.4470  135.3753  155.2261 H   0  0  0  0  0  0  0  0  0  0  0  0  # atno 10763 bound_to 10752
  154.8755  135.3876  154.4084 H   0  0  0  0  0  0  0  0  0  0  0  0  # atno 10764 bound_to 10752
  153.4638  135.7087  153.6098 H   0  0  0  0  0  0  0  0  0  0  0  0  # atno 10765 bound_to 10752
  140.9925  133.6997  156.1875 H   0  0  0  0  0  0  0  0  0  0  0  0  # atno 11005 bound_to 11000
  145.9889  139.2999  143.0997 LP  0  0  0  0  0  0  0  0  0  0  0  0  # atno 17320 bound_to 7965
  145.8926  140.9294  143.0544 LP  0  0  0  0  0  0  0  0  0  0  0  0  # atno 17321 bound_to 7965
  140.7663  143.5648  150.9059 LP  0  0  0  0  0  0  0  0  0  0  0  0  # atno 17342 bound_to 10162
  139.9322  143.6479  152.3073 LP  0  0  0  0  0  0  0  0  0  0  0  0  # atno 17343 bound_to 10162
  156.9518  130.5422  149.5283 LP  0  0  0  0  0  0  0  0  0  0  0  0  # atno 17370 bound_to 10713
  156.0452  130.5529  150.8864 LP  0  0  0  0  0  0  0  0  0  0  0  0  # atno 17371 bound_to 10713
  140.7018  134.4556  157.5586 LP  0  0  0  0  0  0  0  0  0  0  0  0  # atno 17394 bound_to 11000
  139.8999  134.8581  156.1942 LP  0  0  0  0  0  0  0  0  0  0  0  0  # atno 17395 bound_to 11000

$$$$
