#       Name:                AV-unprocessed.smi:2822
#       Creating user name   scv26
#       Creation time:       Fri Mar 27 15:31:52 2020


#       File generated by GOLD software.
#

@<TRIPOS>MOLECULE
AV-unprocessed.smi:2822
    43    45     1
SMALL
NO_CHARGES


@<TRIPOS>ATOM
      1 ****        -5.1171   1.0411   0.4428 Cl             1 S1                 0.0000
      2 ****        -4.2471   2.5352   0.4234 C.ar           1 S1                 0.0000
      3 ****        -4.9638   3.7484   0.3671 C.ar           1 S1                 0.0000
      4 ****        -4.3017   4.9246   0.3505 N.pl3          1 S1                 1.0000
      5 ****        -2.9548   5.0033   0.3867 C.ar           1 S1                 0.0000
      6 ****        -2.1830   3.8251   0.4440 C.ar           1 S1                 0.0000
      7 ****        -2.8309   2.5644   0.4622 C.ar           1 S1                 0.0000
      8 ****        -2.1191   1.3565   0.5202 N.pl3          1 S1                 0.0000
      9 ****        -0.6717   1.3271   0.3744 C.3            1 S1                 0.0000
     10 ****        -0.1364  -0.1109   0.3719 C.3            1 S1                 0.0000
     11 ****         1.4022  -0.1475   0.4208 C.3            1 S1                 0.0000
     12 ****         1.9148  -1.5096   0.3482 N.3            1 S1                 0.0000
     13 ****         3.3758  -1.5315   0.3934 C.3            1 S1                 0.0000
     14 ****         3.9417  -2.9598   0.3540 C.3            1 S1                 0.0000
     15 ****         3.4356  -3.7004  -0.8922 C.3            1 S1                 0.0000
     16 ****         1.9025  -3.6267  -0.9650 C.3            1 S1                 0.0000
     17 ****         1.4140  -2.1669  -0.8630 C.3            1 S1                 0.0000
     18 ****        -0.1259  -2.1019  -0.9263 C.3            1 S1                 0.0000
     19 ****        -0.5600  -0.7490  -0.8302 O.3            1 S1                 0.0000
     20 ****        -6.0418   3.8120   0.3351 H              1 S1                 0.0000
     21 ****        -2.5366   5.9992   0.3699 H              1 S1                 0.0000
     22 ****        -1.1069   3.9081   0.4752 H              1 S1                 0.0000
     23 ****        -2.6229   0.4825   0.4576 H              1 S1                 0.0000
     24 ****        -0.3794   1.8387  -0.5436 H              1 S1                 0.0000
     25 ****        -0.2301   1.8746   1.2079 H              1 S1                 0.0000
     26 ****        -0.5378  -0.6496   1.2326 H              1 S1                 0.0000
     27 ****         1.8058   0.4429  -0.4035 H              1 S1                 0.0000
     28 ****         1.7478   0.3254   1.3409 H              1 S1                 0.0000
     29 ****         3.7810  -0.9580  -0.4418 H              1 S1                 0.0000
     30 ****         3.7207  -1.0378   1.3027 H              1 S1                 0.0000
     31 ****         5.0316  -2.9327   0.3583 H              1 S1                 0.0000
     32 ****         3.6386  -3.4990   1.2525 H              1 S1                 0.0000
     33 ****         3.8660  -3.2477  -1.7863 H              1 S1                 0.0000
     34 ****         3.7657  -4.7394  -0.8768 H              1 S1                 0.0000
     35 ****         1.5566  -4.0764  -1.8963 H              1 S1                 0.0000
     36 ****         1.4711  -4.2174  -0.1556 H              1 S1                 0.0000
     37 ****         1.7987  -1.6284  -1.7312 H              1 S1                 0.0000
     38 ****        -0.4871  -2.5195  -1.8664 H              1 S1                 0.0000
     39 ****        -0.5746  -2.6884  -0.1228 H              1 S1                 0.0000
     40 ****        -4.8420   5.7894   0.3095 H              1 S1                 0.0000
     41 ****         1.5869  -2.0147   1.1466 LP             1 S1                 0.0000
     42 ****        -0.1909  -0.2401  -1.6080 LP             1 S1                 0.0000
     43 ****        -1.5592  -0.7320  -0.8647 LP             1 S1                 0.0000
@<TRIPOS>BOND
    1    1    2 1     
    2    2    7 ar    
    3    2    3 ar    
    4    3    4 ar    
    5    3   20 1     
    6    4    5 ar    
    7    4   40 1     
    8    5    6 ar    
    9    5   21 1     
   10    6    7 ar    
   11    6   22 1     
   12    7    8 1     
   13    8    9 1     
   14    8   23 1     
   15    9   10 1     
   16    9   24 1     
   17    9   25 1     
   18   10   19 1     
   19   10   11 1     
   20   10   26 1     
   21   11   12 1     
   22   11   27 1     
   23   11   28 1     
   24   12   17 1     
   25   12   13 1     
   26   13   14 1     
   27   13   29 1     
   28   13   30 1     
   29   14   15 1     
   30   14   31 1     
   31   14   32 1     
   32   15   16 1     
   33   15   33 1     
   34   15   34 1     
   35   16   17 1     
   36   16   35 1     
   37   16   36 1     
   38   17   18 1     
   39   17   37 1     
   40   18   19 1     
   41   18   38 1     
   42   18   39 1     
   43   12   41 1     
   44   19   42 1     
   45   19   43 1     
@<TRIPOS>SUBSTRUCTURE
      1 S1             1
@<TRIPOS>SET
LONE_PAIRS      STATIC     ATOMS    <user>   **** ""
3 41 42 43
DONOR_HYDROGENS      STATIC     ATOMS    <user>   **** ""
2 40 23
ATOM$BLUE        STATIC     ATOMS    COLORGROUP SYSTEM
3 41 42 43
ATOM$RED        STATIC     ATOMS    COLORGROUP SYSTEM
2 40 23
