AV-unprocessed.smi:33|AV-procd|sdf|203|dock9
  -GOLD-   2262015483D 1   1.00000     0.00000
 Structure written by MMmdl.
 67 72  0  0  0  0  0  0  0  0  1 V2000
  149.7939  142.1253  155.8652 O   0  0  0  0  0  0  0  0  0  0  0  0
  149.9507  141.8485  157.0561 C   0  0  0  0  0  0  0  0  0  0  0  0
  149.4757  140.7246  157.6291 O   0  0  0  0  0  0  0  0  0  0  0  0
  149.3174  139.5467  156.8552 C   0  0  0  0  0  0  0  0  0  0  0  0
  147.8220  139.2680  156.6589 C   0  0  2  0  0  0  0  0  0  0  0  0
  147.5734  137.8735  156.5171 O   0  0  0  0  0  0  0  0  0  0  0  0
  146.3409  137.6795  155.8864 C   0  0  1  0  0  0  0  0  0  0  0  0
  145.3534  137.2862  156.9441 N   0  0  0  0  0  0  0  0  0  0  0  0
  144.2649  137.9814  157.4320 C   0  0  0  0  0  0  0  0  0  0  0  0
  143.6006  137.3878  158.3864 N   0  0  0  0  0  0  0  0  0  0  0  0
  144.2914  136.2007  158.5850 C   0  0  0  0  0  0  0  0  0  0  0  0
  144.1296  135.0994  159.4669 C   0  0  0  0  0  0  0  0  0  0  0  0
  143.1306  135.0313  160.3764 N   0  0  0  0  0  0  0  0  0  0  0  0
  141.7572  134.9850  159.8546 C   0  0  0  0  0  0  0  0  0  0  0  0
  141.5527  134.5574  158.7166 O   0  0  0  0  0  0  0  0  0  0  0  0
  140.6009  135.4153  160.7114 C   0  0  0  0  0  0  0  0  0  0  0  0
  139.2939  134.9745  160.4089 C   0  0  0  0  0  0  0  0  0  0  0  0
  138.2050  135.3856  161.2019 C   0  0  0  0  0  0  0  0  0  0  0  0
  138.4133  136.2549  162.2898 C   0  0  0  0  0  0  0  0  0  0  0  0
  139.7098  136.7218  162.5785 C   0  0  0  0  0  0  0  0  0  0  0  0
  140.7991  136.3108  161.7866 C   0  0  0  0  0  0  0  0  0  0  0  0
  143.5156  135.0209  161.7955 C   0  0  0  0  0  0  0  0  0  0  0  0
  142.7474  134.5372  162.6295 O   0  0  0  0  0  0  0  0  0  0  0  0
  144.8560  135.5422  162.2307 C   0  0  0  0  0  0  0  0  0  0  0  0
  145.8516  134.6438  162.6739 C   0  0  0  0  0  0  0  0  0  0  0  0
  147.1049  135.1253  163.0987 C   0  0  0  0  0  0  0  0  0  0  0  0
  147.3643  136.5091  163.1011 C   0  0  0  0  0  0  0  0  0  0  0  0
  146.3667  137.4122  162.6871 C   0  0  0  0  0  0  0  0  0  0  0  0
  145.1132  136.9316  162.2615 C   0  0  0  0  0  0  0  0  0  0  0  0
  145.0263  134.0825  159.3918 N   0  0  0  0  0  0  0  0  0  0  0  0
  146.0223  134.1426  158.5026 C   0  0  0  0  0  0  0  0  0  0  0  0
  146.2962  135.1052  157.6182 N   0  0  0  0  0  0  0  0  0  0  0  0
  145.3953  136.1284  157.6923 C   0  0  0  0  0  0  0  0  0  0  0  0
  145.9537  139.0183  155.2290 C   0  0  2  0  0  0  0  0  0  0  0  0
  145.5660  138.8951  153.8756 O   0  0  0  0  0  0  0  0  0  0  0  0
  147.2411  139.8211  155.3590 C   0  0  2  0  0  0  0  0  0  0  0  0
  148.0805  139.5371  154.3583 F   0  0  0  0  0  0  0  0  0  0  0  0
  150.6871  142.7234  158.0141 C   0  0  0  0  0  0  0  0  0  0  0  0
  150.9358  144.0727  157.6691 C   0  0  0  0  0  0  0  0  0  0  0  0
  151.6311  144.9225  158.5512 C   0  0  0  0  0  0  0  0  0  0  0  0
  152.0864  144.4335  159.7895 C   0  0  0  0  0  0  0  0  0  0  0  0
  151.8446  143.0935  160.1449 C   0  0  0  0  0  0  0  0  0  0  0  0
  151.1492  142.2422  159.2641 C   0  0  0  0  0  0  0  0  0  0  0  0
  149.7937  139.6942  155.8849 H   0  0  0  0  0  0  0  0  0  0  0  0
  149.8084  138.7016  157.3399 H   0  0  0  0  0  0  0  0  0  0  0  0
  147.2586  139.6633  157.5046 H   0  0  0  0  0  0  0  0  0  0  0  0
  146.3933  136.8401  155.1926 H   0  0  0  0  0  0  0  0  0  0  0  0
  143.9655  138.9488  157.0582 H   0  0  0  0  0  0  0  0  0  0  0  0
  139.1227  134.3069  159.5769 H   0  0  0  0  0  0  0  0  0  0  0  0
  137.2094  135.0337  160.9749 H   0  0  0  0  0  0  0  0  0  0  0  0
  137.5780  136.5687  162.8983 H   0  0  0  0  0  0  0  0  0  0  0  0
  139.8694  137.3964  163.4067 H   0  0  0  0  0  0  0  0  0  0  0  0
  141.7894  136.6792  162.0140 H   0  0  0  0  0  0  0  0  0  0  0  0
  145.6637  133.5797  162.6765 H   0  0  0  0  0  0  0  0  0  0  0  0
  147.8668  134.4323  163.4237 H   0  0  0  0  0  0  0  0  0  0  0  0
  148.3255  136.8776  163.4270 H   0  0  0  0  0  0  0  0  0  0  0  0
  146.5621  138.4742  162.6970 H   0  0  0  0  0  0  0  0  0  0  0  0
  144.3536  137.6347  161.9515 H   0  0  0  0  0  0  0  0  0  0  0  0
  146.6972  133.2993  158.4997 H   0  0  0  0  0  0  0  0  0  0  0  0
  145.1540  139.5035  155.7891 H   0  0  0  0  0  0  0  0  0  0  0  0
  144.8572  139.4985  153.7113 H   0  0  0  0  0  0  0  0  0  0  0  0
  147.0838  140.8999  155.3727 H   0  0  0  0  0  0  0  0  0  0  0  0
  150.5968  144.4710  156.7236 H   0  0  0  0  0  0  0  0  0  0  0  0
  151.8152  145.9506  158.2764 H   0  0  0  0  0  0  0  0  0  0  0  0
  152.6203  145.0851  160.4652 H   0  0  0  0  0  0  0  0  0  0  0  0
  152.1937  142.7168  161.0952 H   0  0  0  0  0  0  0  0  0  0  0  0
  150.9814  141.2191  159.5676 H   0  0  0  0  0  0  0  0  0  0  0  0
  1  2  2  0  0  0  0
  2  3  1  0  0  0  0
  2 38  1  0  0  0  0
  3  4  1  0  0  0  0
  4  5  1  0  0  0  0
  4 44  1  0  0  0  0
  4 45  1  0  0  0  0
  5 36  1  0  0  0  0
  5  6  1  0  0  0  0
  5 46  1  0  0  0  0
  6  7  1  0  0  0  0
  7  8  1  0  0  0  0
  7 34  1  0  0  0  0
  7 47  1  0  0  0  0
  8 33  1  0  0  0  0
  8  9  1  0  0  0  0
  9 10  2  0  0  0  0
  9 48  1  0  0  0  0
 10 11  1  0  0  0  0
 11 33  2  0  0  0  0
 11 12  1  0  0  0  0
 12 13  1  0  0  0  0
 12 30  2  0  0  0  0
 13 14  1  0  0  0  0
 13 22  1  0  0  0  0
 14 15  2  0  0  0  0
 14 16  1  0  0  0  0
 16 21  1  0  0  0  0
 16 17  2  0  0  0  0
 17 18  1  0  0  0  0
 17 49  1  0  0  0  0
 18 19  2  0  0  0  0
 18 50  1  0  0  0  0
 19 20  1  0  0  0  0
 19 51  1  0  0  0  0
 20 21  2  0  0  0  0
 20 52  1  0  0  0  0
 21 53  1  0  0  0  0
 22 23  2  0  0  0  0
 22 24  1  0  0  0  0
 24 29  1  0  0  0  0
 24 25  2  0  0  0  0
 25 26  1  0  0  0  0
 25 54  1  0  0  0  0
 26 27  2  0  0  0  0
 26 55  1  0  0  0  0
 27 28  1  0  0  0  0
 27 56  1  0  0  0  0
 28 29  2  0  0  0  0
 28 57  1  0  0  0  0
 29 58  1  0  0  0  0
 30 31  1  0  0  0  0
 31 32  2  0  0  0  0
 31 59  1  0  0  0  0
 32 33  1  0  0  0  0
 34 35  1  0  0  0  0
 34 36  1  0  0  0  0
 34 60  1  0  0  0  0
 35 61  1  0  0  0  0
 36 37  1  0  0  0  0
 36 62  1  0  0  0  0
 38 43  1  0  0  0  0
 38 39  2  0  0  0  0
 39 40  1  0  0  0  0
 39 63  1  0  0  0  0
 40 41  2  0  0  0  0
 40 64  1  0  0  0  0
 41 42  1  0  0  0  0
 41 65  1  0  0  0  0
 42 43  2  0  0  0  0
 42 66  1  0  0  0  0
 43 67  1  0  0  0  0
M  END
> <s_m_source_file>
AV-unprocessed.smi

> <i_m_source_file_index>
33

> <i_lp_mmshare_version>
43012

> <i_f3d_flags>
0

> <s_epik_input>
W2NIXTFbY0hdW2NIXVtjSF1bY0hdYzFDKD1PKU9bQ0gyXVtDQEBIXTJPW0NASF0oW0NAQEhdKFtPSF0pW0NAQEhdMkYpbihbY0hdbjMpYyhjMzQpbltjSF1uYzROKEMoPU8pYzVbY0hdW2NIXVtjSF1bY0hdW2NIXTUpQyg9TyljNltjSF1bY0hdW2NIXVtjSF1bY0hdNg==

> <s_epik_cmdline>
J2VwaWtfcHl0aG9uJywgJy1waCcsICc3LjAnLCAnLXRuJywgJzgnLCAnLW1hJywgJzIwMCcsICctbWV0YWxfYmluZGluZycsICctaW1hZScsICc8aW5maWxlLm1hZT4nLCAnLW9tYWUnLCAnPG91dGZpbGUubWFlPic=

> <r_lp_tautomer_probability>
1

> <r_epik_Ionization_Penalty>
0.00067664

> <r_epik_Ionization_Penalty_Charging>
0

> <r_epik_Ionization_Penalty_Neutral>
0.00067664

> <r_epik_State_Penalty>
0.000428095

> <r_epik_Charging_Adjusted_Penalty>
0.000428095

> <i_epik_Tot_Q>
0

> <i_epik_Tot_abs_Q>
0

> <r_epik_Metal_State_Penalty>
-0

> <b_epik_Metal_Only>
0

> <s_epik_Chemistry_Notes>
This compound has an ester and may undergo hydrolysis at high or low pH. This compound contains an acetal/aminal-like group ( X-CH(R)-Y where X, Y are N, S, or O) that may be acid/base labile, releasing an aldehyde.

> <s_lp_Force_Field>
OPLS_2005

> <r_lp_Energy>
70.8142

> <b_lp_Chiralities_Consistent>
1

> <s_lp_Variant>
AV-unprocessed.smi:33-5

> <Gold.Version>
5.8.1

> <Gold.Id.Protein>
6NUR|6NUR_protein|mol2

> <Gold.PLP.Fitness>
54.5141

> <Gold.PLP.PLP>
-53.5687

> <Gold.PLP.part.hbond>
-1.9270

> <Gold.PLP.part.metal>
0.0000

> <Gold.PLP.part.buried>
-7.0344

> <Gold.PLP.part.nonpolar>
-45.1611

> <Gold.PLP.part.repulsive>
0.2221

> <Gold.PLP.ligand.clash>
0.0000

> <Gold.PLP.ligand.torsion>
4.5213

> <Gold.PLP.Chemscore.Hbond>
1.9440

> <Gold.PLP.Chemscore.CHOScore>
0.0000

> <Gold.PLP.Chemscore.Metal>
0.0000

> <Gold.Chemscore.Hbonds>
donor molecule, donor type, donor heavy atom, donor atom, acceptor molecule, acceptor atom, score
      L1  H    35    61       P1 10175  1.00
      P1  H 11000 11005       L1    15  0.78

> <Gold.PLP.Chemscore.Internal.Correction>
4.1560

> <Gold.Rescore>
     Score         DG    S(hbond)    S(metal)    S(lipo)     H(rot)  DE(clash)    DE(int)     intcor
     14.02     -21.70       1.96        0.00     137.94       2.52       0.06       7.61       ----

> <Gold.Chemscore.Fitness>
14.0196

> <Gold.Chemscore.DG>
-21.6950

> <Gold.Chemscore.ZeroCoef>
-5.4800

> <Gold.Chemscore.Hbond>
1.9577

> <Gold.Chemscore.Metal>
0.0000

> <Gold.Chemscore.Lipo>
137.9447

> <Gold.Chemscore.Internal_Hbond>
0.0000

> <Gold.Chemscore.DEClash>
0.0625

> <Gold.Chemscore.DEInternal>
7.6130

> <Gold.Chemscore.Rot>
2.5247

> <Gold.Chemscore.Internal.Correction>
   9.000000E+99

> <Gold.Chemscore.Hbonds>
donor molecule, donor type, donor heavy atom, donor atom, acceptor molecule, acceptor atom, score
      L1  H    35    61       P1 10175  0.94
      P1  H 11000 11005       L1    15  0.75

> <Gold.Chemscore.Hbond.Weighted>
-6.5388

> <Gold.Chemscore.Metal.Weighted>
-0.0000

> <Gold.Chemscore.Lipo.Weighted>
-16.1395

> <Gold.Chemscore.Internal_Hbond.Weighted>
0.0000

> <Gold.Chemscore.DEClash.Weighted>
0.0625

> <Gold.Chemscore.DEInternal.Weighted>
7.6130

> <Gold.Chemscore.Rot.Weighted>
6.4633

> <Gold.Chemscore.Internal.Correction.Weighted>
   9.000000E+99

> <Gold.Protein.RotatedTorsions>
[ 6907 6896 6895 6894 ] final   -4.80 input  -60.11 | X-H torsion
[ 7974 7965 7964 7962 ] final   24.35 input  175.53 | X-H torsion
[ 8008 7997 7996 7995 ] final   37.34 input   59.86 | X-H torsion
[ 10167 10162 10161 10158 ] final   51.91 input  -65.29 | X-H torsion
[ 10718 10713 10712 10709 ] final   -5.21 input   66.30 | X-H torsion
[ 10763 10752 10751 10750 ] final  -49.92 input  -60.55 | X-H torsion
[ 11005 11000 10999 10996 ] final -160.73 input  -57.11 | X-H torsion

> <Gold.Protein.ActiveResidues>
 VAL166  LYS551  ARG553  GLY616  TRP617  ASP618  TYR619  PRO620  LYS621  CYS622 
 ASP623  PHE694  ASN695  SER759  ASP760  ASP761  ALA762  ILE779  LEU786  VAL792 
 PHE793  MET794  SER795  GLU796  ALA797  LYS798  CYS799  TRP800  GLU811  SER814 

> <Gold.Protein.RotatedAtoms>
  151.4919  135.1058  159.9805 H   0  0  0  0  0  0  0  0  0  0  0  0  # atno 6907 bound_to 6896
  152.4737  133.8085  159.7001 H   0  0  0  0  0  0  0  0  0  0  0  0  # atno 6908 bound_to 6896
  150.8762  133.7373  159.2972 H   0  0  0  0  0  0  0  0  0  0  0  0  # atno 6909 bound_to 6896
  146.1942  139.7617  142.8810 H   0  0  0  0  0  0  0  0  0  0  0  0  # atno 7974 bound_to 7965
  155.2022  140.3316  155.4341 H   0  0  0  0  0  0  0  0  0  0  0  0  # atno 8008 bound_to 7997
  156.2402  140.1891  156.7058 H   0  0  0  0  0  0  0  0  0  0  0  0  # atno 8009 bound_to 7997
  154.6134  140.0606  156.9508 H   0  0  0  0  0  0  0  0  0  0  0  0  # atno 8010 bound_to 7997
  140.2569  144.3416  150.6330 H   0  0  0  0  0  0  0  0  0  0  0  0  # atno 10167 bound_to 10162
  156.7500  130.5236  149.5806 H   0  0  0  0  0  0  0  0  0  0  0  0  # atno 10718 bound_to 10713
  154.1020  135.6562  153.4870 H   0  0  0  0  0  0  0  0  0  0  0  0  # atno 10763 bound_to 10752
  153.0285  135.5227  154.7277 H   0  0  0  0  0  0  0  0  0  0  0  0  # atno 10764 bound_to 10752
  154.6432  135.2991  155.0047 H   0  0  0  0  0  0  0  0  0  0  0  0  # atno 10765 bound_to 10752
  140.6282  134.4679  157.5228 H   0  0  0  0  0  0  0  0  0  0  0  0  # atno 11005 bound_to 11000
  145.3698  141.0340  143.3237 LP  0  0  0  0  0  0  0  0  0  0  0  0  # atno 17320 bound_to 7965
  144.8546  139.5269  143.6840 LP  0  0  0  0  0  0  0  0  0  0  0  0  # atno 17321 bound_to 7965
  140.5996  143.2167  151.7097 LP  0  0  0  0  0  0  0  0  0  0  0  0  # atno 17342 bound_to 10162
  139.5028  144.3813  152.0373 LP  0  0  0  0  0  0  0  0  0  0  0  0  # atno 17343 bound_to 10162
  156.1408  130.6243  151.0464 LP  0  0  0  0  0  0  0  0  0  0  0  0  # atno 17370 bound_to 10713
  157.6781  131.0845  150.7441 LP  0  0  0  0  0  0  0  0  0  0  0  0  # atno 17371 bound_to 10713
  139.9126  134.8312  156.1474 LP  0  0  0  0  0  0  0  0  0  0  0  0  # atno 17394 bound_to 11000
  141.0694  133.6804  156.2110 LP  0  0  0  0  0  0  0  0  0  0  0  0  # atno 17395 bound_to 11000

$$$$
