#       Name:                AV-unprocessed.smi:1586
#       Creating user name   scv26
#       Creation time:       Fri Mar 27 07:00:36 2020


#       File generated by GOLD software.
#

@<TRIPOS>MOLECULE
AV-unprocessed.smi:1586
    53    54     1
SMALL
NO_CHARGES


@<TRIPOS>ATOM
      1 ****        -3.2891  -5.0993   2.0455 C.3            1 S1                 0.0000
      2 ****        -3.5721  -3.6190   1.7511 C.3            1 S1                 0.0000
      3 ****        -3.0197  -2.7384   2.7833 N.3            1 S1                 0.0000
      4 ****        -1.5583  -2.6804   2.8374 C.3            1 S1                 0.0000
      5 ****        -0.9498  -1.9806   1.6046 C.3            1 S1                 0.0000
      6 ****        -1.4789  -0.5968   1.4380 N.4            1 S1                 1.0000
      7 ****        -0.9024   0.1426   0.2645 C.3            1 S1                 0.0000
      8 ****        -1.4315   1.5970   0.1956 C.3            1 S1                 0.0000
      9 ****         0.6502   0.1394   0.2669 C.3            1 S1                 0.0000
     10 ****         1.2080   0.8532  -0.8778 N.am           1 S1                 0.0000
     11 ****         2.4194   1.4257  -0.9070 C.2            1 S1                 0.0000
     12 ****         3.2065   1.3975   0.0394 O.2            1 S1                 0.0000
     13 ****         2.6481   2.0222  -2.0892 N.am           1 S1                 0.0000
     14 ****         3.7987   2.7526  -2.4814 C.2            1 S1                 0.0000
     15 ****         3.8857   3.3347  -3.7739 C.2            1 S1                 0.0000
     16 ****         5.1112   3.9388  -3.7572 C.2            1 S1                 0.0000
     17 ****         5.8617   4.7379  -4.7670 C.3            1 S1                 0.0000
     18 ****         5.7202   3.7421  -2.5561 O.3            1 S1                 0.0000
     19 ****         4.8737   2.9796  -1.7424 N.2            1 S1                 0.0000
     20 ****        -2.9694  -0.6364   1.4406 C.3            1 S1                 0.0000
     21 ****        -3.5215  -1.3696   2.6808 C.3            1 S1                 0.0000
     22 ****        -3.8196  -5.7357   1.3371 H              1 S1                 0.0000
     23 ****        -3.6206  -5.3747   3.0473 H              1 S1                 0.0000
     24 ****        -2.2295  -5.3385   1.9598 H              1 S1                 0.0000
     25 ****        -3.2070  -3.3577   0.7586 H              1 S1                 0.0000
     26 ****        -4.6540  -3.4817   1.7274 H              1 S1                 0.0000
     27 ****        -1.2690  -2.1382   3.7388 H              1 S1                 0.0000
     28 ****        -1.1415  -3.6808   2.9486 H              1 S1                 0.0000
     29 ****         0.1254  -1.9601   1.7708 H              1 S1                 0.0000
     30 ****        -1.1180  -2.5609   0.6967 H              1 S1                 0.0000
     31 ****        -1.2302  -0.3739  -0.6394 H              1 S1                 0.0000
     32 ****        -0.9637   2.1706  -0.6038 H              1 S1                 0.0000
     33 ****        -1.2451   2.1295   1.1289 H              1 S1                 0.0000
     34 ****        -2.4993   1.6413  -0.0135 H              1 S1                 0.0000
     35 ****         1.0159   0.5694   1.2013 H              1 S1                 0.0000
     36 ****         1.0494  -0.8715   0.1967 H              1 S1                 0.0000
     37 ****         0.6289   0.9210  -1.7021 H              1 S1                 0.0000
     38 ****         1.9158   1.9578  -2.7806 H              1 S1                 0.0000
     39 ****         3.1692   3.3159  -4.5817 H              1 S1                 0.0000
     40 ****         5.4412   4.5996  -5.7632 H              1 S1                 0.0000
     41 ****         6.9095   4.4387  -4.7984 H              1 S1                 0.0000
     42 ****         5.8195   5.8003  -4.5267 H              1 S1                 0.0000
     43 ****        -3.3791   0.3711   1.4726 H              1 S1                 0.0000
     44 ****        -3.3339  -1.0932   0.5197 H              1 S1                 0.0000
     45 ****        -4.6119  -1.3804   2.6591 H              1 S1                 0.0000
     46 ****        -3.2408  -0.8244   3.5832 H              1 S1                 0.0000
     47 ****        -1.2040  -0.0873   2.2657 H              1 S1                 0.0000
     48 ****        -3.3382  -3.1680   3.6283 LP             1 S1                 0.0000
     49 ****         2.9537   0.9295   0.8862 LP             1 S1                 0.0000
     50 ****         4.0986   1.8426  -0.0387 LP             1 S1                 0.0000
     51 ****         5.8996   4.6246  -2.1213 LP             1 S1                 0.0000
     52 ****         6.5835   3.2561  -2.6922 LP             1 S1                 0.0000
     53 ****         5.0441   2.6729  -0.8059 LP             1 S1                 0.0000
@<TRIPOS>BOND
    1    1    2 1     
    2    1   22 1     
    3    1   23 1     
    4    1   24 1     
    5    2    3 1     
    6    2   25 1     
    7    2   26 1     
    8    3   21 1     
    9    3    4 1     
   10    4    5 1     
   11    4   27 1     
   12    4   28 1     
   13    5    6 1     
   14    5   29 1     
   15    5   30 1     
   16    6    7 1     
   17    6   20 1     
   18    6   47 1     
   19    7    8 1     
   20    7    9 1     
   21    7   31 1     
   22    8   32 1     
   23    8   33 1     
   24    8   34 1     
   25    9   10 1     
   26    9   35 1     
   27    9   36 1     
   28   10   11 am    
   29   10   37 1     
   30   11   12 2     
   31   11   13 am    
   32   13   14 1     
   33   13   38 1     
   34   14   19 2     
   35   14   15 1     
   36   15   16 2     
   37   15   39 1     
   38   16   17 1     
   39   16   18 1     
   40   17   40 1     
   41   17   41 1     
   42   17   42 1     
   43   18   19 1     
   44   20   21 1     
   45   20   43 1     
   46   20   44 1     
   47   21   45 1     
   48   21   46 1     
   49    3   48 1     
   50   12   49 1     
   51   12   50 1     
   52   18   51 1     
   53   18   52 1     
   54   19   53 1     
@<TRIPOS>SUBSTRUCTURE
      1 S1             1
@<TRIPOS>SET
LONE_PAIRS      STATIC     ATOMS    <user>   **** ""
6 48 49 50 51 52 53
DONOR_HYDROGENS      STATIC     ATOMS    <user>   **** ""
3 47 37 38
ATOM$BLUE        STATIC     ATOMS    COLORGROUP SYSTEM
6 48 49 50 51 52 53
ATOM$RED        STATIC     ATOMS    COLORGROUP SYSTEM
3 47 37 38
