#       Name:                AV-unprocessed.smi:1512
#       Creating user name   scv26
#       Creation time:       Fri Mar 27 06:24:08 2020


#       File generated by GOLD software.
#

@<TRIPOS>MOLECULE
AV-unprocessed.smi:1512
    50    52     1
SMALL
NO_CHARGES


@<TRIPOS>ATOM
      1 ****        -1.9980  -1.7806   2.6709 C.3            1 S1                 0.0000
      2 ****        -1.4767  -0.9499   1.4870 C.3            1 S1                 0.0000
      3 ****        -0.0154  -0.9436   1.5314 N.am           1 S1                 0.0000
      4 ****         0.7637   0.1366   1.6962 C.2            1 S1                 0.0000
      5 ****         0.3245   1.2696   1.8965 O.2            1 S1                 0.0000
      6 ****         2.2772  -0.1082   1.6256 C.3            1 S1                 0.0000
      7 ****         3.0044   1.0084   0.9975 N.am           1 S1                 0.0000
      8 ****         3.6785   1.8962   1.8569 C.2            1 S1                 0.0000
      9 ****         4.3578   2.9541   1.3914 C.2            1 S1                 0.0000
     10 ****         4.3909   3.1711  -0.0343 C.2            1 S1                 0.0000
     11 ****         3.7523   2.3304  -0.8804 C.2            1 S1                 0.0000
     12 ****         3.8297   2.6033  -2.2972 N.pl3          1 S1                 1.0000
     13 ****         4.0021   1.6680  -3.0727 O.2            1 S1                 0.0000
     14 ****         3.7338   3.7672  -2.6756 O.2            1 S1                -1.0000
     15 ****         2.9991   1.1693  -0.3630 C.2            1 S1                 0.0000
     16 ****         2.3883   0.3882  -1.0956 O.2            1 S1                 0.0000
     17 ****        -1.9612  -1.4993   0.1221 C.3            1 S1                 0.0000
     18 ****        -3.4929  -1.3943  -0.0788 C.3            1 S1                 0.0000
     19 ****        -3.6257  -0.6448  -1.4165 C.3            1 S1                 0.0000
     20 ****        -3.1639  -1.5577  -2.5667 C.3            1 S1                 0.0000
     21 ****        -1.6369  -1.5977  -2.3727 C.3            1 S1                 0.0000
     22 ****        -1.4310  -0.7295  -1.1167 C.3            1 S1                 0.0000
     23 ****        -2.4817   0.3558  -1.3226 C.3            1 S1                 0.0000
     24 ****        -3.0868  -1.7750   2.7162 H              1 S1                 0.0000
     25 ****        -1.6331  -1.3824   3.6184 H              1 S1                 0.0000
     26 ****        -1.6744  -2.8196   2.6004 H              1 S1                 0.0000
     27 ****        -1.8567   0.0660   1.6044 H              1 S1                 0.0000
     28 ****         0.4417  -1.8312   1.3811 H              1 S1                 0.0000
     29 ****         2.6376  -0.2890   2.6391 H              1 S1                 0.0000
     30 ****         2.4794  -1.0324   1.0805 H              1 S1                 0.0000
     31 ****         3.6010   1.6687   2.9102 H              1 S1                 0.0000
     32 ****         4.8654   3.6277   2.0661 H              1 S1                 0.0000
     33 ****         4.9437   4.0159  -0.4190 H              1 S1                 0.0000
     34 ****        -1.6522  -2.5437   0.0528 H              1 S1                 0.0000
     35 ****        -3.9758  -2.3718  -0.1016 H              1 S1                 0.0000
     36 ****        -3.9632  -0.8136   0.7157 H              1 S1                 0.0000
     37 ****        -4.6108  -0.2051  -1.5752 H              1 S1                 0.0000
     38 ****        -3.6166  -2.5486  -2.5142 H              1 S1                 0.0000
     39 ****        -3.4159  -1.1236  -3.5350 H              1 S1                 0.0000
     40 ****        -1.2571  -2.6122  -2.2471 H              1 S1                 0.0000
     41 ****        -1.1305  -1.1579  -3.2330 H              1 S1                 0.0000
     42 ****        -0.4093  -0.3610  -1.0270 H              1 S1                 0.0000
     43 ****        -2.3345   0.9326  -2.2375 H              1 S1                 0.0000
     44 ****        -2.5715   1.0422  -0.4793 H              1 S1                 0.0000
     45 ****        -0.6627   1.4221   1.9438 LP             1 S1                 0.0000
     46 ****         0.9551   2.0371   2.0119 LP             1 S1                 0.0000
     47 ****         4.0865   0.7358  -2.7208 LP             1 S1                 0.0000
     48 ****         4.0582   1.8381  -4.0565 LP             1 S1                 0.0000
     49 ****         1.8849  -0.3794  -0.6989 LP             1 S1                 0.0000
     50 ****         2.3963   0.5223  -2.0865 LP             1 S1                 0.0000
@<TRIPOS>BOND
    1    1    2 1     
    2    1   24 1     
    3    1   25 1     
    4    1   26 1     
    5    2    3 1     
    6    2   17 1     
    7    2   27 1     
    8    3    4 am    
    9    3   28 1     
   10    4    5 2     
   11    4    6 1     
   12    6    7 1     
   13    6   29 1     
   14    6   30 1     
   15    7   15 am    
   16    7    8 1     
   17    8    9 2     
   18    8   31 1     
   19    9   10 1     
   20    9   32 1     
   21   10   11 2     
   22   10   33 1     
   23   11   12 1     
   24   11   15 1     
   25   12   13 2     
   26   12   14 1     
   27   15   16 2     
   28   17   22 1     
   29   17   18 1     
   30   17   34 1     
   31   18   19 1     
   32   18   35 1     
   33   18   36 1     
   34   19   23 1     
   35   19   20 1     
   36   19   37 1     
   37   20   21 1     
   38   20   38 1     
   39   20   39 1     
   40   21   22 1     
   41   21   40 1     
   42   21   41 1     
   43   22   23 1     
   44   22   42 1     
   45   23   43 1     
   46   23   44 1     
   47    5   45 1     
   48    5   46 1     
   49   13   47 1     
   50   13   48 1     
   51   16   49 1     
   52   16   50 1     
@<TRIPOS>SUBSTRUCTURE
      1 S1             1
@<TRIPOS>SET
LONE_PAIRS      STATIC     ATOMS    <user>   **** ""
7 45 46 47 48 14 49 50
DONOR_HYDROGENS      STATIC     ATOMS    <user>   **** ""
1 28
ATOM$BLUE        STATIC     ATOMS    COLORGROUP SYSTEM
7 45 46 47 48 14 49 50
ATOM$RED        STATIC     ATOMS    COLORGROUP SYSTEM
1 28
