AV-unprocessed.smi:1272|AV-procd|sdf|5335|dock10
  -GOLD-   22720 4463D 1   1.00000     0.00000
 Structure written by MMmdl.
 45 47  0  0  0  0  0  0  0  0  1 V2000
  155.1863  140.6658  160.0776 C   0  0  0  0  0  0  0  0  0  0  0  0
  153.7925  140.9478  160.6521 C   0  0  0  0  0  0  0  0  0  0  0  0
  152.9273  141.5768  159.6571 N   0  0  0  0  0  0  0  0  0  0  0  0
  152.5550  141.0538  158.4650 C   0  0  0  0  0  0  0  0  0  0  0  0
  152.8771  139.9491  158.0274 O   0  0  0  0  0  0  0  0  0  0  0  0
  151.7684  141.9585  157.8356 N   0  0  0  0  0  0  0  0  0  0  0  0
  151.1433  141.8028  156.5225 C   0  0  0  0  0  0  0  0  0  0  0  0
  149.7782  141.0903  156.6193 C   0  0  1  0  0  0  0  0  0  0  0  0
  148.8144  142.0715  156.9498 O   0  0  0  0  0  0  0  0  0  0  0  0
  149.3627  140.4547  155.2741 C   0  0  0  0  0  0  0  0  0  0  0  0
  150.0468  139.2061  154.9344 N   0  0  0  0  0  0  0  0  0  0  0  0
  149.9079  138.2268  156.0075 C   0  0  0  0  0  0  0  0  0  0  0  0
  150.6158  136.9021  155.6749 C   0  0  0  0  0  0  0  0  0  0  0  0
  151.9896  137.1538  155.3983 O   0  0  0  0  0  0  0  0  0  0  0  0
  152.1728  138.0689  154.3232 C   0  0  0  0  0  0  0  0  0  0  0  0
  151.4668  139.3973  154.6472 C   0  0  0  0  0  0  0  0  0  0  0  0
  151.6364  143.0949  158.6469 C   0  0  0  0  0  0  0  0  0  0  0  0
  150.9316  144.2957  158.4521 C   0  0  0  0  0  0  0  0  0  0  0  0
  151.0054  145.2635  159.4813 C   0  0  0  0  0  0  0  0  0  0  0  0
  151.7628  145.0191  160.6562 C   0  0  0  0  0  0  0  0  0  0  0  0
  152.4605  143.8008  160.8280 C   0  0  0  0  0  0  0  0  0  0  0  0
  152.3685  142.8558  159.7913 C   0  0  0  0  0  0  0  0  0  0  0  0
  155.8242  140.1915  160.8237 H   0  0  0  0  0  0  0  0  0  0  0  0
  155.6758  141.5863  159.7585 H   0  0  0  0  0  0  0  0  0  0  0  0
  155.1304  139.9991  159.2166 H   0  0  0  0  0  0  0  0  0  0  0  0
  153.3415  140.0178  161.0013 H   0  0  0  0  0  0  0  0  0  0  0  0
  153.8721  141.5916  161.5284 H   0  0  0  0  0  0  0  0  0  0  0  0
  151.0519  142.7639  156.0154 H   0  0  0  0  0  0  0  0  0  0  0  0
  151.8245  141.2130  155.9072 H   0  0  0  0  0  0  0  0  0  0  0  0
  149.8117  140.3242  157.3954 H   0  0  0  0  0  0  0  0  0  0  0  0
  148.8670  142.7669  156.3120 H   0  0  0  0  0  0  0  0  0  0  0  0
  148.2801  140.3241  155.2287 H   0  0  0  0  0  0  0  0  0  0  0  0
  149.5958  141.1728  154.4870 H   0  0  0  0  0  0  0  0  0  0  0  0
  150.3202  138.6316  156.9334 H   0  0  0  0  0  0  0  0  0  0  0  0
  148.8517  138.0309  156.1964 H   0  0  0  0  0  0  0  0  0  0  0  0
  150.5412  136.2106  156.5142 H   0  0  0  0  0  0  0  0  0  0  0  0
  150.1466  136.4175  154.8170 H   0  0  0  0  0  0  0  0  0  0  0  0
  153.2399  138.2332  154.1726 H   0  0  0  0  0  0  0  0  0  0  0  0
  151.7815  137.6389  153.3997 H   0  0  0  0  0  0  0  0  0  0  0  0
  151.5928  140.0712  153.8004 H   0  0  0  0  0  0  0  0  0  0  0  0
  151.9568  139.8686  155.5005 H   0  0  0  0  0  0  0  0  0  0  0  0
  150.3550  144.4769  157.5572 H   0  0  0  0  0  0  0  0  0  0  0  0
  150.4789  146.1999  159.3709 H   0  0  0  0  0  0  0  0  0  0  0  0
  151.8067  145.7722  161.4291 H   0  0  0  0  0  0  0  0  0  0  0  0
  153.0383  143.6090  161.7199 H   0  0  0  0  0  0  0  0  0  0  0  0
  1  2  1  0  0  0  0
  1 23  1  0  0  0  0
  1 24  1  0  0  0  0
  1 25  1  0  0  0  0
  2  3  1  0  0  0  0
  2 26  1  0  0  0  0
  2 27  1  0  0  0  0
  3 22  1  0  0  0  0
  3  4  1  0  0  0  0
  4  5  2  0  0  0  0
  4  6  1  0  0  0  0
  6  7  1  0  0  0  0
  6 17  1  0  0  0  0
  7  8  1  0  0  0  0
  7 28  1  0  0  0  0
  7 29  1  0  0  0  0
  8  9  1  0  0  0  0
  8 10  1  0  0  0  0
  8 30  1  0  0  0  0
  9 31  1  0  0  0  0
 10 11  1  0  0  0  0
 10 32  1  0  0  0  0
 10 33  1  0  0  0  0
 11 16  1  0  0  0  0
 11 12  1  0  0  0  0
 12 13  1  0  0  0  0
 12 34  1  0  0  0  0
 12 35  1  0  0  0  0
 13 14  1  0  0  0  0
 13 36  1  0  0  0  0
 13 37  1  0  0  0  0
 14 15  1  0  0  0  0
 15 16  1  0  0  0  0
 15 38  1  0  0  0  0
 15 39  1  0  0  0  0
 16 40  1  0  0  0  0
 16 41  1  0  0  0  0
 17 22  2  0  0  0  0
 17 18  1  0  0  0  0
 18 19  2  0  0  0  0
 18 42  1  0  0  0  0
 19 20  1  0  0  0  0
 19 43  1  0  0  0  0
 20 21  2  0  0  0  0
 20 44  1  0  0  0  0
 21 22  1  0  0  0  0
 21 45  1  0  0  0  0
M  END
> <s_m_source_file>
AV-unprocessed.smi

> <i_m_source_file_index>
1272

> <i_lp_mmshare_version>
43012

> <i_f3d_flags>
0

> <s_epik_input>
W2NIXTFbY0hdW2NIXVtjSF1jKGMxMiluKFtDSDJdW0NIM10pYyg9TyluMltDSDJdW0NASF0oW09IXSlbQ0gyXU4zW0NIMl1bQ0gyXU9bQ0gyXVtDSDJdMw==

> <s_epik_cmdline>
J2VwaWtfcHl0aG9uJywgJy1waCcsICc3LjAnLCAnLXRuJywgJzgnLCAnLW1hJywgJzIwMCcsICctbWV0YWxfYmluZGluZycsICctaW1hZScsICc8aW5maWxlLm1hZT4nLCAnLW9tYWUnLCAnPG91dGZpbGUubWFlPic=

> <r_epik_Ionization_Penalty>
0.214359

> <r_epik_Ionization_Penalty_Charging>
2.31431e-09

> <r_epik_Ionization_Penalty_Neutral>
0.214359

> <r_epik_State_Penalty>
0.204533

> <r_epik_Charging_Adjusted_Penalty>
0.204533

> <i_epik_Tot_Q>
0

> <i_epik_Tot_abs_Q>
0

> <r_epik_Metal_State_Penalty>
0.204533

> <b_epik_Metal_Only>
0

> <s_lp_Force_Field>
OPLS_2005

> <r_lp_Energy>
62.2606

> <b_lp_Chiralities_Consistent>
1

> <s_lp_Variant>
AV-unprocessed.smi:1272-2

> <Gold.Version>
5.8.1

> <Gold.Id.Protein>
6NUR|6NUR_protein|mol2

> <Gold.PLP.Fitness>
54.3095

> <Gold.PLP.PLP>
-46.8108

> <Gold.PLP.part.hbond>
-3.0000

> <Gold.PLP.part.metal>
0.0000

> <Gold.PLP.part.buried>
-5.1019

> <Gold.PLP.part.nonpolar>
-39.5038

> <Gold.PLP.part.repulsive>
0.1479

> <Gold.PLP.ligand.clash>
0.0000

> <Gold.PLP.ligand.torsion>
0.7358

> <Gold.PLP.Chemscore.Hbond>
2.9833

> <Gold.PLP.Chemscore.CHOScore>
0.0000

> <Gold.PLP.Chemscore.Metal>
0.0000

> <Gold.Chemscore.Hbonds>
donor molecule, donor type, donor heavy atom, donor atom, acceptor molecule, acceptor atom, score
      L1  H     9    31       P1  8028  0.94
      P1  H  7997  8008       L1     5  1.00
      P1  H 10752 10764       L1    14  0.93

> <Gold.PLP.Chemscore.Internal.Correction>
0.0204

> <Gold.Rescore>
     Score         DG    S(hbond)    S(metal)    S(lipo)     H(rot)  DE(clash)    DE(int)     intcor
     20.24     -22.74       2.28        0.00     129.18       2.14       1.72       0.78       ----

> <Gold.Chemscore.Fitness>
20.2360

> <Gold.Chemscore.DG>
-22.7373

> <Gold.Chemscore.ZeroCoef>
-5.4800

> <Gold.Chemscore.Hbond>
2.2808

> <Gold.Chemscore.Metal>
0.0000

> <Gold.Chemscore.Lipo>
129.1837

> <Gold.Chemscore.Internal_Hbond>
0.0000

> <Gold.Chemscore.DEClash>
1.7224

> <Gold.Chemscore.DEInternal>
0.7790

> <Gold.Chemscore.Rot>
2.1386

> <Gold.Chemscore.Internal.Correction>
   9.000000E+99

> <Gold.Chemscore.Hbonds>
donor molecule, donor type, donor heavy atom, donor atom, acceptor molecule, acceptor atom, score
      L1  H     9    31       P1  8028  0.88
      P1  H  7997  8008       L1     5  0.76
      P1  H 10752 10764       L1    14  0.31

> <Gold.Chemscore.Hbond.Weighted>
-7.6177

> <Gold.Chemscore.Metal.Weighted>
-0.0000

> <Gold.Chemscore.Lipo.Weighted>
-15.1145

> <Gold.Chemscore.Internal_Hbond.Weighted>
0.0000

> <Gold.Chemscore.DEClash.Weighted>
1.7224

> <Gold.Chemscore.DEInternal.Weighted>
0.7790

> <Gold.Chemscore.Rot.Weighted>
5.4749

> <Gold.Chemscore.Internal.Correction.Weighted>
   9.000000E+99

> <Gold.Protein.RotatedTorsions>
[ 6907 6896 6895 6894 ] final -134.40 input  -60.11 | X-H torsion
[ 7974 7965 7964 7962 ] final -171.03 input  175.53 | X-H torsion
[ 8008 7997 7996 7995 ] final  -78.57 input   59.86 | X-H torsion
[ 10167 10162 10161 10158 ] final -140.16 input  -65.29 | X-H torsion
[ 10718 10713 10712 10709 ] final -159.97 input   66.30 | X-H torsion
[ 10763 10752 10751 10750 ] final  -44.43 input  -60.55 | X-H torsion
[ 11005 11000 10999 10996 ] final -120.87 input  -57.11 | X-H torsion

> <Gold.Protein.ActiveResidues>
 VAL166  LYS551  ARG553  GLY616  TRP617  ASP618  TYR619  PRO620  LYS621  CYS622 
 ASP623  PHE694  ASN695  SER759  ASP760  ASP761  ALA762  ILE779  LEU786  VAL792 
 PHE793  MET794  SER795  GLU796  ALA797  LYS798  CYS799  TRP800  GLU811  SER814 

> <Gold.Protein.RotatedAtoms>
  150.9854  133.6203  159.2716 H   0  0  0  0  0  0  0  0  0  0  0  0  # atno 6907 bound_to 6896
  151.3443  135.0869  159.9391 H   0  0  0  0  0  0  0  0  0  0  0  0  # atno 6908 bound_to 6896
  152.5229  133.9459  159.7703 H   0  0  0  0  0  0  0  0  0  0  0  0  # atno 6909 bound_to 6896
  144.7162  140.1983  143.6341 H   0  0  0  0  0  0  0  0  0  0  0  0  # atno 7974 bound_to 7965
  154.5702  140.0692  156.8952 H   0  0  0  0  0  0  0  0  0  0  0  0  # atno 8008 bound_to 7997
  155.2649  140.3361  155.4252 H   0  0  0  0  0  0  0  0  0  0  0  0  # atno 8009 bound_to 7997
  156.2112  140.1760  156.7676 H   0  0  0  0  0  0  0  0  0  0  0  0  # atno 8010 bound_to 7997
  139.8309  143.7448  152.2666 H   0  0  0  0  0  0  0  0  0  0  0  0  # atno 10167 bound_to 10162
  156.5755  130.8707  151.2850 H   0  0  0  0  0  0  0  0  0  0  0  0  # atno 10718 bound_to 10713
  154.0119  135.6680  153.4766 H   0  0  0  0  0  0  0  0  0  0  0  0  # atno 10763 bound_to 10752
  153.0617  135.5024  154.8105 H   0  0  0  0  0  0  0  0  0  0  0  0  # atno 10764 bound_to 10752
  154.6990  135.3075  154.9332 H   0  0  0  0  0  0  0  0  0  0  0  0  # atno 10765 bound_to 10752
  141.0112  134.0262  157.3411 H   0  0  0  0  0  0  0  0  0  0  0  0  # atno 11005 bound_to 11000
  145.8704  139.2269  143.1664 LP  0  0  0  0  0  0  0  0  0  0  0  0  # atno 17320 bound_to 7965
  146.0090  140.8452  142.9980 LP  0  0  0  0  0  0  0  0  0  0  0  0  # atno 17321 bound_to 7965
  139.7655  144.7493  151.0300 LP  0  0  0  0  0  0  0  0  0  0  0  0  # atno 17342 bound_to 10162
  140.7806  143.4702  151.0156 LP  0  0  0  0  0  0  0  0  0  0  0  0  # atno 17343 bound_to 10162
  157.7338  130.9737  150.1998 LP  0  0  0  0  0  0  0  0  0  0  0  0  # atno 17370 bound_to 10713
  156.2677  130.3718  149.8064 LP  0  0  0  0  0  0  0  0  0  0  0  0  # atno 17371 bound_to 10713
  139.9091  135.0186  156.7614 LP  0  0  0  0  0  0  0  0  0  0  0  0  # atno 17394 bound_to 11000
  140.6731  133.9542  155.7867 LP  0  0  0  0  0  0  0  0  0  0  0  0  # atno 17395 bound_to 11000

$$$$
