#       Name:                AV-unprocessed.smi:2171
#       Creating user name   scv26
#       Creation time:       Fri Mar 27 12:02:10 2020


#       File generated by GOLD software.
#

@<TRIPOS>MOLECULE
AV-unprocessed.smi:2171
    42    44     1
SMALL
NO_CHARGES


@<TRIPOS>ATOM
      1 ****         0.2627   2.5658  -1.8297 O.2            1 S1                 0.0000
      2 ****         1.0538   1.6245  -1.7787 C.2            1 S1                 0.0000
      3 ****         2.5575   1.8860  -1.7070 C.3            1 S1                 0.0000
      4 ****         3.0347   1.7399  -0.3432 N.pl3          1 S1                 0.0000
      5 ****         3.0974   2.6969   0.6481 C.2            1 S1                 0.0000
      6 ****         3.5942   2.0913   1.7665 C.2            1 S1                 0.0000
      7 ****         3.8069   0.7453   1.3567 C.2            1 S1                 0.0000
      8 ****         3.4691   0.5369   0.0944 N.2            1 S1                 0.0000
      9 ****         0.6725   0.3387  -1.7476 N.am           1 S1                 0.0000
     10 ****        -0.7105  -0.1191  -1.6692 C.3            1 S1                 0.0000
     11 ****        -0.8757  -1.6096  -1.9960 C.3            1 S1                 0.0000
     12 ****        -2.0487  -2.0855  -1.1200 C.3            1 S1                 0.0000
     13 ****        -2.4818  -0.9075  -0.3356 N.4            1 S1                 1.0000
     14 ****        -3.1704  -1.1847   0.9509 C.3            1 S1                 0.0000
     15 ****        -2.1944  -1.5610   2.0783 C.3            1 S1                 0.0000
     16 ****        -1.1010  -0.4979   2.2248 C.3            1 S1                 0.0000
     17 ****        -0.3612  -0.3330   0.8932 C.3            1 S1                 0.0000
     18 ****        -1.3295   0.0183  -0.2671 C.3            1 S1                 0.0000
     19 ****         3.0951   1.1954  -2.3588 H              1 S1                 0.0000
     20 ****         2.7798   2.8964  -2.0529 H              1 S1                 0.0000
     21 ****         2.7835   3.7162   0.4769 H              1 S1                 0.0000
     22 ****         3.7775   2.5413   2.7309 H              1 S1                 0.0000
     23 ****         4.1928  -0.0809   1.9356 H              1 S1                 0.0000
     24 ****         1.3946  -0.3668  -1.7065 H              1 S1                 0.0000
     25 ****        -1.3184   0.4484  -2.3771 H              1 S1                 0.0000
     26 ****        -1.0652  -1.7684  -3.0582 H              1 S1                 0.0000
     27 ****         0.0249  -2.1686  -1.7373 H              1 S1                 0.0000
     28 ****        -2.8793  -2.4612  -1.7181 H              1 S1                 0.0000
     29 ****        -1.7189  -2.8919  -0.4643 H              1 S1                 0.0000
     30 ****        -3.7156  -0.2846   1.2374 H              1 S1                 0.0000
     31 ****        -3.9175  -1.9664   0.8093 H              1 S1                 0.0000
     32 ****        -2.7381  -1.6659   3.0177 H              1 S1                 0.0000
     33 ****        -1.7413  -2.5323   1.8772 H              1 S1                 0.0000
     34 ****        -1.5411   0.4529   2.5283 H              1 S1                 0.0000
     35 ****        -0.4005  -0.7844   3.0098 H              1 S1                 0.0000
     36 ****         0.3984   0.4426   0.9977 H              1 S1                 0.0000
     37 ****         0.1757  -1.2561   0.6707 H              1 S1                 0.0000
     38 ****        -1.7024   1.0323  -0.1155 H              1 S1                 0.0000
     39 ****        -3.1608  -0.4447  -0.9232 H              1 S1                 0.0000
     40 ****         0.6033   3.5060  -1.8243 LP             1 S1                 0.0000
     41 ****        -0.7207   2.3905  -1.8765 LP             1 S1                 0.0000
     42 ****         3.5231  -0.3187  -0.4204 LP             1 S1                 0.0000
@<TRIPOS>BOND
    1    1    2 2     
    2    2    3 1     
    3    2    9 am    
    4    3    4 1     
    5    3   19 1     
    6    3   20 1     
    7    4    8 1     
    8    4    5 1     
    9    5    6 2     
   10    5   21 1     
   11    6    7 1     
   12    6   22 1     
   13    7    8 2     
   14    7   23 1     
   15    9   10 1     
   16    9   24 1     
   17   10   18 1     
   18   10   11 1     
   19   10   25 1     
   20   11   12 1     
   21   11   26 1     
   22   11   27 1     
   23   12   13 1     
   24   12   28 1     
   25   12   29 1     
   26   13   18 1     
   27   13   14 1     
   28   13   39 1     
   29   14   15 1     
   30   14   30 1     
   31   14   31 1     
   32   15   16 1     
   33   15   32 1     
   34   15   33 1     
   35   16   17 1     
   36   16   34 1     
   37   16   35 1     
   38   17   18 1     
   39   17   36 1     
   40   17   37 1     
   41   18   38 1     
   42    1   40 1     
   43    1   41 1     
   44    8   42 1     
@<TRIPOS>SUBSTRUCTURE
      1 S1             1
@<TRIPOS>SET
LONE_PAIRS      STATIC     ATOMS    <user>   **** ""
3 40 41 42
DONOR_HYDROGENS      STATIC     ATOMS    <user>   **** ""
2 24 39
ATOM$BLUE        STATIC     ATOMS    COLORGROUP SYSTEM
3 40 41 42
ATOM$RED        STATIC     ATOMS    COLORGROUP SYSTEM
2 24 39
