AV-unprocessed.smi:2078|AV-procd|sdf|8464|dock6
  -GOLD-   2272011163D 1   1.00000     0.00000
 Structure written by MMmdl.
 42 43  0  0  0  0  0  0  0  0  2 V2000
  151.8369  140.4644  155.8268 C   0  0  0  0  0  0  0  0  0  0  0  0
  151.4717  139.0483  155.5368 C   0  0  0  0  0  0  0  0  0  0  0  0
  150.4742  138.4804  154.7948 C   0  0  0  0  0  0  0  0  0  0  0  0
  150.7114  137.0890  154.9518 C   0  0  0  0  0  0  0  0  0  0  0  0
  149.8739  136.1322  154.3237 N   0  0  0  0  0  0  0  0  0  0  0  0
  149.3441  135.0248  154.8703 C   0  0  0  0  0  0  0  0  0  0  0  0
  149.5098  134.6561  156.0335 O   0  0  0  0  0  0  0  0  0  0  0  0
  148.5992  134.3489  153.9832 N   0  0  0  0  0  0  0  0  0  0  0  0
  147.8826  133.1122  154.2715 C   0  0  0  0  0  0  0  0  0  0  0  0
  147.6566  132.2767  152.9962 C   0  0  0  0  0  0  0  0  0  0  0  0
  146.3800  132.6178  152.3203 N   0  3  2  0  0  0  0  0  0  0  0  0
  145.8221  131.4915  151.5253 C   0  0  0  0  0  0  0  0  0  0  0  0
  144.4330  131.8423  150.9696 C   0  0  0  0  0  0  0  0  0  0  0  0
  144.4819  133.1321  150.1383 C   0  0  0  0  0  0  0  0  0  0  0  0
  145.1186  134.2867  150.9343 C   0  0  1  0  0  0  0  0  0  0  0  0
  144.1834  134.8506  152.0186 C   0  0  0  0  0  0  0  0  0  0  0  0
  146.4856  133.8592  151.5085 C   0  0  0  0  0  0  0  0  0  0  0  0
  151.7596  136.8303  155.7184 N   0  0  0  0  0  0  0  0  0  0  0  0
  152.2520  138.0845  156.0978 O   0  0  0  0  0  0  0  0  0  0  0  0
  151.8731  141.0498  154.9080 H   0  0  0  0  0  0  0  0  0  0  0  0
  152.8147  140.5283  156.3051 H   0  0  0  0  0  0  0  0  0  0  0  0
  151.1050  140.9225  156.4920 H   0  0  0  0  0  0  0  0  0  0  0  0
  149.7009  138.9828  154.2324 H   0  0  0  0  0  0  0  0  0  0  0  0
  149.6537  136.3130  153.3555 H   0  0  0  0  0  0  0  0  0  0  0  0
  148.5127  134.7218  153.0488 H   0  0  0  0  0  0  0  0  0  0  0  0
  148.4316  132.5512  155.0282 H   0  0  0  0  0  0  0  0  0  0  0  0
  146.9225  133.3741  154.7173 H   0  0  0  0  0  0  0  0  0  0  0  0
  148.4891  132.4701  152.3181 H   0  0  0  0  0  0  0  0  0  0  0  0
  147.6798  131.2073  153.2119 H   0  0  0  0  0  0  0  0  0  0  0  0
  146.5030  131.2498  150.7075 H   0  0  0  0  0  0  0  0  0  0  0  0
  145.7385  130.5950  152.1385 H   0  0  0  0  0  0  0  0  0  0  0  0
  144.0612  131.0213  150.3556 H   0  0  0  0  0  0  0  0  0  0  0  0
  143.7244  131.9533  151.7911 H   0  0  0  0  0  0  0  0  0  0  0  0
  145.0694  132.9516  149.2369 H   0  0  0  0  0  0  0  0  0  0  0  0
  143.4813  133.4044  149.8004 H   0  0  0  0  0  0  0  0  0  0  0  0
  145.3000  135.1020  150.2325 H   0  0  0  0  0  0  0  0  0  0  0  0
  143.9601  134.1129  152.7894 H   0  0  0  0  0  0  0  0  0  0  0  0
  143.2362  135.1773  151.5883 H   0  0  0  0  0  0  0  0  0  0  0  0
  144.6329  135.7136  152.5109 H   0  0  0  0  0  0  0  0  0  0  0  0
  146.8924  134.6696  152.1151 H   0  0  0  0  0  0  0  0  0  0  0  0
  147.1948  133.6929  150.6957 H   0  0  0  0  0  0  0  0  0  0  0  0
  145.7152  132.8206  153.0531 H   0  0  0  0  0  0  0  0  0  0  0  0
  1  2  1  0  0  0  0
  1 20  1  0  0  0  0
  1 21  1  0  0  0  0
  1 22  1  0  0  0  0
  2 19  1  0  0  0  0
  2  3  2  0  0  0  0
  3  4  1  0  0  0  0
  3 23  1  0  0  0  0
  4  5  1  0  0  0  0
  4 18  2  0  0  0  0
  5  6  1  0  0  0  0
  5 24  1  0  0  0  0
  6  7  2  0  0  0  0
  6  8  1  0  0  0  0
  8  9  1  0  0  0  0
  8 25  1  0  0  0  0
  9 10  1  0  0  0  0
  9 26  1  0  0  0  0
  9 27  1  0  0  0  0
 10 11  1  0  0  0  0
 10 28  1  0  0  0  0
 10 29  1  0  0  0  0
 11 17  1  0  0  0  0
 11 12  1  0  0  0  0
 11 42  1  0  0  0  0
 12 13  1  0  0  0  0
 12 30  1  0  0  0  0
 12 31  1  0  0  0  0
 13 14  1  0  0  0  0
 13 32  1  0  0  0  0
 13 33  1  0  0  0  0
 14 15  1  0  0  0  0
 14 34  1  0  0  0  0
 14 35  1  0  0  0  0
 15 16  1  0  0  0  0
 15 17  1  0  0  0  0
 15 36  1  0  0  0  0
 16 37  1  0  0  0  0
 16 38  1  0  0  0  0
 16 39  1  0  0  0  0
 17 40  1  0  0  0  0
 17 41  1  0  0  0  0
 18 19  1  0  0  0  0
M  CHG  1  11   1
M  END
> <s_m_source_file>
AV-unprocessed.smi

> <i_m_source_file_index>
2078

> <i_lp_mmshare_version>
43012

> <i_f3d_flags>
0

> <s_epik_input>
W0NIM11jMVtjSF1jKG5vMSlbTkhdQyg9TylbTkhdW0NIMl1bQ0gyXU4yW0NIMl1bQ0gyXVtDSDJdW0NAQEhdKFtDSDNdKVtDSDJdMg==

> <s_epik_cmdline>
J2VwaWtfcHl0aG9uJywgJy1waCcsICc3LjAnLCAnLXRuJywgJzgnLCAnLW1hJywgJzIwMCcsICctbWV0YWxfYmluZGluZycsICctaW1hZScsICc8aW5maWxlLm1hZT4nLCAnLW9tYWUnLCAnPG91dGZpbGUubWFlPic=

> <r_epik_Ionization_Penalty>
0.00216453

> <r_epik_Ionization_Penalty_Charging>
0.00212879

> <r_epik_Ionization_Penalty_Neutral>
3.57418e-05

> <r_epik_State_Penalty>
0.00146033

> <r_epik_Charging_Adjusted_Penalty>
0.00358912

> <i_epik_Tot_Q>
1

> <i_epik_Tot_abs_Q>
1

> <r_epik_Metal_State_Penalty>
0.0215827

> <b_epik_Metal_Only>
0

> <s_lp_Force_Field>
OPLS_2005

> <r_lp_Energy>
15.3902

> <b_lp_Chiralities_Consistent>
1

> <s_lp_Variant>
AV-unprocessed.smi:2078-2

> <Gold.Version>
5.8.1

> <Gold.Id.Protein>
6NUR|6NUR_protein|mol2

> <Gold.PLP.Fitness>
39.1943

> <Gold.PLP.PLP>
-32.3846

> <Gold.PLP.part.hbond>
-4.0000

> <Gold.PLP.part.metal>
0.0000

> <Gold.PLP.part.buried>
-2.2782

> <Gold.PLP.part.nonpolar>
-25.7142

> <Gold.PLP.part.repulsive>
0.1389

> <Gold.PLP.ligand.clash>
0.0000

> <Gold.PLP.ligand.torsion>
0.9951

> <Gold.PLP.Chemscore.Hbond>
2.9280

> <Gold.PLP.Chemscore.CHOScore>
0.0000

> <Gold.PLP.Chemscore.Metal>
0.0000

> <Gold.Chemscore.Hbonds>
donor molecule, donor type, donor heavy atom, donor atom, acceptor molecule, acceptor atom, score
      L1  H     5    24       P1  7948  1.00
      L1  H     8    25       P1  7948  0.91
      P1  H 10752 10763       L1    18  1.00

> <Gold.PLP.Chemscore.Internal.Correction>
0.0158

> <Gold.Rescore>
     Score         DG    S(hbond)    S(metal)    S(lipo)     H(rot)  DE(clash)    DE(int)     intcor
     16.80     -17.95       2.45        0.00      70.82       1.57       0.04       1.11       ----

> <Gold.Chemscore.Fitness>
16.7967

> <Gold.Chemscore.DG>
-17.9456

> <Gold.Chemscore.ZeroCoef>
-5.4800

> <Gold.Chemscore.Hbond>
2.4544

> <Gold.Chemscore.Metal>
0.0000

> <Gold.Chemscore.Lipo>
70.8221

> <Gold.Chemscore.Internal_Hbond>
0.0000

> <Gold.Chemscore.DEClash>
0.0352

> <Gold.Chemscore.DEInternal>
1.1136

> <Gold.Chemscore.Rot>
1.5697

> <Gold.Chemscore.Internal.Correction>
   9.000000E+99

> <Gold.Chemscore.Hbonds>
donor molecule, donor type, donor heavy atom, donor atom, acceptor molecule, acceptor atom, score
      L1  H     5    24       P1  7948  0.30
      L1  H     8    25       P1  7948  0.40
      P1  H 10752 10763       L1    18  0.48

> <Gold.Chemscore.Hbond.Weighted>
-8.1979

> <Gold.Chemscore.Metal.Weighted>
-0.0000

> <Gold.Chemscore.Lipo.Weighted>
-8.2862

> <Gold.Chemscore.Internal_Hbond.Weighted>
0.0000

> <Gold.Chemscore.DEClash.Weighted>
0.0352

> <Gold.Chemscore.DEInternal.Weighted>
1.1136

> <Gold.Chemscore.Rot.Weighted>
4.0185

> <Gold.Chemscore.Internal.Correction.Weighted>
   9.000000E+99

> <Gold.Protein.RotatedTorsions>
[ 6907 6896 6895 6894 ] final   40.10 input  -60.11 | X-H torsion
[ 7974 7965 7964 7962 ] final  132.32 input  175.53 | X-H torsion
[ 8008 7997 7996 7995 ] final -155.16 input   59.86 | X-H torsion
[ 10167 10162 10161 10158 ] final  -81.39 input  -65.29 | X-H torsion
[ 10718 10713 10712 10709 ] final   57.28 input   66.30 | X-H torsion
[ 10763 10752 10751 10750 ] final   61.33 input  -60.55 | X-H torsion
[ 11005 11000 10999 10996 ] final   86.73 input  -57.11 | X-H torsion

> <Gold.Protein.ActiveResidues>
 VAL166  LYS551  ARG553  GLY616  TRP617  ASP618  TYR619  PRO620  LYS621  CYS622 
 ASP623  PHE694  ASN695  SER759  ASP760  ASP761  ALA762  ILE779  LEU786  VAL792 
 PHE793  MET794  SER795  GLU796  ALA797  LYS798  CYS799  TRP800  GLU811  SER814 

> <Gold.Protein.RotatedAtoms>
  152.1781  134.8777  160.0528 H   0  0  0  0  0  0  0  0  0  0  0  0  # atno 6907 bound_to 6896
  151.9712  133.3721  159.4080 H   0  0  0  0  0  0  0  0  0  0  0  0  # atno 6908 bound_to 6896
  150.6913  134.4061  159.5184 H   0  0  0  0  0  0  0  0  0  0  0  0  # atno 6909 bound_to 6896
  144.9980  139.4340  143.5306 H   0  0  0  0  0  0  0  0  0  0  0  0  # atno 7974 bound_to 7965
  155.6976  140.0763  157.2423 H   0  0  0  0  0  0  0  0  0  0  0  0  # atno 8008 bound_to 7997
  154.4078  140.1653  156.2208 H   0  0  0  0  0  0  0  0  0  0  0  0  # atno 8009 bound_to 7997
  155.9396  140.3385  155.6319 H   0  0  0  0  0  0  0  0  0  0  0  0  # atno 8010 bound_to 7997
  140.4416  143.2512  151.8617 H   0  0  0  0  0  0  0  0  0  0  0  0  # atno 10167 bound_to 10162
  157.5502  130.8760  149.8951 H   0  0  0  0  0  0  0  0  0  0  0  0  # atno 10718 bound_to 10713
  152.9947  135.5504  154.6017 H   0  0  0  0  0  0  0  0  0  0  0  0  # atno 10763 bound_to 10752
  154.5357  135.2816  155.1143 H   0  0  0  0  0  0  0  0  0  0  0  0  # atno 10764 bound_to 10752
  154.2440  135.6411  153.5270 H   0  0  0  0  0  0  0  0  0  0  0  0  # atno 10765 bound_to 10752
  139.8937  134.8375  156.2761 H   0  0  0  0  0  0  0  0  0  0  0  0  # atno 11005 bound_to 11000
  146.3446  139.9352  142.8748 LP  0  0  0  0  0  0  0  0  0  0  0  0  # atno 17320 bound_to 7965
  145.2192  140.9928  143.4055 LP  0  0  0  0  0  0  0  0  0  0  0  0  # atno 17321 bound_to 7965
  139.4790  144.5222  151.8785 LP  0  0  0  0  0  0  0  0  0  0  0  0  # atno 17342 bound_to 10162
  140.4311  144.2114  150.5888 LP  0  0  0  0  0  0  0  0  0  0  0  0  # atno 17343 bound_to 10162
  156.0570  130.3706  150.1069 LP  0  0  0  0  0  0  0  0  0  0  0  0  # atno 17370 bound_to 10713
  156.9242  130.9693  151.3543 LP  0  0  0  0  0  0  0  0  0  0  0  0  # atno 17371 bound_to 10713
  141.0069  133.7118  156.1049 LP  0  0  0  0  0  0  0  0  0  0  0  0  # atno 17394 bound_to 11000
  140.7421  134.4138  157.5553 LP  0  0  0  0  0  0  0  0  0  0  0  0  # atno 17395 bound_to 11000

$$$$
