AV-unprocessed.smi:2223|AV-procd|sdf|8990|dock9
  -GOLD-   2272012203D 1   1.00000     0.00000
 Structure written by MMmdl.
 46 47  0  0  0  0  0  0  0  0  1 V2000
  143.8895  132.3768  149.7433 C   0  0  0  0  0  0  0  0  0  0  0  0
  144.9418  132.1044  150.7977 C   0  0  0  0  0  0  0  0  0  0  0  0
  145.1886  130.7921  151.2437 C   0  0  0  0  0  0  0  0  0  0  0  0
  146.1825  130.5985  152.2230 C   0  0  0  0  0  0  0  0  0  0  0  0
  146.5004  129.2138  152.7470 C   0  0  0  0  0  0  0  0  0  0  0  0
  146.9075  131.6100  152.7465 N   0  0  0  0  0  0  0  0  0  0  0  0
  146.6805  132.8782  152.3227 C   0  0  0  0  0  0  0  0  0  0  0  0
  147.3880  134.0097  152.8097 N   0  0  0  0  0  0  0  0  0  0  0  0
  147.8477  134.2290  154.0545 C   0  0  0  0  0  0  0  0  0  0  0  0
  147.7298  133.4550  155.0049 O   0  0  0  0  0  0  0  0  0  0  0  0
  148.4707  135.4132  154.1420 N   0  0  0  0  0  0  0  0  0  0  0  0
  149.0950  135.9370  155.3542 C   0  0  1  0  0  0  0  0  0  0  0  0
  150.3386  135.1432  155.7651 C   0  0  0  0  0  0  0  0  0  0  0  0
  151.3648  136.2187  156.0753 C   0  0  0  0  0  0  0  0  0  0  0  0
  152.4593  135.9416  156.5642 O   0  0  0  0  0  0  0  0  0  0  0  0
  150.9205  137.4476  155.7484 N   0  0  0  0  0  0  0  0  0  0  0  0
  151.6650  138.7284  155.8786 C   0  0  0  0  0  0  0  0  0  0  0  0
  152.0610  138.9628  157.3537 C   0  0  0  0  0  0  0  0  0  0  0  0
  150.8168  139.9396  155.4221 C   0  0  0  0  0  0  0  0  0  0  0  0
  152.9337  138.6868  154.9977 C   0  0  0  0  0  0  0  0  0  0  0  0
  149.5878  137.3775  155.1482 C   0  0  0  0  0  0  0  0  0  0  0  0
  145.6987  133.1595  151.3463 C   0  0  0  0  0  0  0  0  0  0  0  0
  143.1102  131.6142  149.7649 H   0  0  0  0  0  0  0  0  0  0  0  0
  144.3428  132.3781  148.7520 H   0  0  0  0  0  0  0  0  0  0  0  0
  143.4185  133.3462  149.9080 H   0  0  0  0  0  0  0  0  0  0  0  0
  144.6318  129.9565  150.8446 H   0  0  0  0  0  0  0  0  0  0  0  0
  145.7471  128.4910  152.4331 H   0  0  0  0  0  0  0  0  0  0  0  0
  146.5350  129.2155  153.8369 H   0  0  0  0  0  0  0  0  0  0  0  0
  147.4695  128.8834  152.3725 H   0  0  0  0  0  0  0  0  0  0  0  0
  147.5714  134.7320  152.1293 H   0  0  0  0  0  0  0  0  0  0  0  0
  148.5237  135.9889  153.3146 H   0  0  0  0  0  0  0  0  0  0  0  0
  148.3749  135.9254  156.1751 H   0  0  0  0  0  0  0  0  0  0  0  0
  150.1511  134.5115  156.6340 H   0  0  0  0  0  0  0  0  0  0  0  0
  150.7165  134.5161  154.9563 H   0  0  0  0  0  0  0  0  0  0  0  0
  152.5480  139.9302  157.4815 H   0  0  0  0  0  0  0  0  0  0  0  0
  152.7575  138.2109  157.7237 H   0  0  0  0  0  0  0  0  0  0  0  0
  151.1857  138.9502  158.0043 H   0  0  0  0  0  0  0  0  0  0  0  0
  149.9228  140.0645  156.0338 H   0  0  0  0  0  0  0  0  0  0  0  0
  150.5070  139.8531  154.3801 H   0  0  0  0  0  0  0  0  0  0  0  0
  151.3837  140.8676  155.5053 H   0  0  0  0  0  0  0  0  0  0  0  0
  153.4674  139.6372  155.0297 H   0  0  0  0  0  0  0  0  0  0  0  0
  152.6836  138.4881  153.9549 H   0  0  0  0  0  0  0  0  0  0  0  0
  153.6382  137.9201  155.3190 H   0  0  0  0  0  0  0  0  0  0  0  0
  149.6654  137.6263  154.0882 H   0  0  0  0  0  0  0  0  0  0  0  0
  148.8923  138.0774  155.6117 H   0  0  0  0  0  0  0  0  0  0  0  0
  145.5280  134.1745  151.0168 H   0  0  0  0  0  0  0  0  0  0  0  0
  1  2  1  0  0  0  0
  1 23  1  0  0  0  0
  1 24  1  0  0  0  0
  1 25  1  0  0  0  0
  2 22  1  0  0  0  0
  2  3  2  0  0  0  0
  3  4  1  0  0  0  0
  3 26  1  0  0  0  0
  4  5  1  0  0  0  0
  4  6  2  0  0  0  0
  5 27  1  0  0  0  0
  5 28  1  0  0  0  0
  5 29  1  0  0  0  0
  6  7  1  0  0  0  0
  7  8  1  0  0  0  0
  7 22  2  0  0  0  0
  8  9  1  0  0  0  0
  8 30  1  0  0  0  0
  9 10  2  0  0  0  0
  9 11  1  0  0  0  0
 11 12  1  0  0  0  0
 11 31  1  0  0  0  0
 12 21  1  0  0  0  0
 12 13  1  0  0  0  0
 12 32  1  0  0  0  0
 13 14  1  0  0  0  0
 13 33  1  0  0  0  0
 13 34  1  0  0  0  0
 14 15  2  0  0  0  0
 14 16  1  0  0  0  0
 16 17  1  0  0  0  0
 16 21  1  0  0  0  0
 17 18  1  0  0  0  0
 17 19  1  0  0  0  0
 17 20  1  0  0  0  0
 18 35  1  0  0  0  0
 18 36  1  0  0  0  0
 18 37  1  0  0  0  0
 19 38  1  0  0  0  0
 19 39  1  0  0  0  0
 19 40  1  0  0  0  0
 20 41  1  0  0  0  0
 20 42  1  0  0  0  0
 20 43  1  0  0  0  0
 21 44  1  0  0  0  0
 21 45  1  0  0  0  0
 22 46  1  0  0  0  0
M  END
> <s_m_source_file>
AV-unprocessed.smi

> <i_m_source_file_index>
2223

> <i_lp_mmshare_version>
43012

> <i_f3d_flags>
0

> <s_epik_input>
W0NIM11jMVtjSF1jKFtDSDNdKW5jKFtjSF0xKVtOSF1DKD1PKVtOSF1bQ0BASF0yW0NIMl1DKD1PKU4oW0NIMl0yKUMoW0NIM10pKFtDSDNdKVtDSDNd

> <s_epik_cmdline>
J2VwaWtfcHl0aG9uJywgJy1waCcsICc3LjAnLCAnLXRuJywgJzgnLCAnLW1hJywgJzIwMCcsICctbWV0YWxfYmluZGluZycsICctaW1hZScsICc8aW5maWxlLm1hZT4nLCAnLW9tYWUnLCAnPG91dGZpbGUubWFlPic=

> <r_lp_tautomer_probability>
1

> <r_epik_Ionization_Penalty>
0.000228403

> <r_epik_Ionization_Penalty_Charging>
0

> <r_epik_Ionization_Penalty_Neutral>
0.000228403

> <r_epik_State_Penalty>
-0

> <r_epik_Charging_Adjusted_Penalty>
0

> <i_epik_Tot_Q>
0

> <i_epik_Tot_abs_Q>
0

> <r_epik_Metal_State_Penalty>
-0

> <b_epik_Metal_Only>
0

> <s_lp_Force_Field>
OPLS_2005

> <r_lp_Energy>
29.0753

> <b_lp_Chiralities_Consistent>
1

> <s_lp_Variant>
AV-unprocessed.smi:2223-2

> <Gold.Version>
5.8.1

> <Gold.Id.Protein>
6NUR|6NUR_protein|mol2

> <Gold.PLP.Fitness>
43.7886

> <Gold.PLP.PLP>
-36.1982

> <Gold.PLP.part.hbond>
-2.7318

> <Gold.PLP.part.metal>
0.0000

> <Gold.PLP.part.buried>
-4.0073

> <Gold.PLP.part.nonpolar>
-29.6425

> <Gold.PLP.part.repulsive>
0.1560

> <Gold.PLP.ligand.clash>
0.0000

> <Gold.PLP.ligand.torsion>
0.3335

> <Gold.PLP.Chemscore.Hbond>
2.7433

> <Gold.PLP.Chemscore.CHOScore>
0.0000

> <Gold.PLP.Chemscore.Metal>
0.0000

> <Gold.Chemscore.Hbonds>
donor molecule, donor type, donor heavy atom, donor atom, acceptor molecule, acceptor atom, score
      L1  H     8    30       P1  7948  0.75
      L1  H    11    31       P1  7948  0.99
      P1  H 10752 10765       L1    15  1.00

> <Gold.PLP.Chemscore.Internal.Correction>
0.0277

> <Gold.Rescore>
     Score         DG    S(hbond)    S(metal)    S(lipo)     H(rot)  DE(clash)    DE(int)     intcor
     19.57     -20.86       2.36        0.00      90.34       1.21       0.06       1.23       ----

> <Gold.Chemscore.Fitness>
19.5729

> <Gold.Chemscore.DG>
-20.8603

> <Gold.Chemscore.ZeroCoef>
-5.4800

> <Gold.Chemscore.Hbond>
2.3642

> <Gold.Chemscore.Metal>
0.0000

> <Gold.Chemscore.Lipo>
90.3410

> <Gold.Chemscore.Internal_Hbond>
0.0000

> <Gold.Chemscore.DEClash>
0.0622

> <Gold.Chemscore.DEInternal>
1.2251

> <Gold.Chemscore.Rot>
1.2055

> <Gold.Chemscore.Internal.Correction>
   9.000000E+99

> <Gold.Chemscore.Hbonds>
donor molecule, donor type, donor heavy atom, donor atom, acceptor molecule, acceptor atom, score
      L1  H     8    30       P1  7948  0.54
      L1  H    11    31       P1  7948  0.88
      P1  H 10752 10765       L1    15  0.55

> <Gold.Chemscore.Hbond.Weighted>
-7.8964

> <Gold.Chemscore.Metal.Weighted>
-0.0000

> <Gold.Chemscore.Lipo.Weighted>
-10.5699

> <Gold.Chemscore.Internal_Hbond.Weighted>
0.0000

> <Gold.Chemscore.DEClash.Weighted>
0.0622

> <Gold.Chemscore.DEInternal.Weighted>
1.2251

> <Gold.Chemscore.Rot.Weighted>
3.0861

> <Gold.Chemscore.Internal.Correction.Weighted>
   9.000000E+99

> <Gold.Protein.RotatedTorsions>
[ 6907 6896 6895 6894 ] final -156.51 input  -60.11 | X-H torsion
[ 7974 7965 7964 7962 ] final -150.77 input  175.53 | X-H torsion
[ 8008 7997 7996 7995 ] final   87.35 input   59.86 | X-H torsion
[ 10167 10162 10161 10158 ] final   69.02 input  -65.29 | X-H torsion
[ 10718 10713 10712 10709 ] final    5.45 input   66.30 | X-H torsion
[ 10763 10752 10751 10750 ] final -129.01 input  -60.55 | X-H torsion
[ 11005 11000 10999 10996 ] final -152.03 input  -57.11 | X-H torsion

> <Gold.Protein.ActiveResidues>
 VAL166  LYS551  ARG553  GLY616  TRP617  ASP618  TYR619  PRO620  LYS621  CYS622 
 ASP623  PHE694  ASN695  SER759  ASP760  ASP761  ALA762  ILE779  LEU786  VAL792 
 PHE793  MET794  SER795  GLU796  ALA797  LYS798  CYS799  TRP800  GLU811  SER814 

> <Gold.Protein.RotatedAtoms>
  151.2887  133.4175  159.2631 H   0  0  0  0  0  0  0  0  0  0  0  0  # atno 6907 bound_to 6896
  151.0297  134.9530  159.8114 H   0  0  0  0  0  0  0  0  0  0  0  0  # atno 6908 bound_to 6896
  152.5343  134.2848  159.9073 H   0  0  0  0  0  0  0  0  0  0  0  0  # atno 6909 bound_to 6896
  144.7888  140.4888  143.5787 H   0  0  0  0  0  0  0  0  0  0  0  0  # atno 7974 bound_to 7965
  155.9742  140.3383  155.6603 H   0  0  0  0  0  0  0  0  0  0  0  0  # atno 8008 bound_to 7997
  155.6634  140.0718  157.2564 H   0  0  0  0  0  0  0  0  0  0  0  0  # atno 8009 bound_to 7997
  154.4174  140.1704  156.1789 H   0  0  0  0  0  0  0  0  0  0  0  0  # atno 8010 bound_to 7997
  140.0723  144.5142  150.7219 H   0  0  0  0  0  0  0  0  0  0  0  0  # atno 10167 bound_to 10162
  156.9076  130.5744  149.5647 H   0  0  0  0  0  0  0  0  0  0  0  0  # atno 10718 bound_to 10713
  154.8757  135.3909  154.3850 H   0  0  0  0  0  0  0  0  0  0  0  0  # atno 10763 bound_to 10752
  153.4593  135.7029  153.6065 H   0  0  0  0  0  0  0  0  0  0  0  0  # atno 10764 bound_to 10752
  153.4571  135.3820  155.2285 H   0  0  0  0  0  0  0  0  0  0  0  0  # atno 10765 bound_to 10752
  140.7233  134.3703  157.5180 H   0  0  0  0  0  0  0  0  0  0  0  0  # atno 11005 bound_to 11000
  145.5849  139.1491  143.3215 LP  0  0  0  0  0  0  0  0  0  0  0  0  # atno 17320 bound_to 7965
  146.2132  140.5977  142.9050 LP  0  0  0  0  0  0  0  0  0  0  0  0  # atno 17321 bound_to 7965
  140.7119  143.2512  151.4554 LP  0  0  0  0  0  0  0  0  0  0  0  0  # atno 17342 bound_to 10162
  139.5829  144.1670  152.1991 LP  0  0  0  0  0  0  0  0  0  0  0  0  # atno 17343 bound_to 10162
  156.0551  130.5614  150.9074 LP  0  0  0  0  0  0  0  0  0  0  0  0  # atno 17370 bound_to 10713
  157.5987  131.0942  150.8997 LP  0  0  0  0  0  0  0  0  0  0  0  0  # atno 17371 bound_to 10713
  139.8843  134.8969  156.2712 LP  0  0  0  0  0  0  0  0  0  0  0  0  # atno 17394 bound_to 11000
  140.9985  133.7166  156.0923 LP  0  0  0  0  0  0  0  0  0  0  0  0  # atno 17395 bound_to 11000

$$$$
