AV-unprocessed.smi:1795|AV-procd|sdf|7239|dock7
  -GOLD-   22720 8483D 1   1.00000     0.00000
 Structure written by MMmdl.
 47 48  0  0  0  0  0  0  0  0  1 V2000
  150.7833  141.7397  156.8755 C   0  0  0  0  0  0  0  0  0  0  0  0
  150.4294  141.1230  155.5110 C   0  0  2  0  0  0  0  0  0  0  0  0
  149.1284  140.2957  155.5340 C   0  0  0  0  0  0  0  0  0  0  0  0
  149.2674  138.9953  156.2011 N   0  0  0  0  0  0  0  0  0  0  0  0
  148.0117  138.2082  156.1872 C   0  0  1  0  0  0  0  0  0  0  0  0
  147.5429  137.8497  154.7531 C   0  0  0  0  0  0  0  0  0  0  0  0
  148.0998  136.9011  157.0225 C   0  0  0  0  0  0  0  0  0  0  0  0
  148.0563  137.1561  158.4588 N   0  0  0  0  0  0  0  0  0  0  0  0
  148.3785  136.2665  159.4087 C   0  0  0  0  0  0  0  0  0  0  0  0
  148.7562  135.1209  159.1584 O   0  0  0  0  0  0  0  0  0  0  0  0
  148.2415  136.7603  160.8567 C   0  0  0  0  0  0  0  0  0  0  0  0
  147.0604  136.2260  161.5553 N   0  0  0  0  0  0  0  0  0  0  0  0
  147.1517  134.9088  162.0478 C   0  0  0  0  0  0  0  0  0  0  0  0
  146.1366  134.3232  162.7023 C   0  0  0  0  0  0  0  0  0  0  0  0
  144.9233  135.0807  162.8973 C   0  0  0  0  0  0  0  0  0  0  0  0
  144.8268  136.3430  162.4347 C   0  0  0  0  0  0  0  0  0  0  0  0
  145.9351  136.9880  161.7209 C   0  0  0  0  0  0  0  0  0  0  0  0
  145.8565  138.1418  161.2980 O   0  0  0  0  0  0  0  0  0  0  0  0
  150.3876  138.2864  155.5754 C   0  0  0  0  0  0  0  0  0  0  0  0
  151.6990  139.0906  155.6156 C   0  0  1  0  0  0  0  0  0  0  0  0
  152.8408  138.3669  154.8936 C   0  0  0  0  0  0  0  0  0  0  0  0
  151.5032  140.3496  154.9811 O   0  0  0  0  0  0  0  0  0  0  0  0
  150.0040  142.4282  157.2028 H   0  0  0  0  0  0  0  0  0  0  0  0
  151.7160  142.3010  156.8190 H   0  0  0  0  0  0  0  0  0  0  0  0
  150.8937  140.9829  157.6516 H   0  0  0  0  0  0  0  0  0  0  0  0
  150.2837  141.9529  154.8191 H   0  0  0  0  0  0  0  0  0  0  0  0
  148.3708  140.9067  156.0198 H   0  0  0  0  0  0  0  0  0  0  0  0
  148.7920  140.1400  154.5077 H   0  0  0  0  0  0  0  0  0  0  0  0
  147.2269  138.8210  156.6338 H   0  0  0  0  0  0  0  0  0  0  0  0
  146.6609  137.2101  154.7472 H   0  0  0  0  0  0  0  0  0  0  0  0
  148.3263  137.3284  154.2016 H   0  0  0  0  0  0  0  0  0  0  0  0
  147.2554  138.7308  154.1813 H   0  0  0  0  0  0  0  0  0  0  0  0
  147.2954  136.2250  156.7270 H   0  0  0  0  0  0  0  0  0  0  0  0
  149.0369  136.3738  156.8537 H   0  0  0  0  0  0  0  0  0  0  0  0
  147.7549  138.0749  158.7495 H   0  0  0  0  0  0  0  0  0  0  0  0
  149.1529  136.5083  161.4023 H   0  0  0  0  0  0  0  0  0  0  0  0
  148.2100  137.8510  160.8465 H   0  0  0  0  0  0  0  0  0  0  0  0
  148.0949  134.4144  161.8662 H   0  0  0  0  0  0  0  0  0  0  0  0
  146.2263  133.3139  163.0766 H   0  0  0  0  0  0  0  0  0  0  0  0
  144.0894  134.6334  163.4181 H   0  0  0  0  0  0  0  0  0  0  0  0
  143.9117  136.8952  162.5919 H   0  0  0  0  0  0  0  0  0  0  0  0
  150.5800  137.3459  156.0882 H   0  0  0  0  0  0  0  0  0  0  0  0
  150.1376  138.0396  154.5423 H   0  0  0  0  0  0  0  0  0  0  0  0
  151.9973  139.2478  156.6525 H   0  0  0  0  0  0  0  0  0  0  0  0
  153.0446  137.3995  155.3531 H   0  0  0  0  0  0  0  0  0  0  0  0
  153.7595  138.9525  154.9329 H   0  0  0  0  0  0  0  0  0  0  0  0
  152.5991  138.1957  153.8442 H   0  0  0  0  0  0  0  0  0  0  0  0
  1  2  1  0  0  0  0
  1 23  1  0  0  0  0
  1 24  1  0  0  0  0
  1 25  1  0  0  0  0
  2 22  1  0  0  0  0
  2  3  1  0  0  0  0
  2 26  1  0  0  0  0
  3  4  1  0  0  0  0
  3 27  1  0  0  0  0
  3 28  1  0  0  0  0
  4  5  1  0  0  0  0
  4 19  1  0  0  0  0
  5  6  1  0  0  0  0
  5  7  1  0  0  0  0
  5 29  1  0  0  0  0
  6 30  1  0  0  0  0
  6 31  1  0  0  0  0
  6 32  1  0  0  0  0
  7  8  1  0  0  0  0
  7 33  1  0  0  0  0
  7 34  1  0  0  0  0
  8  9  1  0  0  0  0
  8 35  1  0  0  0  0
  9 10  2  0  0  0  0
  9 11  1  0  0  0  0
 11 12  1  0  0  0  0
 11 36  1  0  0  0  0
 11 37  1  0  0  0  0
 12 17  1  0  0  0  0
 12 13  1  0  0  0  0
 13 14  2  0  0  0  0
 13 38  1  0  0  0  0
 14 15  1  0  0  0  0
 14 39  1  0  0  0  0
 15 16  2  0  0  0  0
 15 40  1  0  0  0  0
 16 17  1  0  0  0  0
 16 41  1  0  0  0  0
 17 18  2  0  0  0  0
 19 20  1  0  0  0  0
 19 42  1  0  0  0  0
 19 43  1  0  0  0  0
 20 21  1  0  0  0  0
 20 22  1  0  0  0  0
 20 44  1  0  0  0  0
 21 45  1  0  0  0  0
 21 46  1  0  0  0  0
 21 47  1  0  0  0  0
M  END
> <s_m_source_file>
AV-unprocessed.smi

> <i_m_source_file_index>
1795

> <i_lp_mmshare_version>
43012

> <i_f3d_flags>
0

> <s_epik_input>
W0NIM11bQ0BASF0xW0NIMl1OKFtDSDJdW0NASF0oTzEpW0NIM10pW0NASF0oW0NIM10pW0NIMl1bTkhdQyg9TylbQ0gyXW4yW2NIXVtjSF1bY0hdW2NIXWMyPU8=

> <s_epik_cmdline>
J2VwaWtfcHl0aG9uJywgJy1waCcsICc3LjAnLCAnLXRuJywgJzgnLCAnLW1hJywgJzIwMCcsICctbWV0YWxfYmluZGluZycsICctaW1hZScsICc8aW5maWxlLm1hZT4nLCAnLW9tYWUnLCAnPG91dGZpbGUubWFlPic=

> <r_lp_tautomer_probability>
1

> <r_epik_Ionization_Penalty>
0.237383

> <r_epik_Ionization_Penalty_Charging>
3.58805e-07

> <r_epik_Ionization_Penalty_Neutral>
0.237382

> <r_epik_State_Penalty>
0.228245

> <r_epik_Charging_Adjusted_Penalty>
0.228245

> <i_epik_Tot_Q>
0

> <i_epik_Tot_abs_Q>
0

> <r_epik_Metal_State_Penalty>
0.228221

> <b_epik_Metal_Only>
0

> <s_lp_Force_Field>
OPLS_2005

> <r_lp_Energy>
40.7521

> <b_lp_Chiralities_Consistent>
1

> <s_lp_Variant>
AV-unprocessed.smi:1795-3

> <Gold.Version>
5.8.1

> <Gold.Id.Protein>
6NUR|6NUR_protein|mol2

> <Gold.PLP.Fitness>
43.9274

> <Gold.PLP.PLP>
-36.3861

> <Gold.PLP.part.hbond>
-2.7506

> <Gold.PLP.part.metal>
0.0000

> <Gold.PLP.part.buried>
-3.4314

> <Gold.PLP.part.nonpolar>
-29.9961

> <Gold.PLP.part.repulsive>
0.1483

> <Gold.PLP.ligand.clash>
0.0000

> <Gold.PLP.ligand.torsion>
0.6943

> <Gold.PLP.Chemscore.Hbond>
2.9520

> <Gold.PLP.Chemscore.CHOScore>
0.0000

> <Gold.PLP.Chemscore.Metal>
0.0000

> <Gold.Chemscore.Hbonds>
donor molecule, donor type, donor heavy atom, donor atom, acceptor molecule, acceptor atom, score
      P1  H  6896  6907       L1    10  0.75
      P1  H  6934  6947       L1    18  0.78
      P1  H  7989  7998       L1    22  0.98

> <Gold.PLP.Chemscore.Internal.Correction>
0.0739

> <Gold.Rescore>
     Score         DG    S(hbond)    S(metal)    S(lipo)     H(rot)  DE(clash)    DE(int)     intcor
     18.63     -19.56       2.82        0.00      79.76       1.83       0.15       0.78       ----

> <Gold.Chemscore.Fitness>
18.6333

> <Gold.Chemscore.DG>
-19.5637

> <Gold.Chemscore.ZeroCoef>
-5.4800

> <Gold.Chemscore.Hbond>
2.8217

> <Gold.Chemscore.Metal>
0.0000

> <Gold.Chemscore.Lipo>
79.7578

> <Gold.Chemscore.Internal_Hbond>
0.0000

> <Gold.Chemscore.DEClash>
0.1457

> <Gold.Chemscore.DEInternal>
0.7847

> <Gold.Chemscore.Rot>
1.8251

> <Gold.Chemscore.Internal.Correction>
   9.000000E+99

> <Gold.Chemscore.Hbonds>
donor molecule, donor type, donor heavy atom, donor atom, acceptor molecule, acceptor atom, score
      P1  H  6896  6907       L1    10  0.71
      P1  H  6934  6947       L1    18  0.76
      P1  H  7989  7998       L1    22  0.40

> <Gold.Chemscore.Hbond.Weighted>
-9.4244

> <Gold.Chemscore.Metal.Weighted>
-0.0000

> <Gold.Chemscore.Lipo.Weighted>
-9.3317

> <Gold.Chemscore.Internal_Hbond.Weighted>
0.0000

> <Gold.Chemscore.DEClash.Weighted>
0.1457

> <Gold.Chemscore.DEInternal.Weighted>
0.7847

> <Gold.Chemscore.Rot.Weighted>
4.6724

> <Gold.Chemscore.Internal.Correction.Weighted>
   9.000000E+99

> <Gold.Protein.RotatedTorsions>
[ 6907 6896 6895 6894 ] final  -95.64 input  -60.11 | X-H torsion
[ 7974 7965 7964 7962 ] final -176.44 input  175.53 | X-H torsion
[ 8008 7997 7996 7995 ] final -135.37 input   59.86 | X-H torsion
[ 10167 10162 10161 10158 ] final  -60.93 input  -65.29 | X-H torsion
[ 10718 10713 10712 10709 ] final -177.03 input   66.30 | X-H torsion
[ 10763 10752 10751 10750 ] final   -5.30 input  -60.55 | X-H torsion
[ 11005 11000 10999 10996 ] final  -60.54 input  -57.11 | X-H torsion

> <Gold.Protein.ActiveResidues>
 VAL166  LYS551  ARG553  GLY616  TRP617  ASP618  TYR619  PRO620  LYS621  CYS622 
 ASP623  PHE694  ASN695  SER759  ASP760  ASP761  ALA762  ILE779  LEU786  VAL792 
 PHE793  MET794  SER795  GLU796  ALA797  LYS798  CYS799  TRP800  GLU811  SER814 

> <Gold.Protein.RotatedAtoms>
  150.6969  134.1626  159.4181 H   0  0  0  0  0  0  0  0  0  0  0  0  # atno 6907 bound_to 6896
  151.9606  135.0123  160.0556 H   0  0  0  0  0  0  0  0  0  0  0  0  # atno 6908 bound_to 6896
  152.1930  133.4751  159.5055 H   0  0  0  0  0  0  0  0  0  0  0  0  # atno 6909 bound_to 6896
  144.7127  140.1170  143.6407 H   0  0  0  0  0  0  0  0  0  0  0  0  # atno 7974 bound_to 7965
  155.3776  140.0492  157.3044 H   0  0  0  0  0  0  0  0  0  0  0  0  # atno 8008 bound_to 7997
  154.5099  140.2187  155.9140 H   0  0  0  0  0  0  0  0  0  0  0  0  # atno 8009 bound_to 7997
  156.1570  140.3124  155.8748 H   0  0  0  0  0  0  0  0  0  0  0  0  # atno 8010 bound_to 7997
  140.6039  143.2368  151.5865 H   0  0  0  0  0  0  0  0  0  0  0  0  # atno 10167 bound_to 10162
  156.8234  130.9628  151.3110 H   0  0  0  0  0  0  0  0  0  0  0  0  # atno 10718 bound_to 10713
  153.3967  135.7003  153.6455 H   0  0  0  0  0  0  0  0  0  0  0  0  # atno 10763 bound_to 10752
  153.5006  135.3653  155.2538 H   0  0  0  0  0  0  0  0  0  0  0  0  # atno 10764 bound_to 10752
  154.8707  135.4111  154.3294 H   0  0  0  0  0  0  0  0  0  0  0  0  # atno 10765 bound_to 10752
  141.1291  133.6623  156.5239 H   0  0  0  0  0  0  0  0  0  0  0  0  # atno 11005 bound_to 11000
  145.9405  139.2665  143.1272 LP  0  0  0  0  0  0  0  0  0  0  0  0  # atno 17320 bound_to 7965
  145.9429  140.8966  143.0298 LP  0  0  0  0  0  0  0  0  0  0  0  0  # atno 17321 bound_to 7965
  139.5311  144.2914  152.1149 LP  0  0  0  0  0  0  0  0  0  0  0  0  # atno 17342 bound_to 10162
  140.2100  144.4572  150.6390 LP  0  0  0  0  0  0  0  0  0  0  0  0  # atno 17343 bound_to 10162
  157.6445  130.8833  149.9511 LP  0  0  0  0  0  0  0  0  0  0  0  0  # atno 17370 bound_to 10713
  156.0976  130.3658  150.0278 LP  0  0  0  0  0  0  0  0  0  0  0  0  # atno 17371 bound_to 10713
  140.4270  134.7136  157.4921 LP  0  0  0  0  0  0  0  0  0  0  0  0  # atno 17394 bound_to 11000
  140.0320  134.6392  155.9094 LP  0  0  0  0  0  0  0  0  0  0  0  0  # atno 17395 bound_to 11000

$$$$
