#       Name:                AV-unprocessed.smi:242
#       Creating user name   scv26
#       Creation time:       Thu Mar 26 20:46:23 2020


#       File generated by GOLD software.
#

@<TRIPOS>MOLECULE
AV-unprocessed.smi:242
    66    69     1
SMALL
NO_CHARGES


@<TRIPOS>ATOM
      1 ****        -3.1227  -4.6552  -3.5670 C.3            1 S1                 0.0000
      2 ****        -3.2525  -4.1877  -2.1045 C.3            1 S1                 0.0000
      3 ****        -4.7372  -3.9445  -1.7728 C.3            1 S1                 0.0000
      4 ****        -2.4376  -2.9685  -1.8396 N.4            1 S1                 1.0000
      5 ****        -2.4587  -2.4860  -0.4347 C.3            1 S1                 0.0000
      6 ****        -1.0246  -2.0753  -0.0790 C.3            1 S1                 0.0000
      7 ****        -0.3203  -1.9521  -1.4332 C.3            1 S1                 0.0000
      8 ****         1.1365  -2.0932  -1.3833 N.3            1 S1                 0.0000
      9 ****         1.8421  -2.0665  -2.6588 C.3            1 S1                 0.0000
     10 ****         1.7415  -1.2984  -0.4735 C.ar           1 S1                 0.0000
     11 ****         2.4261  -1.9076   0.5249 N.ar           1 S1                 0.0000
     12 ****         3.0331  -1.1718   1.4614 C.ar           1 S1                 0.0000
     13 ****         3.0767   0.1571   1.5816 N.ar           1 S1                 0.0000
     14 ****         2.3907   0.7703   0.5744 C.ar           1 S1                 0.0000
     15 ****         1.7022   0.1241  -0.4896 C.ar           1 S1                 0.0000
     16 ****         1.1276   1.0706  -1.3292 N.2            1 S1                 0.0000
     17 ****         1.4587   2.2129  -0.7914 C.2            1 S1                 0.0000
     18 ****         2.2060   2.1251   0.3619 N.pl3          1 S1                 0.0000
     19 ****         2.7002   3.2301   1.1691 C.3            1 S1                 0.0000
     20 ****         1.7250   3.6785   2.2864 C.3            1 S1                 0.0000
     21 ****         1.5176   2.5771   3.1540 O.3            1 S1                 0.0000
     22 ****         2.3395   4.8336   3.1026 C.3            1 S1                 0.0000
     23 ****         1.3398   5.4312   4.1087 C.3            1 S1                 0.0000
     24 ****         0.1609   5.8486   3.4317 O.3            1 S1                 0.0000
     25 ****        -0.5287   4.7666   2.8181 C.3            1 S1                 0.0000
     26 ****         0.3531   4.1228   1.7331 C.3            1 S1                 0.0000
     27 ****        -1.0150  -3.0509  -2.2364 C.3            1 S1                 0.0000
     28 ****        -3.7581  -5.5209  -3.7569 H              1 S1                 0.0000
     29 ****        -2.1041  -4.9554  -3.8126 H              1 S1                 0.0000
     30 ****        -3.4192  -3.8700  -4.2633 H              1 S1                 0.0000
     31 ****        -2.8832  -4.9882  -1.4614 H              1 S1                 0.0000
     32 ****        -5.3362  -4.8293  -1.9905 H              1 S1                 0.0000
     33 ****        -5.1434  -3.1200  -2.3597 H              1 S1                 0.0000
     34 ****        -4.8915  -3.7105  -0.7196 H              1 S1                 0.0000
     35 ****        -3.1398  -1.6374  -0.3649 H              1 S1                 0.0000
     36 ****        -2.8065  -3.2510   0.2607 H              1 S1                 0.0000
     37 ****        -0.9855  -1.1546   0.5046 H              1 S1                 0.0000
     38 ****        -0.5607  -2.8649   0.5147 H              1 S1                 0.0000
     39 ****        -0.5739  -0.9889  -1.8785 H              1 S1                 0.0000
     40 ****         2.9236  -2.0416  -2.5157 H              1 S1                 0.0000
     41 ****         1.5538  -1.1927  -3.2445 H              1 S1                 0.0000
     42 ****         1.6090  -2.9589  -3.2397 H              1 S1                 0.0000
     43 ****         3.5578  -1.7275   2.2247 H              1 S1                 0.0000
     44 ****         1.1573   3.1585  -1.2186 H              1 S1                 0.0000
     45 ****         3.6591   2.9369   1.5989 H              1 S1                 0.0000
     46 ****         2.9126   4.0656   0.5007 H              1 S1                 0.0000
     47 ****         2.3573   2.2817   3.4719 H              1 S1                 0.0000
     48 ****         3.2385   4.4997   3.6226 H              1 S1                 0.0000
     49 ****         2.6574   5.6256   2.4233 H              1 S1                 0.0000
     50 ****         1.0900   4.7128   4.8911 H              1 S1                 0.0000
     51 ****         1.7829   6.2948   4.6048 H              1 S1                 0.0000
     52 ****        -0.8225   4.0339   3.5712 H              1 S1                 0.0000
     53 ****        -1.4486   5.1454   2.3727 H              1 S1                 0.0000
     54 ****         0.5059   4.8494   0.9341 H              1 S1                 0.0000
     55 ****        -0.1776   3.2816   1.2860 H              1 S1                 0.0000
     56 ****        -0.6120  -4.0285  -1.9640 H              1 S1                 0.0000
     57 ****        -0.8902  -2.9150  -3.3112 H              1 S1                 0.0000
     58 ****        -2.8332  -2.2227  -2.3940 H              1 S1                 0.0000
     59 ****         1.2212  -3.0379  -1.0667 LP             1 S1                 0.0000
     60 ****         2.4771  -2.9056   0.5609 LP             1 S1                 0.0000
     61 ****         3.5517   0.6414   2.3163 LP             1 S1                 0.0000
     62 ****         0.5857   0.9130  -2.1547 LP             1 S1                 0.0000
     63 ****         1.0662   1.8365   2.6563 LP             1 S1                 0.0000
     64 ****         0.9455   2.8582   3.9245 LP             1 S1                 0.0000
     65 ****         0.4142   6.5092   2.7249 LP             1 S1                 0.0000
     66 ****        -0.4503   6.2849   4.0920 LP             1 S1                 0.0000
@<TRIPOS>BOND
    1    1    2 1     
    2    1   28 1     
    3    1   29 1     
    4    1   30 1     
    5    2    3 1     
    6    2    4 1     
    7    2   31 1     
    8    3   32 1     
    9    3   33 1     
   10    3   34 1     
   11    4   27 1     
   12    4    5 1     
   13    4   58 1     
   14    5    6 1     
   15    5   35 1     
   16    5   36 1     
   17    6    7 1     
   18    6   37 1     
   19    6   38 1     
   20    7    8 1     
   21    7   27 1     
   22    7   39 1     
   23    8    9 1     
   24    8   10 1     
   25    9   40 1     
   26    9   41 1     
   27    9   42 1     
   28   10   15 ar    
   29   10   11 ar    
   30   11   12 ar    
   31   12   13 ar    
   32   12   43 1     
   33   13   14 ar    
   34   14   18 1     
   35   14   15 ar    
   36   15   16 1     
   37   16   17 2     
   38   17   18 1     
   39   17   44 1     
   40   18   19 1     
   41   19   20 1     
   42   19   45 1     
   43   19   46 1     
   44   20   26 1     
   45   20   21 1     
   46   20   22 1     
   47   21   47 1     
   48   22   23 1     
   49   22   48 1     
   50   22   49 1     
   51   23   24 1     
   52   23   50 1     
   53   23   51 1     
   54   24   25 1     
   55   25   26 1     
   56   25   52 1     
   57   25   53 1     
   58   26   54 1     
   59   26   55 1     
   60   27   56 1     
   61   27   57 1     
   62    8   59 1     
   63   11   60 1     
   64   13   61 1     
   65   16   62 1     
   66   21   63 1     
   67   21   64 1     
   68   24   65 1     
   69   24   66 1     
@<TRIPOS>SUBSTRUCTURE
      1 S1             1
@<TRIPOS>SET
LONE_PAIRS      STATIC     ATOMS    <user>   **** ""
8 59 60 61 62 63 64 65 66
DONOR_HYDROGENS      STATIC     ATOMS    <user>   **** ""
2 58 47
ATOM$BLUE        STATIC     ATOMS    COLORGROUP SYSTEM
8 59 60 61 62 63 64 65 66
ATOM$RED        STATIC     ATOMS    COLORGROUP SYSTEM
2 58 47
