AV-unprocessed.smi:332|AV-procd|sdf|2359|dock8
  -GOLD-   2262022273D 1   1.00000     0.00000
 Structure written by MMmdl.
 42 44  0  0  0  0  0  0  0  0  1 V2000
  149.8362  140.4716  158.0921 C   0  0  0  0  0  0  0  0  0  0  0  0
  150.1879  138.9936  158.3286 C   0  0  1  0  0  0  0  0  0  0  0  0
  148.9603  138.2762  158.6681 N   0  0  0  0  0  0  0  0  0  0  0  0
  148.8756  136.9874  159.0330 C   0  0  0  0  0  0  0  0  0  0  0  0
  149.8550  136.2529  159.1689 O   0  0  0  0  0  0  0  0  0  0  0  0
  147.4594  136.4548  159.2903 C   0  0  0  0  0  0  0  0  0  0  0  0
  147.3484  135.7079  160.5540 N   0  0  0  0  0  0  0  0  0  0  0  0
  147.1129  134.3215  160.4634 C   0  0  0  0  0  0  0  0  0  0  0  0
  146.9917  133.5494  161.5547 C   0  0  0  0  0  0  0  0  0  0  0  0
  147.1087  134.1754  162.8503 C   0  0  0  0  0  0  0  0  0  0  0  0
  147.3305  135.5013  162.9485 C   0  0  0  0  0  0  0  0  0  0  0  0
  147.4623  136.3496  161.7582 C   0  0  0  0  0  0  0  0  0  0  0  0
  147.6626  137.5622  161.8383 O   0  0  0  0  0  0  0  0  0  0  0  0
  150.8596  138.3411  157.0945 C   0  0  1  0  0  0  0  0  0  0  0  0
  149.9021  138.1648  155.8905 C   0  0  0  0  0  0  0  0  0  0  0  0
  150.6527  138.8499  154.7351 C   0  0  2  0  0  0  0  0  0  0  0  0
  151.8871  138.0131  154.3537 C   0  0  0  0  0  0  0  0  0  0  0  0
  152.8388  138.2567  155.5394 C   0  0  0  0  0  0  0  0  0  0  0  0
  152.0077  139.1708  156.4600 C   0  0  1  0  0  0  0  0  0  0  0  0
  151.2799  140.0433  155.4428 C   0  0  0  0  0  0  0  0  0  0  0  0
  150.7250  141.0683  157.8875 H   0  0  0  0  0  0  0  0  0  0  0  0
  149.3529  140.9031  158.9692 H   0  0  0  0  0  0  0  0  0  0  0  0
  149.1564  140.5881  157.2473 H   0  0  0  0  0  0  0  0  0  0  0  0
  150.8869  138.9526  159.1652 H   0  0  0  0  0  0  0  0  0  0  0  0
  148.0993  138.7982  158.5902 H   0  0  0  0  0  0  0  0  0  0  0  0
  146.7716  137.3014  159.2782 H   0  0  0  0  0  0  0  0  0  0  0  0
  147.1469  135.8200  158.4586 H   0  0  0  0  0  0  0  0  0  0  0  0
  147.0305  133.9321  159.4590 H   0  0  0  0  0  0  0  0  0  0  0  0
  146.8072  132.4887  161.4658 H   0  0  0  0  0  0  0  0  0  0  0  0
  147.0163  133.5779  163.7452 H   0  0  0  0  0  0  0  0  0  0  0  0
  147.4131  135.9525  163.9265 H   0  0  0  0  0  0  0  0  0  0  0  0
  151.2483  137.3681  157.3999 H   0  0  0  0  0  0  0  0  0  0  0  0
  149.6870  137.1161  155.6821 H   0  0  0  0  0  0  0  0  0  0  0  0
  148.9496  138.6692  156.0579 H   0  0  0  0  0  0  0  0  0  0  0  0
  150.0144  139.0996  153.8873 H   0  0  0  0  0  0  0  0  0  0  0  0
  151.6454  136.9576  154.2238 H   0  0  0  0  0  0  0  0  0  0  0  0
  152.3312  138.3732  153.4250 H   0  0  0  0  0  0  0  0  0  0  0  0
  153.1419  137.3315  156.0304 H   0  0  0  0  0  0  0  0  0  0  0  0
  153.7436  138.7657  155.2044 H   0  0  0  0  0  0  0  0  0  0  0  0
  152.6253  139.7195  157.1707 H   0  0  0  0  0  0  0  0  0  0  0  0
  151.9532  140.6188  154.8052 H   0  0  0  0  0  0  0  0  0  0  0  0
  150.5485  140.7185  155.8898 H   0  0  0  0  0  0  0  0  0  0  0  0
  1  2  1  0  0  0  0
  1 21  1  0  0  0  0
  1 22  1  0  0  0  0
  1 23  1  0  0  0  0
  2  3  1  0  0  0  0
  2 14  1  0  0  0  0
  2 24  1  0  0  0  0
  3  4  1  0  0  0  0
  3 25  1  0  0  0  0
  4  5  2  0  0  0  0
  4  6  1  0  0  0  0
  6  7  1  0  0  0  0
  6 26  1  0  0  0  0
  6 27  1  0  0  0  0
  7 12  1  0  0  0  0
  7  8  1  0  0  0  0
  8  9  2  0  0  0  0
  8 28  1  0  0  0  0
  9 10  1  0  0  0  0
  9 29  1  0  0  0  0
 10 11  2  0  0  0  0
 10 30  1  0  0  0  0
 11 12  1  0  0  0  0
 11 31  1  0  0  0  0
 12 13  2  0  0  0  0
 14 19  1  0  0  0  0
 14 15  1  0  0  0  0
 14 32  1  0  0  0  0
 15 16  1  0  0  0  0
 15 33  1  0  0  0  0
 15 34  1  0  0  0  0
 16 20  1  0  0  0  0
 16 17  1  0  0  0  0
 16 35  1  0  0  0  0
 17 18  1  0  0  0  0
 17 36  1  0  0  0  0
 17 37  1  0  0  0  0
 18 19  1  0  0  0  0
 18 38  1  0  0  0  0
 18 39  1  0  0  0  0
 19 20  1  0  0  0  0
 19 40  1  0  0  0  0
 20 41  1  0  0  0  0
 20 42  1  0  0  0  0
M  END
> <s_m_source_file>
AV-unprocessed.smi

> <i_m_source_file_index>
332

> <i_lp_mmshare_version>
43012

> <i_f3d_flags>
0

> <s_epik_input>
W0NIMl0xW0NIMl1bQ0BIXShbQ0gyXTIpW0NAQEhdKFtDSDJdW0NAQEhdMTIpW0NASF0oW0NIM10pW05IXUMoPU8pW0NIMl1uM1tjSF1bY0hdW2NIXVtjSF1jMz1P

> <s_epik_cmdline>
J2VwaWtfcHl0aG9uJywgJy1waCcsICc3LjAnLCAnLXRuJywgJzgnLCAnLW1hJywgJzIwMCcsICctbWV0YWxfYmluZGluZycsICctaW1hZScsICc8aW5maWxlLm1hZT4nLCAnLW9tYWUnLCAnPG91dGZpbGUubWFlPic=

> <r_lp_tautomer_probability>
1

> <r_epik_Ionization_Penalty>
4.05802e-07

> <r_epik_Ionization_Penalty_Charging>
3.84175e-07

> <r_epik_Ionization_Penalty_Neutral>
2.16269e-08

> <r_epik_State_Penalty>
-0

> <r_epik_Charging_Adjusted_Penalty>
3.84175e-07

> <i_epik_Tot_Q>
0

> <i_epik_Tot_abs_Q>
0

> <r_epik_Metal_State_Penalty>
-0

> <b_epik_Metal_Only>
0

> <s_lp_Force_Field>
OPLS_2005

> <r_lp_Energy>
59.7004

> <b_lp_Chiralities_Consistent>
1

> <s_lp_Variant>
AV-unprocessed.smi:332-8

> <Gold.Version>
5.8.1

> <Gold.Id.Protein>
6NUR|6NUR_protein|mol2

> <Gold.PLP.Fitness>
45.2485

> <Gold.PLP.PLP>
-37.6050

> <Gold.PLP.part.hbond>
-3.0000

> <Gold.PLP.part.metal>
0.0000

> <Gold.PLP.part.buried>
-2.7235

> <Gold.PLP.part.nonpolar>
-32.1888

> <Gold.PLP.part.repulsive>
0.1525

> <Gold.PLP.ligand.clash>
0.0000

> <Gold.PLP.ligand.torsion>
0.3251

> <Gold.PLP.Chemscore.Hbond>
2.7600

> <Gold.PLP.Chemscore.CHOScore>
0.0000

> <Gold.PLP.Chemscore.Metal>
0.0000

> <Gold.Chemscore.Hbonds>
donor molecule, donor type, donor heavy atom, donor atom, acceptor molecule, acceptor atom, score
      P1  H  6896  6907       L1     5  1.00
      P1  H  6931  6943       L1    13  0.79
      P1  H  6934  6947       L1    13  0.58

> <Gold.PLP.Chemscore.Internal.Correction>
0.0136

> <Gold.Rescore>
     Score         DG    S(hbond)    S(metal)    S(lipo)     H(rot)  DE(clash)    DE(int)     intcor
     18.57     -20.11       2.72        0.00      81.01       1.54       0.06       1.48       ----

> <Gold.Chemscore.Fitness>
18.5652

> <Gold.Chemscore.DG>
-20.1111

> <Gold.Chemscore.ZeroCoef>
-5.4800

> <Gold.Chemscore.Hbond>
2.7229

> <Gold.Chemscore.Metal>
0.0000

> <Gold.Chemscore.Lipo>
81.0140

> <Gold.Chemscore.Internal_Hbond>
0.0000

> <Gold.Chemscore.DEClash>
0.0623

> <Gold.Chemscore.DEInternal>
1.4836

> <Gold.Chemscore.Rot>
1.5398

> <Gold.Chemscore.Internal.Correction>
   9.000000E+99

> <Gold.Chemscore.Hbonds>
donor molecule, donor type, donor heavy atom, donor atom, acceptor molecule, acceptor atom, score
      P1  H  6896  6907       L1     5  1.00
      P1  H  6931  6943       L1    13  0.73
      P1  H  6934  6947       L1    13  0.58

> <Gold.Chemscore.Hbond.Weighted>
-9.0944

> <Gold.Chemscore.Metal.Weighted>
-0.0000

> <Gold.Chemscore.Lipo.Weighted>
-9.4786

> <Gold.Chemscore.Internal_Hbond.Weighted>
0.0000

> <Gold.Chemscore.DEClash.Weighted>
0.0623

> <Gold.Chemscore.DEInternal.Weighted>
1.4836

> <Gold.Chemscore.Rot.Weighted>
3.9419

> <Gold.Chemscore.Internal.Correction.Weighted>
   9.000000E+99

> <Gold.Protein.RotatedTorsions>
[ 6907 6896 6895 6894 ] final  -54.60 input  -60.11 | X-H torsion
[ 7974 7965 7964 7962 ] final -129.38 input  175.53 | X-H torsion
[ 8008 7997 7996 7995 ] final  178.22 input   59.86 | X-H torsion
[ 10167 10162 10161 10158 ] final   69.50 input  -65.29 | X-H torsion
[ 10718 10713 10712 10709 ] final  -73.81 input   66.30 | X-H torsion
[ 10763 10752 10751 10750 ] final -121.64 input  -60.55 | X-H torsion
[ 11005 11000 10999 10996 ] final   -4.80 input  -57.11 | X-H torsion

> <Gold.Protein.ActiveResidues>
 VAL166  LYS551  ARG553  GLY616  TRP617  ASP618  TYR619  PRO620  LYS621  CYS622 
 ASP623  PHE694  ASN695  SER759  ASP760  ASP761  ALA762  ILE779  LEU786  VAL792 
 PHE793  MET794  SER795  GLU796  ALA797  LYS798  CYS799  TRP800  GLU811  SER814 

> <Gold.Protein.RotatedAtoms>
  150.8324  134.7583  159.6864 H   0  0  0  0  0  0  0  0  0  0  0  0  # atno 6907 bound_to 6896
  152.4426  134.5556  159.9889 H   0  0  0  0  0  0  0  0  0  0  0  0  # atno 6908 bound_to 6896
  151.5714  133.3352  159.3026 H   0  0  0  0  0  0  0  0  0  0  0  0  # atno 6909 bound_to 6896
  144.9577  140.7413  143.4748 H   0  0  0  0  0  0  0  0  0  0  0  0  # atno 7974 bound_to 7965
  156.0571  140.1339  156.9984 H   0  0  0  0  0  0  0  0  0  0  0  0  # atno 8008 bound_to 7997
  154.4463  140.0999  156.6532 H   0  0  0  0  0  0  0  0  0  0  0  0  # atno 8009 bound_to 7997
  155.5435  140.3461  155.4454 H   0  0  0  0  0  0  0  0  0  0  0  0  # atno 8010 bound_to 7997
  140.0671  144.5184  150.7253 H   0  0  0  0  0  0  0  0  0  0  0  0  # atno 10167 bound_to 10162
  156.0266  130.4402  150.2798 H   0  0  0  0  0  0  0  0  0  0  0  0  # atno 10718 bound_to 10713
  154.8673  135.4160  154.2653 H   0  0  0  0  0  0  0  0  0  0  0  0  # atno 10763 bound_to 10752
  153.3573  135.7001  153.6745 H   0  0  0  0  0  0  0  0  0  0  0  0  # atno 10764 bound_to 10752
  153.5661  135.3600  155.2791 H   0  0  0  0  0  0  0  0  0  0  0  0  # atno 10765 bound_to 10752
  140.6842  133.9127  155.8575 H   0  0  0  0  0  0  0  0  0  0  0  0  # atno 11005 bound_to 11000
  145.2747  139.1941  143.4823 LP  0  0  0  0  0  0  0  0  0  0  0  0  # atno 17320 bound_to 7965
  146.3343  140.2699  142.8605 LP  0  0  0  0  0  0  0  0  0  0  0  0  # atno 17321 bound_to 7965
  140.7144  143.2532  151.4481 LP  0  0  0  0  0  0  0  0  0  0  0  0  # atno 17342 bound_to 10162
  139.5858  144.1607  152.2027 LP  0  0  0  0  0  0  0  0  0  0  0  0  # atno 17343 bound_to 10162
  157.0901  131.0167  151.3124 LP  0  0  0  0  0  0  0  0  0  0  0  0  # atno 17370 bound_to 10713
  157.4860  130.7793  149.7461 LP  0  0  0  0  0  0  0  0  0  0  0  0  # atno 17371 bound_to 10713
  141.0293  134.0779  157.4033 LP  0  0  0  0  0  0  0  0  0  0  0  0  # atno 17394 bound_to 11000
  139.8942  135.0135  156.6940 LP  0  0  0  0  0  0  0  0  0  0  0  0  # atno 17395 bound_to 11000

$$$$
