AV-unprocessed.smi:1994|AV-procd|sdf|8072|dock2
  -GOLD-   2272010283D 1   1.00000     0.00000
 Structure written by MMmdl.
 39 41  0  0  0  0  0  0  0  0  1 V2000
  151.9008  139.1265  155.3609 C   0  0  0  0  0  0  0  0  0  0  0  0
  151.9234  140.0761  156.5164 C   0  0  0  0  0  0  0  0  0  0  0  0
  152.6011  139.8185  157.6352 N   0  0  0  0  0  0  0  0  0  0  0  0
  152.3375  140.9304  158.4117 C   0  0  0  0  0  0  0  0  0  0  0  0
  152.7667  141.2618  159.7169 C   0  0  0  0  0  0  0  0  0  0  0  0
  152.3607  142.4724  160.3160 C   0  0  0  0  0  0  0  0  0  0  0  0
  151.5231  143.3677  159.6197 C   0  0  0  0  0  0  0  0  0  0  0  0
  151.0858  143.0579  158.3176 C   0  0  0  0  0  0  0  0  0  0  0  0
  151.4923  141.8475  157.7246 C   0  0  0  0  0  0  0  0  0  0  0  0
  151.2497  141.2521  156.4901 N   0  0  0  0  0  0  0  0  0  0  0  0
  150.4345  141.7932  155.4107 C   0  0  0  0  0  0  0  0  0  0  0  0
  149.4256  140.7686  154.8533 C   0  0  2  0  0  0  0  0  0  0  0  0
  149.1989  141.0132  153.4794 O   0  0  0  0  0  0  0  0  0  0  0  0
  148.0750  140.8200  155.5821 C   0  0  0  0  0  0  0  0  0  0  0  0
  147.1878  141.6594  154.8548 O   0  0  0  0  0  0  0  0  0  0  0  0
  146.2023  142.3279  155.5501 C   0  0  0  0  0  0  0  0  0  0  0  0
  145.9402  142.1444  156.9320 C   0  0  0  0  0  0  0  0  0  0  0  0
  144.9137  142.8710  157.5664 C   0  0  0  0  0  0  0  0  0  0  0  0
  144.1375  143.7860  156.8317 C   0  0  0  0  0  0  0  0  0  0  0  0
  144.3896  143.9746  155.4605 C   0  0  0  0  0  0  0  0  0  0  0  0
  145.4166  143.2496  154.8252 C   0  0  0  0  0  0  0  0  0  0  0  0
  145.6492  143.4408  153.5046 F   0  0  0  0  0  0  0  0  0  0  0  0
  152.5281  138.2586  155.5677 H   0  0  0  0  0  0  0  0  0  0  0  0
  152.2757  139.6121  154.4604 H   0  0  0  0  0  0  0  0  0  0  0  0
  150.8841  138.7777  155.1786 H   0  0  0  0  0  0  0  0  0  0  0  0
  153.4087  140.5827  160.2583 H   0  0  0  0  0  0  0  0  0  0  0  0
  152.6936  142.7149  161.3148 H   0  0  0  0  0  0  0  0  0  0  0  0
  151.2165  144.2927  160.0860 H   0  0  0  0  0  0  0  0  0  0  0  0
  150.4466  143.7427  157.7806 H   0  0  0  0  0  0  0  0  0  0  0  0
  149.9147  142.6792  155.7758 H   0  0  0  0  0  0  0  0  0  0  0  0
  151.0965  142.1412  154.6167 H   0  0  0  0  0  0  0  0  0  0  0  0
  149.8354  139.7621  154.9409 H   0  0  0  0  0  0  0  0  0  0  0  0
  149.5498  140.2883  152.9847 H   0  0  0  0  0  0  0  0  0  0  0  0
  147.6634  139.8136  155.6780 H   0  0  0  0  0  0  0  0  0  0  0  0
  148.2160  141.2258  156.5854 H   0  0  0  0  0  0  0  0  0  0  0  0
  146.5138  141.4526  157.5298 H   0  0  0  0  0  0  0  0  0  0  0  0
  144.7223  142.7258  158.6196 H   0  0  0  0  0  0  0  0  0  0  0  0
  143.3504  144.3424  157.3190 H   0  0  0  0  0  0  0  0  0  0  0  0
  143.7951  144.6765  154.8942 H   0  0  0  0  0  0  0  0  0  0  0  0
  1  2  1  0  0  0  0
  1 23  1  0  0  0  0
  1 24  1  0  0  0  0
  1 25  1  0  0  0  0
  2 10  1  0  0  0  0
  2  3  2  0  0  0  0
  3  4  1  0  0  0  0
  4  9  2  0  0  0  0
  4  5  1  0  0  0  0
  5  6  2  0  0  0  0
  5 26  1  0  0  0  0
  6  7  1  0  0  0  0
  6 27  1  0  0  0  0
  7  8  2  0  0  0  0
  7 28  1  0  0  0  0
  8  9  1  0  0  0  0
  8 29  1  0  0  0  0
  9 10  1  0  0  0  0
 10 11  1  0  0  0  0
 11 12  1  0  0  0  0
 11 30  1  0  0  0  0
 11 31  1  0  0  0  0
 12 13  1  0  0  0  0
 12 14  1  0  0  0  0
 12 32  1  0  0  0  0
 13 33  1  0  0  0  0
 14 15  1  0  0  0  0
 14 34  1  0  0  0  0
 14 35  1  0  0  0  0
 15 16  1  0  0  0  0
 16 21  1  0  0  0  0
 16 17  2  0  0  0  0
 17 18  1  0  0  0  0
 17 36  1  0  0  0  0
 18 19  2  0  0  0  0
 18 37  1  0  0  0  0
 19 20  1  0  0  0  0
 19 38  1  0  0  0  0
 20 21  2  0  0  0  0
 20 39  1  0  0  0  0
 21 22  1  0  0  0  0
M  END
> <s_m_source_file>
AV-unprocessed.smi

> <i_m_source_file_index>
1994

> <i_lp_mmshare_version>
43012

> <i_f3d_flags>
0

> <s_epik_input>
W2NIXTFbY0hdW2NIXVtjSF1jKGMxMiluKGMobjIpW0NIM10pW0NIMl1bQ0BIXShbT0hdKVtDSDJdT2MzW2NIXVtjSF1bY0hdW2NIXWMzRg==

> <s_epik_cmdline>
J2VwaWtfcHl0aG9uJywgJy1waCcsICc3LjAnLCAnLXRuJywgJzgnLCAnLW1hJywgJzIwMCcsICctbWV0YWxfYmluZGluZycsICctaW1hZScsICc8aW5maWxlLm1hZT4nLCAnLW9tYWUnLCAnPG91dGZpbGUubWFlPic=

> <r_lp_tautomer_probability>
1

> <r_epik_Ionization_Penalty>
0.112614

> <r_epik_Ionization_Penalty_Charging>
0

> <r_epik_Ionization_Penalty_Neutral>
0.112614

> <r_epik_State_Penalty>
0.10231

> <r_epik_Charging_Adjusted_Penalty>
0.10231

> <i_epik_Tot_Q>
0

> <i_epik_Tot_abs_Q>
0

> <r_epik_Metal_State_Penalty>
0.000111664

> <b_epik_Metal_Only>
0

> <s_lp_Force_Field>
OPLS_2005

> <r_lp_Energy>
14.6988

> <b_lp_Chiralities_Consistent>
1

> <s_lp_Variant>
AV-unprocessed.smi:1994-1

> <Gold.Version>
5.8.1

> <Gold.Id.Protein>
6NUR|6NUR_protein|mol2

> <Gold.PLP.Fitness>
48.3208

> <Gold.PLP.PLP>
-43.0480

> <Gold.PLP.part.hbond>
-4.0000

> <Gold.PLP.part.metal>
0.0000

> <Gold.PLP.part.buried>
-5.9540

> <Gold.PLP.part.nonpolar>
-33.4979

> <Gold.PLP.part.repulsive>
0.1237

> <Gold.PLP.ligand.clash>
0.0000

> <Gold.PLP.ligand.torsion>
1.1703

> <Gold.PLP.Chemscore.Hbond>
2.5180

> <Gold.PLP.Chemscore.CHOScore>
0.0000

> <Gold.PLP.Chemscore.Metal>
0.0000

> <Gold.Chemscore.Hbonds>
donor molecule, donor type, donor heavy atom, donor atom, acceptor molecule, acceptor atom, score
      L1  H    13    33       P1  7957  0.59
      P1  H  7997  8010       L1     3  0.84
      P1  H  8011  8017       L1    13  0.85

> <Gold.PLP.Chemscore.Internal.Correction>
0.0594

> <Gold.Rescore>
     Score         DG    S(hbond)    S(metal)    S(lipo)     H(rot)  DE(clash)    DE(int)     intcor
     11.17     -12.35       0.00        0.00     106.63       2.19       0.13       1.06       ----

> <Gold.Chemscore.Fitness>
11.1661

> <Gold.Chemscore.DG>
-12.3534

> <Gold.Chemscore.ZeroCoef>
-5.4800

> <Gold.Chemscore.Hbond>
0.0000

> <Gold.Chemscore.Metal>
0.0000

> <Gold.Chemscore.Lipo>
106.6345

> <Gold.Chemscore.Internal_Hbond>
0.0000

> <Gold.Chemscore.DEClash>
0.1279

> <Gold.Chemscore.DEInternal>
1.0593

> <Gold.Chemscore.Rot>
2.1886

> <Gold.Chemscore.Internal.Correction>
   9.000000E+99

> <Gold.Chemscore.Hbonds>
donor molecule, donor type, donor heavy atom, donor atom, acceptor molecule, acceptor atom, score
      L1  H    13    33       P1  7957  0.58
      P1  H  7997  8010       L1     3  0.14
      P1  H  8011  8017       L1    13  0.14

> <Gold.Chemscore.Hbond.Weighted>
-0.0000

> <Gold.Chemscore.Metal.Weighted>
-0.0000

> <Gold.Chemscore.Lipo.Weighted>
-12.4762

> <Gold.Chemscore.Internal_Hbond.Weighted>
0.0000

> <Gold.Chemscore.DEClash.Weighted>
0.1279

> <Gold.Chemscore.DEInternal.Weighted>
1.0593

> <Gold.Chemscore.Rot.Weighted>
5.6028

> <Gold.Chemscore.Internal.Correction.Weighted>
   9.000000E+99

> <Gold.Protein.RotatedTorsions>
[ 6907 6896 6895 6894 ] final   20.89 input  -60.11 | X-H torsion
[ 7974 7965 7964 7962 ] final  115.11 input  175.53 | X-H torsion
[ 8008 7997 7996 7995 ] final   34.03 input   59.86 | X-H torsion
[ 10167 10162 10161 10158 ] final  -72.16 input  -65.29 | X-H torsion
[ 10718 10713 10712 10709 ] final   27.77 input   66.30 | X-H torsion
[ 10763 10752 10751 10750 ] final   95.45 input  -60.55 | X-H torsion
[ 11005 11000 10999 10996 ] final  -21.76 input  -57.11 | X-H torsion

> <Gold.Protein.ActiveResidues>
 VAL166  LYS551  ARG553  GLY616  TRP617  ASP618  TYR619  PRO620  LYS621  CYS622 
 ASP623  PHE694  ASN695  SER759  ASP760  ASP761  ALA762  ILE779  LEU786  VAL792 
 PHE793  MET794  SER795  GLU796  ALA797  LYS798  CYS799  TRP800  GLU811  SER814 

> <Gold.Protein.RotatedAtoms>
  151.9034  135.0369  160.0508 H   0  0  0  0  0  0  0  0  0  0  0  0  # atno 6907 bound_to 6896
  152.2339  133.5076  159.5240 H   0  0  0  0  0  0  0  0  0  0  0  0  # atno 6908 bound_to 6896
  150.7033  134.1096  159.4038 H   0  0  0  0  0  0  0  0  0  0  0  0  # atno 6909 bound_to 6896
  145.1961  139.2976  143.4343 H   0  0  0  0  0  0  0  0  0  0  0  0  # atno 7974 bound_to 7965
  155.1482  140.3272  155.4437 H   0  0  0  0  0  0  0  0  0  0  0  0  # atno 8008 bound_to 7997
  156.2583  140.1981  156.6545 H   0  0  0  0  0  0  0  0  0  0  0  0  # atno 8009 bound_to 7997
  154.6492  140.0560  156.9923 H   0  0  0  0  0  0  0  0  0  0  0  0  # atno 8010 bound_to 7997
  140.5215  143.2331  151.7422 H   0  0  0  0  0  0  0  0  0  0  0  0  # atno 10167 bound_to 10162
  157.2246  130.6995  149.6285 H   0  0  0  0  0  0  0  0  0  0  0  0  # atno 10718 bound_to 10713
  153.2534  135.4253  155.0820 H   0  0  0  0  0  0  0  0  0  0  0  0  # atno 10763 bound_to 10752
  154.8391  135.3431  154.6481 H   0  0  0  0  0  0  0  0  0  0  0  0  # atno 10764 bound_to 10752
  153.6902  135.7034  153.5149 H   0  0  0  0  0  0  0  0  0  0  0  0  # atno 10765 bound_to 10752
  140.8592  133.7800  156.0055 H   0  0  0  0  0  0  0  0  0  0  0  0  # atno 11005 bound_to 11000
  146.3427  140.2190  142.8591 LP  0  0  0  0  0  0  0  0  0  0  0  0  # atno 17320 bound_to 7965
  144.9993  140.8618  143.5291 LP  0  0  0  0  0  0  0  0  0  0  0  0  # atno 17321 bound_to 7965
  139.4925  144.4248  151.9938 LP  0  0  0  0  0  0  0  0  0  0  0  0  # atno 17342 bound_to 10162
  140.3345  144.3277  150.5980 LP  0  0  0  0  0  0  0  0  0  0  0  0  # atno 17343 bound_to 10162
  155.9679  130.4508  150.5713 LP  0  0  0  0  0  0  0  0  0  0  0  0  # atno 17370 bound_to 10713
  157.3541  131.0738  151.1690 LP  0  0  0  0  0  0  0  0  0  0  0  0  # atno 17371 bound_to 10713
  140.8702  134.2736  157.5194 LP  0  0  0  0  0  0  0  0  0  0  0  0  # atno 17394 bound_to 11000
  139.8706  134.9563  156.4234 LP  0  0  0  0  0  0  0  0  0  0  0  0  # atno 17395 bound_to 11000

$$$$
