AV-unprocessed.smi:1383|AV-procd|sdf|5624|dock4
  -GOLD-   22720 5233D 1   1.00000     0.00000
 Structure written by MMmdl.
 30 30  0  0  0  0  0  0  0  0  2 V2000
  146.7726  132.4526  161.4968 C   0  0  0  0  0  0  0  0  0  0  0  0
  147.0982  133.6984  160.6578 C   0  0  0  0  0  0  0  0  0  0  0  0
  147.7388  134.8539  161.4594 C   0  0  2  0  0  0  0  0  0  0  0  0
  146.8329  135.2925  162.6228 C   0  0  0  0  0  0  0  0  0  0  0  0
  148.0665  136.0638  160.5632 C   0  0  0  0  0  0  0  0  0  0  0  0
  147.5507  137.1553  160.8117 O   0  0  0  0  0  0  0  0  0  0  0  0
  148.9254  135.7433  159.5651 N   0  5  0  0  0  0  0  0  0  0  0  0
  149.0519  136.5643  158.5114 C   0  0  0  0  0  0  0  0  0  0  0  0
  149.9764  136.3905  157.5607 N   0  0  0  0  0  0  0  0  0  0  0  0
  149.9430  137.3668  156.5605 C   0  0  0  0  0  0  0  0  0  0  0  0
  150.9187  137.3063  155.4207 C   0  0  0  0  0  0  0  0  0  0  0  0
  150.7852  138.5423  154.5275 C   0  0  0  0  0  0  0  0  0  0  0  0
  150.1071  138.4022  153.3847 N   0  0  0  0  0  0  0  0  0  0  0  0
  151.2779  139.6152  154.8706 O   0  0  0  0  0  0  0  0  0  0  0  0
  148.9634  138.3055  156.7606 C   0  0  0  0  0  0  0  0  0  0  0  0
  148.0625  137.9957  158.2170 S   0  0  0  0  0  0  0  0  0  0  0  0
  146.2712  131.6988  160.8898 H   0  0  0  0  0  0  0  0  0  0  0  0
  146.1139  132.7016  162.3292 H   0  0  0  0  0  0  0  0  0  0  0  0
  147.6735  131.9963  161.9078 H   0  0  0  0  0  0  0  0  0  0  0  0
  147.7462  133.4144  159.8273 H   0  0  0  0  0  0  0  0  0  0  0  0
  146.1732  134.0547  160.2036 H   0  0  0  0  0  0  0  0  0  0  0  0
  148.6588  134.4685  161.9049 H   0  0  0  0  0  0  0  0  0  0  0  0
  147.2795  136.1139  163.1846 H   0  0  0  0  0  0  0  0  0  0  0  0
  146.6703  134.4713  163.3213 H   0  0  0  0  0  0  0  0  0  0  0  0
  145.8560  135.6230  162.2680 H   0  0  0  0  0  0  0  0  0  0  0  0
  151.9440  137.2422  155.7875 H   0  0  0  0  0  0  0  0  0  0  0  0
  150.7500  136.4096  154.8232 H   0  0  0  0  0  0  0  0  0  0  0  0
  149.9796  139.1994  152.7773 H   0  0  0  0  0  0  0  0  0  0  0  0
  149.7082  137.5073  153.1422 H   0  0  0  0  0  0  0  0  0  0  0  0
  148.7216  139.1593  156.1457 H   0  0  0  0  0  0  0  0  0  0  0  0
  1  2  1  0  0  0  0
  1 17  1  0  0  0  0
  1 18  1  0  0  0  0
  1 19  1  0  0  0  0
  2  3  1  0  0  0  0
  2 20  1  0  0  0  0
  2 21  1  0  0  0  0
  3  4  1  0  0  0  0
  3  5  1  0  0  0  0
  3 22  1  0  0  0  0
  4 23  1  0  0  0  0
  4 24  1  0  0  0  0
  4 25  1  0  0  0  0
  5  6  2  0  0  0  0
  5  7  1  0  0  0  0
  7  8  1  0  0  0  0
  8 16  1  0  0  0  0
  8  9  2  0  0  0  0
  9 10  1  0  0  0  0
 10 11  1  0  0  0  0
 10 15  2  0  0  0  0
 11 12  1  0  0  0  0
 11 26  1  0  0  0  0
 11 27  1  0  0  0  0
 12 13  1  0  0  0  0
 12 14  2  0  0  0  0
 13 28  1  0  0  0  0
 13 29  1  0  0  0  0
 15 16  1  0  0  0  0
 15 30  1  0  0  0  0
M  CHG  1   7  -1
M  END
> <s_m_source_file>
AV-unprocessed.smi

> <i_m_source_file_index>
1383

> <i_lp_mmshare_version>
43012

> <i_f3d_flags>
0

> <s_epik_input>
W0NIM11bQ0gyXVtDQEhdKFtDSDNdKUMoPU8pW05IXWMxbmMoW2NIXXMxKVtDSDJdQyg9TylbTkgyXQ==

> <s_epik_cmdline>
J2VwaWtfcHl0aG9uJywgJy1waCcsICc3LjAnLCAnLXRuJywgJzgnLCAnLW1hJywgJzIwMCcsICctbWV0YWxfYmluZGluZycsICctaW1hZScsICc8aW5maWxlLm1hZT4nLCAnLW9tYWUnLCAnPG91dGZpbGUubWFlPic=

> <r_lp_tautomer_probability>
1

> <r_epik_Ionization_Penalty>
5.3563

> <r_epik_Ionization_Penalty_Charging>
4.90463

> <r_epik_Ionization_Penalty_Neutral>
0.451677

> <r_epik_State_Penalty>
4.90447

> <r_epik_Charging_Adjusted_Penalty>
9.8091

> <i_epik_Tot_Q>
-1

> <i_epik_Tot_abs_Q>
1

> <r_epik_Metal_State_Penalty>
1.05508

> <b_epik_Metal_Only>
1

> <s_lp_Force_Field>
OPLS_2005

> <r_lp_Energy>
-0.655456

> <b_lp_Chiralities_Consistent>
1

> <s_lp_Variant>
AV-unprocessed.smi:1383-3

> <Gold.Version>
5.8.1

> <Gold.Id.Protein>
6NUR|6NUR_protein|mol2

> <Gold.PLP.Fitness>
46.0304

> <Gold.PLP.PLP>
-26.2253

> <Gold.PLP.part.hbond>
-6.2168

> <Gold.PLP.part.metal>
0.0000

> <Gold.PLP.part.buried>
-4.4314

> <Gold.PLP.part.nonpolar>
-16.2783

> <Gold.PLP.part.repulsive>
0.1417

> <Gold.PLP.ligand.clash>
0.0000

> <Gold.PLP.ligand.torsion>
0.3698

> <Gold.PLP.Chemscore.Hbond>
6.8080

> <Gold.PLP.Chemscore.CHOScore>
0.0000

> <Gold.PLP.Chemscore.Metal>
0.0000

> <Gold.Chemscore.Hbonds>
donor molecule, donor type, donor heavy atom, donor atom, acceptor molecule, acceptor atom, score
      L1  H    13    28       P1  7957  1.00
      L1  H    13    29       P1  7948  1.00
      P1  H  6896  6908       L1     7  1.76
      P1  H  6931  6943       L1     6  0.61
      P1  H  6934  6947       L1     6  1.00
      P1  H  7989  7998       L1    14  1.00

> <Gold.PLP.Chemscore.Internal.Correction>
0.1206

> <Gold.Rescore>
     Score         DG    S(hbond)    S(metal)    S(lipo)     H(rot)  DE(clash)    DE(int)     intcor
     20.40     -22.21       5.35        0.00      37.46       2.15       0.03       1.78       ----

> <Gold.Chemscore.Fitness>
20.4017

> <Gold.Chemscore.DG>
-22.2149

> <Gold.Chemscore.ZeroCoef>
-5.4800

> <Gold.Chemscore.Hbond>
5.3485

> <Gold.Chemscore.Metal>
0.0000

> <Gold.Chemscore.Lipo>
37.4622

> <Gold.Chemscore.Internal_Hbond>
0.0000

> <Gold.Chemscore.DEClash>
0.0291

> <Gold.Chemscore.DEInternal>
1.7841

> <Gold.Chemscore.Rot>
2.1532

> <Gold.Chemscore.Internal.Correction>
   9.000000E+99

> <Gold.Chemscore.Hbonds>
donor molecule, donor type, donor heavy atom, donor atom, acceptor molecule, acceptor atom, score
      L1  H    13    28       P1  7957  0.88
      L1  H    13    29       P1  7948  0.62
      P1  H  6896  6908       L1     7  0.43
      P1  H  6931  6943       L1     6  0.33
      P1  H  6934  6947       L1     6  0.94
      P1  H  7989  7998       L1    14  0.94

> <Gold.Chemscore.Hbond.Weighted>
-17.8641

> <Gold.Chemscore.Metal.Weighted>
-0.0000

> <Gold.Chemscore.Lipo.Weighted>
-4.3831

> <Gold.Chemscore.Internal_Hbond.Weighted>
0.0000

> <Gold.Chemscore.DEClash.Weighted>
0.0291

> <Gold.Chemscore.DEInternal.Weighted>
1.7841

> <Gold.Chemscore.Rot.Weighted>
5.5123

> <Gold.Chemscore.Internal.Correction.Weighted>
   9.000000E+99

> <Gold.Protein.RotatedTorsions>
[ 6907 6896 6895 6894 ] final  174.90 input  -60.11 | X-H torsion
[ 7974 7965 7964 7962 ] final   84.40 input  175.53 | X-H torsion
[ 8008 7997 7996 7995 ] final  101.92 input   59.86 | X-H torsion
[ 10167 10162 10161 10158 ] final    0.49 input  -65.29 | X-H torsion
[ 10718 10713 10712 10709 ] final   19.14 input   66.30 | X-H torsion
[ 10763 10752 10751 10750 ] final -131.21 input  -60.55 | X-H torsion
[ 11005 11000 10999 10996 ] final   27.95 input  -57.11 | X-H torsion

> <Gold.Protein.ActiveResidues>
 VAL166  LYS551  ARG553  GLY616  TRP617  ASP618  TYR619  PRO620  LYS621  CYS622 
 ASP623  PHE694  ASN695  SER759  ASP760  ASP761  ALA762  ILE779  LEU786  VAL792 
 PHE793  MET794  SER795  GLU796  ALA797  LYS798  CYS799  TRP800  GLU811  SER814 

> <Gold.Protein.RotatedAtoms>
  151.7448  133.3324  159.3375 H   0  0  0  0  0  0  0  0  0  0  0  0  # atno 6907 bound_to 6896
  150.7559  134.6245  159.6163 H   0  0  0  0  0  0  0  0  0  0  0  0  # atno 6908 bound_to 6896
  152.3507  134.7012  160.0289 H   0  0  0  0  0  0  0  0  0  0  0  0  # atno 6909 bound_to 6896
  145.5992  139.2349  143.2255 H   0  0  0  0  0  0  0  0  0  0  0  0  # atno 7974 bound_to 7965
  156.1344  140.3189  155.8399 H   0  0  0  0  0  0  0  0  0  0  0  0  # atno 8008 bound_to 7997
  155.4271  140.0516  157.3038 H   0  0  0  0  0  0  0  0  0  0  0  0  # atno 8009 bound_to 7997
  154.4925  140.2098  155.9530 H   0  0  0  0  0  0  0  0  0  0  0  0  # atno 8010 bound_to 7997
  140.6726  143.7005  150.7955 H   0  0  0  0  0  0  0  0  0  0  0  0  # atno 10167 bound_to 10162
  157.1063  130.6489  149.5885 H   0  0  0  0  0  0  0  0  0  0  0  0  # atno 10718 bound_to 10713
  154.8752  135.3837  154.4209 H   0  0  0  0  0  0  0  0  0  0  0  0  # atno 10763 bound_to 10752
  153.4913  135.7030  153.5888 H   0  0  0  0  0  0  0  0  0  0  0  0  # atno 10764 bound_to 10752
  153.4260  135.3890  155.2108 H   0  0  0  0  0  0  0  0  0  0  0  0  # atno 10765 bound_to 10752
  140.3208  134.2545  155.7717 H   0  0  0  0  0  0  0  0  0  0  0  0  # atno 11005 bound_to 11000
  146.1589  140.6817  142.9287 LP  0  0  0  0  0  0  0  0  0  0  0  0  # atno 17320 bound_to 7965
  144.7317  140.4692  143.6933 LP  0  0  0  0  0  0  0  0  0  0  0  0  # atno 17321 bound_to 7965
  140.0693  143.5077  152.2588 LP  0  0  0  0  0  0  0  0  0  0  0  0  # atno 17342 bound_to 10162
  139.6002  144.7580  151.3190 LP  0  0  0  0  0  0  0  0  0  0  0  0  # atno 17343 bound_to 10162
  155.9861  130.4894  150.7064 LP  0  0  0  0  0  0  0  0  0  0  0  0  # atno 17370 bound_to 10713
  157.4598  131.0882  151.0758 LP  0  0  0  0  0  0  0  0  0  0  0  0  # atno 17371 bound_to 10713
  141.2087  133.7771  157.0044 LP  0  0  0  0  0  0  0  0  0  0  0  0  # atno 17394 bound_to 11000
  140.0943  134.9574  157.1825 LP  0  0  0  0  0  0  0  0  0  0  0  0  # atno 17395 bound_to 11000

$$$$
