#       Name:                AV-unprocessed.smi:370
#       Creating user name   scv26
#       Creation time:       Thu Mar 26 22:38:10 2020


#       File generated by GOLD software.
#

@<TRIPOS>MOLECULE
AV-unprocessed.smi:370
    50    51     1
SMALL
NO_CHARGES


@<TRIPOS>ATOM
      1 ****        -5.8064   4.4494   0.3133 C.3            1 S1                 0.0000
      2 ****        -4.9615   3.2321   0.4685 C.2            1 S1                 0.0000
      3 ****        -3.6174   3.0126   0.3583 C.2            1 S1                 0.0000
      4 ****        -3.4951   1.6242   0.6317 C.2            1 S1                 0.0000
      5 ****        -2.2227   0.9943   0.6164 N.am           1 S1                 0.0000
      6 ****        -1.9198  -0.3005   0.8218 C.2            1 S1                 0.0000
      7 ****        -2.8143  -1.1241   1.0464 O.2            1 S1                 0.0000
      8 ****        -0.5813  -0.5318   0.7422 N.pl3          1 S1                -1.0000
      9 ****         0.0473  -1.8449   0.9195 C.3            1 S1                 0.0000
     10 ****         1.6100  -1.7370   0.8187 C.3            1 S1                 0.0000
     11 ****         2.1336  -0.9849   2.0825 C.3            1 S1                 0.0000
     12 ****         2.2524  -3.1515   0.8733 C.3            1 S1                 0.0000
     13 ****         1.9767  -1.0250  -0.4689 N.4            1 S1                 1.0000
     14 ****         3.2120  -0.1907  -0.4509 C.3            1 S1                 0.0000
     15 ****         3.3358   0.6266  -1.7492 C.3            1 S1                 0.0000
     16 ****         3.3115  -0.2332  -2.8795 O.3            1 S1                 0.0000
     17 ****         2.0938  -0.9601  -2.9560 C.3            1 S1                 0.0000
     18 ****         1.9642  -1.8532  -1.7139 C.3            1 S1                 0.0000
     19 ****        -4.6608   1.0490   0.8869 N.2            1 S1                 0.0000
     20 ****        -5.6061   2.0763   0.7841 O.3            1 S1                 0.0000
     21 ****        -5.2087   5.2989  -0.0176 H              1 S1                 0.0000
     22 ****        -6.2774   4.7155   1.2595 H              1 S1                 0.0000
     23 ****        -6.5930   4.2823  -0.4225 H              1 S1                 0.0000
     24 ****        -2.8472   3.7310   0.1197 H              1 S1                 0.0000
     25 ****        -1.4396   1.6024   0.4298 H              1 S1                 0.0000
     26 ****        -0.2197  -2.2964   1.8758 H              1 S1                 0.0000
     27 ****        -0.3057  -2.5469   0.1634 H              1 S1                 0.0000
     28 ****         1.8247  -1.4648   3.0143 H              1 S1                 0.0000
     29 ****         1.7967   0.0529   2.1321 H              1 S1                 0.0000
     30 ****         3.2234  -0.9710   2.1163 H              1 S1                 0.0000
     31 ****         2.0741  -3.6449   1.8310 H              1 S1                 0.0000
     32 ****         3.3348  -3.0894   0.7546 H              1 S1                 0.0000
     33 ****         1.8857  -3.8293   0.0999 H              1 S1                 0.0000
     34 ****         3.2021   0.5266   0.3679 H              1 S1                 0.0000
     35 ****         4.0861  -0.8295  -0.3178 H              1 S1                 0.0000
     36 ****         2.5311   1.3603  -1.8212 H              1 S1                 0.0000
     37 ****         4.2727   1.1838  -1.7519 H              1 S1                 0.0000
     38 ****         1.2451  -0.2792  -3.0413 H              1 S1                 0.0000
     39 ****         2.1055  -1.5712  -3.8587 H              1 S1                 0.0000
     40 ****         2.7908  -2.5647  -1.6996 H              1 S1                 0.0000
     41 ****         1.0462  -2.4340  -1.7993 H              1 S1                 0.0000
     42 ****         1.2222  -0.3602  -0.5786 H              1 S1                 0.0000
     43 ****        -3.7694  -0.8293   1.0762 LP             1 S1                 0.0000
     44 ****        -2.5827  -2.0850   1.1982 LP             1 S1                 0.0000
     45 ****         0.0150   0.2475   0.5495 LP             1 S1                 0.0000
     46 ****         4.0717  -0.8794  -2.8124 LP             1 S1                 0.0000
     47 ****         3.4138   0.3170  -3.7083 LP             1 S1                 0.0000
     48 ****        -4.8292   0.0879   1.1058 LP             1 S1                 0.0000
     49 ****        -6.2682   1.8540   0.0684 LP             1 S1                 0.0000
     50 ****        -6.0823   2.1840   1.6568 LP             1 S1                 0.0000
@<TRIPOS>BOND
    1    1    2 1     
    2    1   21 1     
    3    1   22 1     
    4    1   23 1     
    5    2   20 1     
    6    2    3 2     
    7    3    4 1     
    8    3   24 1     
    9    4    5 1     
   10    4   19 2     
   11    5    6 am    
   12    5   25 1     
   13    6    7 2     
   14    6    8 1     
   15    8    9 1     
   16    9   10 1     
   17    9   26 1     
   18    9   27 1     
   19   10   11 1     
   20   10   12 1     
   21   10   13 1     
   22   11   28 1     
   23   11   29 1     
   24   11   30 1     
   25   12   31 1     
   26   12   32 1     
   27   12   33 1     
   28   13   18 1     
   29   13   14 1     
   30   13   42 1     
   31   14   15 1     
   32   14   34 1     
   33   14   35 1     
   34   15   16 1     
   35   15   36 1     
   36   15   37 1     
   37   16   17 1     
   38   17   18 1     
   39   17   38 1     
   40   17   39 1     
   41   18   40 1     
   42   18   41 1     
   43   19   20 1     
   44    7   43 1     
   45    7   44 1     
   46    8   45 1     
   47   16   46 1     
   48   16   47 1     
   49   19   48 1     
   50   20   49 1     
   51   20   50 1     
@<TRIPOS>SUBSTRUCTURE
      1 S1             1
@<TRIPOS>SET
LONE_PAIRS      STATIC     ATOMS    <user>   **** ""
8 43 44 45 46 47 48 49 50
DONOR_HYDROGENS      STATIC     ATOMS    <user>   **** ""
2 25 42
ATOM$BLUE        STATIC     ATOMS    COLORGROUP SYSTEM
8 43 44 45 46 47 48 49 50
ATOM$RED        STATIC     ATOMS    COLORGROUP SYSTEM
2 25 42
