#       Name:                AV-unprocessed.smi:72
#       Creating user name   scv26
#       Creation time:       Thu Mar 26 16:57:47 2020


#       File generated by GOLD software.
#

@<TRIPOS>MOLECULE
AV-unprocessed.smi:72
    41    42     1
SMALL
NO_CHARGES


@<TRIPOS>ATOM
      1 ****        -3.8653   2.5571   2.1526 N.2            1 S1                 0.0000
      2 ****        -2.9745   1.9083   1.4909 C.2            1 S1                 0.0000
      3 ****        -2.5690   0.5916   1.7518 N.2            1 S1                 0.0000
      4 ****        -1.6802   0.0493   0.9783 C.2            1 S1                 0.0000
      5 ****        -1.1226   0.7399  -0.1796 N.am           1 S1                 0.0000
      6 ****        -0.0407   0.1317  -1.0644 C.3            1 S1                 0.0000
      7 ****         1.2016   0.4823  -0.5429 O.3            1 S1                 0.0000
      8 ****         1.6456  -0.5606   0.3114 C.3            1 S1                 0.0000
      9 ****         3.1665  -0.4721   0.5337 C.3            1 S1                 0.0000
     10 ****         3.8965  -0.8498  -0.6158 O.3            1 S1                 0.0000
     11 ****         1.1065  -1.8630  -0.3105 C.3            1 S1                 0.0000
     12 ****         0.6677  -2.7370   0.7105 O.3            1 S1                 0.0000
     13 ****        -0.0775  -1.4089  -1.1742 C.3            1 S1                 0.0000
     14 ****         0.1090  -1.8230  -2.5127 O.3            1 S1                 0.0000
     15 ****        -1.4581   2.1017  -0.3953 C.2            1 S1                 0.0000
     16 ****        -0.9503   2.7777  -1.2898 O.2            1 S1                 0.0000
     17 ****        -2.3851   2.6199   0.4392 N.am           1 S1                 0.0000
     18 ****        -0.1818   0.5955  -2.0419 H              1 S1                 0.0000
     19 ****         1.1594  -0.3864   1.2730 H              1 S1                 0.0000
     20 ****         1.8597  -2.3686  -0.9156 H              1 S1                 0.0000
     21 ****        -1.0386  -1.8109  -0.8547 H              1 S1                 0.0000
     22 ****        -3.9777   3.4884   1.7791 H              1 S1                 0.0000
     23 ****        -1.2947  -0.9531   1.1580 H              1 S1                 0.0000
     24 ****         3.4514   0.5375   0.8305 H              1 S1                 0.0000
     25 ****         3.4568  -1.1373   1.3474 H              1 S1                 0.0000
     26 ****         4.8191  -0.7844  -0.4215 H              1 S1                 0.0000
     27 ****         0.3350  -3.5238   0.3062 H              1 S1                 0.0000
     28 ****        -0.6020  -1.4836  -3.0346 H              1 S1                 0.0000
     29 ****        -2.6552   3.5815   0.2936 H              1 S1                 0.0000
     30 ****        -4.3763   2.1902   2.9299 LP             1 S1                 0.0000
     31 ****        -2.9573   0.0809   2.5189 LP             1 S1                 0.0000
     32 ****         1.1207   1.3325  -0.0226 LP             1 S1                 0.0000
     33 ****         1.8562   0.6088  -1.2882 LP             1 S1                 0.0000
     34 ****         3.6681  -0.2407  -1.3753 LP             1 S1                 0.0000
     35 ****         3.6704  -1.7916  -0.8642 LP             1 S1                 0.0000
     36 ****        -0.0564  -2.2983   1.2426 LP             1 S1                 0.0000
     37 ****         1.4330  -2.9642   1.3128 LP             1 S1                 0.0000
     38 ****         0.1141  -2.8219  -2.5589 LP             1 S1                 0.0000
     39 ****         0.9787  -1.4690  -2.8570 LP             1 S1                 0.0000
     40 ****        -0.2715   2.3701  -1.9006 LP             1 S1                 0.0000
     41 ****        -1.2165   3.7347  -1.4058 LP             1 S1                 0.0000
@<TRIPOS>BOND
    1    1    2 2     
    2    1   22 1     
    3    2   17 1     
    4    2    3 1     
    5    3    4 2     
    6    4    5 1     
    7    4   23 1     
    8    5    6 1     
    9    5   15 am    
   10    6   18 1     
   11    6   13 1     
   12    6    7 1     
   13    7    8 1     
   14    8   19 1     
   15    8    9 1     
   16    8   11 1     
   17    9   10 1     
   18    9   24 1     
   19    9   25 1     
   20   10   26 1     
   21   11   20 1     
   22   11   12 1     
   23   11   13 1     
   24   12   27 1     
   25   13   21 1     
   26   13   14 1     
   27   14   28 1     
   28   15   16 2     
   29   15   17 am    
   30   17   29 1     
   31    1   30 1     
   32    3   31 1     
   33    7   32 1     
   34    7   33 1     
   35   10   34 1     
   36   10   35 1     
   37   12   36 1     
   38   12   37 1     
   39   14   38 1     
   40   14   39 1     
   41   16   40 1     
   42   16   41 1     
@<TRIPOS>SUBSTRUCTURE
      1 S1             1
@<TRIPOS>SET
LONE_PAIRS      STATIC     ATOMS    <user>   **** ""
12 30 31 32 33 34 35 36 37 38 39 40 41
DONOR_HYDROGENS      STATIC     ATOMS    <user>   **** ""
5 22 26 27 28 29
ATOM$BLUE        STATIC     ATOMS    COLORGROUP SYSTEM
12 30 31 32 33 34 35 36 37 38 39 40 41
ATOM$RED        STATIC     ATOMS    COLORGROUP SYSTEM
5 22 26 27 28 29
