AV-unprocessed.smi:47|AV-procd|sdf|435|dock1
  -GOLD-   2262016303D 1   1.00000     0.00000
 Structure written by MMmdl.
 31 33  0  0  0  0  0  0  0  0  1 V2000
  145.0657  140.1267  154.5960 O   0  0  0  0  0  0  0  0  0  0  0  0
  146.4747  140.0411  154.6104 C   0  0  1  0  0  0  0  0  0  0  0  0
  147.0500  139.6820  153.2466 C   0  0  0  0  0  0  0  0  0  0  0  0
  148.4417  140.1030  153.3172 N   0  0  0  0  0  0  0  0  0  0  0  0
  148.5100  141.2805  154.1912 C   0  0  2  0  0  0  0  0  0  0  0  0
  149.6457  141.2108  155.1659 C   0  0  0  0  0  0  0  0  0  0  0  0
  150.5960  140.2903  155.0382 N   0  0  0  0  0  0  0  0  0  0  0  0
  151.4253  140.6055  156.0544 N   0  0  0  0  0  0  0  0  0  0  0  0
  150.9661  141.6760  156.7151 C   0  0  0  0  0  0  0  0  0  0  0  0
  151.6283  142.2954  157.8654 C   0  0  0  0  0  0  0  0  0  0  0  0
  152.3271  141.5011  158.8042 C   0  0  0  0  0  0  0  0  0  0  0  0
  152.9671  142.0973  159.9083 C   0  0  0  0  0  0  0  0  0  0  0  0
  152.9154  143.4924  160.0855 C   0  0  0  0  0  0  0  0  0  0  0  0
  152.2218  144.2915  159.1576 C   0  0  0  0  0  0  0  0  0  0  0  0
  151.5814  143.6965  158.0532 C   0  0  0  0  0  0  0  0  0  0  0  0
  149.8253  142.1103  156.1801 N   0  0  0  0  0  0  0  0  0  0  0  0
  147.1481  141.3779  154.9056 C   0  0  0  0  0  0  0  0  0  0  0  0
  146.7854  139.2999  155.3487 H   0  0  0  0  0  0  0  0  0  0  0  0
  148.6418  142.1728  153.5775 H   0  0  0  0  0  0  0  0  0  0  0  0
  152.2706  140.0890  156.2508 H   0  0  0  0  0  0  0  0  0  0  0  0
  144.7759  140.1458  153.6966 H   0  0  0  0  0  0  0  0  0  0  0  0
  146.9554  138.6213  153.0132 H   0  0  0  0  0  0  0  0  0  0  0  0
  146.5370  140.2448  152.4655 H   0  0  0  0  0  0  0  0  0  0  0  0
  148.7594  140.3459  152.3845 H   0  0  0  0  0  0  0  0  0  0  0  0
  152.3809  140.4289  158.6878 H   0  0  0  0  0  0  0  0  0  0  0  0
  153.4992  141.4829  160.6197 H   0  0  0  0  0  0  0  0  0  0  0  0
  153.4069  143.9491  160.9319 H   0  0  0  0  0  0  0  0  0  0  0  0
  152.1811  145.3625  159.2917 H   0  0  0  0  0  0  0  0  0  0  0  0
  151.0553  144.3286  157.3529 H   0  0  0  0  0  0  0  0  0  0  0  0
  146.5724  142.1905  154.4595 H   0  0  0  0  0  0  0  0  0  0  0  0
  147.2254  141.5827  155.9744 H   0  0  0  0  0  0  0  0  0  0  0  0
  1  2  1  0  0  0  0
  1 21  1  0  0  0  0
  2 18  1  0  0  0  0
  2 17  1  0  0  0  0
  2  3  1  0  0  0  0
  3  4  1  0  0  0  0
  3 22  1  0  0  0  0
  3 23  1  0  0  0  0
  4  5  1  0  0  0  0
  4 24  1  0  0  0  0
  5 19  1  0  0  0  0
  5  6  1  0  0  0  0
  5 17  1  0  0  0  0
  6 16  1  0  0  0  0
  6  7  2  0  0  0  0
  7  8  1  0  0  0  0
  8 20  1  0  0  0  0
  8  9  1  0  0  0  0
  9 10  1  0  0  0  0
  9 16  2  0  0  0  0
 10 15  1  0  0  0  0
 10 11  2  0  0  0  0
 11 12  1  0  0  0  0
 11 25  1  0  0  0  0
 12 13  2  0  0  0  0
 12 26  1  0  0  0  0
 13 14  1  0  0  0  0
 13 27  1  0  0  0  0
 14 15  2  0  0  0  0
 14 28  1  0  0  0  0
 15 29  1  0  0  0  0
 17 30  1  0  0  0  0
 17 31  1  0  0  0  0
M  END
> <s_m_source_file>
AV-unprocessed.smi

> <i_m_source_file_index>
47

> <i_lp_mmshare_version>
43012

> <i_f3d_flags>
0

> <s_epik_input>
W09IXVtDQEhdMVtDSDJdW05IXVtDQEBIXShbQ0gyXTEpYzJuW25IXWMobjIpLWMzW2NIXVtjSF1bY0hdW2NIXVtjSF0z

> <s_epik_cmdline>
J2VwaWtfcHl0aG9uJywgJy1waCcsICc3LjAnLCAnLXRuJywgJzgnLCAnLW1hJywgJzIwMCcsICctbWV0YWxfYmluZGluZycsICctaW1hZScsICc8aW5maWxlLm1hZT4nLCAnLW9tYWUnLCAnPG91dGZpbGUubWFlPic=

> <r_epik_Ionization_Penalty>
1.65981

> <r_epik_Ionization_Penalty_Charging>
0

> <r_epik_Ionization_Penalty_Neutral>
1.65981

> <r_epik_State_Penalty>
2.0492

> <r_epik_Charging_Adjusted_Penalty>
2.0492

> <i_epik_Tot_Q>
0

> <i_epik_Tot_abs_Q>
0

> <r_epik_Metal_State_Penalty>
2.54641

> <b_epik_Metal_Only>
0

> <s_lp_Force_Field>
OPLS_2005

> <r_lp_Energy>
25.8537

> <b_lp_Chiralities_Consistent>
1

> <s_lp_Variant>
AV-unprocessed.smi:47-13

> <Gold.Version>
5.8.1

> <Gold.Id.Protein>
6NUR|6NUR_protein|mol2

> <Gold.PLP.Fitness>
43.6666

> <Gold.PLP.PLP>
-36.0689

> <Gold.PLP.part.hbond>
-2.7517

> <Gold.PLP.part.metal>
0.0000

> <Gold.PLP.part.buried>
-7.1375

> <Gold.PLP.part.nonpolar>
-29.8934

> <Gold.PLP.part.repulsive>
2.2785

> <Gold.PLP.ligand.clash>
0.0000

> <Gold.PLP.ligand.torsion>
0.6720

> <Gold.PLP.Chemscore.Hbond>
2.9750

> <Gold.PLP.Chemscore.CHOScore>
0.0000

> <Gold.PLP.Chemscore.Metal>
0.0000

> <Gold.Chemscore.Hbonds>
donor molecule, donor type, donor heavy atom, donor atom, acceptor molecule, acceptor atom, score
      L1  H     1    21       P1 10175  1.00
      L1  H     4    24       P1  7957  0.96
      P1  H  7989  7998       L1     7  1.00

> <Gold.PLP.Chemscore.Internal.Correction>
0.0167

> <Gold.Rescore>
     Score         DG    S(hbond)    S(metal)    S(lipo)     H(rot)  DE(clash)    DE(int)     intcor
     17.45     -18.79       2.03        0.00      88.20       1.48       0.87       0.48       ----

> <Gold.Chemscore.Fitness>
17.4484

> <Gold.Chemscore.DG>
-18.7935

> <Gold.Chemscore.ZeroCoef>
-5.4800

> <Gold.Chemscore.Hbond>
2.0297

> <Gold.Chemscore.Metal>
0.0000

> <Gold.Chemscore.Lipo>
88.2027

> <Gold.Chemscore.Internal_Hbond>
0.0000

> <Gold.Chemscore.DEClash>
0.8694

> <Gold.Chemscore.DEInternal>
0.4757

> <Gold.Chemscore.Rot>
1.4786

> <Gold.Chemscore.Internal.Correction>
   9.000000E+99

> <Gold.Chemscore.Hbonds>
donor molecule, donor type, donor heavy atom, donor atom, acceptor molecule, acceptor atom, score
      L1  H     1    21       P1 10175  0.97
      L1  H     4    24       P1  7957  0.87
      P1  H  7989  7998       L1     7  0.13

> <Gold.Chemscore.Hbond.Weighted>
-6.7791

> <Gold.Chemscore.Metal.Weighted>
-0.0000

> <Gold.Chemscore.Lipo.Weighted>
-10.3197

> <Gold.Chemscore.Internal_Hbond.Weighted>
0.0000

> <Gold.Chemscore.DEClash.Weighted>
0.8694

> <Gold.Chemscore.DEInternal.Weighted>
0.4757

> <Gold.Chemscore.Rot.Weighted>
3.7853

> <Gold.Chemscore.Internal.Correction.Weighted>
   9.000000E+99

> <Gold.Protein.RotatedTorsions>
[ 6907 6896 6895 6894 ] final -165.87 input  -60.11 | X-H torsion
[ 7974 7965 7964 7962 ] final -175.84 input  175.53 | X-H torsion
[ 8008 7997 7996 7995 ] final -100.05 input   59.86 | X-H torsion
[ 10167 10162 10161 10158 ] final  -69.56 input  -65.29 | X-H torsion
[ 10718 10713 10712 10709 ] final  159.00 input   66.30 | X-H torsion
[ 10763 10752 10751 10750 ] final -164.79 input  -60.55 | X-H torsion
[ 11005 11000 10999 10996 ] final -152.97 input  -57.11 | X-H torsion

> <Gold.Protein.ActiveResidues>
 VAL166  LYS551  ARG553  GLY616  TRP617  ASP618  TYR619  PRO620  LYS621  CYS622 
 ASP623  PHE694  ASN695  SER759  ASP760  ASP761  ALA762  ILE779  LEU786  VAL792 
 PHE793  MET794  SER795  GLU796  ALA797  LYS798  CYS799  TRP800  GLU811  SER814 

> <Gold.Protein.RotatedAtoms>
  151.4345  133.3661  159.2773 H   0  0  0  0  0  0  0  0  0  0  0  0  # atno 6907 bound_to 6896
  150.9201  134.8620  159.7494 H   0  0  0  0  0  0  0  0  0  0  0  0  # atno 6908 bound_to 6896
  152.4977  134.4282  159.9555 H   0  0  0  0  0  0  0  0  0  0  0  0  # atno 6909 bound_to 6896
  144.7127  140.1260  143.6402 H   0  0  0  0  0  0  0  0  0  0  0  0  # atno 7974 bound_to 7965
  154.8233  140.0443  157.1426 H   0  0  0  0  0  0  0  0  0  0  0  0  # atno 8008 bound_to 7997
  154.9235  140.3030  155.5184 H   0  0  0  0  0  0  0  0  0  0  0  0  # atno 8009 bound_to 7997
  156.2982  140.2336  156.4287 H   0  0  0  0  0  0  0  0  0  0  0  0  # atno 8010 bound_to 7997
  140.5421  143.2314  151.7070 H   0  0  0  0  0  0  0  0  0  0  0  0  # atno 10167 bound_to 10162
  157.1702  131.0608  151.2186 H   0  0  0  0  0  0  0  0  0  0  0  0  # atno 10718 bound_to 10713
  154.6994  135.2985  154.9363 H   0  0  0  0  0  0  0  0  0  0  0  0  # atno 10763 bound_to 10752
  154.0300  135.6671  153.4784 H   0  0  0  0  0  0  0  0  0  0  0  0  # atno 10764 bound_to 10752
  153.0670  135.5082  154.8130 H   0  0  0  0  0  0  0  0  0  0  0  0  # atno 10765 bound_to 10752
  140.7131  134.3810  157.5195 H   0  0  0  0  0  0  0  0  0  0  0  0  # atno 11005 bound_to 11000
  145.9329  139.2618  143.1314 LP  0  0  0  0  0  0  0  0  0  0  0  0  # atno 17320 bound_to 7965
  145.9504  140.8913  143.0262 LP  0  0  0  0  0  0  0  0  0  0  0  0  # atno 17321 bound_to 7965
  139.4993  144.3953  152.0238 LP  0  0  0  0  0  0  0  0  0  0  0  0  # atno 17342 bound_to 10162
  140.3062  144.3590  150.6046 LP  0  0  0  0  0  0  0  0  0  0  0  0  # atno 17343 bound_to 10162
  157.4050  130.7354  149.6796 LP  0  0  0  0  0  0  0  0  0  0  0  0  # atno 17370 bound_to 10713
  155.9739  130.4110  150.3961 LP  0  0  0  0  0  0  0  0  0  0  0  0  # atno 17371 bound_to 10713
  139.8866  134.8904  156.2573 LP  0  0  0  0  0  0  0  0  0  0  0  0  # atno 17394 bound_to 11000
  141.0067  133.7119  156.1046 LP  0  0  0  0  0  0  0  0  0  0  0  0  # atno 17395 bound_to 11000

$$$$
