AV-unprocessed.smi:162|AV-procd|sdf|1377|dock7
  -GOLD-   2262019103D 1   1.00000     0.00000
 Structure written by MMmdl.
 54 57  0  0  0  0  0  0  0  0  1 V2000
  152.7014  138.7139  154.7784 C   0  0  0  0  0  0  0  0  0  0  0  0
  152.6620  139.5934  155.8881 O   0  0  0  0  0  0  0  0  0  0  0  0
  151.7991  139.1326  156.9142 C   0  0  0  0  0  0  0  0  0  0  0  0
  151.2100  140.3432  157.6557 C   0  0  1  0  0  0  0  0  0  0  0  0
  152.1383  140.9425  158.7101 C   0  0  0  0  0  0  0  0  0  0  0  0
  151.5249  142.3276  158.9141 C   0  0  1  0  0  0  0  0  0  0  0  0
  152.4484  143.2894  159.4026 O   0  0  0  0  0  0  0  0  0  0  0  0
  152.7897  143.1044  160.7666 C   0  0  0  0  0  0  0  0  0  0  0  0
  151.0435  142.7036  157.5073 C   0  0  0  0  0  0  0  0  0  0  0  0
  150.9033  141.4555  156.7615 N   0  0  0  0  0  0  0  0  0  0  0  0
  149.7500  141.3228  156.0711 C   0  0  0  0  0  0  0  0  0  0  0  0
  149.8500  141.1402  154.7320 N   0  0  0  0  0  0  0  0  0  0  0  0
  148.7454  140.9839  153.9957 C   0  0  0  0  0  0  0  0  0  0  0  0
  147.4710  140.9736  154.3931 N   0  0  0  0  0  0  0  0  0  0  0  0
  147.3697  141.1553  155.7412 C   0  0  0  0  0  0  0  0  0  0  0  0
  148.4492  141.3395  156.6493 C   0  0  0  0  0  0  0  0  0  0  0  0
  147.9623  141.4918  157.9421 N   0  0  0  0  0  0  0  0  0  0  0  0
  146.6675  141.3997  157.8058 C   0  0  0  0  0  0  0  0  0  0  0  0
  146.2257  141.1880  156.5191 N   0  0  0  0  0  0  0  0  0  0  0  0
  144.8457  141.0353  156.0846 C   0  0  0  0  0  0  0  0  0  0  0  0
  144.1690  142.3668  155.6747 C   0  0  0  0  0  0  0  0  0  0  0  0
  142.9506  142.0463  155.0252 O   0  0  0  0  0  0  0  0  0  0  0  0
  143.8472  143.2144  156.9219 C   0  0  0  0  0  0  0  0  0  0  0  0
  143.3269  144.6152  156.5535 C   0  0  0  0  0  0  0  0  0  0  0  0
  144.2610  145.2745  155.7072 O   0  0  0  0  0  0  0  0  0  0  0  0
  144.4478  144.6045  154.4664 C   0  0  0  0  0  0  0  0  0  0  0  0
  145.0343  143.2018  154.7050 C   0  0  0  0  0  0  0  0  0  0  0  0
  150.2912  140.0271  158.1524 H   0  0  0  0  0  0  0  0  0  0  0  0
  150.6567  142.2548  159.5721 H   0  0  0  0  0  0  0  0  0  0  0  0
  153.3760  139.1108  154.0198 H   0  0  0  0  0  0  0  0  0  0  0  0
  151.7145  138.6041  154.3272 H   0  0  0  0  0  0  0  0  0  0  0  0
  153.0652  137.7276  155.0697 H   0  0  0  0  0  0  0  0  0  0  0  0
  151.0008  138.5183  156.4940 H   0  0  0  0  0  0  0  0  0  0  0  0
  152.3646  138.5062  157.6060 H   0  0  0  0  0  0  0  0  0  0  0  0
  152.1762  140.3512  159.6253 H   0  0  0  0  0  0  0  0  0  0  0  0
  153.1524  141.0334  158.3176 H   0  0  0  0  0  0  0  0  0  0  0  0
  153.4732  143.8934  161.0800 H   0  0  0  0  0  0  0  0  0  0  0  0
  153.2881  142.1483  160.9295 H   0  0  0  0  0  0  0  0  0  0  0  0
  151.9067  143.1530  161.4050 H   0  0  0  0  0  0  0  0  0  0  0  0
  150.1307  143.3000  157.5428 H   0  0  0  0  0  0  0  0  0  0  0  0
  151.8000  143.3023  156.9992 H   0  0  0  0  0  0  0  0  0  0  0  0
  148.9061  140.8442  152.9369 H   0  0  0  0  0  0  0  0  0  0  0  0
  145.9937  141.4751  158.6470 H   0  0  0  0  0  0  0  0  0  0  0  0
  144.8241  140.3260  155.2559 H   0  0  0  0  0  0  0  0  0  0  0  0
  144.2868  140.5681  156.8964 H   0  0  0  0  0  0  0  0  0  0  0  0
  143.1314  141.4186  154.3422 H   0  0  0  0  0  0  0  0  0  0  0  0
  143.1246  142.7020  157.5585 H   0  0  0  0  0  0  0  0  0  0  0  0
  144.7514  143.3314  157.5209 H   0  0  0  0  0  0  0  0  0  0  0  0
  142.3527  144.5586  156.0656 H   0  0  0  0  0  0  0  0  0  0  0  0
  143.1922  145.2107  157.4566 H   0  0  0  0  0  0  0  0  0  0  0  0
  143.5027  144.5488  153.9241 H   0  0  0  0  0  0  0  0  0  0  0  0
  145.1292  145.1918  153.8507 H   0  0  0  0  0  0  0  0  0  0  0  0
  146.0358  143.3122  155.1226 H   0  0  0  0  0  0  0  0  0  0  0  0
  145.1554  142.6894  153.7497 H   0  0  0  0  0  0  0  0  0  0  0  0
  1  2  1  0  0  0  0
  1 30  1  0  0  0  0
  1 31  1  0  0  0  0
  1 32  1  0  0  0  0
  2  3  1  0  0  0  0
  3  4  1  0  0  0  0
  3 33  1  0  0  0  0
  3 34  1  0  0  0  0
  4 28  1  0  0  0  0
  4 10  1  0  0  0  0
  4  5  1  0  0  0  0
  5  6  1  0  0  0  0
  5 35  1  0  0  0  0
  5 36  1  0  0  0  0
  6 29  1  0  0  0  0
  6  7  1  0  0  0  0
  6  9  1  0  0  0  0
  7  8  1  0  0  0  0
  8 37  1  0  0  0  0
  8 38  1  0  0  0  0
  8 39  1  0  0  0  0
  9 10  1  0  0  0  0
  9 40  1  0  0  0  0
  9 41  1  0  0  0  0
 10 11  1  0  0  0  0
 11 16  1  0  0  0  0
 11 12  2  0  0  0  0
 12 13  1  0  0  0  0
 13 14  2  0  0  0  0
 13 42  1  0  0  0  0
 14 15  1  0  0  0  0
 15 19  1  0  0  0  0
 15 16  2  0  0  0  0
 16 17  1  0  0  0  0
 17 18  2  0  0  0  0
 18 19  1  0  0  0  0
 18 43  1  0  0  0  0
 19 20  1  0  0  0  0
 20 21  1  0  0  0  0
 20 44  1  0  0  0  0
 20 45  1  0  0  0  0
 21 27  1  0  0  0  0
 21 22  1  0  0  0  0
 21 23  1  0  0  0  0
 22 46  1  0  0  0  0
 23 24  1  0  0  0  0
 23 47  1  0  0  0  0
 23 48  1  0  0  0  0
 24 25  1  0  0  0  0
 24 49  1  0  0  0  0
 24 50  1  0  0  0  0
 25 26  1  0  0  0  0
 26 27  1  0  0  0  0
 26 51  1  0  0  0  0
 26 52  1  0  0  0  0
 27 53  1  0  0  0  0
 27 54  1  0  0  0  0
M  END
> <s_m_source_file>
AV-unprocessed.smi

> <i_m_source_file_index>
162

> <i_lp_mmshare_version>
43012

> <i_f3d_flags>
0

> <s_epik_input>
W0NIM11PW0NIMl1bQ0BASF0xW0NIMl1bQ0BASF0oT1tDSDNdKVtDSDJdTjFjKG5bY0hdbjIpYyhjMjMpbltjSF1uM1tDSDJdQzQoW09IXSlbQ0gyXVtDSDJdT1tDSDJdW0NIMl00

> <s_epik_cmdline>
J2VwaWtfcHl0aG9uJywgJy1waCcsICc3LjAnLCAnLXRuJywgJzgnLCAnLW1hJywgJzIwMCcsICctbWV0YWxfYmluZGluZycsICctaW1hZScsICc8aW5maWxlLm1hZT4nLCAnLW9tYWUnLCAnPG91dGZpbGUubWFlPic=

> <r_lp_tautomer_probability>
1

> <r_epik_Ionization_Penalty>
0.00660334

> <r_epik_Ionization_Penalty_Charging>
0

> <r_epik_Ionization_Penalty_Neutral>
0.00660334

> <r_epik_State_Penalty>
0.00469459

> <r_epik_Charging_Adjusted_Penalty>
0.00469459

> <i_epik_Tot_Q>
0

> <i_epik_Tot_abs_Q>
0

> <r_epik_Metal_State_Penalty>
-0

> <b_epik_Metal_Only>
0

> <s_lp_Force_Field>
OPLS_2005

> <r_lp_Energy>
41.7702

> <b_lp_Chiralities_Consistent>
1

> <s_lp_Variant>
AV-unprocessed.smi:162-2

> <Gold.Version>
5.8.1

> <Gold.Id.Protein>
6NUR|6NUR_protein|mol2

> <Gold.PLP.Fitness>
46.1273

> <Gold.PLP.PLP>
-37.6403

> <Gold.PLP.part.hbond>
-4.0000

> <Gold.PLP.part.metal>
0.0000

> <Gold.PLP.part.buried>
-5.8266

> <Gold.PLP.part.nonpolar>
-28.0081

> <Gold.PLP.part.repulsive>
0.4726

> <Gold.PLP.ligand.clash>
0.0000

> <Gold.PLP.ligand.torsion>
1.0162

> <Gold.PLP.Chemscore.Hbond>
2.4521

> <Gold.PLP.Chemscore.CHOScore>
1.0000

> <Gold.PLP.Chemscore.Metal>
0.0000

> <Gold.Chemscore.Hbonds>
donor molecule, donor type, donor heavy atom, donor atom, acceptor molecule, acceptor atom, score
      L1  H    22    46       P1 10175  0.70
      P1  H  7989  7998       L1    12  0.38
      P1  H  7997  8010       L1     2  1.00
      L1  C    13    42       P1  7957  1.00

> <Gold.PLP.Chemscore.Internal.Correction>
0.1630

> <Gold.Rescore>
     Score         DG    S(hbond)    S(metal)    S(lipo)     H(rot)  DE(clash)    DE(int)     intcor
     12.45     -13.86       1.94        0.00      79.00       2.86       0.02       1.39       ----

> <Gold.Chemscore.Fitness>
12.4477

> <Gold.Chemscore.DG>
-13.8593

> <Gold.Chemscore.ZeroCoef>
-5.4800

> <Gold.Chemscore.Hbond>
1.9368

> <Gold.Chemscore.Metal>
0.0000

> <Gold.Chemscore.Lipo>
78.9980

> <Gold.Chemscore.Internal_Hbond>
0.0000

> <Gold.Chemscore.DEClash>
0.0180

> <Gold.Chemscore.DEInternal>
1.3937

> <Gold.Chemscore.Rot>
2.8642

> <Gold.Chemscore.Internal.Correction>
   9.000000E+99

> <Gold.Chemscore.Hbonds>
donor molecule, donor type, donor heavy atom, donor atom, acceptor molecule, acceptor atom, score
      L1  H    22    46       P1 10175  0.12
      P1  H  7989  7998       L1    12  0.29
      P1  H  7997  8010       L1     2  0.60

> <Gold.Chemscore.Hbond.Weighted>
-6.4689

> <Gold.Chemscore.Metal.Weighted>
-0.0000

> <Gold.Chemscore.Lipo.Weighted>
-9.2428

> <Gold.Chemscore.Internal_Hbond.Weighted>
0.0000

> <Gold.Chemscore.DEClash.Weighted>
0.0180

> <Gold.Chemscore.DEInternal.Weighted>
1.3937

> <Gold.Chemscore.Rot.Weighted>
7.3324

> <Gold.Chemscore.Internal.Correction.Weighted>
   9.000000E+99

> <Gold.Protein.RotatedTorsions>
[ 6907 6896 6895 6894 ] final  -52.54 input  -60.11 | X-H torsion
[ 7974 7965 7964 7962 ] final  114.24 input  175.53 | X-H torsion
[ 8008 7997 7996 7995 ] final   85.40 input   59.86 | X-H torsion
[ 10167 10162 10161 10158 ] final  -32.50 input  -65.29 | X-H torsion
[ 10718 10713 10712 10709 ] final  -53.94 input   66.30 | X-H torsion
[ 10763 10752 10751 10750 ] final   -2.16 input  -60.55 | X-H torsion
[ 11005 11000 10999 10996 ] final  -37.96 input  -57.11 | X-H torsion

> <Gold.Protein.ActiveResidues>
 VAL166  LYS551  ARG553  GLY616  TRP617  ASP618  TYR619  PRO620  LYS621  CYS622 
 ASP623  PHE694  ASN695  SER759  ASP760  ASP761  ALA762  ILE779  LEU786  VAL792 
 PHE793  MET794  SER795  GLU796  ALA797  LYS798  CYS799  TRP800  GLU811  SER814 

> <Gold.Protein.RotatedAtoms>
  150.8509  134.7833  159.7007 H   0  0  0  0  0  0  0  0  0  0  0  0  # atno 6907 bound_to 6896
  152.4574  134.5258  159.9806 H   0  0  0  0  0  0  0  0  0  0  0  0  # atno 6908 bound_to 6896
  151.5379  133.3399  159.2966 H   0  0  0  0  0  0  0  0  0  0  0  0  # atno 6909 bound_to 6896
  145.2069  139.2925  143.4288 H   0  0  0  0  0  0  0  0  0  0  0  0  # atno 7974 bound_to 7965
  155.9496  140.3402  155.6396 H   0  0  0  0  0  0  0  0  0  0  0  0  # atno 8008 bound_to 7997
  155.6937  140.0752  157.2456 H   0  0  0  0  0  0  0  0  0  0  0  0  # atno 8009 bound_to 7997
  154.4119  140.1652  156.2102 H   0  0  0  0  0  0  0  0  0  0  0  0  # atno 8010 bound_to 7997
  140.7220  143.3690  151.1815 H   0  0  0  0  0  0  0  0  0  0  0  0  # atno 10167 bound_to 10162
  156.1492  130.4152  149.9972 H   0  0  0  0  0  0  0  0  0  0  0  0  # atno 10718 bound_to 10713
  153.3543  135.6987  153.6763 H   0  0  0  0  0  0  0  0  0  0  0  0  # atno 10763 bound_to 10752
  153.5477  135.3560  155.2747 H   0  0  0  0  0  0  0  0  0  0  0  0  # atno 10764 bound_to 10752
  154.8658  135.4219  154.2786 H   0  0  0  0  0  0  0  0  0  0  0  0  # atno 10765 bound_to 10752
  140.9992  133.6964  156.1990 H   0  0  0  0  0  0  0  0  0  0  0  0  # atno 11005 bound_to 11000
  146.3406  140.2333  142.8594 LP  0  0  0  0  0  0  0  0  0  0  0  0  # atno 17320 bound_to 7965
  144.9893  140.8532  143.5349 LP  0  0  0  0  0  0  0  0  0  0  0  0  # atno 17321 bound_to 7965
  139.7257  143.9151  152.3002 LP  0  0  0  0  0  0  0  0  0  0  0  0  # atno 17342 bound_to 10162
  139.8924  144.6958  150.8756 LP  0  0  0  0  0  0  0  0  0  0  0  0  # atno 17343 bound_to 10162
  156.7835  130.9230  151.3646 LP  0  0  0  0  0  0  0  0  0  0  0  0  # atno 17370 bound_to 10713
  157.6643  130.8993  149.9897 LP  0  0  0  0  0  0  0  0  0  0  0  0  # atno 17371 bound_to 10713
  140.6917  134.4659  157.5588 LP  0  0  0  0  0  0  0  0  0  0  0  0  # atno 17394 bound_to 11000
  139.9030  134.8513  156.1819 LP  0  0  0  0  0  0  0  0  0  0  0  0  # atno 17395 bound_to 11000

$$$$
