AV-unprocessed.smi:1985|AV-procd|sdf|8045|dock3
  -GOLD-   2272010243D 1   1.00000     0.00000
 Structure written by MMmdl.
 51 52  0  0  0  0  0  0  0  0  2 V2000
  145.2518  135.5934  150.5712 C   0  0  0  0  0  0  0  0  0  0  0  0
  145.5316  136.6883  151.6160 C   0  0  0  0  0  0  0  0  0  0  0  0
  145.6173  136.2014  153.0950 C   0  0  2  0  0  0  0  0  0  0  0  0
  144.2466  135.5700  153.4574 C   0  0  0  0  0  0  0  0  0  0  0  0
  145.8731  137.4290  154.0189 C   0  0  0  0  0  0  0  0  0  0  0  0
  147.0615  138.1887  153.6417 N   0  0  0  0  0  0  0  0  0  0  0  0
  147.1809  139.5183  153.7590 C   0  0  0  0  0  0  0  0  0  0  0  0
  146.3000  140.2314  154.2414 O   0  0  0  0  0  0  0  0  0  0  0  0
  148.5031  140.1206  153.2630 C   0  0  0  0  0  0  0  0  0  0  0  0
  149.6179  139.9346  154.2015 N   0  0  0  0  0  0  0  0  0  0  0  0
  149.9936  140.9747  155.0319 C   0  0  0  0  0  0  0  0  0  0  0  0
  151.0132  140.8928  155.9141 C   0  0  0  0  0  0  0  0  0  0  0  0
  151.7931  139.6684  156.0438 C   0  0  0  0  0  0  0  0  0  0  0  0
  152.7443  139.5531  156.8178 O   0  0  0  0  0  0  0  0  0  0  0  0
  151.3797  138.6151  155.1949 N   0  0  0  0  0  0  0  0  0  0  0  0
  152.1319  137.3788  155.2558 C   0  0  0  0  0  0  0  0  0  0  0  0
  150.3217  138.7116  154.2618 C   0  0  0  0  0  0  0  0  0  0  0  0
  150.0154  137.7787  153.5153 O   0  0  0  0  0  0  0  0  0  0  0  0
  146.7207  135.1824  153.2435 N   0  3  0  0  0  0  0  0  0  0  0  0
  147.3151  135.0618  154.6053 C   0  0  0  0  0  0  0  0  0  0  0  0
  148.5514  134.1491  154.5758 C   0  0  0  0  0  0  0  0  0  0  0  0
  148.1832  132.8695  154.0818 O   0  0  0  0  0  0  0  0  0  0  0  0
  147.6922  132.9423  152.7510 C   0  0  0  0  0  0  0  0  0  0  0  0
  146.4314  133.8224  152.7052 C   0  0  0  0  0  0  0  0  0  0  0  0
  145.2126  136.0245  149.5705 H   0  0  0  0  0  0  0  0  0  0  0  0
  144.2960  135.1004  150.7466 H   0  0  0  0  0  0  0  0  0  0  0  0
  146.0295  134.8298  150.5633 H   0  0  0  0  0  0  0  0  0  0  0  0
  146.4414  137.2184  151.3352 H   0  0  0  0  0  0  0  0  0  0  0  0
  144.7455  137.4385  151.5232 H   0  0  0  0  0  0  0  0  0  0  0  0
  143.4140  136.1974  153.1374 H   0  0  0  0  0  0  0  0  0  0  0  0
  144.1310  135.4346  154.5331 H   0  0  0  0  0  0  0  0  0  0  0  0
  144.1118  134.5959  152.9864 H   0  0  0  0  0  0  0  0  0  0  0  0
  145.0258  138.1144  153.9983 H   0  0  0  0  0  0  0  0  0  0  0  0
  145.9917  137.1076  155.0542 H   0  0  0  0  0  0  0  0  0  0  0  0
  147.8324  137.6734  153.2417 H   0  0  0  0  0  0  0  0  0  0  0  0
  148.7453  139.6666  152.3012 H   0  0  0  0  0  0  0  0  0  0  0  0
  148.3654  141.1841  153.0601 H   0  0  0  0  0  0  0  0  0  0  0  0
  149.4487  141.9056  154.9709 H   0  0  0  0  0  0  0  0  0  0  0  0
  151.2572  141.7459  156.5301 H   0  0  0  0  0  0  0  0  0  0  0  0
  151.5201  136.5470  154.9055 H   0  0  0  0  0  0  0  0  0  0  0  0
  152.4059  137.1817  156.2936 H   0  0  0  0  0  0  0  0  0  0  0  0
  153.0133  137.5142  154.6275 H   0  0  0  0  0  0  0  0  0  0  0  0
  147.6199  136.0303  154.9968 H   0  0  0  0  0  0  0  0  0  0  0  0
  146.5864  134.6466  155.3019 H   0  0  0  0  0  0  0  0  0  0  0  0
  149.3425  134.5808  153.9604 H   0  0  0  0  0  0  0  0  0  0  0  0
  148.9571  134.0343  155.5811 H   0  0  0  0  0  0  0  0  0  0  0  0
  148.4640  133.3331  152.0858 H   0  0  0  0  0  0  0  0  0  0  0  0
  147.4584  131.9346  152.4068 H   0  0  0  0  0  0  0  0  0  0  0  0
  145.6361  133.3488  153.2812 H   0  0  0  0  0  0  0  0  0  0  0  0
  146.0998  133.8613  151.6694 H   0  0  0  0  0  0  0  0  0  0  0  0
  147.4665  135.5362  152.6613 H   0  0  0  0  0  0  0  0  0  0  0  0
  1  2  1  0  0  0  0
  1 25  1  0  0  0  0
  1 26  1  0  0  0  0
  1 27  1  0  0  0  0
  2  3  1  0  0  0  0
  2 28  1  0  0  0  0
  2 29  1  0  0  0  0
  3  4  1  0  0  0  0
  3  5  1  0  0  0  0
  3 19  1  0  0  0  0
  4 30  1  0  0  0  0
  4 31  1  0  0  0  0
  4 32  1  0  0  0  0
  5  6  1  0  0  0  0
  5 33  1  0  0  0  0
  5 34  1  0  0  0  0
  6  7  1  0  0  0  0
  6 35  1  0  0  0  0
  7  8  2  0  0  0  0
  7  9  1  0  0  0  0
  9 10  1  0  0  0  0
  9 36  1  0  0  0  0
  9 37  1  0  0  0  0
 10 17  1  0  0  0  0
 10 11  1  0  0  0  0
 11 12  2  0  0  0  0
 11 38  1  0  0  0  0
 12 13  1  0  0  0  0
 12 39  1  0  0  0  0
 13 14  2  0  0  0  0
 13 15  1  0  0  0  0
 15 16  1  0  0  0  0
 15 17  1  0  0  0  0
 16 40  1  0  0  0  0
 16 41  1  0  0  0  0
 16 42  1  0  0  0  0
 17 18  2  0  0  0  0
 19 24  1  0  0  0  0
 19 20  1  0  0  0  0
 19 51  1  0  0  0  0
 20 21  1  0  0  0  0
 20 43  1  0  0  0  0
 20 44  1  0  0  0  0
 21 22  1  0  0  0  0
 21 45  1  0  0  0  0
 21 46  1  0  0  0  0
 22 23  1  0  0  0  0
 23 24  1  0  0  0  0
 23 47  1  0  0  0  0
 23 48  1  0  0  0  0
 24 49  1  0  0  0  0
 24 50  1  0  0  0  0
M  CHG  1  19   1
M  END
> <s_m_source_file>
AV-unprocessed.smi

> <i_m_source_file_index>
1985

> <i_lp_mmshare_version>
43012

> <i_f3d_flags>
0

> <s_epik_input>
W0NIMl0xW0NIMl1PW0NIMl1bQ0gyXU4xW0NAQF0oW0NIM10pKFtDSDJdW0NIM10pW0NIMl1bTkhdQyg9TylbQ0gyXW4yW2NIXVtjSF1jKD1PKW4oW0NIM10pYzI9Tw==

> <s_epik_cmdline>
J2VwaWtfcHl0aG9uJywgJy1waCcsICc3LjAnLCAnLXRuJywgJzgnLCAnLW1hJywgJzIwMCcsICctbWV0YWxfYmluZGluZycsICctaW1hZScsICc8aW5maWxlLm1hZT4nLCAnLW9tYWUnLCAnPG91dGZpbGUubWFlPic=

> <r_lp_tautomer_probability>
1

> <r_epik_Ionization_Penalty>
0.519658

> <r_epik_Ionization_Penalty_Charging>
0.519658

> <r_epik_Ionization_Penalty_Neutral>
8.70177e-08

> <r_epik_State_Penalty>
0.527569

> <r_epik_Charging_Adjusted_Penalty>
1.04723

> <i_epik_Tot_Q>
1

> <i_epik_Tot_abs_Q>
1

> <r_epik_Metal_State_Penalty>
0.527613

> <b_epik_Metal_Only>
0

> <s_lp_Force_Field>
OPLS_2005

> <r_lp_Energy>
37.4979

> <b_lp_Chiralities_Consistent>
1

> <s_lp_Variant>
AV-unprocessed.smi:1985-4

> <Gold.Version>
5.8.1

> <Gold.Id.Protein>
6NUR|6NUR_protein|mol2

> <Gold.PLP.Fitness>
43.5172

> <Gold.PLP.PLP>
-34.0669

> <Gold.PLP.part.hbond>
-2.0000

> <Gold.PLP.part.metal>
0.0000

> <Gold.PLP.part.buried>
-0.8839

> <Gold.PLP.part.nonpolar>
-33.5015

> <Gold.PLP.part.repulsive>
1.7991

> <Gold.PLP.ligand.clash>
0.0000

> <Gold.PLP.ligand.torsion>
1.3623

> <Gold.PLP.Chemscore.Hbond>
2.9760

> <Gold.PLP.Chemscore.CHOScore>
1.0000

> <Gold.PLP.Chemscore.Metal>
0.0000

> <Gold.Chemscore.Hbonds>
donor molecule, donor type, donor heavy atom, donor atom, acceptor molecule, acceptor atom, score
      L1  H     6    35       P1  7948  0.37
      L1  H    19    51       P1  7948  2.00
      P1  H  7997  8008       L1    14  1.00

> <Gold.PLP.Chemscore.Internal.Correction>
0.2470

> <Gold.Rescore>
     Score         DG    S(hbond)    S(metal)    S(lipo)     H(rot)  DE(clash)    DE(int)     intcor
     11.85     -13.79       1.99        0.00      63.87       2.27       0.14       1.80       ----

> <Gold.Chemscore.Fitness>
11.8531

> <Gold.Chemscore.DG>
-13.7901

> <Gold.Chemscore.ZeroCoef>
-5.4800

> <Gold.Chemscore.Hbond>
1.9925

> <Gold.Chemscore.Metal>
0.0000

> <Gold.Chemscore.Lipo>
63.8686

> <Gold.Chemscore.Internal_Hbond>
0.0000

> <Gold.Chemscore.DEClash>
0.1410

> <Gold.Chemscore.DEInternal>
1.7960

> <Gold.Chemscore.Rot>
2.2724

> <Gold.Chemscore.Internal.Correction>
   9.000000E+99

> <Gold.Chemscore.Hbonds>
donor molecule, donor type, donor heavy atom, donor atom, acceptor molecule, acceptor atom, score
      L1  H     6    35       P1  7948  0.37
      L1  H    19    51       P1  7948  1.00
      P1  H  7997  8008       L1    14  1.00

> <Gold.Chemscore.Hbond.Weighted>
-6.6548

> <Gold.Chemscore.Metal.Weighted>
-0.0000

> <Gold.Chemscore.Lipo.Weighted>
-7.4726

> <Gold.Chemscore.Internal_Hbond.Weighted>
0.0000

> <Gold.Chemscore.DEClash.Weighted>
0.1410

> <Gold.Chemscore.DEInternal.Weighted>
1.7960

> <Gold.Chemscore.Rot.Weighted>
5.8174

> <Gold.Chemscore.Internal.Correction.Weighted>
   9.000000E+99

> <Gold.Protein.RotatedTorsions>
[ 6907 6896 6895 6894 ] final   49.81 input  -60.11 | X-H torsion
[ 7974 7965 7964 7962 ] final   52.68 input  175.53 | X-H torsion
[ 8008 7997 7996 7995 ] final  -62.98 input   59.86 | X-H torsion
[ 10167 10162 10161 10158 ] final  -58.71 input  -65.29 | X-H torsion
[ 10718 10713 10712 10709 ] final  -37.30 input   66.30 | X-H torsion
[ 10763 10752 10751 10750 ] final   73.90 input  -60.55 | X-H torsion
[ 11005 11000 10999 10996 ] final  175.36 input  -57.11 | X-H torsion

> <Gold.Protein.ActiveResidues>
 VAL166  LYS551  ARG553  GLY616  TRP617  ASP618  TYR619  PRO620  LYS621  CYS622 
 ASP623  PHE694  ASN695  SER759  ASP760  ASP761  ALA762  ILE779  LEU786  VAL792 
 PHE793  MET794  SER795  GLU796  ALA797  LYS798  CYS799  TRP800  GLU811  SER814 

> <Gold.Protein.RotatedAtoms>
  152.2949  134.7679  160.0369 H   0  0  0  0  0  0  0  0  0  0  0  0  # atno 6907 bound_to 6896
  151.8212  133.3389  159.3593 H   0  0  0  0  0  0  0  0  0  0  0  0  # atno 6908 bound_to 6896
  150.7247  134.5501  159.5835 H   0  0  0  0  0  0  0  0  0  0  0  0  # atno 6909 bound_to 6896
  145.9789  139.4222  143.0144 H   0  0  0  0  0  0  0  0  0  0  0  0  # atno 7974 bound_to 7965
  154.4529  140.0984  156.6671 H   0  0  0  0  0  0  0  0  0  0  0  0  # atno 8008 bound_to 7997
  155.5229  140.3479  155.4392 H   0  0  0  0  0  0  0  0  0  0  0  0  # atno 8009 bound_to 7997
  156.0718  140.1351  156.9808 H   0  0  0  0  0  0  0  0  0  0  0  0  # atno 8010 bound_to 7997
  140.6181  143.2409  151.5549 H   0  0  0  0  0  0  0  0  0  0  0  0  # atno 10167 bound_to 10162
  156.3168  130.4260  149.7998 H   0  0  0  0  0  0  0  0  0  0  0  0  # atno 10718 bound_to 10713
  153.0552  135.5045  154.7963 H   0  0  0  0  0  0  0  0  0  0  0  0  # atno 10763 bound_to 10752
  154.6795  135.2966  154.9635 H   0  0  0  0  0  0  0  0  0  0  0  0  # atno 10764 bound_to 10752
  154.0426  135.6715  153.4844 H   0  0  0  0  0  0  0  0  0  0  0  0  # atno 10765 bound_to 10752
  140.3613  134.7110  157.4333 H   0  0  0  0  0  0  0  0  0  0  0  0  # atno 11005 bound_to 11000
  145.7798  140.9861  143.1105 LP  0  0  0  0  0  0  0  0  0  0  0  0  # atno 17320 bound_to 7965
  144.6856  139.9550  143.7479 LP  0  0  0  0  0  0  0  0  0  0  0  0  # atno 17321 bound_to 7965
  139.5415  144.2635  152.1360 LP  0  0  0  0  0  0  0  0  0  0  0  0  # atno 17342 bound_to 10162
  140.1849  144.4809  150.6509 LP  0  0  0  0  0  0  0  0  0  0  0  0  # atno 17343 bound_to 10162
  156.5321  130.8262  151.3240 LP  0  0  0  0  0  0  0  0  0  0  0  0  # atno 17370 bound_to 10713
  157.7403  130.9848  150.2370 LP  0  0  0  0  0  0  0  0  0  0  0  0  # atno 17371 bound_to 10713
  140.0624  134.5976  155.8733 LP  0  0  0  0  0  0  0  0  0  0  0  0  # atno 17394 bound_to 11000
  141.1983  133.6601  156.5786 LP  0  0  0  0  0  0  0  0  0  0  0  0  # atno 17395 bound_to 11000

$$$$
