AV-unprocessed.smi:3274|AV-procd|sdf|12526|dock3
  -GOLD-   2272018443D 1   1.00000     0.00000
 Structure written by MMmdl.
 43 44  0  0  0  0  0  0  0  0  2 V2000
  152.2869  145.4663  157.6440 C   0  0  0  0  0  0  0  0  0  0  0  0
  152.2124  144.6637  158.9326 C   0  0  0  0  0  0  0  0  0  0  0  0
  152.2200  145.2799  160.1311 C   0  0  0  0  0  0  0  0  0  0  0  0
  152.2098  144.5672  161.4725 C   0  0  0  0  0  0  0  0  0  0  0  0
  152.0146  143.0467  161.3504 C   0  0  0  0  0  0  0  0  0  0  0  0
  152.7297  142.4837  160.1097 C   0  0  1  0  0  0  0  0  0  0  0  0
  152.7423  140.9454  160.0956 C   0  0  0  0  0  0  0  0  0  0  0  0
  152.1804  143.1346  158.8088 C   0  0  1  0  0  0  0  0  0  0  0  0
  150.7737  142.6107  158.4182 C   0  0  0  0  0  0  0  0  0  0  0  0
  150.5416  142.6265  156.9591 N   0  3  0  0  0  0  0  0  0  0  0  0
  150.3682  141.2964  156.3316 C   0  0  1  0  0  0  0  0  0  0  0  0
  149.6649  141.4224  154.9701 C   0  0  0  0  0  0  0  0  0  0  0  0
  151.7359  140.5990  156.1748 C   0  0  0  0  0  0  0  0  0  0  0  0
  151.6504  139.3006  155.5260 N   0  0  0  0  0  0  0  0  0  0  0  0
  152.0933  138.1068  155.9239 C   0  0  0  0  0  0  0  0  0  0  0  0
  151.8642  137.1329  155.0544 N   0  0  0  0  0  0  0  0  0  0  0  0
  151.2513  137.8483  154.0651 C   0  0  0  0  0  0  0  0  0  0  0  0
  151.1049  139.1532  154.2949 N   0  0  0  0  0  0  0  0  0  0  0  0
  153.0623  145.0682  156.9892 H   0  0  0  0  0  0  0  0  0  0  0  0
  152.5308  146.5096  157.8476 H   0  0  0  0  0  0  0  0  0  0  0  0
  151.3385  145.4561  157.1101 H   0  0  0  0  0  0  0  0  0  0  0  0
  152.2682  146.3583  160.1768 H   0  0  0  0  0  0  0  0  0  0  0  0
  153.1643  144.7752  161.9569 H   0  0  0  0  0  0  0  0  0  0  0  0
  151.4347  144.9964  162.1076 H   0  0  0  0  0  0  0  0  0  0  0  0
  152.3820  142.5630  162.2560 H   0  0  0  0  0  0  0  0  0  0  0  0
  150.9501  142.8165  161.2990 H   0  0  0  0  0  0  0  0  0  0  0  0
  153.7766  142.7831  160.1887 H   0  0  0  0  0  0  0  0  0  0  0  0
  151.7383  140.5266  160.1597 H   0  0  0  0  0  0  0  0  0  0  0  0
  153.3049  140.5570  160.9452 H   0  0  0  0  0  0  0  0  0  0  0  0
  153.2136  140.5629  159.1898 H   0  0  0  0  0  0  0  0  0  0  0  0
  152.8724  142.8623  158.0102 H   0  0  0  0  0  0  0  0  0  0  0  0
  150.6435  141.5799  158.7447 H   0  0  0  0  0  0  0  0  0  0  0  0
  150.0062  143.2015  158.9168 H   0  0  0  0  0  0  0  0  0  0  0  0
  149.7296  143.1921  156.7565 H   0  0  0  0  0  0  0  0  0  0  0  0
  149.7433  140.6825  156.9822 H   0  0  0  0  0  0  0  0  0  0  0  0
  149.5585  140.4467  154.4949 H   0  0  0  0  0  0  0  0  0  0  0  0
  150.2292  142.0613  154.2898 H   0  0  0  0  0  0  0  0  0  0  0  0
  148.6638  141.8418  155.0673 H   0  0  0  0  0  0  0  0  0  0  0  0
  152.4102  141.2211  155.5848 H   0  0  0  0  0  0  0  0  0  0  0  0
  152.2069  140.4670  157.1502 H   0  0  0  0  0  0  0  0  0  0  0  0
  152.5920  137.9454  156.8683 H   0  0  0  0  0  0  0  0  0  0  0  0
  150.9044  137.3949  153.1480 H   0  0  0  0  0  0  0  0  0  0  0  0
  151.3491  143.0618  156.5363 H   0  0  0  0  0  0  0  0  0  0  0  0
  1  2  1  0  0  0  0
  1 19  1  0  0  0  0
  1 20  1  0  0  0  0
  1 21  1  0  0  0  0
  2  8  1  0  0  0  0
  2  3  2  0  0  0  0
  3  4  1  0  0  0  0
  3 22  1  0  0  0  0
  4  5  1  0  0  0  0
  4 23  1  0  0  0  0
  4 24  1  0  0  0  0
  5  6  1  0  0  0  0
  5 25  1  0  0  0  0
  5 26  1  0  0  0  0
  6  7  1  0  0  0  0
  6  8  1  0  0  0  0
  6 27  1  0  0  0  0
  7 28  1  0  0  0  0
  7 29  1  0  0  0  0
  7 30  1  0  0  0  0
  8  9  1  0  0  0  0
  8 31  1  0  0  0  0
  9 10  1  0  0  0  0
  9 32  1  0  0  0  0
  9 33  1  0  0  0  0
 10 11  1  0  0  0  0
 10 34  1  0  0  0  0
 10 43  1  0  0  0  0
 11 12  1  0  0  0  0
 11 13  1  0  0  0  0
 11 35  1  0  0  0  0
 12 36  1  0  0  0  0
 12 37  1  0  0  0  0
 12 38  1  0  0  0  0
 13 14  1  0  0  0  0
 13 39  1  0  0  0  0
 13 40  1  0  0  0  0
 14 18  1  0  0  0  0
 14 15  1  0  0  0  0
 15 16  2  0  0  0  0
 15 41  1  0  0  0  0
 16 17  1  0  0  0  0
 17 18  2  0  0  0  0
 17 42  1  0  0  0  0
M  CHG  1  10   1
M  END
> <s_m_source_file>
AV-unprocessed.smi

> <i_m_source_file_index>
3274

> <i_lp_mmshare_version>
43012

> <i_f3d_flags>
0

> <s_epik_input>
W0NIM11DMT1bQ0hdW0NIMl1bQ0gyXVtDQEBIXShbQ0gzXSlbQ0BIXTFbQ0gyXVtOSF1bQ0BIXShbQ0gzXSlbQ0gyXW4yW2NIXW5bY0hdbjI=

> <s_epik_cmdline>
J2VwaWtfcHl0aG9uJywgJy1waCcsICc3LjAnLCAnLXRuJywgJzgnLCAnLW1hJywgJzIwMCcsICctbWV0YWxfYmluZGluZycsICctaW1hZScsICc8aW5maWxlLm1hZT4nLCAnLW9tYWUnLCAnPG91dGZpbGUubWFlPic=

> <r_lp_tautomer_probability>
1

> <r_epik_Ionization_Penalty>
0.0017527

> <r_epik_Ionization_Penalty_Charging>
0.00175191

> <r_epik_Ionization_Penalty_Neutral>
7.94565e-07

> <r_epik_State_Penalty>
0.00118605

> <r_epik_Charging_Adjusted_Penalty>
0.00293796

> <i_epik_Tot_Q>
1

> <i_epik_Tot_abs_Q>
1

> <r_epik_Metal_State_Penalty>
-0

> <b_epik_Metal_Only>
0

> <s_lp_Force_Field>
OPLS_2005

> <r_lp_Energy>
18.0154

> <b_lp_Chiralities_Consistent>
1

> <s_lp_Variant>
AV-unprocessed.smi:3274-5

> <Gold.Version>
5.8.1

> <Gold.Id.Protein>
6NUR|6NUR_protein|mol2

> <Gold.PLP.Fitness>
54.9078

> <Gold.PLP.PLP>
-41.4528

> <Gold.PLP.part.hbond>
-3.0000

> <Gold.PLP.part.metal>
0.0000

> <Gold.PLP.part.buried>
-2.7532

> <Gold.PLP.part.nonpolar>
-35.3263

> <Gold.PLP.part.repulsive>
0.2720

> <Gold.PLP.ligand.clash>
0.0000

> <Gold.PLP.ligand.torsion>
0.8871

> <Gold.PLP.Chemscore.Hbond>
3.9760

> <Gold.PLP.Chemscore.CHOScore>
1.0645

> <Gold.PLP.Chemscore.Metal>
0.0000

> <Gold.Chemscore.Hbonds>
donor molecule, donor type, donor heavy atom, donor atom, acceptor molecule, acceptor atom, score
      L1  H    10    34       P1  8028  1.78
      P1  H  7989  7998       L1    18  1.00
      P1  H 10752 10764       L1    16  0.99
      L1  C    17    42       P1  7948  0.11
      L1  C    17    42       P1  7949  0.93

> <Gold.PLP.Chemscore.Internal.Correction>
0.1077

> <Gold.Rescore>
     Score         DG    S(hbond)    S(metal)    S(lipo)     H(rot)  DE(clash)    DE(int)     intcor
     16.47     -21.21       2.08        0.00     126.66       2.36       2.56       2.18       ----

> <Gold.Chemscore.Fitness>
16.4726

> <Gold.Chemscore.DG>
-21.2119

> <Gold.Chemscore.ZeroCoef>
-5.4800

> <Gold.Chemscore.Hbond>
2.0834

> <Gold.Chemscore.Metal>
0.0000

> <Gold.Chemscore.Lipo>
126.6559

> <Gold.Chemscore.Internal_Hbond>
0.0000

> <Gold.Chemscore.DEClash>
2.5577

> <Gold.Chemscore.DEInternal>
2.1815

> <Gold.Chemscore.Rot>
2.3615

> <Gold.Chemscore.Internal.Correction>
   9.000000E+99

> <Gold.Chemscore.Hbonds>
donor molecule, donor type, donor heavy atom, donor atom, acceptor molecule, acceptor atom, score
      L1  H    10    34       P1  8028  0.82
      P1  H  7989  7998       L1    18  0.25
      P1  H 10752 10764       L1    16  0.90

> <Gold.Chemscore.Hbond.Weighted>
-6.9585

> <Gold.Chemscore.Metal.Weighted>
-0.0000

> <Gold.Chemscore.Lipo.Weighted>
-14.8187

> <Gold.Chemscore.Internal_Hbond.Weighted>
0.0000

> <Gold.Chemscore.DEClash.Weighted>
2.5577

> <Gold.Chemscore.DEInternal.Weighted>
2.1815

> <Gold.Chemscore.Rot.Weighted>
6.0454

> <Gold.Chemscore.Internal.Correction.Weighted>
   9.000000E+99

> <Gold.Protein.RotatedTorsions>
[ 6907 6896 6895 6894 ] final  -33.33 input  -60.11 | X-H torsion
[ 7974 7965 7964 7962 ] final -146.99 input  175.53 | X-H torsion
[ 8008 7997 7996 7995 ] final   99.32 input   59.86 | X-H torsion
[ 10167 10162 10161 10158 ] final  -92.00 input  -65.29 | X-H torsion
[ 10718 10713 10712 10709 ] final  156.13 input   66.30 | X-H torsion
[ 10763 10752 10751 10750 ] final  -62.59 input  -60.55 | X-H torsion
[ 11005 11000 10999 10996 ] final   17.11 input  -57.11 | X-H torsion

> <Gold.Protein.ActiveResidues>
 VAL166  LYS551  ARG553  GLY616  TRP617  ASP618  TYR619  PRO620  LYS621  CYS622 
 ASP623  PHE694  ASN695  SER759  ASP760  ASP761  ALA762  ILE779  LEU786  VAL792 
 PHE793  MET794  SER795  GLU796  ALA797  LYS798  CYS799  TRP800  GLU811  SER814 

> <Gold.Protein.RotatedAtoms>
  151.0670  134.9774  159.8289 H   0  0  0  0  0  0  0  0  0  0  0  0  # atno 6907 bound_to 6896
  152.5403  134.2347  159.8848 H   0  0  0  0  0  0  0  0  0  0  0  0  # atno 6908 bound_to 6896
  151.2369  133.4377  159.2639 H   0  0  0  0  0  0  0  0  0  0  0  0  # atno 6909 bound_to 6896
  144.8123  140.5385  143.5634 H   0  0  0  0  0  0  0  0  0  0  0  0  # atno 7974 bound_to 7965
  156.1093  140.3230  155.8050 H   0  0  0  0  0  0  0  0  0  0  0  0  # atno 8008 bound_to 7997
  155.4701  140.0546  157.2998 H   0  0  0  0  0  0  0  0  0  0  0  0  # atno 8009 bound_to 7997
  154.4749  140.2028  155.9918 H   0  0  0  0  0  0  0  0  0  0  0  0  # atno 8010 bound_to 7997
  140.3392  143.2951  151.9855 H   0  0  0  0  0  0  0  0  0  0  0  0  # atno 10167 bound_to 10162
  157.2091  131.0693  151.1980 H   0  0  0  0  0  0  0  0  0  0  0  0  # atno 10718 bound_to 10713
  154.3022  135.6232  153.5430 H   0  0  0  0  0  0  0  0  0  0  0  0  # atno 10763 bound_to 10752
  152.9839  135.5681  154.5271 H   0  0  0  0  0  0  0  0  0  0  0  0  # atno 10764 bound_to 10752
  154.4903  135.2867  155.1478 H   0  0  0  0  0  0  0  0  0  0  0  0  # atno 10765 bound_to 10752
  140.4396  134.1336  155.7689 H   0  0  0  0  0  0  0  0  0  0  0  0  # atno 11005 bound_to 11000
  145.5295  139.1475  143.3507 LP  0  0  0  0  0  0  0  0  0  0  0  0  # atno 17320 bound_to 7965
  146.2423  140.5436  142.8929 LP  0  0  0  0  0  0  0  0  0  0  0  0  # atno 17321 bound_to 7965
  139.4843  144.6171  151.7326 LP  0  0  0  0  0  0  0  0  0  0  0  0  # atno 17342 bound_to 10162
  140.5325  144.0708  150.6058 LP  0  0  0  0  0  0  0  0  0  0  0  0  # atno 17343 bound_to 10162
  157.3690  130.7171  149.6552 LP  0  0  0  0  0  0  0  0  0  0  0  0  # atno 17370 bound_to 10713
  155.9692  130.4204  150.4421 LP  0  0  0  0  0  0  0  0  0  0  0  0  # atno 17371 bound_to 10713
  141.1711  133.8606  157.1567 LP  0  0  0  0  0  0  0  0  0  0  0  0  # atno 17394 bound_to 11000
  140.0079  135.0001  157.0332 LP  0  0  0  0  0  0  0  0  0  0  0  0  # atno 17395 bound_to 11000

$$$$
