AV-unprocessed.smi:2562|AV-procd|sdf|10055|dock4
  -GOLD-   2272014 93D 1   1.00000     0.00000
 Structure written by MMmdl.
 29 30  0  0  0  0  0  0  0  0  2 V2000
  152.4315  143.1164  160.1283 C   0  0  0  0  0  0  0  0  0  0  0  0
  153.5549  142.0777  160.2148 C   0  0  0  0  0  0  0  0  0  0  0  0
  153.0637  140.6510  159.9334 C   0  0  0  0  0  0  0  0  0  0  0  0
  152.5542  140.4950  158.5171 C   0  0  0  0  0  0  0  0  0  0  0  0
  153.0148  139.6187  157.6071 N   0  5  0  0  0  0  0  0  0  0  0  0
  152.3173  139.7246  156.4944 N   0  0  0  0  0  0  0  0  0  0  0  0
  151.3986  140.6732  156.7363 C   0  0  0  0  0  0  0  0  0  0  0  0
  150.3765  141.1648  155.7303 C   0  0  1  0  0  0  0  0  0  0  0  0
  150.4567  140.3602  154.4167 C   0  0  0  0  0  0  0  0  0  0  0  0
  149.4583  140.8348  153.4580 N   0  0  0  0  0  0  0  0  0  0  0  0
  148.1165  140.8120  154.0357 C   0  0  0  0  0  0  0  0  0  0  0  0
  148.0899  141.6106  155.3499 C   0  0  0  0  0  0  0  0  0  0  0  0
  149.0515  141.0720  156.2500 O   0  0  0  0  0  0  0  0  0  0  0  0
  151.5388  141.1619  157.9772 N   0  0  0  0  0  0  0  0  0  0  0  0
  152.8124  144.1179  160.3286 H   0  0  0  0  0  0  0  0  0  0  0  0
  151.6460  142.9073  160.8548 H   0  0  0  0  0  0  0  0  0  0  0  0
  151.9793  143.1243  159.1364 H   0  0  0  0  0  0  0  0  0  0  0  0
  154.3412  142.3376  159.5053 H   0  0  0  0  0  0  0  0  0  0  0  0
  154.0078  142.1185  161.2060 H   0  0  0  0  0  0  0  0  0  0  0  0
  153.8707  139.9357  160.0962 H   0  0  0  0  0  0  0  0  0  0  0  0
  152.2629  140.3851  160.6242 H   0  0  0  0  0  0  0  0  0  0  0  0
  150.6014  142.2142  155.5304 H   0  0  0  0  0  0  0  0  0  0  0  0
  151.4549  140.4445  153.9862 H   0  0  0  0  0  0  0  0  0  0  0  0
  150.2945  139.3019  154.6253 H   0  0  0  0  0  0  0  0  0  0  0  0
  149.4817  140.2511  152.6282 H   0  0  0  0  0  0  0  0  0  0  0  0
  147.3972  141.2262  153.3292 H   0  0  0  0  0  0  0  0  0  0  0  0
  147.8121  139.7823  154.2272 H   0  0  0  0  0  0  0  0  0  0  0  0
  148.2887  142.6686  155.1711 H   0  0  0  0  0  0  0  0  0  0  0  0
  147.1033  141.5451  155.8085 H   0  0  0  0  0  0  0  0  0  0  0  0
  1  2  1  0  0  0  0
  1 15  1  0  0  0  0
  1 16  1  0  0  0  0
  1 17  1  0  0  0  0
  2  3  1  0  0  0  0
  2 18  1  0  0  0  0
  2 19  1  0  0  0  0
  3 20  1  0  0  0  0
  3 21  1  0  0  0  0
  3  4  1  0  0  0  0
  4 14  2  0  0  0  0
  4  5  1  0  0  0  0
  5  6  1  0  0  0  0
  6  7  2  0  0  0  0
  7 14  1  0  0  0  0
  7  8  1  0  0  0  0
  8 13  1  0  0  0  0
  8  9  1  0  0  0  0
  8 22  1  0  0  0  0
  9 10  1  0  0  0  0
  9 23  1  0  0  0  0
  9 24  1  0  0  0  0
 10 11  1  0  0  0  0
 10 25  1  0  0  0  0
 11 12  1  0  0  0  0
 11 26  1  0  0  0  0
 11 27  1  0  0  0  0
 12 13  1  0  0  0  0
 12 28  1  0  0  0  0
 12 29  1  0  0  0  0
M  CHG  1   5  -1
M  END
> <s_m_source_file>
AV-unprocessed.smi

> <i_m_source_file_index>
2562

> <i_lp_mmshare_version>
43012

> <i_f3d_flags>
0

> <s_epik_input>
W0NIM11bQ0gyXVtDSDJdYzFuW25IXWMobjEpW0NAQEhdMltDSDJdW05IXVtDSDJdW0NIMl1PMg==

> <s_epik_cmdline>
J2VwaWtfcHl0aG9uJywgJy1waCcsICc3LjAnLCAnLXRuJywgJzgnLCAnLW1hJywgJzIwMCcsICctbWV0YWxfYmluZGluZycsICctaW1hZScsICc8aW5maWxlLm1hZT4nLCAnLW9tYWUnLCAnPG91dGZpbGUubWFlPic=

> <r_epik_Ionization_Penalty>
15.949

> <r_epik_Ionization_Penalty_Charging>
14.3757

> <r_epik_Ionization_Penalty_Neutral>
1.5733

> <r_epik_State_Penalty>
7.02775

> <r_epik_Charging_Adjusted_Penalty>
21.4034

> <i_epik_Tot_Q>
-1

> <i_epik_Tot_abs_Q>
1

> <r_epik_Metal_State_Penalty>
3.10311

> <b_epik_Metal_Only>
1

> <s_lp_Force_Field>
OPLS_2005

> <r_lp_Energy>
11.7076

> <b_lp_Chiralities_Consistent>
1

> <s_lp_Variant>
AV-unprocessed.smi:2562-14

> <Gold.Version>
5.8.1

> <Gold.Id.Protein>
6NUR|6NUR_protein|mol2

> <Gold.PLP.Fitness>
37.7386

> <Gold.PLP.PLP>
-27.2248

> <Gold.PLP.part.hbond>
-4.5889

> <Gold.PLP.part.metal>
0.0000

> <Gold.PLP.part.buried>
0.3628

> <Gold.PLP.part.nonpolar>
-23.1658

> <Gold.PLP.part.repulsive>
0.0707

> <Gold.PLP.ligand.clash>
0.0000

> <Gold.PLP.ligand.torsion>
0.0392

> <Gold.PLP.Chemscore.Hbond>
3.5260

> <Gold.PLP.Chemscore.CHOScore>
0.0000

> <Gold.PLP.Chemscore.Metal>
0.0000

> <Gold.Chemscore.Hbonds>
donor molecule, donor type, donor heavy atom, donor atom, acceptor molecule, acceptor atom, score
      L1  H    10    25       P1  7957  0.89
      P1  H  7997  8010       L1     5  2.00
      P1  H  8011  8017       L1    10  0.45

> <Gold.PLP.Chemscore.Internal.Correction>
0.0143

> <Gold.Rescore>
     Score         DG    S(hbond)    S(metal)    S(lipo)     H(rot)  DE(clash)    DE(int)     intcor
     12.31     -13.58       1.51        0.00      57.71       1.44       1.25       0.03       ----

> <Gold.Chemscore.Fitness>
12.3095

> <Gold.Chemscore.DG>
-13.5839

> <Gold.Chemscore.ZeroCoef>
-5.4800

> <Gold.Chemscore.Hbond>
1.5115

> <Gold.Chemscore.Metal>
0.0000

> <Gold.Chemscore.Lipo>
57.7127

> <Gold.Chemscore.Internal_Hbond>
0.0000

> <Gold.Chemscore.DEClash>
1.2459

> <Gold.Chemscore.DEInternal>
0.0286

> <Gold.Chemscore.Rot>
1.4441

> <Gold.Chemscore.Internal.Correction>
   9.000000E+99

> <Gold.Chemscore.Hbonds>
donor molecule, donor type, donor heavy atom, donor atom, acceptor molecule, acceptor atom, score
      L1  H    10    25       P1  7957  0.84
      P1  H  7997  8010       L1     5  0.24
      P1  H  8011  8017       L1    10  0.01

> <Gold.Chemscore.Hbond.Weighted>
-5.0484

> <Gold.Chemscore.Metal.Weighted>
-0.0000

> <Gold.Chemscore.Lipo.Weighted>
-6.7524

> <Gold.Chemscore.Internal_Hbond.Weighted>
0.0000

> <Gold.Chemscore.DEClash.Weighted>
1.2459

> <Gold.Chemscore.DEInternal.Weighted>
0.0286

> <Gold.Chemscore.Rot.Weighted>
3.6969

> <Gold.Chemscore.Internal.Correction.Weighted>
   9.000000E+99

> <Gold.Protein.RotatedTorsions>
[ 6907 6896 6895 6894 ] final -157.44 input  -60.11 | X-H torsion
[ 7974 7965 7964 7962 ] final  -29.53 input  175.53 | X-H torsion
[ 8008 7997 7996 7995 ] final   30.89 input   59.86 | X-H torsion
[ 10167 10162 10161 10158 ] final   29.26 input  -65.29 | X-H torsion
[ 10718 10713 10712 10709 ] final   39.74 input   66.30 | X-H torsion
[ 10763 10752 10751 10750 ] final   90.84 input  -60.55 | X-H torsion
[ 11005 11000 10999 10996 ] final  157.63 input  -57.11 | X-H torsion

> <Gold.Protein.ActiveResidues>
 VAL166  LYS551  ARG553  GLY616  TRP617  ASP618  TYR619  PRO620  LYS621  CYS622 
 ASP623  PHE694  ASN695  SER759  ASP760  ASP761  ALA762  ILE779  LEU786  VAL792 
 PHE793  MET794  SER795  GLU796  ALA797  LYS798  CYS799  TRP800  GLU811  SER814 

> <Gold.Protein.RotatedAtoms>
  151.3029  133.4114  159.2640 H   0  0  0  0  0  0  0  0  0  0  0  0  # atno 6907 bound_to 6896
  151.0180  134.9448  159.8054 H   0  0  0  0  0  0  0  0  0  0  0  0  # atno 6908 bound_to 6896
  152.5317  134.2992  159.9124 H   0  0  0  0  0  0  0  0  0  0  0  0  # atno 6909 bound_to 6896
  146.1210  140.5424  142.8735 H   0  0  0  0  0  0  0  0  0  0  0  0  # atno 7974 bound_to 7965
  155.0976  140.3226  155.4556 H   0  0  0  0  0  0  0  0  0  0  0  0  # atno 8008 bound_to 7997
  156.2726  140.2066  156.6049 H   0  0  0  0  0  0  0  0  0  0  0  0  # atno 8009 bound_to 7997
  154.6854  140.0522  157.0296 H   0  0  0  0  0  0  0  0  0  0  0  0  # atno 8010 bound_to 7997
  140.4781  144.0658  150.6257 H   0  0  0  0  0  0  0  0  0  0  0  0  # atno 10167 bound_to 10162
  157.3740  130.7717  149.7141 H   0  0  0  0  0  0  0  0  0  0  0  0  # atno 10718 bound_to 10713
  153.2018  135.4419  155.0276 H   0  0  0  0  0  0  0  0  0  0  0  0  # atno 10763 bound_to 10752
  154.8151  135.3312  154.7200 H   0  0  0  0  0  0  0  0  0  0  0  0  # atno 10764 bound_to 10752
  153.7645  135.6989  153.4974 H   0  0  0  0  0  0  0  0  0  0  0  0  # atno 10765 bound_to 10752
  140.1787  134.8491  157.2777 H   0  0  0  0  0  0  0  0  0  0  0  0  # atno 11005 bound_to 11000
  144.7597  140.5392  143.6744 LP  0  0  0  0  0  0  0  0  0  0  0  0  # atno 17320 bound_to 7965
  145.5466  139.1476  143.3417 LP  0  0  0  0  0  0  0  0  0  0  0  0  # atno 17321 bound_to 7965
  140.3892  143.2761  152.0080 LP  0  0  0  0  0  0  0  0  0  0  0  0  # atno 17342 bound_to 10162
  139.4829  144.6091  151.7467 LP  0  0  0  0  0  0  0  0  0  0  0  0  # atno 17343 bound_to 10162
  155.9761  130.4079  150.3800 LP  0  0  0  0  0  0  0  0  0  0  0  0  # atno 17370 bound_to 10713
  157.1895  131.0412  151.2708 LP  0  0  0  0  0  0  0  0  0  0  0  0  # atno 17371 bound_to 10713
  140.2292  134.3929  155.7529 LP  0  0  0  0  0  0  0  0  0  0  0  0  # atno 17394 bound_to 11000
  141.2222  133.7206  156.8614 LP  0  0  0  0  0  0  0  0  0  0  0  0  # atno 17395 bound_to 11000

$$$$
