AV-unprocessed.smi:270|AV-procd|sdf|2047|dock5
  -GOLD-   2262021273D 1   1.00000     0.00000
 Structure written by MMmdl.
 54 57  0  0  0  0  0  0  0  0  1 V2000
  153.4789  143.3825  158.9942 C   0  0  0  0  0  0  0  0  0  0  0  0
  152.1375  143.7740  158.3529 C   0  0  2  0  0  0  0  0  0  0  0  0
  151.3901  144.6228  159.2237 O   0  0  0  0  0  0  0  0  0  0  0  0
  150.1192  144.0485  159.4937 C   0  0  0  0  0  0  0  0  0  0  0  0
  149.8294  143.1847  158.2733 C   0  0  0  0  0  0  0  0  0  0  0  0
  151.2011  142.6131  157.9427 C   0  0  2  0  0  0  0  0  0  0  0  0
  151.4180  141.4741  158.7610 O   0  0  0  0  0  0  0  0  0  0  0  0
  151.3691  142.1956  156.4626 C   0  0  0  0  0  0  0  0  0  0  0  0
  150.7306  140.9279  156.1448 N   0  0  0  0  0  0  0  0  0  0  0  0
  149.3800  140.6647  156.1329 C   0  0  0  0  0  0  0  0  0  0  0  0
  149.0556  139.4405  155.8190 N   0  0  0  0  0  0  0  0  0  0  0  0
  150.2735  138.8095  155.5901 C   0  0  0  0  0  0  0  0  0  0  0  0
  150.6430  137.4836  155.2179 C   0  0  0  0  0  0  0  0  0  0  0  0
  149.7127  136.4323  154.9714 N   0  0  0  0  0  0  0  0  0  0  0  0
  148.3239  136.7150  155.3034 C   0  0  0  0  0  0  0  0  0  0  0  0
  148.2677  135.3205  155.9348 C   0  0  0  0  0  0  0  0  0  0  0  0
  147.6283  134.3461  155.1251 O   0  0  0  0  0  0  0  0  0  0  0  0
  148.1544  134.2933  153.8084 C   0  0  0  0  0  0  0  0  0  0  0  0
  147.5852  133.0612  153.0949 C   0  0  0  0  0  0  0  0  0  0  0  0
  147.9919  131.9499  153.4372 O   0  0  0  0  0  0  0  0  0  0  0  0
  146.6581  133.2269  152.1224 N   0  0  0  0  0  0  0  0  0  0  0  0
  146.0616  132.1091  151.3845 C   0  0  0  0  0  0  0  0  0  0  0  0
  146.2054  134.5712  151.7544 C   0  0  0  0  0  0  0  0  0  0  0  0
  149.7911  135.2504  155.8224 C   0  0  0  0  0  0  0  0  0  0  0  0
  151.9742  137.2554  155.0538 N   0  0  0  0  0  0  0  0  0  0  0  0
  152.8736  138.2204  155.2650 C   0  0  0  0  0  0  0  0  0  0  0  0
  152.6670  139.4848  155.6326 N   0  0  0  0  0  0  0  0  0  0  0  0
  151.3366  139.7383  155.7804 C   0  0  0  0  0  0  0  0  0  0  0  0
  154.0472  142.7201  158.3409 H   0  0  0  0  0  0  0  0  0  0  0  0
  153.3356  142.8752  159.9486 H   0  0  0  0  0  0  0  0  0  0  0  0
  154.0892  144.2658  159.1829 H   0  0  0  0  0  0  0  0  0  0  0  0
  152.3503  144.3813  157.4720 H   0  0  0  0  0  0  0  0  0  0  0  0
  150.1880  143.4348  160.3931 H   0  0  0  0  0  0  0  0  0  0  0  0
  149.3610  144.8140  159.6599 H   0  0  0  0  0  0  0  0  0  0  0  0
  149.0670  142.4259  158.4561 H   0  0  0  0  0  0  0  0  0  0  0  0
  149.4797  143.8213  157.4592 H   0  0  0  0  0  0  0  0  0  0  0  0
  151.9838  140.8749  158.2986 H   0  0  0  0  0  0  0  0  0  0  0  0
  150.9463  142.9568  155.8056 H   0  0  0  0  0  0  0  0  0  0  0  0
  152.4273  142.1262  156.2065 H   0  0  0  0  0  0  0  0  0  0  0  0
  148.6381  141.4129  156.3714 H   0  0  0  0  0  0  0  0  0  0  0  0
  148.2031  137.5159  156.0343 H   0  0  0  0  0  0  0  0  0  0  0  0
  147.6907  136.8477  154.4259 H   0  0  0  0  0  0  0  0  0  0  0  0
  147.9255  135.3195  156.9711 H   0  0  0  0  0  0  0  0  0  0  0  0
  147.8681  135.1939  153.2627 H   0  0  0  0  0  0  0  0  0  0  0  0
  149.2442  134.2580  153.8121 H   0  0  0  0  0  0  0  0  0  0  0  0
  146.8282  131.5348  150.8637 H   0  0  0  0  0  0  0  0  0  0  0  0
  145.3456  132.4361  150.6306 H   0  0  0  0  0  0  0  0  0  0  0  0
  145.5277  131.4390  152.0591 H   0  0  0  0  0  0  0  0  0  0  0  0
  145.7767  135.0803  152.6189 H   0  0  0  0  0  0  0  0  0  0  0  0
  145.4455  134.5680  150.9730 H   0  0  0  0  0  0  0  0  0  0  0  0
  147.0424  135.1689  151.3903 H   0  0  0  0  0  0  0  0  0  0  0  0
  150.1656  134.3671  155.3045 H   0  0  0  0  0  0  0  0  0  0  0  0
  150.2871  135.4155  156.7800 H   0  0  0  0  0  0  0  0  0  0  0  0
  153.9059  137.9383  155.1188 H   0  0  0  0  0  0  0  0  0  0  0  0
  1  2  1  0  0  0  0
  1 29  1  0  0  0  0
  1 30  1  0  0  0  0
  1 31  1  0  0  0  0
  2  6  1  0  0  0  0
  2  3  1  0  0  0  0
  2 32  1  0  0  0  0
  3  4  1  0  0  0  0
  4  5  1  0  0  0  0
  4 33  1  0  0  0  0
  4 34  1  0  0  0  0
  5  6  1  0  0  0  0
  5 35  1  0  0  0  0
  5 36  1  0  0  0  0
  6  7  1  0  0  0  0
  6  8  1  0  0  0  0
  7 37  1  0  0  0  0
  8  9  1  0  0  0  0
  8 38  1  0  0  0  0
  8 39  1  0  0  0  0
  9 28  1  0  0  0  0
  9 10  1  0  0  0  0
 10 11  2  0  0  0  0
 10 40  1  0  0  0  0
 11 12  1  0  0  0  0
 12 28  2  0  0  0  0
 12 13  1  0  0  0  0
 13 14  1  0  0  0  0
 13 25  2  0  0  0  0
 14 24  1  0  0  0  0
 14 15  1  0  0  0  0
 15 16  1  0  0  0  0
 15 41  1  0  0  0  0
 15 42  1  0  0  0  0
 16 17  1  0  0  0  0
 16 24  1  0  0  0  0
 16 43  1  0  0  0  0
 17 18  1  0  0  0  0
 18 19  1  0  0  0  0
 18 44  1  0  0  0  0
 18 45  1  0  0  0  0
 19 20  2  0  0  0  0
 19 21  1  0  0  0  0
 21 22  1  0  0  0  0
 21 23  1  0  0  0  0
 22 46  1  0  0  0  0
 22 47  1  0  0  0  0
 22 48  1  0  0  0  0
 23 49  1  0  0  0  0
 23 50  1  0  0  0  0
 23 51  1  0  0  0  0
 24 52  1  0  0  0  0
 24 53  1  0  0  0  0
 25 26  1  0  0  0  0
 26 27  2  0  0  0  0
 26 54  1  0  0  0  0
 27 28  1  0  0  0  0
M  END
> <s_m_source_file>
AV-unprocessed.smi

> <i_m_source_file_index>
270

> <i_lp_mmshare_version>
43012

> <i_f3d_flags>
0

> <s_epik_input>
W0NIMl0xW0NIMl1PW0NAQEhdKFtDSDNdKVtDQEBdMShbT0hdKVtDSDJdbihbY0hdbjIpYyhjMjMpbltjSF1uYzNONFtDSDJdW0NIXShbQ0gyXTQpT1tDSDJdQyg9TylOKFtDSDNdKVtDSDNd

> <s_epik_cmdline>
J2VwaWtfcHl0aG9uJywgJy1waCcsICc3LjAnLCAnLXRuJywgJzgnLCAnLW1hJywgJzIwMCcsICctbWV0YWxfYmluZGluZycsICctaW1hZScsICc8aW5maWxlLm1hZT4nLCAnLW9tYWUnLCAnPG91dGZpbGUubWFlPic=

> <r_lp_tautomer_probability>
1

> <r_epik_Ionization_Penalty>
0.00375854

> <r_epik_Ionization_Penalty_Charging>
0

> <r_epik_Ionization_Penalty_Neutral>
0.00375854

> <r_epik_State_Penalty>
-0

> <r_epik_Charging_Adjusted_Penalty>
0

> <i_epik_Tot_Q>
0

> <i_epik_Tot_abs_Q>
0

> <r_epik_Metal_State_Penalty>
-0

> <b_epik_Metal_Only>
0

> <s_lp_Force_Field>
OPLS_2005

> <r_lp_Energy>
53.9225

> <b_lp_Chiralities_Consistent>
1

> <s_lp_Variant>
AV-unprocessed.smi:270-3

> <Gold.Version>
5.8.1

> <Gold.Id.Protein>
6NUR|6NUR_protein|mol2

> <Gold.PLP.Fitness>
43.5823

> <Gold.PLP.PLP>
-38.6424

> <Gold.PLP.part.hbond>
-2.0000

> <Gold.PLP.part.metal>
0.0000

> <Gold.PLP.part.buried>
-4.4341

> <Gold.PLP.part.nonpolar>
-32.9224

> <Gold.PLP.part.repulsive>
0.5271

> <Gold.PLP.ligand.clash>
0.0000

> <Gold.PLP.ligand.torsion>
0.5107

> <Gold.PLP.Chemscore.Hbond>
1.8882

> <Gold.PLP.Chemscore.CHOScore>
0.0000

> <Gold.PLP.Chemscore.Metal>
0.0000

> <Gold.Chemscore.Hbonds>
donor molecule, donor type, donor heavy atom, donor atom, acceptor molecule, acceptor atom, score
      P1  H  7997  8009       L1    27  1.00
      P1  H 10752 10763       L1    25  0.91

> <Gold.PLP.Chemscore.Internal.Correction>
0.2969

> <Gold.Rescore>
     Score         DG    S(hbond)    S(metal)    S(lipo)     H(rot)  DE(clash)    DE(int)     intcor
      7.76     -11.19       1.19        0.00      83.10       3.12       0.18       3.25       ----

> <Gold.Chemscore.Fitness>
7.7626

> <Gold.Chemscore.DG>
-11.1946

> <Gold.Chemscore.ZeroCoef>
-5.4800

> <Gold.Chemscore.Hbond>
1.1941

> <Gold.Chemscore.Metal>
0.0000

> <Gold.Chemscore.Lipo>
83.0952

> <Gold.Chemscore.Internal_Hbond>
0.0000

> <Gold.Chemscore.DEClash>
0.1829

> <Gold.Chemscore.DEInternal>
3.2492

> <Gold.Chemscore.Rot>
3.1234

> <Gold.Chemscore.Internal.Correction>
   9.000000E+99

> <Gold.Chemscore.Hbonds>
donor molecule, donor type, donor heavy atom, donor atom, acceptor molecule, acceptor atom, score
      P1  H  7997  8009       L1    27  0.50
      P1  H 10752 10763       L1    25  0.57

> <Gold.Chemscore.Hbond.Weighted>
-3.9883

> <Gold.Chemscore.Metal.Weighted>
-0.0000

> <Gold.Chemscore.Lipo.Weighted>
-9.7221

> <Gold.Chemscore.Internal_Hbond.Weighted>
0.0000

> <Gold.Chemscore.DEClash.Weighted>
0.1829

> <Gold.Chemscore.DEInternal.Weighted>
3.2492

> <Gold.Chemscore.Rot.Weighted>
7.9959

> <Gold.Chemscore.Internal.Correction.Weighted>
   9.000000E+99

> <Gold.Protein.RotatedTorsions>
[ 6907 6896 6895 6894 ] final  152.86 input  -60.11 | X-H torsion
[ 7974 7965 7964 7962 ] final   29.65 input  175.53 | X-H torsion
[ 8008 7997 7996 7995 ] final -144.37 input   59.86 | X-H torsion
[ 10167 10162 10161 10158 ] final   -5.49 input  -65.29 | X-H torsion
[ 10718 10713 10712 10709 ] final -125.86 input   66.30 | X-H torsion
[ 10763 10752 10751 10750 ] final   56.54 input  -60.55 | X-H torsion
[ 11005 11000 10999 10996 ] final  160.38 input  -57.11 | X-H torsion

> <Gold.Protein.ActiveResidues>
 VAL166  LYS551  ARG553  GLY616  TRP617  ASP618  TYR619  PRO620  LYS621  CYS622 
 ASP623  PHE694  ASN695  SER759  ASP760  ASP761  ALA762  ILE779  LEU786  VAL792 
 PHE793  MET794  SER795  GLU796  ALA797  LYS798  CYS799  TRP800  GLU811  SER814 

> <Gold.Protein.RotatedAtoms>
  152.0808  133.4152  159.4500 H   0  0  0  0  0  0  0  0  0  0  0  0  # atno 6907 bound_to 6896
  150.6862  134.2984  159.4705 H   0  0  0  0  0  0  0  0  0  0  0  0  # atno 6908 bound_to 6896
  152.0825  134.9461  160.0624 H   0  0  0  0  0  0  0  0  0  0  0  0  # atno 6909 bound_to 6896
  146.1659  139.6893  142.9002 H   0  0  0  0  0  0  0  0  0  0  0  0  # atno 7974 bound_to 7965
  155.5259  140.0595  157.2898 H   0  0  0  0  0  0  0  0  0  0  0  0  # atno 8008 bound_to 7997
  154.4501  140.1944  156.0490 H   0  0  0  0  0  0  0  0  0  0  0  0  # atno 8009 bound_to 7997
  156.0686  140.3263  155.7552 H   0  0  0  0  0  0  0  0  0  0  0  0  # atno 8010 bound_to 7997
  140.6965  143.6302  150.8530 H   0  0  0  0  0  0  0  0  0  0  0  0  # atno 10167 bound_to 10162
  156.1713  130.6669  151.0184 H   0  0  0  0  0  0  0  0  0  0  0  0  # atno 10718 bound_to 10713
  152.9834  135.5673  154.5245 H   0  0  0  0  0  0  0  0  0  0  0  0  # atno 10763 bound_to 10752
  154.4727  135.2785  155.1632 H   0  0  0  0  0  0  0  0  0  0  0  0  # atno 10764 bound_to 10752
  154.3174  135.6276  153.5545 H   0  0  0  0  0  0  0  0  0  0  0  0  # atno 10765 bound_to 10752
  140.2053  134.8307  157.3063 H   0  0  0  0  0  0  0  0  0  0  0  0  # atno 11005 bound_to 11000
  145.4469  141.0426  143.2826 LP  0  0  0  0  0  0  0  0  0  0  0  0  # atno 17320 bound_to 7965
  144.8091  139.5995  143.7037 LP  0  0  0  0  0  0  0  0  0  0  0  0  # atno 17321 bound_to 7965
  140.0021  143.5733  152.2871 LP  0  0  0  0  0  0  0  0  0  0  0  0  # atno 17342 bound_to 10162
  139.6426  144.7656  151.2308 LP  0  0  0  0  0  0  0  0  0  0  0  0  # atno 17343 bound_to 10162
  157.6805  131.0839  150.7383 LP  0  0  0  0  0  0  0  0  0  0  0  0  # atno 17370 bound_to 10713
  156.7442  130.4748  149.5471 LP  0  0  0  0  0  0  0  0  0  0  0  0  # atno 17371 bound_to 10713
  140.2009  134.4256  155.7663 LP  0  0  0  0  0  0  0  0  0  0  0  0  # atno 17394 bound_to 11000
  141.2227  133.7071  156.8182 LP  0  0  0  0  0  0  0  0  0  0  0  0  # atno 17395 bound_to 11000

$$$$
