AV-unprocessed.smi:196|AV-procd|sdf|1531|dock3
  -GOLD-   2262019383D 1   1.00000     0.00000
 Structure written by MMmdl.
 47 50  0  0  0  0  0  0  0  0  1 V2000
  149.0667  138.9661  154.5747 C   0  0  0  0  0  0  0  0  0  0  0  0
  150.4635  138.4160  154.2452 C   0  0  1  0  0  0  0  0  0  0  0  0
  151.4010  139.4675  154.4659 O   0  0  0  0  0  0  0  0  0  0  0  0
  152.6285  138.9111  154.9022 C   0  0  0  0  0  0  0  0  0  0  0  0
  152.1726  137.7956  155.8299 C   0  0  0  0  0  0  0  0  0  0  0  0
  150.9633  137.2175  155.1007 C   0  0  2  0  0  0  0  0  0  0  0  0
  151.4310  136.2199  154.2076 O   0  0  0  0  0  0  0  0  0  0  0  0
  149.9222  136.5605  156.0450 C   0  0  0  0  0  0  0  0  0  0  0  0
  148.8618  135.8583  155.3374 N   0  0  0  0  0  0  0  0  0  0  0  0
  148.9509  134.6230  154.7377 C   0  0  0  0  0  0  0  0  0  0  0  0
  147.8555  134.2012  154.1680 N   0  0  0  0  0  0  0  0  0  0  0  0
  146.9429  135.2297  154.3754 C   0  0  0  0  0  0  0  0  0  0  0  0
  145.5753  135.4321  154.0273 C   0  0  0  0  0  0  0  0  0  0  0  0
  144.8384  134.5256  153.3284 N   0  0  0  0  0  0  0  0  0  0  0  0
  145.5345  133.4850  152.5786 C   0  0  0  0  0  0  0  0  0  0  0  0
  144.7288  133.2873  151.2953 C   0  0  2  0  0  0  0  0  0  0  0  0
  145.1979  134.1001  150.3472 F   0  0  0  0  0  0  0  0  0  0  0  0
  143.3243  133.7257  151.6941 C   0  0  0  0  0  0  0  0  0  0  0  0
  143.5633  134.8760  152.6860 C   0  0  1  0  0  0  0  0  0  0  0  0
  142.3690  135.0282  153.6489 C   0  0  0  0  0  0  0  0  0  0  0  0
  142.0559  134.0084  154.4552 N   0  0  0  0  0  0  0  0  0  0  0  0
  141.7301  136.0779  153.6633 O   0  0  0  0  0  0  0  0  0  0  0  0
  144.9959  136.5908  154.4398 N   0  0  0  0  0  0  0  0  0  0  0  0
  145.6988  137.4957  155.1263 C   0  0  0  0  0  0  0  0  0  0  0  0
  146.9749  137.4437  155.5097 N   0  0  0  0  0  0  0  0  0  0  0  0
  147.5624  136.2789  155.1132 C   0  0  0  0  0  0  0  0  0  0  0  0
  144.7741  132.2691  150.9084 H   0  0  0  0  0  0  0  0  0  0  0  0
  143.6848  135.8023  152.1215 H   0  0  0  0  0  0  0  0  0  0  0  0
  148.2938  138.2142  154.4149 H   0  0  0  0  0  0  0  0  0  0  0  0
  148.8291  139.8167  153.9357 H   0  0  0  0  0  0  0  0  0  0  0  0
  149.0043  139.3082  155.6081 H   0  0  0  0  0  0  0  0  0  0  0  0
  150.4907  138.1644  153.1832 H   0  0  0  0  0  0  0  0  0  0  0  0
  153.1802  138.5147  154.0484 H   0  0  0  0  0  0  0  0  0  0  0  0
  153.2506  139.6519  155.4046 H   0  0  0  0  0  0  0  0  0  0  0  0
  152.9536  137.0641  156.0423 H   0  0  0  0  0  0  0  0  0  0  0  0
  151.8636  138.2365  156.7781 H   0  0  0  0  0  0  0  0  0  0  0  0
  151.2841  136.5182  153.3231 H   0  0  0  0  0  0  0  0  0  0  0  0
  150.4059  135.8449  156.7101 H   0  0  0  0  0  0  0  0  0  0  0  0
  149.4606  137.3137  156.6850 H   0  0  0  0  0  0  0  0  0  0  0  0
  149.8588  134.0372  154.7439 H   0  0  0  0  0  0  0  0  0  0  0  0
  146.5723  133.7365  152.3536 H   0  0  0  0  0  0  0  0  0  0  0  0
  145.5302  132.5718  153.1748 H   0  0  0  0  0  0  0  0  0  0  0  0
  142.7199  134.0268  150.8375 H   0  0  0  0  0  0  0  0  0  0  0  0
  142.8154  132.8921  152.1818 H   0  0  0  0  0  0  0  0  0  0  0  0
  141.2747  134.0912  155.0896 H   0  0  0  0  0  0  0  0  0  0  0  0
  142.6005  133.1590  154.4239 H   0  0  0  0  0  0  0  0  0  0  0  0
  145.1611  138.3887  155.4089 H   0  0  0  0  0  0  0  0  0  0  0  0
  1  2  1  0  0  0  0
  1 29  1  0  0  0  0
  1 30  1  0  0  0  0
  1 31  1  0  0  0  0
  2  6  1  0  0  0  0
  2  3  1  0  0  0  0
  2 32  1  0  0  0  0
  3  4  1  0  0  0  0
  4  5  1  0  0  0  0
  4 33  1  0  0  0  0
  4 34  1  0  0  0  0
  5  6  1  0  0  0  0
  5 35  1  0  0  0  0
  5 36  1  0  0  0  0
  6  7  1  0  0  0  0
  6  8  1  0  0  0  0
  7 37  1  0  0  0  0
  8  9  1  0  0  0  0
  8 38  1  0  0  0  0
  8 39  1  0  0  0  0
  9 26  1  0  0  0  0
  9 10  1  0  0  0  0
 10 11  2  0  0  0  0
 10 40  1  0  0  0  0
 11 12  1  0  0  0  0
 12 26  2  0  0  0  0
 12 13  1  0  0  0  0
 13 14  1  0  0  0  0
 13 23  2  0  0  0  0
 14 19  1  0  0  0  0
 14 15  1  0  0  0  0
 15 16  1  0  0  0  0
 15 41  1  0  0  0  0
 15 42  1  0  0  0  0
 16 27  1  0  0  0  0
 16 17  1  0  0  0  0
 16 18  1  0  0  0  0
 18 19  1  0  0  0  0
 18 43  1  0  0  0  0
 18 44  1  0  0  0  0
 19 28  1  0  0  0  0
 19 20  1  0  0  0  0
 20 21  1  0  0  0  0
 20 22  2  0  0  0  0
 21 45  1  0  0  0  0
 21 46  1  0  0  0  0
 23 24  1  0  0  0  0
 24 25  2  0  0  0  0
 24 47  1  0  0  0  0
 25 26  1  0  0  0  0
M  END
> <s_m_source_file>
AV-unprocessed.smi

> <i_m_source_file_index>
196

> <i_lp_mmshare_version>
43012

> <i_f3d_flags>
0

> <s_epik_input>
W0NIMl0xW0NIMl1PW0NAQEhdKFtDSDNdKVtDQEBdMShbT0hdKVtDSDJdbihbY0hdbjIpYyhjMjMpbltjSF1uYzNONFtDSDJdW0NASF0oRilbQ0gyXVtDQEhdNEMoPU8pW05IMl0=

> <s_epik_cmdline>
J2VwaWtfcHl0aG9uJywgJy1waCcsICc3LjAnLCAnLXRuJywgJzgnLCAnLW1hJywgJzIwMCcsICctbWV0YWxfYmluZGluZycsICctaW1hZScsICc8aW5maWxlLm1hZT4nLCAnLW9tYWUnLCAnPG91dGZpbGUubWFlPic=

> <r_lp_tautomer_probability>
1

> <r_epik_Ionization_Penalty>
0.000857933

> <r_epik_Ionization_Penalty_Charging>
0

> <r_epik_Ionization_Penalty_Neutral>
0.000857933

> <r_epik_State_Penalty>
0.000462053

> <r_epik_Charging_Adjusted_Penalty>
0.000462053

> <i_epik_Tot_Q>
0

> <i_epik_Tot_abs_Q>
0

> <r_epik_Metal_State_Penalty>
-0

> <b_epik_Metal_Only>
0

> <s_lp_Force_Field>
OPLS_2005

> <r_lp_Energy>
43.6884

> <b_lp_Chiralities_Consistent>
1

> <s_lp_Variant>
AV-unprocessed.smi:196-4

> <Gold.Version>
5.8.1

> <Gold.Id.Protein>
6NUR|6NUR_protein|mol2

> <Gold.PLP.Fitness>
46.5848

> <Gold.PLP.PLP>
-32.2611

> <Gold.PLP.part.hbond>
-5.0000

> <Gold.PLP.part.metal>
0.0000

> <Gold.PLP.part.buried>
-3.6945

> <Gold.PLP.part.nonpolar>
-23.7455

> <Gold.PLP.part.repulsive>
0.5126

> <Gold.PLP.ligand.clash>
0.1016

> <Gold.PLP.ligand.torsion>
0.4212

> <Gold.PLP.Chemscore.Hbond>
4.9920

> <Gold.PLP.Chemscore.CHOScore>
0.0000

> <Gold.PLP.Chemscore.Metal>
0.0000

> <Gold.Chemscore.Hbonds>
donor molecule, donor type, donor heavy atom, donor atom, acceptor molecule, acceptor atom, score
      L1  H     7    37       P1  7949  0.90
      L1  H    21    45       P1 11000  1.00
      L1  H    21    46       P1 10957  0.68
      P1  H  7989  7998       L1     3  1.00
      P1  H 10752 10765       L1     7  0.98

> <Gold.PLP.Chemscore.Internal.Correction>
0.2916

> <Gold.Rescore>
     Score         DG    S(hbond)    S(metal)    S(lipo)     H(rot)  DE(clash)    DE(int)     intcor
     13.94     -19.05       3.92        0.00      60.89       2.60       1.02       4.08       ----

> <Gold.Chemscore.Fitness>
13.9443

> <Gold.Chemscore.DG>
-19.0504

> <Gold.Chemscore.ZeroCoef>
-5.4800

> <Gold.Chemscore.Hbond>
3.9202

> <Gold.Chemscore.Metal>
0.0000

> <Gold.Chemscore.Lipo>
60.8938

> <Gold.Chemscore.Internal_Hbond>
0.0000

> <Gold.Chemscore.DEClash>
1.0226

> <Gold.Chemscore.DEInternal>
4.0834

> <Gold.Chemscore.Rot>
2.5968

> <Gold.Chemscore.Internal.Correction>
   9.000000E+99

> <Gold.Chemscore.Hbonds>
donor molecule, donor type, donor heavy atom, donor atom, acceptor molecule, acceptor atom, score
      L1  H     7    37       P1  7949  0.57
      L1  H    21    45       P1 11000  0.73
      L1  H    21    46       P1 10957  0.66
      P1  H  7989  7998       L1     3  0.78
      P1  H 10752 10765       L1     7  0.80

> <Gold.Chemscore.Hbond.Weighted>
-13.0935

> <Gold.Chemscore.Metal.Weighted>
-0.0000

> <Gold.Chemscore.Lipo.Weighted>
-7.1246

> <Gold.Chemscore.Internal_Hbond.Weighted>
0.0000

> <Gold.Chemscore.DEClash.Weighted>
1.0226

> <Gold.Chemscore.DEInternal.Weighted>
4.0834

> <Gold.Chemscore.Rot.Weighted>
6.6477

> <Gold.Chemscore.Internal.Correction.Weighted>
   9.000000E+99

> <Gold.Protein.RotatedTorsions>
[ 6907 6896 6895 6894 ] final  -54.95 input  -60.11 | X-H torsion
[ 7974 7965 7964 7962 ] final  177.09 input  175.53 | X-H torsion
[ 8008 7997 7996 7995 ] final  161.23 input   59.86 | X-H torsion
[ 10167 10162 10161 10158 ] final  107.73 input  -65.29 | X-H torsion
[ 10718 10713 10712 10709 ] final   69.42 input   66.30 | X-H torsion
[ 10763 10752 10751 10750 ] final -176.33 input  -60.55 | X-H torsion
[ 11005 11000 10999 10996 ] final  125.11 input  -57.11 | X-H torsion

> <Gold.Protein.ActiveResidues>
 VAL166  LYS551  ARG553  GLY616  TRP617  ASP618  TYR619  PRO620  LYS621  CYS622 
 ASP623  PHE694  ASN695  SER759  ASP760  ASP761  ALA762  ILE779  LEU786  VAL792 
 PHE793  MET794  SER795  GLU796  ALA797  LYS798  CYS799  TRP800  GLU811  SER814 

> <Gold.Protein.RotatedAtoms>
  150.8293  134.7539  159.6839 H   0  0  0  0  0  0  0  0  0  0  0  0  # atno 6907 bound_to 6896
  152.4400  134.5607  159.9903 H   0  0  0  0  0  0  0  0  0  0  0  0  # atno 6908 bound_to 6896
  151.5772  133.3345  159.3037 H   0  0  0  0  0  0  0  0  0  0  0  0  # atno 6909 bound_to 6896
  144.7174  140.0194  143.6440 H   0  0  0  0  0  0  0  0  0  0  0  0  # atno 7974 bound_to 7965
  156.2117  140.1783  156.7679 H   0  0  0  0  0  0  0  0  0  0  0  0  # atno 8008 bound_to 7997
  154.5733  140.0679  156.9026 H   0  0  0  0  0  0  0  0  0  0  0  0  # atno 8009 bound_to 7997
  155.2634  140.3337  155.4273 H   0  0  0  0  0  0  0  0  0  0  0  0  # atno 8010 bound_to 7997
  139.6903  144.7108  151.1360 H   0  0  0  0  0  0  0  0  0  0  0  0  # atno 10167 bound_to 10162
  157.6345  130.9425  150.0512 H   0  0  0  0  0  0  0  0  0  0  0  0  # atno 10718 bound_to 10713
  154.5737  135.2830  155.0802 H   0  0  0  0  0  0  0  0  0  0  0  0  # atno 10763 bound_to 10752
  154.2165  135.6399  153.5135 H   0  0  0  0  0  0  0  0  0  0  0  0  # atno 10764 bound_to 10752
  153.0065  135.5504  154.6368 H   0  0  0  0  0  0  0  0  0  0  0  0  # atno 10765 bound_to 10752
  139.9391  134.9637  156.8510 H   0  0  0  0  0  0  0  0  0  0  0  0  # atno 11005 bound_to 11000
  146.0193  139.3237  143.0822 LP  0  0  0  0  0  0  0  0  0  0  0  0  # atno 17320 bound_to 7965
  145.8587  140.9487  143.0711 LP  0  0  0  0  0  0  0  0  0  0  0  0  # atno 17321 bound_to 7965
  140.7680  143.5569  150.9142 LP  0  0  0  0  0  0  0  0  0  0  0  0  # atno 17342 bound_to 10162
  139.9246  143.6566  152.3089 LP  0  0  0  0  0  0  0  0  0  0  0  0  # atno 17343 bound_to 10162
  156.1573  130.3643  149.9350 LP  0  0  0  0  0  0  0  0  0  0  0  0  # atno 17370 bound_to 10713
  156.7356  130.9060  151.3629 LP  0  0  0  0  0  0  0  0  0  0  0  0  # atno 17371 bound_to 10713
  140.5999  134.0182  155.7533 LP  0  0  0  0  0  0  0  0  0  0  0  0  # atno 17394 bound_to 11000
  141.1018  133.9757  157.3066 LP  0  0  0  0  0  0  0  0  0  0  0  0  # atno 17395 bound_to 11000

$$$$
