AV-unprocessed.smi:1149|AV-procd|sdf|4890|dock4
  -GOLD-   22720 3463D 1   1.00000     0.00000
 Structure written by MMmdl.
 51 52  0  0  0  0  0  0  0  0  2 V2000
  152.5427  140.0004  158.9506 C   0  0  0  0  0  0  0  0  0  0  0  0
  152.8838  139.7555  157.5906 O   0  0  0  0  0  0  0  0  0  0  0  0
  151.9394  139.1689  156.7735 C   0  0  0  0  0  0  0  0  0  0  0  0
  152.2646  138.9444  155.4210 C   0  0  0  0  0  0  0  0  0  0  0  0
  151.3046  138.3526  154.5782 C   0  0  0  0  0  0  0  0  0  0  0  0
  150.0412  138.0100  155.1158 C   0  0  0  0  0  0  0  0  0  0  0  0
  148.9971  137.3961  154.3727 N   0  0  0  0  0  0  0  0  0  0  0  0
  147.7629  137.0633  154.7882 C   0  0  0  0  0  0  0  0  0  0  0  0
  147.3267  137.2312  155.9266 O   0  0  0  0  0  0  0  0  0  0  0  0
  147.0540  136.5027  153.7981 N   0  0  0  0  0  0  0  0  0  0  0  0
  145.6777  136.0157  153.9024 C   0  0  0  0  0  0  0  0  0  0  0  0
  145.0832  135.5429  152.5413 C   0  0  0  0  0  0  0  0  0  0  0  0
  143.5761  135.2521  152.7375 C   0  0  0  0  0  0  0  0  0  0  0  0
  145.2299  136.7071  151.5283 C   0  0  0  0  0  0  0  0  0  0  0  0
  145.8155  134.3483  152.0394 N   0  0  0  0  0  0  0  0  0  0  0  0
  145.2467  133.7384  150.8256 C   0  0  0  0  0  0  0  0  0  0  0  0
  146.2133  132.6849  150.2483 C   0  0  0  0  0  0  0  0  0  0  0  0
  146.5056  131.6179  151.2319 N   0  3  0  0  0  0  0  0  0  0  0  0
  145.4099  130.6343  151.3950 C   0  0  0  0  0  0  0  0  0  0  0  0
  146.9754  132.2109  152.5047 C   0  0  0  0  0  0  0  0  0  0  0  0
  145.9896  133.2734  153.0306 C   0  0  0  0  0  0  0  0  0  0  0  0
  149.8218  138.2593  156.4862 C   0  0  0  0  0  0  0  0  0  0  0  0
  150.7370  138.8273  157.2995 N   0  0  0  0  0  0  0  0  0  0  0  0
  153.3844  140.4766  159.4532 H   0  0  0  0  0  0  0  0  0  0  0  0
  152.3239  139.0718  159.4797 H   0  0  0  0  0  0  0  0  0  0  0  0
  151.6863  140.6712  159.0334 H   0  0  0  0  0  0  0  0  0  0  0  0
  153.2356  139.2185  155.0360 H   0  0  0  0  0  0  0  0  0  0  0  0
  151.5606  138.1635  153.5475 H   0  0  0  0  0  0  0  0  0  0  0  0
  149.2403  137.1196  153.4327 H   0  0  0  0  0  0  0  0  0  0  0  0
  147.4976  136.4074  152.8966 H   0  0  0  0  0  0  0  0  0  0  0  0
  145.6604  135.2166  154.6424 H   0  0  0  0  0  0  0  0  0  0  0  0
  145.0380  136.7868  154.3356 H   0  0  0  0  0  0  0  0  0  0  0  0
  143.0564  136.1444  153.0891 H   0  0  0  0  0  0  0  0  0  0  0  0
  143.3966  134.4744  153.4797 H   0  0  0  0  0  0  0  0  0  0  0  0
  143.0864  134.9509  151.8118 H   0  0  0  0  0  0  0  0  0  0  0  0
  144.8994  137.6504  151.9645 H   0  0  0  0  0  0  0  0  0  0  0  0
  144.6223  136.5639  150.6352 H   0  0  0  0  0  0  0  0  0  0  0  0
  146.2643  136.8426  151.2103 H   0  0  0  0  0  0  0  0  0  0  0  0
  144.2752  133.2908  151.0355 H   0  0  0  0  0  0  0  0  0  0  0  0
  145.0889  134.4818  150.0472 H   0  0  0  0  0  0  0  0  0  0  0  0
  145.8040  132.2486  149.3364 H   0  0  0  0  0  0  0  0  0  0  0  0
  147.1507  133.1657  149.9646 H   0  0  0  0  0  0  0  0  0  0  0  0
  144.5067  131.0919  151.7985 H   0  0  0  0  0  0  0  0  0  0  0  0
  145.7140  129.8334  152.0695 H   0  0  0  0  0  0  0  0  0  0  0  0
  145.1597  130.1799  150.4358 H   0  0  0  0  0  0  0  0  0  0  0  0
  147.1259  131.4272  153.2480 H   0  0  0  0  0  0  0  0  0  0  0  0
  147.9519  132.6686  152.3389 H   0  0  0  0  0  0  0  0  0  0  0  0
  146.4019  133.6575  153.9608 H   0  0  0  0  0  0  0  0  0  0  0  0
  145.0319  132.8147  153.2769 H   0  0  0  0  0  0  0  0  0  0  0  0
  148.8791  138.0002  156.9461 H   0  0  0  0  0  0  0  0  0  0  0  0
  147.2828  131.0920  150.8583 H   0  0  0  0  0  0  0  0  0  0  0  0
  1  2  1  0  0  0  0
  1 24  1  0  0  0  0
  1 25  1  0  0  0  0
  1 26  1  0  0  0  0
  2  3  1  0  0  0  0
  3 23  1  0  0  0  0
  3  4  2  0  0  0  0
  4  5  1  0  0  0  0
  4 27  1  0  0  0  0
  5  6  2  0  0  0  0
  5 28  1  0  0  0  0
  6  7  1  0  0  0  0
  6 22  1  0  0  0  0
  7  8  1  0  0  0  0
  7 29  1  0  0  0  0
  8  9  2  0  0  0  0
  8 10  1  0  0  0  0
 10 11  1  0  0  0  0
 10 30  1  0  0  0  0
 11 12  1  0  0  0  0
 11 31  1  0  0  0  0
 11 32  1  0  0  0  0
 12 13  1  0  0  0  0
 12 14  1  0  0  0  0
 12 15  1  0  0  0  0
 13 33  1  0  0  0  0
 13 34  1  0  0  0  0
 13 35  1  0  0  0  0
 14 36  1  0  0  0  0
 14 37  1  0  0  0  0
 14 38  1  0  0  0  0
 15 21  1  0  0  0  0
 15 16  1  0  0  0  0
 16 17  1  0  0  0  0
 16 39  1  0  0  0  0
 16 40  1  0  0  0  0
 17 18  1  0  0  0  0
 17 41  1  0  0  0  0
 17 42  1  0  0  0  0
 18 19  1  0  0  0  0
 18 20  1  0  0  0  0
 18 51  1  0  0  0  0
 19 43  1  0  0  0  0
 19 44  1  0  0  0  0
 19 45  1  0  0  0  0
 20 21  1  0  0  0  0
 20 46  1  0  0  0  0
 20 47  1  0  0  0  0
 21 48  1  0  0  0  0
 21 49  1  0  0  0  0
 22 23  2  0  0  0  0
 22 50  1  0  0  0  0
M  CHG  1  18   1
M  END
> <s_m_source_file>
AV-unprocessed.smi

> <i_m_source_file_index>
1149

> <i_lp_mmshare_version>
43012

> <i_f3d_flags>
0

> <s_epik_input>
W0NIM11PYzFbY0hdW2NIXWMoW2NIXW4xKVtOSF1DKD1PKVtOSF1bQ0gyXUMoW0NIM10pKFtDSDNdKU4yW0NIMl1bQ0gyXU4oW0NIM10pW0NIMl1bQ0gyXTI=

> <s_epik_cmdline>
J2VwaWtfcHl0aG9uJywgJy1waCcsICc3LjAnLCAnLXRuJywgJzgnLCAnLW1hJywgJzIwMCcsICctbWV0YWxfYmluZGluZycsICctaW1hZScsICc8aW5maWxlLm1hZT4nLCAnLW9tYWUnLCAnPG91dGZpbGUubWFlPic=

> <r_lp_tautomer_probability>
1

> <r_epik_Ionization_Penalty>
0.0248754

> <r_epik_Ionization_Penalty_Charging>
0.0238192

> <r_epik_Ionization_Penalty_Neutral>
0.00105627

> <r_epik_State_Penalty>
0.139266

> <r_epik_Charging_Adjusted_Penalty>
0.163085

> <i_epik_Tot_Q>
1

> <i_epik_Tot_abs_Q>
1

> <r_epik_Metal_State_Penalty>
0.139265

> <b_epik_Metal_Only>
0

> <s_lp_Force_Field>
OPLS_2005

> <r_lp_Energy>
29.3026

> <b_lp_Chiralities_Consistent>
1

> <s_lp_Variant>
AV-unprocessed.smi:1149-1

> <Gold.Version>
5.8.1

> <Gold.Id.Protein>
6NUR|6NUR_protein|mol2

> <Gold.PLP.Fitness>
43.2039

> <Gold.PLP.PLP>
-31.5621

> <Gold.PLP.part.hbond>
-4.0000

> <Gold.PLP.part.metal>
0.0000

> <Gold.PLP.part.buried>
-2.4058

> <Gold.PLP.part.nonpolar>
-25.0150

> <Gold.PLP.part.repulsive>
0.1511

> <Gold.PLP.ligand.clash>
0.0000

> <Gold.PLP.ligand.torsion>
0.1891

> <Gold.PLP.Chemscore.Hbond>
3.9920

> <Gold.PLP.Chemscore.CHOScore>
0.0000

> <Gold.PLP.Chemscore.Metal>
0.0000

> <Gold.Chemscore.Hbonds>
donor molecule, donor type, donor heavy atom, donor atom, acceptor molecule, acceptor atom, score
      L1  H     7    29       P1  7948  1.00
      L1  H    10    30       P1  7948  1.00
      L1  H    18    51       P1 10747  1.00
      P1  H  7997  8010       L1     2  1.00

> <Gold.PLP.Chemscore.Internal.Correction>
0.0439

> <Gold.Rescore>
     Score         DG    S(hbond)    S(metal)    S(lipo)     H(rot)  DE(clash)    DE(int)     intcor
     21.57     -23.31       3.84        0.00      80.45       1.72       0.24       1.49       ----

> <Gold.Chemscore.Fitness>
21.5748

> <Gold.Chemscore.DG>
-23.3096

> <Gold.Chemscore.ZeroCoef>
-5.4800

> <Gold.Chemscore.Hbond>
3.8393

> <Gold.Chemscore.Metal>
0.0000

> <Gold.Chemscore.Lipo>
80.4509

> <Gold.Chemscore.Internal_Hbond>
0.0000

> <Gold.Chemscore.DEClash>
0.2409

> <Gold.Chemscore.DEInternal>
1.4940

> <Gold.Chemscore.Rot>
1.7213

> <Gold.Chemscore.Internal.Correction>
   9.000000E+99

> <Gold.Chemscore.Hbonds>
donor molecule, donor type, donor heavy atom, donor atom, acceptor molecule, acceptor atom, score
      L1  H     7    29       P1  7948  0.97
      L1  H    10    30       P1  7948  0.96
      L1  H    18    51       P1 10747  0.99
      P1  H  7997  8010       L1     2  0.78

> <Gold.Chemscore.Hbond.Weighted>
-12.8234

> <Gold.Chemscore.Metal.Weighted>
-0.0000

> <Gold.Chemscore.Lipo.Weighted>
-9.4128

> <Gold.Chemscore.Internal_Hbond.Weighted>
0.0000

> <Gold.Chemscore.DEClash.Weighted>
0.2409

> <Gold.Chemscore.DEInternal.Weighted>
1.4940

> <Gold.Chemscore.Rot.Weighted>
4.4066

> <Gold.Chemscore.Internal.Correction.Weighted>
   9.000000E+99

> <Gold.Protein.RotatedTorsions>
[ 6907 6896 6895 6894 ] final   74.70 input  -60.11 | X-H torsion
[ 7974 7965 7964 7962 ] final   47.93 input  175.53 | X-H torsion
[ 8008 7997 7996 7995 ] final   58.74 input   59.86 | X-H torsion
[ 10167 10162 10161 10158 ] final  145.48 input  -65.29 | X-H torsion
[ 10718 10713 10712 10709 ] final  172.17 input   66.30 | X-H torsion
[ 10763 10752 10751 10750 ] final  168.15 input  -60.55 | X-H torsion
[ 11005 11000 10999 10996 ] final  -92.26 input  -57.11 | X-H torsion

> <Gold.Protein.ActiveResidues>
 VAL166  LYS551  ARG553  GLY616  TRP617  ASP618  TYR619  PRO620  LYS621  CYS622 
 ASP623  PHE694  ASN695  SER759  ASP760  ASP761  ALA762  ILE779  LEU786  VAL792 
 PHE793  MET794  SER795  GLU796  ALA797  LYS798  CYS799  TRP800  GLU811  SER814 

> <Gold.Protein.RotatedAtoms>
  152.4989  134.4232  159.9487 H   0  0  0  0  0  0  0  0  0  0  0  0  # atno 6907 bound_to 6896
  151.4206  133.3693  159.2763 H   0  0  0  0  0  0  0  0  0  0  0  0  # atno 6908 bound_to 6896
  150.9226  134.8665  159.7558 H   0  0  0  0  0  0  0  0  0  0  0  0  # atno 6909 bound_to 6896
  146.0252  139.4698  142.9872 H   0  0  0  0  0  0  0  0  0  0  0  0  # atno 7974 bound_to 7965
  155.5549  140.3487  155.4477 H   0  0  0  0  0  0  0  0  0  0  0  0  # atno 8008 bound_to 7997
  156.0557  140.1328  157.0026 H   0  0  0  0  0  0  0  0  0  0  0  0  # atno 8009 bound_to 7997
  154.4455  140.0995  156.6426 H   0  0  0  0  0  0  0  0  0  0  0  0  # atno 8010 bound_to 7997
  139.4925  144.5898  151.6703 H   0  0  0  0  0  0  0  0  0  0  0  0  # atno 10167 bound_to 10162
  156.9829  131.0124  151.2877 H   0  0  0  0  0  0  0  0  0  0  0  0  # atno 10718 bound_to 10713
  154.3643  135.2753  155.2302 H   0  0  0  0  0  0  0  0  0  0  0  0  # atno 10763 bound_to 10752
  154.4477  135.5938  153.6174 H   0  0  0  0  0  0  0  0  0  0  0  0  # atno 10764 bound_to 10752
  152.9841  135.6034  154.3867 H   0  0  0  0  0  0  0  0  0  0  0  0  # atno 10765 bound_to 10752
  141.1526  133.7809  156.9995 H   0  0  0  0  0  0  0  0  0  0  0  0  # atno 11005 bound_to 11000
  145.7129  141.0100  143.1443 LP  0  0  0  0  0  0  0  0  0  0  0  0  # atno 17320 bound_to 7965
  144.7006  139.8779  143.7445 LP  0  0  0  0  0  0  0  0  0  0  0  0  # atno 17321 bound_to 7965
  140.5523  144.0406  150.6132 LP  0  0  0  0  0  0  0  0  0  0  0  0  # atno 17342 bound_to 10162
  140.3464  143.2989  152.0534 LP  0  0  0  0  0  0  0  0  0  0  0  0  # atno 17343 bound_to 10162
  157.5514  130.8184  149.8149 LP  0  0  0  0  0  0  0  0  0  0  0  0  # atno 17370 bound_to 10713
  156.0237  130.3786  150.1885 LP  0  0  0  0  0  0  0  0  0  0  0  0  # atno 17371 bound_to 10713
  140.0949  134.9570  157.1834 LP  0  0  0  0  0  0  0  0  0  0  0  0  # atno 17394 bound_to 11000
  140.3395  134.2719  155.7214 LP  0  0  0  0  0  0  0  0  0  0  0  0  # atno 17395 bound_to 11000

$$$$
