#       Name:                AV-unprocessed.smi:2761
#       Creating user name   scv26
#       Creation time:       Fri Mar 27 15:08:29 2020


#       File generated by GOLD software.
#

@<TRIPOS>MOLECULE
AV-unprocessed.smi:2761
    36    37     1
SMALL
NO_CHARGES


@<TRIPOS>ATOM
      1 ****        -0.8600   1.9158   0.7928 O.2            1 S1                 0.0000
      2 ****        -0.2538   0.8713   0.5449 C.2            1 S1                 0.0000
      3 ****        -0.8324  -0.3358   0.3628 N.am           1 S1                 0.0000
      4 ****        -2.1923  -0.6598   0.3997 C.2            1 S1                 0.0000
      5 ****        -2.4302  -2.0576   0.1454 C.2            1 S1                 0.0000
      6 ****        -3.7124  -2.4847   0.1569 C.2            1 S1                 0.0000
      7 ****        -4.8194  -1.5614   0.4188 C.2            1 S1                 0.0000
      8 ****        -5.9699  -1.9936   0.4196 O.2            1 S1                 0.0000
      9 ****        -4.5176  -0.2446   0.6532 N.pl3          1 S1                -1.0000
     10 ****        -3.1376   0.1980   0.6369 N.2            1 S1                 0.0000
     11 ****         1.2803   0.8927   0.4504 C.3            1 S1                 0.0000
     12 ****         1.8321   2.2608  -0.0137 C.3            1 S1                 0.0000
     13 ****         3.2489   2.1901  -0.1127 O.3            1 S1                 0.0000
     14 ****         3.6551   1.1943  -1.0405 C.3            1 S1                 0.0000
     15 ****         3.1229  -0.1687  -0.5712 C.3            1 S1                 0.0000
     16 ****         1.7065  -0.1036  -0.4779 O.3            1 S1                 0.0000
     17 ****        -0.1927  -1.0920   0.1694 H              1 S1                 0.0000
     18 ****        -1.6401  -2.7673  -0.0513 H              1 S1                 0.0000
     19 ****        -3.9263  -3.5266  -0.0302 H              1 S1                 0.0000
     20 ****         1.6736   0.6535   1.4400 H              1 S1                 0.0000
     21 ****         1.4056   2.5537  -0.9747 H              1 S1                 0.0000
     22 ****         1.5792   3.0435   0.7022 H              1 S1                 0.0000
     23 ****         3.2867   1.4344  -2.0390 H              1 S1                 0.0000
     24 ****         4.7439   1.1790  -1.0938 H              1 S1                 0.0000
     25 ****         3.3976  -0.9483  -1.2816 H              1 S1                 0.0000
     26 ****         3.5533  -0.4440   0.3927 H              1 S1                 0.0000
     27 ****        -1.8568   1.9085   0.8728 LP             1 S1                 0.0000
     28 ****        -0.3550   2.7704   0.9140 LP             1 S1                 0.0000
     29 ****        -6.1400  -2.9631   0.2432 LP             1 S1                 0.0000
     30 ****        -6.7360  -1.3757   0.5968 LP             1 S1                 0.0000
     31 ****        -5.2504   0.4110   0.8356 LP             1 S1                 0.0000
     32 ****        -2.9150   1.1579   0.8073 LP             1 S1                 0.0000
     33 ****         3.6272   1.9705   0.7866 LP             1 S1                 0.0000
     34 ****         3.5985   3.0773  -0.4138 LP             1 S1                 0.0000
     35 ****         1.3326   0.1135  -1.3796 LP             1 S1                 0.0000
     36 ****         1.3608  -0.9931  -0.1790 LP             1 S1                 0.0000
@<TRIPOS>BOND
    1    1    2 2     
    2    2    3 am    
    3    2   11 1     
    4    3   17 1     
    5    3    4 1     
    6    4    5 1     
    7    4   10 2     
    8    5    6 2     
    9    5   18 1     
   10    6    7 1     
   11    6   19 1     
   12    7    8 2     
   13    7    9 1     
   14    9   10 1     
   15   11   16 1     
   16   11   12 1     
   17   11   20 1     
   18   12   13 1     
   19   12   21 1     
   20   12   22 1     
   21   13   14 1     
   22   14   15 1     
   23   14   23 1     
   24   14   24 1     
   25   15   16 1     
   26   15   25 1     
   27   15   26 1     
   28    1   27 1     
   29    1   28 1     
   30    8   29 1     
   31    8   30 1     
   32    9   31 1     
   33   10   32 1     
   34   13   33 1     
   35   13   34 1     
   36   16   35 1     
   37   16   36 1     
@<TRIPOS>SUBSTRUCTURE
      1 S1             1
@<TRIPOS>SET
LONE_PAIRS      STATIC     ATOMS    <user>   **** ""
10 27 28 29 30 31 32 33 34 35 36
DONOR_HYDROGENS      STATIC     ATOMS    <user>   **** ""
1 17
ATOM$BLUE        STATIC     ATOMS    COLORGROUP SYSTEM
10 27 28 29 30 31 32 33 34 35 36
ATOM$RED        STATIC     ATOMS    COLORGROUP SYSTEM
1 17
