#       Name:                AV-unprocessed.smi:1251
#       Creating user name   scv26
#       Creation time:       Fri Mar 27 04:37:39 2020


#       File generated by GOLD software.
#

@<TRIPOS>MOLECULE
AV-unprocessed.smi:1251
    45    46     1
SMALL
NO_CHARGES


@<TRIPOS>ATOM
      1 ****        -6.8903   1.2872   0.5616 C.3            1 S1                 0.0000
      2 ****        -5.5056   0.9867  -0.0225 C.3            1 S1                 0.0000
      3 ****        -4.7626   2.2575  -0.4583 C.3            1 S1                 0.0000
      4 ****        -3.4080   1.9677  -1.0134 C.2            1 S1                 0.0000
      5 ****        -3.1971   1.6946  -2.3035 N.2            1 S1                 0.0000
      6 ****        -1.8614   1.4321  -2.5706 N.2            1 S1                 0.0000
      7 ****        -1.0863   1.4861  -1.4782 C.2            1 S1                 0.0000
      8 ****         0.2375   1.2626  -1.5233 N.pl3          1 S1                -1.0000
      9 ****         0.7316   0.0548  -1.1683 C.2            1 S1                 0.0000
     10 ****         0.0761  -0.9167  -0.7849 O.2            1 S1                 0.0000
     11 ****         2.0677  -0.0253  -1.2567 N.am           1 S1                 0.0000
     12 ****         2.9006  -1.1847  -0.9371 C.3            1 S1                 0.0000
     13 ****         3.9433  -1.3642  -2.0499 C.3            1 S1                 0.0000
     14 ****         3.5638  -1.0048   0.4441 C.3            1 S1                 0.0000
     15 ****         2.5935  -0.8599   1.6181 C.3            1 S1                 0.0000
     16 ****         3.4113  -1.3155   2.8161 C.3            1 S1                 0.0000
     17 ****         4.5972  -2.0602   2.1962 C.3            1 S1                 0.0000
     18 ****         4.2919  -2.1664   0.8125 O.3            1 S1                 0.0000
     19 ****        -1.9704   1.8954  -0.0083 S.3            1 S1                 0.0000
     20 ****        -7.3935   0.3676   0.8610 H              1 S1                 0.0000
     21 ****        -7.5242   1.7915  -0.1684 H              1 S1                 0.0000
     22 ****        -6.8156   1.9274   1.4411 H              1 S1                 0.0000
     23 ****        -4.9114   0.4521   0.7196 H              1 S1                 0.0000
     24 ****        -5.6123   0.3146  -0.8750 H              1 S1                 0.0000
     25 ****        -5.3428   2.7925  -1.2112 H              1 S1                 0.0000
     26 ****        -4.6514   2.9350   0.3889 H              1 S1                 0.0000
     27 ****         2.5522   0.8012  -1.5743 H              1 S1                 0.0000
     28 ****         2.2893  -2.0884  -0.9143 H              1 S1                 0.0000
     29 ****         4.5655  -2.2411  -1.8695 H              1 S1                 0.0000
     30 ****         4.6017  -0.4978  -2.1218 H              1 S1                 0.0000
     31 ****         3.4619  -1.4985  -3.0192 H              1 S1                 0.0000
     32 ****         4.2477  -0.1537   0.4266 H              1 S1                 0.0000
     33 ****         2.2104   0.1553   1.7262 H              1 S1                 0.0000
     34 ****         1.7413  -1.5277   1.4852 H              1 S1                 0.0000
     35 ****         3.7584  -0.4672   3.4070 H              1 S1                 0.0000
     36 ****         2.8222  -1.9611   3.4682 H              1 S1                 0.0000
     37 ****         5.5159  -1.4847   2.3174 H              1 S1                 0.0000
     38 ****         4.7513  -3.0444   2.6391 H              1 S1                 0.0000
     39 ****        -3.9181   1.6809  -2.9963 LP             1 S1                 0.0000
     40 ****        -1.5125   1.2239  -3.4844 LP             1 S1                 0.0000
     41 ****         0.8575   1.9892  -1.8193 LP             1 S1                 0.0000
     42 ****        -0.9192  -0.8517  -0.7140 LP             1 S1                 0.0000
     43 ****         0.5399  -1.7695  -0.5449 LP             1 S1                 0.0000
     44 ****         5.1366  -2.2227   0.2801 LP             1 S1                 0.0000
     45 ****         3.7385  -2.9827   0.6469 LP             1 S1                 0.0000
@<TRIPOS>BOND
    1    1    2 1     
    2    1   20 1     
    3    1   21 1     
    4    1   22 1     
    5    2    3 1     
    6    2   23 1     
    7    2   24 1     
    8    3    4 1     
    9    3   25 1     
   10    3   26 1     
   11    4   19 1     
   12    4    5 2     
   13    5    6 1     
   14    6    7 2     
   15    7    8 1     
   16    7   19 1     
   17    8    9 1     
   18    9   10 2     
   19    9   11 am    
   20   11   12 1     
   21   11   27 1     
   22   12   13 1     
   23   12   14 1     
   24   12   28 1     
   25   13   29 1     
   26   13   30 1     
   27   13   31 1     
   28   14   18 1     
   29   14   15 1     
   30   14   32 1     
   31   15   16 1     
   32   15   33 1     
   33   15   34 1     
   34   16   17 1     
   35   16   35 1     
   36   16   36 1     
   37   17   18 1     
   38   17   37 1     
   39   17   38 1     
   40    5   39 1     
   41    6   40 1     
   42    8   41 1     
   43   10   42 1     
   44   10   43 1     
   45   18   44 1     
   46   18   45 1     
@<TRIPOS>SUBSTRUCTURE
      1 S1             1
@<TRIPOS>SET
LONE_PAIRS      STATIC     ATOMS    <user>   **** ""
7 39 40 41 42 43 44 45
DONOR_HYDROGENS      STATIC     ATOMS    <user>   **** ""
1 27
ATOM$BLUE        STATIC     ATOMS    COLORGROUP SYSTEM
7 39 40 41 42 43 44 45
ATOM$RED        STATIC     ATOMS    COLORGROUP SYSTEM
1 27
