AV-unprocessed.smi:290|AV-procd|sdf|2243|dock5
  -GOLD-   2262022123D 1   1.00000     0.00000
 Structure written by MMmdl.
 59 62  0  0  0  0  0  0  0  0  2 V2000
  152.5206  141.3502  160.1864 C   0  0  0  0  0  0  0  0  0  0  0  0
  152.0423  141.5421  158.7387 C   0  0  2  0  0  0  0  0  0  0  0  0
  151.0057  142.5199  158.7496 O   0  0  0  0  0  0  0  0  0  0  0  0
  150.1182  142.2546  157.6783 C   0  0  0  0  0  0  0  0  0  0  0  0
  150.0098  140.7381  157.7159 C   0  0  0  0  0  0  0  0  0  0  0  0
  151.4384  140.2977  158.0270 C   0  0  1  0  0  0  0  0  0  0  0  0
  152.1157  140.1349  156.7918 O   0  0  0  0  0  0  0  0  0  0  0  0
  151.5162  138.9556  158.8017 C   0  0  0  0  0  0  0  0  0  0  0  0
  150.6568  137.9198  158.2495 N   0  0  0  0  0  0  0  0  0  0  0  0
  149.7703  137.1263  158.9413 C   0  0  0  0  0  0  0  0  0  0  0  0
  149.1056  136.2707  158.2141 N   0  0  0  0  0  0  0  0  0  0  0  0
  149.5699  136.4872  156.9214 C   0  0  0  0  0  0  0  0  0  0  0  0
  149.2744  135.9131  155.6508 C   0  0  0  0  0  0  0  0  0  0  0  0
  148.3403  134.9387  155.4813 N   0  0  0  0  0  0  0  0  0  0  0  0
  147.0285  135.1671  156.0865 C   0  0  0  0  0  0  0  0  0  0  0  0
  145.9875  134.7549  155.0378 C   0  0  0  0  0  0  0  0  0  0  0  0
  146.7861  134.7561  153.7269 C   0  0  2  0  0  0  0  0  0  0  0  0
  146.1836  133.9795  152.6055 N   0  3  2  0  0  0  0  0  0  0  0  0
  147.1927  133.4664  151.6453 C   0  0  0  0  0  0  0  0  0  0  0  0
  145.0273  134.6363  151.9292 C   0  0  0  0  0  0  0  0  0  0  0  0
  144.3515  133.8068  150.8143 C   0  0  0  0  0  0  0  0  0  0  0  0
  143.9054  134.6230  149.7530 O   0  0  0  0  0  0  0  0  0  0  0  0
  148.1606  134.2495  154.2038 C   0  0  2  0  0  0  0  0  0  0  0  0
  148.2418  132.7237  154.4233 C   0  0  0  0  0  0  0  0  0  0  0  0
  149.9699  136.3846  154.5818 N   0  0  0  0  0  0  0  0  0  0  0  0
  150.8779  137.3528  154.7342 C   0  0  0  0  0  0  0  0  0  0  0  0
  151.2443  137.9833  155.8507 N   0  0  0  0  0  0  0  0  0  0  0  0
  150.5574  137.5131  156.9305 C   0  0  0  0  0  0  0  0  0  0  0  0
  146.9071  135.7909  153.4008 H   0  0  0  0  0  0  0  0  0  0  0  0
  148.9185  134.5150  153.4680 H   0  0  0  0  0  0  0  0  0  0  0  0
  153.3286  140.6210  160.2464 H   0  0  0  0  0  0  0  0  0  0  0  0
  151.7103  141.0186  160.8359 H   0  0  0  0  0  0  0  0  0  0  0  0
  152.8993  142.2883  160.5927 H   0  0  0  0  0  0  0  0  0  0  0  0
  152.8702  141.9489  158.1547 H   0  0  0  0  0  0  0  0  0  0  0  0
  149.1579  142.7515  157.8167 H   0  0  0  0  0  0  0  0  0  0  0  0
  150.5562  142.5969  156.7392 H   0  0  0  0  0  0  0  0  0  0  0  0
  149.3437  140.4561  158.5326 H   0  0  0  0  0  0  0  0  0  0  0  0
  149.6055  140.3129  156.7961 H   0  0  0  0  0  0  0  0  0  0  0  0
  151.7345  139.4015  156.3336 H   0  0  0  0  0  0  0  0  0  0  0  0
  152.5398  138.5789  158.8113 H   0  0  0  0  0  0  0  0  0  0  0  0
  151.2298  139.0990  159.8440 H   0  0  0  0  0  0  0  0  0  0  0  0
  149.6268  137.2052  160.0090 H   0  0  0  0  0  0  0  0  0  0  0  0
  146.9193  134.5913  157.0059 H   0  0  0  0  0  0  0  0  0  0  0  0
  146.8966  136.2218  156.3331 H   0  0  0  0  0  0  0  0  0  0  0  0
  145.6128  133.7551  155.2600 H   0  0  0  0  0  0  0  0  0  0  0  0
  145.1342  135.4325  155.0253 H   0  0  0  0  0  0  0  0  0  0  0  0
  147.7942  134.2743  151.2277 H   0  0  0  0  0  0  0  0  0  0  0  0
  146.7133  132.9350  150.8226 H   0  0  0  0  0  0  0  0  0  0  0  0
  147.8744  132.7646  152.1243 H   0  0  0  0  0  0  0  0  0  0  0  0
  144.2827  134.8341  152.7012 H   0  0  0  0  0  0  0  0  0  0  0  0
  145.3077  135.6209  151.5544 H   0  0  0  0  0  0  0  0  0  0  0  0
  144.9953  133.0162  150.4311 H   0  0  0  0  0  0  0  0  0  0  0  0
  143.4717  133.3110  151.2249 H   0  0  0  0  0  0  0  0  0  0  0  0
  144.5516  134.6037  149.0630 H   0  0  0  0  0  0  0  0  0  0  0  0
  148.0905  132.1700  153.4972 H   0  0  0  0  0  0  0  0  0  0  0  0
  147.5051  132.3688  155.1440 H   0  0  0  0  0  0  0  0  0  0  0  0
  149.2250  132.4461  154.8041 H   0  0  0  0  0  0  0  0  0  0  0  0
  151.3808  137.6694  153.8323 H   0  0  0  0  0  0  0  0  0  0  0  0
  145.7886  133.1584  153.0412 H   0  0  0  0  0  0  0  0  0  0  0  0
  1  2  1  0  0  0  0
  1 31  1  0  0  0  0
  1 32  1  0  0  0  0
  1 33  1  0  0  0  0
  2  6  1  0  0  0  0
  2  3  1  0  0  0  0
  2 34  1  0  0  0  0
  3  4  1  0  0  0  0
  4  5  1  0  0  0  0
  4 35  1  0  0  0  0
  4 36  1  0  0  0  0
  5  6  1  0  0  0  0
  5 37  1  0  0  0  0
  5 38  1  0  0  0  0
  6  7  1  0  0  0  0
  6  8  1  0  0  0  0
  7 39  1  0  0  0  0
  8  9  1  0  0  0  0
  8 40  1  0  0  0  0
  8 41  1  0  0  0  0
  9 28  1  0  0  0  0
  9 10  1  0  0  0  0
 10 11  2  0  0  0  0
 10 42  1  0  0  0  0
 11 12  1  0  0  0  0
 12 28  2  0  0  0  0
 12 13  1  0  0  0  0
 13 14  1  0  0  0  0
 13 25  2  0  0  0  0
 14 23  1  0  0  0  0
 14 15  1  0  0  0  0
 15 16  1  0  0  0  0
 15 43  1  0  0  0  0
 15 44  1  0  0  0  0
 16 17  1  0  0  0  0
 16 45  1  0  0  0  0
 16 46  1  0  0  0  0
 17 29  1  0  0  0  0
 17 18  1  0  0  0  0
 17 23  1  0  0  0  0
 18 19  1  0  0  0  0
 18 20  1  0  0  0  0
 18 59  1  0  0  0  0
 19 47  1  0  0  0  0
 19 48  1  0  0  0  0
 19 49  1  0  0  0  0
 20 21  1  0  0  0  0
 20 50  1  0  0  0  0
 20 51  1  0  0  0  0
 21 22  1  0  0  0  0
 21 52  1  0  0  0  0
 21 53  1  0  0  0  0
 22 54  1  0  0  0  0
 23 30  1  0  0  0  0
 23 24  1  0  0  0  0
 24 55  1  0  0  0  0
 24 56  1  0  0  0  0
 24 57  1  0  0  0  0
 25 26  1  0  0  0  0
 26 27  2  0  0  0  0
 26 58  1  0  0  0  0
 27 28  1  0  0  0  0
M  CHG  1  18   1
M  END
> <s_m_source_file>
AV-unprocessed.smi

> <i_m_source_file_index>
290

> <i_lp_mmshare_version>
43012

> <i_f3d_flags>
0

> <s_epik_input>
W0NIMl0xW0NIMl1PW0NAQEhdKFtDSDNdKVtDQEBdMShbT0hdKVtDSDJdbihbY0hdbjIpYyhjMjMpbltjSF1uYzNONFtDSDJdW0NIMl1bQ0BIXShbQ0BIXTRbQ0gzXSlOKFtDSDNdKVtDSDJdW0NIMl1bT0hd

> <s_epik_cmdline>
J2VwaWtfcHl0aG9uJywgJy1waCcsICc3LjAnLCAnLXRuJywgJzgnLCAnLW1hJywgJzIwMCcsICctbWV0YWxfYmluZGluZycsICctaW1hZScsICc8aW5maWxlLm1hZT4nLCAnLW9tYWUnLCAnPG91dGZpbGUubWFlPic=

> <r_lp_tautomer_probability>
1

> <r_epik_Ionization_Penalty>
0.0036983

> <r_epik_Ionization_Penalty_Charging>
0.0032725

> <r_epik_Ionization_Penalty_Neutral>
0.000425798

> <r_epik_State_Penalty>
-0

> <r_epik_Charging_Adjusted_Penalty>
0.0032725

> <i_epik_Tot_Q>
1

> <i_epik_Tot_abs_Q>
1

> <r_epik_Metal_State_Penalty>
-0

> <b_epik_Metal_Only>
0

> <s_lp_Force_Field>
OPLS_2005

> <r_lp_Energy>
63.2975

> <b_lp_Chiralities_Consistent>
1

> <s_lp_Variant>
AV-unprocessed.smi:290-29

> <Gold.Version>
5.8.1

> <Gold.Id.Protein>
6NUR|6NUR_protein|mol2

> <Gold.PLP.Fitness>
37.1854

> <Gold.PLP.PLP>
-31.7371

> <Gold.PLP.part.hbond>
-2.7918

> <Gold.PLP.part.metal>
0.0000

> <Gold.PLP.part.buried>
-6.8328

> <Gold.PLP.part.nonpolar>
-23.5577

> <Gold.PLP.part.repulsive>
1.0749

> <Gold.PLP.ligand.clash>
0.0000

> <Gold.PLP.ligand.torsion>
1.0756

> <Gold.PLP.Chemscore.Hbond>
2.0000

> <Gold.PLP.Chemscore.CHOScore>
0.3421

> <Gold.PLP.Chemscore.Metal>
0.0000

> <Gold.Chemscore.Hbonds>
donor molecule, donor type, donor heavy atom, donor atom, acceptor molecule, acceptor atom, score
      L1  H    22    54       P1  7921  0.73
      P1  H  7997  8009       L1     7  0.44
      L1  C    26    58       P1  7949  0.08

> <Gold.PLP.Chemscore.Internal.Correction>
0.5731

> <Gold.Rescore>
     Score         DG    S(hbond)    S(metal)    S(lipo)     H(rot)  DE(clash)    DE(int)     intcor
      7.94     -10.84       1.97        0.00      69.79       3.67       0.05       2.86       ----

> <Gold.Chemscore.Fitness>
7.9357

> <Gold.Chemscore.DG>
-10.8449

> <Gold.Chemscore.ZeroCoef>
-5.4800

> <Gold.Chemscore.Hbond>
1.9712

> <Gold.Chemscore.Metal>
0.0000

> <Gold.Chemscore.Lipo>
69.7903

> <Gold.Chemscore.Internal_Hbond>
0.0000

> <Gold.Chemscore.DEClash>
0.0476

> <Gold.Chemscore.DEInternal>
2.8616

> <Gold.Chemscore.Rot>
3.6658

> <Gold.Chemscore.Internal.Correction>
   9.000000E+99

> <Gold.Chemscore.Hbonds>
donor molecule, donor type, donor heavy atom, donor atom, acceptor molecule, acceptor atom, score
      L1  H    22    54       P1  7921  0.73
      P1  H  7997  8009       L1     7  0.33

> <Gold.Chemscore.Hbond.Weighted>
-6.5838

> <Gold.Chemscore.Metal.Weighted>
-0.0000

> <Gold.Chemscore.Lipo.Weighted>
-8.1655

> <Gold.Chemscore.Internal_Hbond.Weighted>
0.0000

> <Gold.Chemscore.DEClash.Weighted>
0.0476

> <Gold.Chemscore.DEInternal.Weighted>
2.8616

> <Gold.Chemscore.Rot.Weighted>
9.3844

> <Gold.Chemscore.Internal.Correction.Weighted>
   9.000000E+99

> <Gold.Protein.RotatedTorsions>
[ 6907 6896 6895 6894 ] final   62.07 input  -60.11 | X-H torsion
[ 7974 7965 7964 7962 ] final  -26.58 input  175.53 | X-H torsion
[ 8008 7997 7996 7995 ] final -179.90 input   59.86 | X-H torsion
[ 10167 10162 10161 10158 ] final  -16.27 input  -65.29 | X-H torsion
[ 10718 10713 10712 10709 ] final   37.82 input   66.30 | X-H torsion
[ 10763 10752 10751 10750 ] final   83.39 input  -60.55 | X-H torsion
[ 11005 11000 10999 10996 ] final -100.47 input  -57.11 | X-H torsion

> <Gold.Protein.ActiveResidues>
 VAL166  LYS551  ARG553  GLY616  TRP617  ASP618  TYR619  PRO620  LYS621  CYS622 
 ASP623  PHE694  ASN695  SER759  ASP760  ASP761  ALA762  ILE779  LEU786  VAL792 
 PHE793  MET794  SER795  GLU796  ALA797  LYS798  CYS799  TRP800  GLU811  SER814 

> <Gold.Protein.RotatedAtoms>
  152.4141  134.6072  160.0015 H   0  0  0  0  0  0  0  0  0  0  0  0  # atno 6907 bound_to 6896
  151.6241  133.3331  159.3102 H   0  0  0  0  0  0  0  0  0  0  0  0  # atno 6908 bound_to 6896
  150.8031  134.7177  159.6685 H   0  0  0  0  0  0  0  0  0  0  0  0  # atno 6909 bound_to 6896
  146.1415  140.5039  142.8650 H   0  0  0  0  0  0  0  0  0  0  0  0  # atno 7974 bound_to 7965
  156.0359  140.1292  157.0209 H   0  0  0  0  0  0  0  0  0  0  0  0  # atno 8008 bound_to 7997
  154.4369  140.1040  156.6237 H   0  0  0  0  0  0  0  0  0  0  0  0  # atno 8009 bound_to 7997
  155.5739  140.3467  155.4524 H   0  0  0  0  0  0  0  0  0  0  0  0  # atno 8010 bound_to 7997
  140.7231  143.5133  150.9723 H   0  0  0  0  0  0  0  0  0  0  0  0  # atno 10167 bound_to 10162
  157.3515  130.7601  149.6981 H   0  0  0  0  0  0  0  0  0  0  0  0  # atno 10718 bound_to 10713
  153.1287  135.4693  154.9313 H   0  0  0  0  0  0  0  0  0  0  0  0  # atno 10763 bound_to 10752
  154.7644  135.3140  154.8318 H   0  0  0  0  0  0  0  0  0  0  0  0  # atno 10764 bound_to 10752
  153.8865  135.6889  153.4817 H   0  0  0  0  0  0  0  0  0  0  0  0  # atno 10765 bound_to 10752
  141.1269  133.8401  157.1106 H   0  0  0  0  0  0  0  0  0  0  0  0  # atno 11005 bound_to 11000
  144.7798  140.5817  143.6613 LP  0  0  0  0  0  0  0  0  0  0  0  0  # atno 17320 bound_to 7965
  145.5035  139.1482  143.3644 LP  0  0  0  0  0  0  0  0  0  0  0  0  # atno 17321 bound_to 7965
  139.8848  143.7027  152.3153 LP  0  0  0  0  0  0  0  0  0  0  0  0  # atno 17342 bound_to 10162
  139.7322  144.7579  151.0784 LP  0  0  0  0  0  0  0  0  0  0  0  0  # atno 17343 bound_to 10162
  155.9722  130.4139  150.4107 LP  0  0  0  0  0  0  0  0  0  0  0  0  # atno 17370 bound_to 10713
  157.2170  131.0473  151.2567 LP  0  0  0  0  0  0  0  0  0  0  0  0  # atno 17371 bound_to 10713
  140.0277  134.9916  157.0719 LP  0  0  0  0  0  0  0  0  0  0  0  0  # atno 17394 bound_to 11000
  140.4335  134.1755  155.7169 LP  0  0  0  0  0  0  0  0  0  0  0  0  # atno 17395 bound_to 11000

$$$$
