AV-unprocessed.smi:848|AV-procd|sdf|3941|dock8
  -GOLD-   22720 1413D 1   1.00000     0.00000
 Structure written by MMmdl.
 47 49  0  0  0  0  0  0  0  0  2 V2000
  135.8033  137.0244  154.2137 C   0  0  0  0  0  0  0  0  0  0  0  0
  137.1035  137.7781  154.0233 C   0  0  0  0  0  0  0  0  0  0  0  0
  137.1059  139.1854  153.9541 C   0  0  0  0  0  0  0  0  0  0  0  0
  138.3170  139.8813  153.7753 C   0  0  0  0  0  0  0  0  0  0  0  0
  138.3113  141.3944  153.7018 C   0  0  0  0  0  0  0  0  0  0  0  0
  139.5260  139.1643  153.6651 C   0  0  0  0  0  0  0  0  0  0  0  0
  139.5414  137.7560  153.7320 C   0  0  0  0  0  0  0  0  0  0  0  0
  140.7680  137.1383  153.6118 O   0  0  0  0  0  0  0  0  0  0  0  0
  140.7977  135.7296  153.4225 C   0  0  0  0  0  0  0  0  0  0  0  0
  142.2582  135.2717  153.2975 C   0  0  2  0  0  0  0  0  0  0  0  0
  142.8659  135.3625  154.5708 O   0  0  0  0  0  0  0  0  0  0  0  0
  143.0531  136.1015  152.2688 C   0  0  0  0  0  0  0  0  0  0  0  0
  144.3860  135.5415  151.9933 N   0  0  0  0  0  0  0  0  0  0  0  0
  145.6176  136.1157  152.1143 C   0  0  0  0  0  0  0  0  0  0  0  0
  145.9188  137.5015  152.5812 C   0  0  0  0  0  0  0  0  0  0  0  0
  146.7280  138.2090  151.6683 O   0  0  0  0  0  0  0  0  0  0  0  0
  146.5375  135.1827  151.7401 N   0  3  0  0  0  0  0  0  0  0  0  0
  145.8906  134.0020  151.3734 C   0  0  0  0  0  0  0  0  0  0  0  0
  146.3996  132.7870  150.9249 C   0  0  0  0  0  0  0  0  0  0  0  0
  145.4603  131.7766  150.6327 C   0  0  0  0  0  0  0  0  0  0  0  0
  144.0761  131.9934  150.7908 C   0  0  0  0  0  0  0  0  0  0  0  0
  143.5721  133.2286  151.2485 C   0  0  0  0  0  0  0  0  0  0  0  0
  144.5071  134.2238  151.5344 C   0  0  0  0  0  0  0  0  0  0  0  0
  138.3159  137.0667  153.9139 C   0  0  0  0  0  0  0  0  0  0  0  0
  134.9542  137.7051  154.2824 H   0  0  0  0  0  0  0  0  0  0  0  0
  135.8402  136.4326  155.1286 H   0  0  0  0  0  0  0  0  0  0  0  0
  135.6315  136.3496  153.3748 H   0  0  0  0  0  0  0  0  0  0  0  0
  136.1791  139.7346  154.0375 H   0  0  0  0  0  0  0  0  0  0  0  0
  139.3178  141.7916  153.5673 H   0  0  0  0  0  0  0  0  0  0  0  0
  137.8989  141.8152  154.6192 H   0  0  0  0  0  0  0  0  0  0  0  0
  137.6981  141.7295  152.8649 H   0  0  0  0  0  0  0  0  0  0  0  0
  140.4557  139.6968  153.5270 H   0  0  0  0  0  0  0  0  0  0  0  0
  140.3130  135.2181  154.2560 H   0  0  0  0  0  0  0  0  0  0  0  0
  140.2584  135.4754  152.5080 H   0  0  0  0  0  0  0  0  0  0  0  0
  142.2737  134.2207  153.0071 H   0  0  0  0  0  0  0  0  0  0  0  0
  143.7714  135.6061  154.4545 H   0  0  0  0  0  0  0  0  0  0  0  0
  142.5171  136.1303  151.3195 H   0  0  0  0  0  0  0  0  0  0  0  0
  143.1535  137.1392  152.5868 H   0  0  0  0  0  0  0  0  0  0  0  0
  144.9857  138.0465  152.7262 H   0  0  0  0  0  0  0  0  0  0  0  0
  146.4205  137.4633  153.5481 H   0  0  0  0  0  0  0  0  0  0  0  0
  147.4637  137.6642  151.4329 H   0  0  0  0  0  0  0  0  0  0  0  0
  147.4596  132.6188  150.8029 H   0  0  0  0  0  0  0  0  0  0  0  0
  145.8082  130.8167  150.2790 H   0  0  0  0  0  0  0  0  0  0  0  0
  143.3862  131.1961  150.5555 H   0  0  0  0  0  0  0  0  0  0  0  0
  142.5095  133.3819  151.3623 H   0  0  0  0  0  0  0  0  0  0  0  0
  138.2800  135.9892  153.9706 H   0  0  0  0  0  0  0  0  0  0  0  0
  147.5362  135.3450  151.7401 H   0  0  0  0  0  0  0  0  0  0  0  0
  1  2  1  0  0  0  0
  1 25  1  0  0  0  0
  1 26  1  0  0  0  0
  1 27  1  0  0  0  0
  2 24  1  0  0  0  0
  2  3  2  0  0  0  0
  3  4  1  0  0  0  0
  3 28  1  0  0  0  0
  4  5  1  0  0  0  0
  4  6  2  0  0  0  0
  5 29  1  0  0  0  0
  5 30  1  0  0  0  0
  5 31  1  0  0  0  0
  6  7  1  0  0  0  0
  6 32  1  0  0  0  0
  7  8  1  0  0  0  0
  7 24  2  0  0  0  0
  8  9  1  0  0  0  0
  9 10  1  0  0  0  0
  9 33  1  0  0  0  0
  9 34  1  0  0  0  0
 10 11  1  0  0  0  0
 10 12  1  0  0  0  0
 10 35  1  0  0  0  0
 11 36  1  0  0  0  0
 12 13  1  0  0  0  0
 12 37  1  0  0  0  0
 12 38  1  0  0  0  0
 13 23  1  0  0  0  0
 13 14  1  0  0  0  0
 14 15  1  0  0  0  0
 14 17  2  0  0  0  0
 15 16  1  0  0  0  0
 15 39  1  0  0  0  0
 15 40  1  0  0  0  0
 16 41  1  0  0  0  0
 17 18  1  0  0  0  0
 17 47  1  0  0  0  0
 18 23  2  0  0  0  0
 18 19  1  0  0  0  0
 19 20  2  0  0  0  0
 19 42  1  0  0  0  0
 20 21  1  0  0  0  0
 20 43  1  0  0  0  0
 21 22  2  0  0  0  0
 21 44  1  0  0  0  0
 22 23  1  0  0  0  0
 22 45  1  0  0  0  0
 24 46  1  0  0  0  0
M  CHG  1  17   1
M  END
> <s_m_source_file>
AV-unprocessed.smi

> <i_m_source_file_index>
848

> <i_lp_mmshare_version>
43012

> <i_f3d_flags>
0

> <s_epik_input>
W0NIM11jMVtjSF1jKFtDSDNdKVtjSF1jKFtjSF0xKU9bQ0gyXVtDQEhdKFtPSF0pW0NIMl1uKGMobjIpW0NIMl1bT0hdKWMoYzIzKVtjSF1bY0hdW2NIXVtjSF0z

> <s_epik_cmdline>
J2VwaWtfcHl0aG9uJywgJy1waCcsICc3LjAnLCAnLXRuJywgJzgnLCAnLW1hJywgJzIwMCcsICctbWV0YWxfYmluZGluZycsICctaW1hZScsICc8aW5maWxlLm1hZT4nLCAnLW9tYWUnLCAnPG91dGZpbGUubWFlPic=

> <r_lp_tautomer_probability>
1

> <r_epik_Ionization_Penalty>
1.43292

> <r_epik_Ionization_Penalty_Charging>
1.43206

> <r_epik_Ionization_Penalty_Neutral>
0.000858184

> <r_epik_State_Penalty>
1.51673

> <r_epik_Charging_Adjusted_Penalty>
2.94879

> <i_epik_Tot_Q>
1

> <i_epik_Tot_abs_Q>
1

> <r_epik_Metal_State_Penalty>
5.56186

> <b_epik_Metal_Only>
0

> <s_lp_Force_Field>
OPLS_2005

> <r_lp_Energy>
18.3298

> <b_lp_Chiralities_Consistent>
1

> <s_lp_Variant>
AV-unprocessed.smi:848-3

> <Gold.Version>
5.8.1

> <Gold.Id.Protein>
6NUR|6NUR_protein|mol2

> <Gold.PLP.Fitness>
56.6727

> <Gold.PLP.PLP>
-48.1778

> <Gold.PLP.part.hbond>
-2.5779

> <Gold.PLP.part.metal>
0.0000

> <Gold.PLP.part.buried>
-8.0840

> <Gold.PLP.part.nonpolar>
-38.1791

> <Gold.PLP.part.repulsive>
0.1904

> <Gold.PLP.ligand.clash>
0.0000

> <Gold.PLP.ligand.torsion>
0.2684

> <Gold.PLP.Chemscore.Hbond>
2.9920

> <Gold.PLP.Chemscore.CHOScore>
0.0000

> <Gold.PLP.Chemscore.Metal>
0.0000

> <Gold.Chemscore.Hbonds>
donor molecule, donor type, donor heavy atom, donor atom, acceptor molecule, acceptor atom, score
      L1  H    16    41       P1  7948  0.89
      L1  H    17    47       P1  7948  2.00

> <Gold.PLP.Chemscore.Internal.Correction>
0.0556

> <Gold.Rescore>
     Score         DG    S(hbond)    S(metal)    S(lipo)     H(rot)  DE(clash)    DE(int)     intcor
     17.71     -17.93       1.92        0.00     118.23       3.05       0.03       0.19       ----

> <Gold.Chemscore.Fitness>
17.7121

> <Gold.Chemscore.DG>
-17.9318

> <Gold.Chemscore.ZeroCoef>
-5.4800

> <Gold.Chemscore.Hbond>
1.9223

> <Gold.Chemscore.Metal>
0.0000

> <Gold.Chemscore.Lipo>
118.2329

> <Gold.Chemscore.Internal_Hbond>
0.0000

> <Gold.Chemscore.DEClash>
0.0280

> <Gold.Chemscore.DEInternal>
0.1916

> <Gold.Chemscore.Rot>
3.0476

> <Gold.Chemscore.Internal.Correction>
   9.000000E+99

> <Gold.Chemscore.Hbonds>
donor molecule, donor type, donor heavy atom, donor atom, acceptor molecule, acceptor atom, score
      L1  H    16    41       P1  7948  0.85
      L1  H    17    47       P1  7948  0.93

> <Gold.Chemscore.Hbond.Weighted>
-6.4203

> <Gold.Chemscore.Metal.Weighted>
-0.0000

> <Gold.Chemscore.Lipo.Weighted>
-13.8333

> <Gold.Chemscore.Internal_Hbond.Weighted>
0.0000

> <Gold.Chemscore.DEClash.Weighted>
0.0280

> <Gold.Chemscore.DEInternal.Weighted>
0.1916

> <Gold.Chemscore.Rot.Weighted>
7.8018

> <Gold.Chemscore.Internal.Correction.Weighted>
   9.000000E+99

> <Gold.Protein.RotatedTorsions>
[ 6907 6896 6895 6894 ] final -106.02 input  -60.11 | X-H torsion
[ 7974 7965 7964 7962 ] final   20.68 input  175.53 | X-H torsion
[ 8008 7997 7996 7995 ] final   73.18 input   59.86 | X-H torsion
[ 10167 10162 10161 10158 ] final   57.10 input  -65.29 | X-H torsion
[ 10718 10713 10712 10709 ] final  148.37 input   66.30 | X-H torsion
[ 10763 10752 10751 10750 ] final -165.04 input  -60.55 | X-H torsion
[ 11005 11000 10999 10996 ] final   21.44 input  -57.11 | X-H torsion

> <Gold.Protein.ActiveResidues>
 VAL166  LYS551  ARG553  GLY616  TRP617  ASP618  TYR619  PRO620  LYS621  CYS622 
 ASP623  PHE694  ASN695  SER759  ASP760  ASP761  ALA762  ILE779  LEU786  VAL792 
 PHE793  MET794  SER795  GLU796  ALA797  LYS798  CYS799  TRP800  GLU811  SER814 

> <Gold.Protein.RotatedAtoms>
  150.7367  134.0039  159.3647 H   0  0  0  0  0  0  0  0  0  0  0  0  # atno 6907 bound_to 6896
  151.7995  135.0711  160.0407 H   0  0  0  0  0  0  0  0  0  0  0  0  # atno 6908 bound_to 6896
  152.3151  133.5757  159.5743 H   0  0  0  0  0  0  0  0  0  0  0  0  # atno 6909 bound_to 6896
  146.2102  139.8135  142.8695 H   0  0  0  0  0  0  0  0  0  0  0  0  # atno 7974 bound_to 7965
  155.7799  140.3482  155.5292 H   0  0  0  0  0  0  0  0  0  0  0  0  # atno 8008 bound_to 7997
  155.8739  140.0991  157.1552 H   0  0  0  0  0  0  0  0  0  0  0  0  # atno 8009 bound_to 7997
  154.4019  140.1335  156.4099 H   0  0  0  0  0  0  0  0  0  0  0  0  # atno 8010 bound_to 7997
  140.2016  144.3982  150.6526 H   0  0  0  0  0  0  0  0  0  0  0  0  # atno 10167 bound_to 10162
  157.3094  131.0885  151.1328 H   0  0  0  0  0  0  0  0  0  0  0  0  # atno 10718 bound_to 10713
  154.6970  135.2981  154.9396 H   0  0  0  0  0  0  0  0  0  0  0  0  # atno 10763 bound_to 10752
  154.0341  135.6666  153.4787 H   0  0  0  0  0  0  0  0  0  0  0  0  # atno 10764 bound_to 10752
  153.0653  135.5091  154.8094 H   0  0  0  0  0  0  0  0  0  0  0  0  # atno 10765 bound_to 10752
  140.3916  134.1813  155.7662 H   0  0  0  0  0  0  0  0  0  0  0  0  # atno 11005 bound_to 11000
  145.3171  141.0234  143.3521 LP  0  0  0  0  0  0  0  0  0  0  0  0  # atno 17320 bound_to 7965
  144.8893  139.4796  143.6685 LP  0  0  0  0  0  0  0  0  0  0  0  0  # atno 17321 bound_to 7965
  140.6386  143.2199  151.6340 LP  0  0  0  0  0  0  0  0  0  0  0  0  # atno 17342 bound_to 10162
  139.5215  144.3192  152.0926 LP  0  0  0  0  0  0  0  0  0  0  0  0  # atno 17343 bound_to 10162
  157.2656  130.6679  149.5995 LP  0  0  0  0  0  0  0  0  0  0  0  0  # atno 17370 bound_to 10713
  155.9677  130.4495  150.5661 LP  0  0  0  0  0  0  0  0  0  0  0  0  # atno 17371 bound_to 10713
  141.1889  133.8250  157.0978 LP  0  0  0  0  0  0  0  0  0  0  0  0  # atno 17394 bound_to 11000
  140.0403  134.9858  157.0948 LP  0  0  0  0  0  0  0  0  0  0  0  0  # atno 17395 bound_to 11000

$$$$
