AV-unprocessed.smi:21|AV-procd|sdf|130|dock1
  -GOLD-   2262015313D 1   1.00000     0.00000
 Structure written by MMmdl.
 62 65  0  0  0  0  0  0  0  0  2 V2000
  144.4908  131.8168  150.6893 C   0  0  0  0  0  0  0  0  0  0  0  0
  145.9049  131.7157  150.7289 O   0  0  0  0  0  0  0  0  0  0  0  0
  146.5321  132.8054  151.3880 C   0  0  2  0  0  0  0  0  0  0  0  0
  146.0821  132.8776  152.8421 C   0  0  0  0  0  0  0  0  0  0  0  0
  146.2972  134.3481  153.2450 C   0  0  1  0  0  0  0  0  0  0  0  0
  147.6046  134.5856  154.0321 C   0  0  0  0  0  0  0  0  0  0  0  0
  147.4474  134.4503  155.4802 N   0  0  0  0  0  0  0  0  0  0  0  0
  146.3654  133.6099  155.9920 C   0  0  0  0  0  0  0  0  0  0  0  0
  148.1438  135.2389  156.3515 C   0  0  0  0  0  0  0  0  0  0  0  0
  147.7778  135.2217  157.6622 N   0  0  0  0  0  0  0  0  0  0  0  0
  148.4137  135.9696  158.5665 C   0  0  0  0  0  0  0  0  0  0  0  0
  149.4388  136.8006  158.3848 N   0  0  0  0  0  0  0  0  0  0  0  0
  149.8241  136.8273  157.0784 C   0  0  0  0  0  0  0  0  0  0  0  0
  149.2410  136.0897  156.0053 C   0  0  0  0  0  0  0  0  0  0  0  0
  149.9219  136.3858  154.8276 N   0  0  0  0  0  0  0  0  0  0  0  0
  150.8452  137.2363  155.1818 C   0  0  0  0  0  0  0  0  0  0  0  0
  150.8616  137.5523  156.5188 N   0  0  0  0  0  0  0  0  0  0  0  0
  151.7801  138.4627  157.1823 C   0  0  0  0  0  0  0  0  0  0  0  0
  151.1634  139.8538  157.4782 C   0  0  2  0  0  0  0  0  0  0  0  0
  150.6000  140.5038  156.1878 C   0  0  0  0  0  0  0  0  0  0  0  0
  151.4588  140.3114  155.0839 O   0  0  0  0  0  0  0  0  0  0  0  0
  152.2065  140.7618  158.1871 C   0  0  1  0  0  0  0  0  0  0  0  0
  151.6829  142.0871  158.7148 C   0  0  0  0  0  0  0  0  0  0  0  0
  152.7654  142.4935  159.7073 C   0  0  0  0  0  0  0  0  0  0  0  0
  153.2550  141.2759  160.2546 O   0  0  0  0  0  0  0  0  0  0  0  0
  152.7976  140.1750  159.4756 C   0  0  0  0  0  0  0  0  0  0  0  0
  146.3376  135.1118  151.9718 N   0  3  2  0  0  0  0  0  0  0  0  0
  145.4691  136.3080  151.9420 C   0  0  0  0  0  0  0  0  0  0  0  0
  146.0981  134.1708  150.8575 C   0  0  0  0  0  0  0  0  0  0  0  0
  147.6193  132.7110  151.3550 H   0  0  0  0  0  0  0  0  0  0  0  0
  145.4448  134.6729  153.8439 H   0  0  0  0  0  0  0  0  0  0  0  0
  144.0807  130.9654  150.1466 H   0  0  0  0  0  0  0  0  0  0  0  0
  144.1740  132.7253  150.1759 H   0  0  0  0  0  0  0  0  0  0  0  0
  144.0606  131.8120  151.6910 H   0  0  0  0  0  0  0  0  0  0  0  0
  145.0179  132.6450  152.9036 H   0  0  0  0  0  0  0  0  0  0  0  0
  146.6030  132.1593  153.4733 H   0  0  0  0  0  0  0  0  0  0  0  0
  148.3580  133.8762  153.6885 H   0  0  0  0  0  0  0  0  0  0  0  0
  148.0270  135.5618  153.8008 H   0  0  0  0  0  0  0  0  0  0  0  0
  146.7312  132.9517  156.7808 H   0  0  0  0  0  0  0  0  0  0  0  0
  145.9428  132.9803  155.2089 H   0  0  0  0  0  0  0  0  0  0  0  0
  145.5588  134.2210  156.3986 H   0  0  0  0  0  0  0  0  0  0  0  0
  148.0517  135.8882  159.5808 H   0  0  0  0  0  0  0  0  0  0  0  0
  151.5474  137.6548  154.4752 H   0  0  0  0  0  0  0  0  0  0  0  0
  152.1000  137.9761  158.1034 H   0  0  0  0  0  0  0  0  0  0  0  0
  152.6744  138.5710  156.5675 H   0  0  0  0  0  0  0  0  0  0  0  0
  150.3291  139.6936  158.1634 H   0  0  0  0  0  0  0  0  0  0  0  0
  149.6095  140.1109  155.9564 H   0  0  0  0  0  0  0  0  0  0  0  0
  150.4912  141.5818  156.2943 H   0  0  0  0  0  0  0  0  0  0  0  0
  152.3029  140.0326  155.4052 H   0  0  0  0  0  0  0  0  0  0  0  0
  153.0268  140.9707  157.4980 H   0  0  0  0  0  0  0  0  0  0  0  0
  151.5398  142.8369  157.9363 H   0  0  0  0  0  0  0  0  0  0  0  0
  150.7337  141.9441  159.2335 H   0  0  0  0  0  0  0  0  0  0  0  0
  153.5843  142.9964  159.1915 H   0  0  0  0  0  0  0  0  0  0  0  0
  152.3923  143.1605  160.4846 H   0  0  0  0  0  0  0  0  0  0  0  0
  152.0324  139.6487  160.0478 H   0  0  0  0  0  0  0  0  0  0  0  0
  153.6122  139.4772  159.2804 H   0  0  0  0  0  0  0  0  0  0  0  0
  144.4203  136.0368  152.0700 H   0  0  0  0  0  0  0  0  0  0  0  0
  145.5748  136.8317  150.9916 H   0  0  0  0  0  0  0  0  0  0  0  0
  145.7446  136.9998  152.7381 H   0  0  0  0  0  0  0  0  0  0  0  0
  146.6399  134.4690  149.9596 H   0  0  0  0  0  0  0  0  0  0  0  0
  145.0333  134.1478  150.6175 H   0  0  0  0  0  0  0  0  0  0  0  0
  147.2901  135.4322  151.8707 H   0  0  0  0  0  0  0  0  0  0  0  0
  1  2  1  0  0  0  0
  1 32  1  0  0  0  0
  1 33  1  0  0  0  0
  1 34  1  0  0  0  0
  2  3  1  0  0  0  0
  3 30  1  0  0  0  0
  3 29  1  0  0  0  0
  3  4  1  0  0  0  0
  4  5  1  0  0  0  0
  4 35  1  0  0  0  0
  4 36  1  0  0  0  0
  5 31  1  0  0  0  0
  5  6  1  0  0  0  0
  5 27  1  0  0  0  0
  6  7  1  0  0  0  0
  6 37  1  0  0  0  0
  6 38  1  0  0  0  0
  7  8  1  0  0  0  0
  7  9  1  0  0  0  0
  8 39  1  0  0  0  0
  8 40  1  0  0  0  0
  8 41  1  0  0  0  0
  9 14  1  0  0  0  0
  9 10  2  0  0  0  0
 10 11  1  0  0  0  0
 11 12  2  0  0  0  0
 11 42  1  0  0  0  0
 12 13  1  0  0  0  0
 13 17  1  0  0  0  0
 13 14  2  0  0  0  0
 14 15  1  0  0  0  0
 15 16  2  0  0  0  0
 16 17  1  0  0  0  0
 16 43  1  0  0  0  0
 17 18  1  0  0  0  0
 18 19  1  0  0  0  0
 18 44  1  0  0  0  0
 18 45  1  0  0  0  0
 19 20  1  0  0  0  0
 19 22  1  0  0  0  0
 19 46  1  0  0  0  0
 20 21  1  0  0  0  0
 20 47  1  0  0  0  0
 20 48  1  0  0  0  0
 21 49  1  0  0  0  0
 22 26  1  0  0  0  0
 22 23  1  0  0  0  0
 22 50  1  0  0  0  0
 23 24  1  0  0  0  0
 23 51  1  0  0  0  0
 23 52  1  0  0  0  0
 24 25  1  0  0  0  0
 24 53  1  0  0  0  0
 24 54  1  0  0  0  0
 25 26  1  0  0  0  0
 26 55  1  0  0  0  0
 26 56  1  0  0  0  0
 27 28  1  0  0  0  0
 27 29  1  0  0  0  0
 27 62  1  0  0  0  0
 28 57  1  0  0  0  0
 28 58  1  0  0  0  0
 28 59  1  0  0  0  0
 29 60  1  0  0  0  0
 29 61  1  0  0  0  0
M  CHG  1  27   1
M  END
> <s_m_source_file>
AV-unprocessed.smi

> <i_m_source_file_index>
21

> <i_lp_mmshare_version>
43012

> <i_f3d_flags>
0

> <s_epik_input>
W0NIM11PW0NASF0xW0NIMl1bQ0BIXShOKFtDSDNdKVtDSDJdMSlbQ0gyXU4oW0NIM10pYyhuW2NIXW4yKWMoYzIzKW5bY0hdbjNbQ0gyXVtDQEhdKFtDSDJdW09IXSlbQ0BASF00W0NIMl1bQ0gyXU9bQ0gyXTQ=

> <s_epik_cmdline>
J2VwaWtfcHl0aG9uJywgJy1waCcsICc3LjAnLCAnLXRuJywgJzgnLCAnLW1hJywgJzIwMCcsICctbWV0YWxfYmluZGluZycsICctaW1hZScsICc8aW5maWxlLm1hZT4nLCAnLW9tYWUnLCAnPG91dGZpbGUubWFlPic=

> <r_lp_tautomer_probability>
1

> <r_epik_Ionization_Penalty>
0.0157465

> <r_epik_Ionization_Penalty_Charging>
0.015354

> <r_epik_Ionization_Penalty_Neutral>
0.000392529

> <r_epik_State_Penalty>
0.0120612

> <r_epik_Charging_Adjusted_Penalty>
0.0274152

> <i_epik_Tot_Q>
1

> <i_epik_Tot_abs_Q>
1

> <r_epik_Metal_State_Penalty>
0.0121253

> <b_epik_Metal_Only>
0

> <s_lp_Force_Field>
OPLS_2005

> <r_lp_Energy>
59.1571

> <b_lp_Chiralities_Consistent>
1

> <s_lp_Variant>
AV-unprocessed.smi:21-10

> <Gold.Version>
5.8.1

> <Gold.Id.Protein>
6NUR|6NUR_protein|mol2

> <Gold.PLP.Fitness>
42.3479

> <Gold.PLP.PLP>
-35.1125

> <Gold.PLP.part.hbond>
-2.0000

> <Gold.PLP.part.metal>
0.0000

> <Gold.PLP.part.buried>
-7.3549

> <Gold.PLP.part.nonpolar>
-25.9955

> <Gold.PLP.part.repulsive>
0.3190

> <Gold.PLP.ligand.clash>
0.0000

> <Gold.PLP.ligand.torsion>
1.2177

> <Gold.PLP.Chemscore.Hbond>
2.9920

> <Gold.PLP.Chemscore.CHOScore>
0.0000

> <Gold.PLP.Chemscore.Metal>
0.0000

> <Gold.Chemscore.Hbonds>
donor molecule, donor type, donor heavy atom, donor atom, acceptor molecule, acceptor atom, score
      L1  H    27    62       P1  7948  2.00
      P1  H  7989  7998       L1    21  0.99

> <Gold.PLP.Chemscore.Internal.Correction>
0.6947

> <Gold.Rescore>
     Score         DG    S(hbond)    S(metal)    S(lipo)     H(rot)  DE(clash)    DE(int)     intcor
     12.51     -14.51       1.91        0.00      90.06       3.08       0.00       2.00       ----

> <Gold.Chemscore.Fitness>
12.5116

> <Gold.Chemscore.DG>
-14.5132

> <Gold.Chemscore.ZeroCoef>
-5.4800

> <Gold.Chemscore.Hbond>
1.9072

> <Gold.Chemscore.Metal>
0.0000

> <Gold.Chemscore.Lipo>
90.0641

> <Gold.Chemscore.Internal_Hbond>
0.0000

> <Gold.Chemscore.DEClash>
0.0017

> <Gold.Chemscore.DEInternal>
1.9999

> <Gold.Chemscore.Rot>
3.0758

> <Gold.Chemscore.Internal.Correction>
   9.000000E+99

> <Gold.Chemscore.Hbonds>
donor molecule, donor type, donor heavy atom, donor atom, acceptor molecule, acceptor atom, score
      L1  H    27    62       P1  7948  1.00
      P1  H  7989  7998       L1    21  0.61

> <Gold.Chemscore.Hbond.Weighted>
-6.3699

> <Gold.Chemscore.Metal.Weighted>
-0.0000

> <Gold.Chemscore.Lipo.Weighted>
-10.5375

> <Gold.Chemscore.Internal_Hbond.Weighted>
0.0000

> <Gold.Chemscore.DEClash.Weighted>
0.0017

> <Gold.Chemscore.DEInternal.Weighted>
1.9999

> <Gold.Chemscore.Rot.Weighted>
7.8741

> <Gold.Chemscore.Internal.Correction.Weighted>
   9.000000E+99

> <Gold.Protein.RotatedTorsions>
[ 6907 6896 6895 6894 ] final -144.24 input  -60.11 | X-H torsion
[ 7974 7965 7964 7962 ] final  -36.20 input  175.53 | X-H torsion
[ 8008 7997 7996 7995 ] final   36.02 input   59.86 | X-H torsion
[ 10167 10162 10161 10158 ] final   95.91 input  -65.29 | X-H torsion
[ 10718 10713 10712 10709 ] final  -72.25 input   66.30 | X-H torsion
[ 10763 10752 10751 10750 ] final  123.51 input  -60.55 | X-H torsion
[ 11005 11000 10999 10996 ] final  142.00 input  -57.11 | X-H torsion

> <Gold.Protein.ActiveResidues>
 VAL166  LYS551  ARG553  GLY616  TRP617  ASP618  TYR619  PRO620  LYS621  CYS622 
 ASP623  PHE694  ASN695  SER759  ASP760  ASP761  ALA762  ILE779  LEU786  VAL792 
 PHE793  MET794  SER795  GLU796  ALA797  LYS798  CYS799  TRP800  GLU811  SER814 

> <Gold.Protein.RotatedAtoms>
  151.1113  133.5171  159.2605 H   0  0  0  0  0  0  0  0  0  0  0  0  # atno 6907 bound_to 6896
  151.1964  135.0424  159.8864 H   0  0  0  0  0  0  0  0  0  0  0  0  # atno 6908 bound_to 6896
  152.5450  134.0947  159.8345 H   0  0  0  0  0  0  0  0  0  0  0  0  # atno 6909 bound_to 6896
  146.0682  140.6250  142.8965 H   0  0  0  0  0  0  0  0  0  0  0  0  # atno 7974 bound_to 7965
  155.1806  140.3299  155.4376 H   0  0  0  0  0  0  0  0  0  0  0  0  # atno 8008 bound_to 7997
  156.2478  140.1927  156.6854 H   0  0  0  0  0  0  0  0  0  0  0  0  # atno 8009 bound_to 7997
  154.6274  140.0587  156.9676 H   0  0  0  0  0  0  0  0  0  0  0  0  # atno 8010 bound_to 7997
  139.7944  144.6839  150.9849 H   0  0  0  0  0  0  0  0  0  0  0  0  # atno 10167 bound_to 10162
  156.0328  130.4368  150.2564 H   0  0  0  0  0  0  0  0  0  0  0  0  # atno 10718 bound_to 10713
  153.6467  135.3370  155.3088 H   0  0  0  0  0  0  0  0  0  0  0  0  # atno 10763 bound_to 10752
  154.8547  135.4331  154.1947 H   0  0  0  0  0  0  0  0  0  0  0  0  # atno 10764 bound_to 10752
  153.2879  135.7014  153.7395 H   0  0  0  0  0  0  0  0  0  0  0  0  # atno 10765 bound_to 10752
  140.0444  134.9288  157.0902 H   0  0  0  0  0  0  0  0  0  0  0  0  # atno 11005 bound_to 11000
  144.7215  140.4388  143.7004 LP  0  0  0  0  0  0  0  0  0  0  0  0  # atno 17320 bound_to 7965
  145.6440  139.1554  143.2900 LP  0  0  0  0  0  0  0  0  0  0  0  0  # atno 17321 bound_to 7965
  140.7820  143.4347  151.0642 LP  0  0  0  0  0  0  0  0  0  0  0  0  # atno 17342 bound_to 10162
  139.8022  143.8068  152.3164 LP  0  0  0  0  0  0  0  0  0  0  0  0  # atno 17343 bound_to 10162
  157.0665  131.0105  151.3204 LP  0  0  0  0  0  0  0  0  0  0  0  0  # atno 17370 bound_to 10713
  157.5031  130.7892  149.7625 LP  0  0  0  0  0  0  0  0  0  0  0  0  # atno 17371 bound_to 10713
  140.4017  134.2075  155.7163 LP  0  0  0  0  0  0  0  0  0  0  0  0  # atno 17394 bound_to 11000
  141.1899  133.8228  157.0938 LP  0  0  0  0  0  0  0  0  0  0  0  0  # atno 17395 bound_to 11000

$$$$
