AV-unprocessed.smi:3039|AV-procd|sdf|11592|dock9
  -GOLD-   2272016573D 1   1.00000     0.00000
 Structure written by MMmdl.
 38 39  0  0  0  0  0  0  0  0  1 V2000
  153.1081  139.3576  157.8739 O   0  0  0  0  0  0  0  0  0  0  0  0
  151.8969  139.1791  157.9988 C   0  0  0  0  0  0  0  0  0  0  0  0
  151.3489  138.4770  159.2418 C   0  0  0  0  0  0  0  0  0  0  0  0
  150.5296  137.2780  158.8436 C   0  0  0  0  0  0  0  0  0  0  0  0
  149.1204  137.1029  158.9321 C   0  0  0  0  0  0  0  0  0  0  0  0
  148.9227  135.8474  158.4340 C   0  0  0  0  0  0  0  0  0  0  0  0
  150.1044  135.2888  158.0691 O   0  0  0  0  0  0  0  0  0  0  0  0
  151.1251  136.2077  158.3373 N   0  0  0  0  0  0  0  0  0  0  0  0
  150.9904  139.5709  157.0899 N   0  0  0  0  0  0  0  0  0  0  0  0
  151.2708  140.2995  155.8519 C   0  0  1  0  0  0  0  0  0  0  0  0
  150.8721  139.4693  154.6083 C   0  0  0  0  0  0  0  0  0  0  0  0
  149.4179  138.9567  154.6033 C   0  0  0  0  0  0  0  0  0  0  0  0
  148.3643  139.9458  154.0758 C   0  0  0  0  0  0  0  0  0  0  0  0
  148.5876  141.4328  154.3991 C   0  0  0  0  0  0  0  0  0  0  0  0
  149.1157  141.7381  155.8115 C   0  0  0  0  0  0  0  0  0  0  0  0
  150.6618  141.7236  155.9011 C   0  0  1  0  0  0  0  0  0  0  0  0
  151.1600  142.4943  157.1463 C   0  0  0  0  0  0  0  0  0  0  0  0
  150.8838  143.8754  157.0348 O   0  0  0  0  0  0  0  0  0  0  0  0
  152.1797  138.1872  159.8871 H   0  0  0  0  0  0  0  0  0  0  0  0
  150.7408  139.1775  159.8155 H   0  0  0  0  0  0  0  0  0  0  0  0
  148.3739  137.7913  159.2999 H   0  0  0  0  0  0  0  0  0  0  0  0
  148.0432  135.2396  158.2815 H   0  0  0  0  0  0  0  0  0  0  0  0
  150.0192  139.3721  157.2829 H   0  0  0  0  0  0  0  0  0  0  0  0
  152.3513  140.4432  155.7896 H   0  0  0  0  0  0  0  0  0  0  0  0
  151.0810  140.0261  153.6941 H   0  0  0  0  0  0  0  0  0  0  0  0
  151.5290  138.5991  154.5703 H   0  0  0  0  0  0  0  0  0  0  0  0
  149.3674  138.0607  153.9838 H   0  0  0  0  0  0  0  0  0  0  0  0
  149.1286  138.6194  155.5981 H   0  0  0  0  0  0  0  0  0  0  0  0
  148.2936  139.8451  152.9922 H   0  0  0  0  0  0  0  0  0  0  0  0
  147.3903  139.6394  154.4591 H   0  0  0  0  0  0  0  0  0  0  0  0
  149.2549  141.8720  153.6566 H   0  0  0  0  0  0  0  0  0  0  0  0
  147.6356  141.9467  154.2612 H   0  0  0  0  0  0  0  0  0  0  0  0
  148.7640  142.7376  156.0684 H   0  0  0  0  0  0  0  0  0  0  0  0
  148.6658  141.0746  156.5509 H   0  0  0  0  0  0  0  0  0  0  0  0
  151.0521  142.2588  155.0338 H   0  0  0  0  0  0  0  0  0  0  0  0
  150.7006  142.1107  158.0584 H   0  0  0  0  0  0  0  0  0  0  0  0
  152.2387  142.3808  157.2595 H   0  0  0  0  0  0  0  0  0  0  0  0
  150.0926  143.9837  156.5293 H   0  0  0  0  0  0  0  0  0  0  0  0
  1  2  2  0  0  0  0
  2  3  1  0  0  0  0
  2  9  1  0  0  0  0
  3  4  1  0  0  0  0
  3 19  1  0  0  0  0
  3 20  1  0  0  0  0
  4  8  2  0  0  0  0
  4  5  1  0  0  0  0
  5  6  2  0  0  0  0
  5 21  1  0  0  0  0
  6  7  1  0  0  0  0
  6 22  1  0  0  0  0
  7  8  1  0  0  0  0
  9 10  1  0  0  0  0
  9 23  1  0  0  0  0
 10 16  1  0  0  0  0
 10 11  1  0  0  0  0
 10 24  1  0  0  0  0
 11 12  1  0  0  0  0
 11 25  1  0  0  0  0
 11 26  1  0  0  0  0
 12 13  1  0  0  0  0
 12 27  1  0  0  0  0
 12 28  1  0  0  0  0
 13 14  1  0  0  0  0
 13 29  1  0  0  0  0
 13 30  1  0  0  0  0
 14 15  1  0  0  0  0
 14 31  1  0  0  0  0
 14 32  1  0  0  0  0
 15 16  1  0  0  0  0
 15 33  1  0  0  0  0
 15 34  1  0  0  0  0
 16 17  1  0  0  0  0
 16 35  1  0  0  0  0
 17 18  1  0  0  0  0
 17 36  1  0  0  0  0
 17 37  1  0  0  0  0
 18 38  1  0  0  0  0
M  END
> <s_m_source_file>
AV-unprocessed.smi

> <i_m_source_file_index>
3039

> <i_lp_mmshare_version>
43012

> <i_f3d_flags>
0

> <s_epik_input>
bjFvW2NIXVtjSF1jMVtDSDJdQyg9TylbTkhdW0NAQEhdMltDSDJdW0NIMl1bQ0gyXVtDSDJdW0NIMl1bQ0BIXTJbQ0gyXVtPSF0=

> <s_epik_cmdline>
J2VwaWtfcHl0aG9uJywgJy1waCcsICc3LjAnLCAnLXRuJywgJzgnLCAnLW1hJywgJzIwMCcsICctbWV0YWxfYmluZGluZycsICctaW1hZScsICc8aW5maWxlLm1hZT4nLCAnLW9tYWUnLCAnPG91dGZpbGUubWFlPic=

> <r_lp_tautomer_probability>
1

> <r_epik_Ionization_Penalty>
3.05817e-07

> <r_epik_Ionization_Penalty_Charging>
0

> <r_epik_Ionization_Penalty_Neutral>
3.05817e-07

> <r_epik_State_Penalty>
-0

> <r_epik_Charging_Adjusted_Penalty>
0

> <i_epik_Tot_Q>
0

> <i_epik_Tot_abs_Q>
0

> <r_epik_Metal_State_Penalty>
-0

> <b_epik_Metal_Only>
0

> <s_lp_Force_Field>
OPLS_2005

> <r_lp_Energy>
19.8887

> <b_lp_Chiralities_Consistent>
1

> <s_lp_Variant>
AV-unprocessed.smi:3039-2

> <Gold.Version>
5.8.1

> <Gold.Id.Protein>
6NUR|6NUR_protein|mol2

> <Gold.PLP.Fitness>
37.2610

> <Gold.PLP.PLP>
-30.3004

> <Gold.PLP.part.hbond>
-4.0000

> <Gold.PLP.part.metal>
0.0000

> <Gold.PLP.part.buried>
-1.0796

> <Gold.PLP.part.nonpolar>
-24.6071

> <Gold.PLP.part.repulsive>
0.0366

> <Gold.PLP.ligand.clash>
0.0000

> <Gold.PLP.ligand.torsion>
0.1995

> <Gold.PLP.Chemscore.Hbond>
2.4344

> <Gold.PLP.Chemscore.CHOScore>
0.0000

> <Gold.PLP.Chemscore.Metal>
0.0000

> <Gold.Chemscore.Hbonds>
donor molecule, donor type, donor heavy atom, donor atom, acceptor molecule, acceptor atom, score
      L1  H    18    38       P1  8028  1.00
      P1  H  6896  6908       L1     7  0.26
      P1  H  6896  6909       L1     8  0.15
      P1  H  7997  8009       L1     1  1.00

> <Gold.PLP.Chemscore.Internal.Correction>
0.0564

> <Gold.Rescore>
     Score         DG    S(hbond)    S(metal)    S(lipo)     H(rot)  DE(clash)    DE(int)     intcor
     14.96     -15.33       2.11        0.00      73.41       2.26       0.14       0.22       ----

> <Gold.Chemscore.Fitness>
14.9619

> <Gold.Chemscore.DG>
-15.3300

> <Gold.Chemscore.ZeroCoef>
-5.4800

> <Gold.Chemscore.Hbond>
2.1109

> <Gold.Chemscore.Metal>
0.0000

> <Gold.Chemscore.Lipo>
73.4136

> <Gold.Chemscore.Internal_Hbond>
0.0000

> <Gold.Chemscore.DEClash>
0.1437

> <Gold.Chemscore.DEInternal>
0.2244

> <Gold.Chemscore.Rot>
2.2616

> <Gold.Chemscore.Internal.Correction>
   9.000000E+99

> <Gold.Chemscore.Hbonds>
donor molecule, donor type, donor heavy atom, donor atom, acceptor molecule, acceptor atom, score
      L1  H    18    38       P1  8028  0.99
      P1  H  6896  6908       L1     7  0.03
      P1  H  7997  8009       L1     1  0.99

> <Gold.Chemscore.Hbond.Weighted>
-7.0503

> <Gold.Chemscore.Metal.Weighted>
-0.0000

> <Gold.Chemscore.Lipo.Weighted>
-8.5894

> <Gold.Chemscore.Internal_Hbond.Weighted>
0.0000

> <Gold.Chemscore.DEClash.Weighted>
0.1437

> <Gold.Chemscore.DEInternal.Weighted>
0.2244

> <Gold.Chemscore.Rot.Weighted>
5.7896

> <Gold.Chemscore.Internal.Correction.Weighted>
   9.000000E+99

> <Gold.Protein.RotatedTorsions>
[ 6907 6896 6895 6894 ] final  120.97 input  -60.11 | X-H torsion
[ 7974 7965 7964 7962 ] final  110.31 input  175.53 | X-H torsion
[ 8008 7997 7996 7995 ] final  146.35 input   59.86 | X-H torsion
[ 10167 10162 10161 10158 ] final  161.48 input  -65.29 | X-H torsion
[ 10718 10713 10712 10709 ] final  -26.25 input   66.30 | X-H torsion
[ 10763 10752 10751 10750 ] final   82.28 input  -60.55 | X-H torsion
[ 11005 11000 10999 10996 ] final  124.60 input  -57.11 | X-H torsion

> <Gold.Protein.ActiveResidues>
 VAL166  LYS551  ARG553  GLY616  TRP617  ASP618  TYR619  PRO620  LYS621  CYS622 
 ASP623  PHE694  ASN695  SER759  ASP760  ASP761  ALA762  ILE779  LEU786  VAL792 
 PHE793  MET794  SER795  GLU796  ALA797  LYS798  CYS799  TRP800  GLU811  SER814 

> <Gold.Protein.RotatedAtoms>
  152.4357  133.7357  159.6612 H   0  0  0  0  0  0  0  0  0  0  0  0  # atno 6907 bound_to 6896
  150.8241  133.8192  159.3132 H   0  0  0  0  0  0  0  0  0  0  0  0  # atno 6908 bound_to 6896
  151.5865  135.1058  160.0081 H   0  0  0  0  0  0  0  0  0  0  0  0  # atno 6909 bound_to 6896
  145.2567  139.2718  143.4039 H   0  0  0  0  0  0  0  0  0  0  0  0  # atno 7974 bound_to 7965
  156.2858  140.2184  156.5363 H   0  0  0  0  0  0  0  0  0  0  0  0  # atno 8008 bound_to 7997
  154.7407  140.0488  157.0830 H   0  0  0  0  0  0  0  0  0  0  0  0  # atno 8009 bound_to 7997
  155.0235  140.3127  155.4788 H   0  0  0  0  0  0  0  0  0  0  0  0  # atno 8010 bound_to 7997
  139.4850  144.4532  151.8802 H   0  0  0  0  0  0  0  0  0  0  0  0  # atno 10167 bound_to 10162
  156.4537  130.4489  149.6973 H   0  0  0  0  0  0  0  0  0  0  0  0  # atno 10718 bound_to 10713
  153.1189  135.4734  154.9162 H   0  0  0  0  0  0  0  0  0  0  0  0  # atno 10763 bound_to 10752
  154.7556  135.3117  154.8479 H   0  0  0  0  0  0  0  0  0  0  0  0  # atno 10764 bound_to 10752
  153.9048  135.6871  153.4807 H   0  0  0  0  0  0  0  0  0  0  0  0  # atno 10765 bound_to 10752
  139.9366  134.9639  156.8433 H   0  0  0  0  0  0  0  0  0  0  0  0  # atno 11005 bound_to 11000
  146.3287  140.2972  142.8618 LP  0  0  0  0  0  0  0  0  0  0  0  0  # atno 17320 bound_to 7965
  144.9455  140.8123  143.5604 LP  0  0  0  0  0  0  0  0  0  0  0  0  # atno 17321 bound_to 7965
  140.3990  144.2517  150.5894 LP  0  0  0  0  0  0  0  0  0  0  0  0  # atno 17342 bound_to 10162
  140.5075  143.2300  151.8586 LP  0  0  0  0  0  0  0  0  0  0  0  0  # atno 17343 bound_to 10162
  156.3789  130.7569  151.2560 LP  0  0  0  0  0  0  0  0  0  0  0  0  # atno 17370 bound_to 10713
  157.7501  131.0301  150.4123 LP  0  0  0  0  0  0  0  0  0  0  0  0  # atno 17371 bound_to 10713
  140.6059  134.0128  155.7556 LP  0  0  0  0  0  0  0  0  0  0  0  0  # atno 17394 bound_to 11000
  141.0983  133.9809  157.3123 LP  0  0  0  0  0  0  0  0  0  0  0  0  # atno 17395 bound_to 11000

$$$$
