AV-unprocessed.smi:215|AV-procd|sdf|1652|dock4
  -GOLD-   2262020 33D 1   1.00000     0.00000
 Structure written by MMmdl.
 59 62  0  0  0  0  0  0  0  0  2 V2000
  149.1998  141.7970  154.7940 C   0  0  0  0  0  0  0  0  0  0  0  0
  149.7151  141.3347  156.1751 C   0  0  2  0  0  0  0  0  0  0  0  0
  151.0084  142.0513  156.6412 C   0  0  1  0  0  0  0  0  0  0  0  0
  150.8078  143.3067  157.4292 N   0  3  2  0  0  0  0  0  0  0  0  0
  151.9677  144.2307  157.4440 C   0  0  0  0  0  0  0  0  0  0  0  0
  150.3032  143.0502  158.8061 C   0  0  0  0  0  0  0  0  0  0  0  0
  149.8531  144.3451  159.5023 C   0  0  0  0  0  0  0  0  0  0  0  0
  149.2058  144.0399  160.7196 O   0  0  0  0  0  0  0  0  0  0  0  0
  151.6868  140.9651  157.4906 C   0  0  0  0  0  0  0  0  0  0  0  0
  151.3157  139.6544  156.8077 C   0  0  0  0  0  0  0  0  0  0  0  0
  150.0590  139.9126  156.1244 N   0  0  0  0  0  0  0  0  0  0  0  0
  149.1116  138.9370  156.1268 C   0  0  0  0  0  0  0  0  0  0  0  0
  149.0519  138.0641  157.1674 N   0  0  0  0  0  0  0  0  0  0  0  0
  148.1305  137.0972  157.1901 C   0  0  0  0  0  0  0  0  0  0  0  0
  147.1849  136.8262  156.2899 N   0  0  0  0  0  0  0  0  0  0  0  0
  147.2327  137.6991  155.2433 C   0  0  0  0  0  0  0  0  0  0  0  0
  148.1528  138.7745  155.0845 C   0  0  0  0  0  0  0  0  0  0  0  0
  147.8782  139.4552  153.9039 N   0  0  0  0  0  0  0  0  0  0  0  0
  146.8581  138.8194  153.3955 C   0  0  0  0  0  0  0  0  0  0  0  0
  146.4143  137.7401  154.1270 N   0  0  0  0  0  0  0  0  0  0  0  0
  145.3032  136.8820  153.8255 C   0  0  0  0  0  0  0  0  0  0  0  0
  144.3651  137.1412  152.6428 C   0  0  0  0  0  0  0  0  0  0  0  0
  143.1963  136.5369  153.4563 C   0  0  0  0  0  0  0  0  0  0  0  0
  141.8589  137.2835  153.3062 C   0  0  0  0  0  0  0  0  0  0  0  0
  141.9704  138.6428  153.6746 O   0  0  0  0  0  0  0  0  0  0  0  0
  142.9691  135.0317  153.1990 C   0  0  0  0  0  0  0  0  0  0  0  0
  141.8715  134.5230  153.9285 O   0  0  0  0  0  0  0  0  0  0  0  0
  144.0476  136.9028  154.6951 C   0  0  0  0  0  0  0  0  0  0  0  0
  148.9417  141.4758  156.9315 H   0  0  0  0  0  0  0  0  0  0  0  0
  151.6308  142.2639  155.7696 H   0  0  0  0  0  0  0  0  0  0  0  0
  148.9193  142.8472  154.7746 H   0  0  0  0  0  0  0  0  0  0  0  0
  148.3168  141.2351  154.4903 H   0  0  0  0  0  0  0  0  0  0  0  0
  149.9578  141.6482  154.0242 H   0  0  0  0  0  0  0  0  0  0  0  0
  152.8530  143.7402  157.8501 H   0  0  0  0  0  0  0  0  0  0  0  0
  151.7657  145.1082  158.0573 H   0  0  0  0  0  0  0  0  0  0  0  0
  152.1927  144.6016  156.4446 H   0  0  0  0  0  0  0  0  0  0  0  0
  149.4651  142.3542  158.8048 H   0  0  0  0  0  0  0  0  0  0  0  0
  151.0830  142.5604  159.3914 H   0  0  0  0  0  0  0  0  0  0  0  0
  150.7186  144.9703  159.7233 H   0  0  0  0  0  0  0  0  0  0  0  0
  149.1879  144.9363  158.8735 H   0  0  0  0  0  0  0  0  0  0  0  0
  149.6220  144.5263  161.4153 H   0  0  0  0  0  0  0  0  0  0  0  0
  152.7671  141.0839  157.5737 H   0  0  0  0  0  0  0  0  0  0  0  0
  151.2733  140.9704  158.5004 H   0  0  0  0  0  0  0  0  0  0  0  0
  152.0662  139.3805  156.0654 H   0  0  0  0  0  0  0  0  0  0  0  0
  151.2425  138.8436  157.5339 H   0  0  0  0  0  0  0  0  0  0  0  0
  148.1551  136.4468  158.0521 H   0  0  0  0  0  0  0  0  0  0  0  0
  146.3987  139.1300  152.4688 H   0  0  0  0  0  0  0  0  0  0  0  0
  145.7025  135.8683  153.7619 H   0  0  0  0  0  0  0  0  0  0  0  0
  144.2288  138.2016  152.4255 H   0  0  0  0  0  0  0  0  0  0  0  0
  144.6234  136.5929  151.7362 H   0  0  0  0  0  0  0  0  0  0  0  0
  141.5128  137.2560  152.2727 H   0  0  0  0  0  0  0  0  0  0  0  0
  141.0746  136.8184  153.9040 H   0  0  0  0  0  0  0  0  0  0  0  0
  142.5358  139.0777  153.0551 H   0  0  0  0  0  0  0  0  0  0  0  0
  142.8054  134.8344  152.1392 H   0  0  0  0  0  0  0  0  0  0  0  0
  143.8451  134.4471  153.4804 H   0  0  0  0  0  0  0  0  0  0  0  0
  142.0615  133.6310  154.1754 H   0  0  0  0  0  0  0  0  0  0  0  0
  144.0431  136.1637  155.4966 H   0  0  0  0  0  0  0  0  0  0  0  0
  143.8251  137.8987  155.0832 H   0  0  0  0  0  0  0  0  0  0  0  0
  150.0660  143.8016  156.9535 H   0  0  0  0  0  0  0  0  0  0  0  0
  1  2  1  0  0  0  0
  1 31  1  0  0  0  0
  1 32  1  0  0  0  0
  1 33  1  0  0  0  0
  2 29  1  0  0  0  0
  2 11  1  0  0  0  0
  2  3  1  0  0  0  0
  3 30  1  0  0  0  0
  3  4  1  0  0  0  0
  3  9  1  0  0  0  0
  4  5  1  0  0  0  0
  4  6  1  0  0  0  0
  4 59  1  0  0  0  0
  5 34  1  0  0  0  0
  5 35  1  0  0  0  0
  5 36  1  0  0  0  0
  6  7  1  0  0  0  0
  6 37  1  0  0  0  0
  6 38  1  0  0  0  0
  7  8  1  0  0  0  0
  7 39  1  0  0  0  0
  7 40  1  0  0  0  0
  8 41  1  0  0  0  0
  9 10  1  0  0  0  0
  9 42  1  0  0  0  0
  9 43  1  0  0  0  0
 10 11  1  0  0  0  0
 10 44  1  0  0  0  0
 10 45  1  0  0  0  0
 11 12  1  0  0  0  0
 12 17  1  0  0  0  0
 12 13  2  0  0  0  0
 13 14  1  0  0  0  0
 14 15  2  0  0  0  0
 14 46  1  0  0  0  0
 15 16  1  0  0  0  0
 16 20  1  0  0  0  0
 16 17  2  0  0  0  0
 17 18  1  0  0  0  0
 18 19  2  0  0  0  0
 19 20  1  0  0  0  0
 19 47  1  0  0  0  0
 20 21  1  0  0  0  0
 21 28  1  0  0  0  0
 21 22  1  0  0  0  0
 21 48  1  0  0  0  0
 22 23  1  0  0  0  0
 22 49  1  0  0  0  0
 22 50  1  0  0  0  0
 23 24  1  0  0  0  0
 23 26  1  0  0  0  0
 23 28  1  0  0  0  0
 24 25  1  0  0  0  0
 24 51  1  0  0  0  0
 24 52  1  0  0  0  0
 25 53  1  0  0  0  0
 26 27  1  0  0  0  0
 26 54  1  0  0  0  0
 26 55  1  0  0  0  0
 27 56  1  0  0  0  0
 28 57  1  0  0  0  0
 28 58  1  0  0  0  0
M  CHG  1   4   1
M  END
> <s_m_source_file>
AV-unprocessed.smi

> <i_m_source_file_index>
215

> <i_lp_mmshare_version>
43012

> <i_f3d_flags>
0

> <s_epik_input>
W09IXVtDSDJdW0NIMl1OKFtDSDNdKVtDQEBIXShbQ0BIXTFbQ0gzXSlbQ0gyXVtDSDJdTjFjKG5bY0hdbjIpYyhjMjMpbltjSF1uM1tDSF0oW0NIMl00KVtDSDJdQzQoW0NIMl1bT0hdKVtDSDJdW09IXQ==

> <s_epik_cmdline>
J2VwaWtfcHl0aG9uJywgJy1waCcsICc3LjAnLCAnLXRuJywgJzgnLCAnLW1hJywgJzIwMCcsICctbWV0YWxfYmluZGluZycsICctaW1hZScsICc8aW5maWxlLm1hZT4nLCAnLW9tYWUnLCAnPG91dGZpbGUubWFlPic=

> <r_lp_tautomer_probability>
1

> <r_epik_Ionization_Penalty>
0.0036237

> <r_epik_Ionization_Penalty_Charging>
0.0032725

> <r_epik_Ionization_Penalty_Neutral>
0.000351196

> <r_epik_State_Penalty>
-0

> <r_epik_Charging_Adjusted_Penalty>
0.0032725

> <i_epik_Tot_Q>
1

> <i_epik_Tot_abs_Q>
1

> <r_epik_Metal_State_Penalty>
-0

> <b_epik_Metal_Only>
0

> <s_lp_Force_Field>
OPLS_2005

> <r_lp_Energy>
64.69

> <b_lp_Chiralities_Consistent>
1

> <s_lp_Variant>
AV-unprocessed.smi:215-3

> <Gold.Version>
5.8.1

> <Gold.Id.Protein>
6NUR|6NUR_protein|mol2

> <Gold.PLP.Fitness>
46.9050

> <Gold.PLP.PLP>
-35.3526

> <Gold.PLP.part.hbond>
-4.4549

> <Gold.PLP.part.metal>
0.0000

> <Gold.PLP.part.buried>
-5.9331

> <Gold.PLP.part.nonpolar>
-24.5636

> <Gold.PLP.part.repulsive>
0.1774

> <Gold.PLP.ligand.clash>
0.0000

> <Gold.PLP.ligand.torsion>
1.5610

> <Gold.PLP.Chemscore.Hbond>
4.5920

> <Gold.PLP.Chemscore.CHOScore>
0.0000

> <Gold.PLP.Chemscore.Metal>
0.0000

> <Gold.Chemscore.Hbonds>
donor molecule, donor type, donor heavy atom, donor atom, acceptor molecule, acceptor atom, score
      L1  H     4    59       P1  8028  2.00
      L1  H    25    53       P1 10175  1.00
      L1  H    27    56       P1 10957  0.99
      P1  H  6933  6944       L1     8  0.53

> <Gold.PLP.Chemscore.Internal.Correction>
0.8984

> <Gold.Rescore>
     Score         DG    S(hbond)    S(metal)    S(lipo)     H(rot)  DE(clash)    DE(int)     intcor
     11.71     -14.99       3.48        0.00      80.06       4.48       0.39       2.89       ----

> <Gold.Chemscore.Fitness>
11.7084

> <Gold.Chemscore.DG>
-14.9889

> <Gold.Chemscore.ZeroCoef>
-5.4800

> <Gold.Chemscore.Hbond>
3.4753

> <Gold.Chemscore.Metal>
0.0000

> <Gold.Chemscore.Lipo>
80.0584

> <Gold.Chemscore.Internal_Hbond>
0.0000

> <Gold.Chemscore.DEClash>
0.3926

> <Gold.Chemscore.DEInternal>
2.8879

> <Gold.Chemscore.Rot>
4.4787

> <Gold.Chemscore.Internal.Correction>
   9.000000E+99

> <Gold.Chemscore.Hbonds>
donor molecule, donor type, donor heavy atom, donor atom, acceptor molecule, acceptor atom, score
      L1  H     4    59       P1  8028  0.97
      L1  H    25    53       P1 10175  0.98
      L1  H    27    56       P1 10957  0.92
      P1  H  6933  6944       L1     8  0.34

> <Gold.Chemscore.Hbond.Weighted>
-11.6076

> <Gold.Chemscore.Metal.Weighted>
-0.0000

> <Gold.Chemscore.Lipo.Weighted>
-9.3668

> <Gold.Chemscore.Internal_Hbond.Weighted>
0.0000

> <Gold.Chemscore.DEClash.Weighted>
0.3926

> <Gold.Chemscore.DEInternal.Weighted>
2.8879

> <Gold.Chemscore.Rot.Weighted>
11.4655

> <Gold.Chemscore.Internal.Correction.Weighted>
   9.000000E+99

> <Gold.Protein.RotatedTorsions>
[ 6907 6896 6895 6894 ] final  -22.03 input  -60.11 | X-H torsion
[ 7974 7965 7964 7962 ] final  -45.16 input  175.53 | X-H torsion
[ 8008 7997 7996 7995 ] final  114.71 input   59.86 | X-H torsion
[ 10167 10162 10161 10158 ] final -136.29 input  -65.29 | X-H torsion
[ 10718 10713 10712 10709 ] final   55.26 input   66.30 | X-H torsion
[ 10763 10752 10751 10750 ] final  102.62 input  -60.55 | X-H torsion
[ 11005 11000 10999 10996 ] final   68.39 input  -57.11 | X-H torsion

> <Gold.Protein.ActiveResidues>
 VAL166  LYS551  ARG553  GLY616  TRP617  ASP618  TYR619  PRO620  LYS621  CYS622 
 ASP623  PHE694  ASN695  SER759  ASP760  ASP761  ALA762  ILE779  LEU786  VAL792 
 PHE793  MET794  SER795  GLU796  ALA797  LYS798  CYS799  TRP800  GLU811  SER814 

> <Gold.Protein.RotatedAtoms>
  151.2246  135.0531  159.8963 H   0  0  0  0  0  0  0  0  0  0  0  0  # atno 6907 bound_to 6896
  152.5411  134.0603  159.8159 H   0  0  0  0  0  0  0  0  0  0  0  0  # atno 6908 bound_to 6896
  151.0774  133.5369  159.2654 H   0  0  0  0  0  0  0  0  0  0  0  0  # atno 6909 bound_to 6896
  145.9848  140.7244  142.9346 H   0  0  0  0  0  0  0  0  0  0  0  0  # atno 7974 bound_to 7965
  156.2338  140.2953  156.0257 H   0  0  0  0  0  0  0  0  0  0  0  0  # atno 8008 bound_to 7997
  155.2151  140.0414  157.2957 H   0  0  0  0  0  0  0  0  0  0  0  0  # atno 8009 bound_to 7997
  154.6042  140.2435  155.7761 H   0  0  0  0  0  0  0  0  0  0  0  0  # atno 8010 bound_to 7997
  139.8693  143.6977  152.2641 H   0  0  0  0  0  0  0  0  0  0  0  0  # atno 10167 bound_to 10162
  157.5329  130.8643  149.8713 H   0  0  0  0  0  0  0  0  0  0  0  0  # atno 10718 bound_to 10713
  153.3420  135.4004  155.1579 H   0  0  0  0  0  0  0  0  0  0  0  0  # atno 10763 bound_to 10752
  154.8645  135.3636  154.5333 H   0  0  0  0  0  0  0  0  0  0  0  0  # atno 10764 bound_to 10752
  153.5779  135.7077  153.5536 H   0  0  0  0  0  0  0  0  0  0  0  0  # atno 10765 bound_to 10752
  139.9714  134.6894  156.0439 H   0  0  0  0  0  0  0  0  0  0  0  0  # atno 11005 bound_to 11000
  144.6872  140.2970  143.7269 LP  0  0  0  0  0  0  0  0  0  0  0  0  # atno 17320 bound_to 7965
  145.7716  139.1859  143.2209 LP  0  0  0  0  0  0  0  0  0  0  0  0  # atno 17321 bound_to 7965
  139.7299  144.7584  151.0819 LP  0  0  0  0  0  0  0  0  0  0  0  0  # atno 17342 bound_to 10162
  140.7763  143.5101  150.9663 LP  0  0  0  0  0  0  0  0  0  0  0  0  # atno 17343 bound_to 10162
  156.0436  130.3733  150.1372 LP  0  0  0  0  0  0  0  0  0  0  0  0  # atno 17370 bound_to 10713
  156.9556  130.9788  151.3489 LP  0  0  0  0  0  0  0  0  0  0  0  0  # atno 17371 bound_to 10713
  141.1393  133.6568  156.3684 LP  0  0  0  0  0  0  0  0  0  0  0  0  # atno 17394 bound_to 11000
  140.5285  134.6235  157.5342 LP  0  0  0  0  0  0  0  0  0  0  0  0  # atno 17395 bound_to 11000

$$$$
