AV-unprocessed.smi:117|AV-procd|sdf|1130|dock7
  -GOLD-   2262018263D 1   1.00000     0.00000
 Structure written by MMmdl.
 53 55  0  0  0  0  0  0  0  0  1 V2000
  151.4281  144.9162  158.8500 C   0  0  0  0  0  0  0  0  0  0  0  0
  151.9505  143.5506  159.2623 C   0  0  0  0  0  0  0  0  0  0  0  0
  152.7172  143.4439  160.4406 C   0  0  0  0  0  0  0  0  0  0  0  0
  153.2031  142.1949  160.8612 C   0  0  0  0  0  0  0  0  0  0  0  0
  152.9263  141.0440  160.1044 C   0  0  0  0  0  0  0  0  0  0  0  0
  152.1711  141.1335  158.9119 C   0  0  0  0  0  0  0  0  0  0  0  0
  151.8365  139.9639  158.1792 N   0  0  0  0  0  0  0  0  0  0  0  0
  152.4012  138.7425  158.2527 C   0  0  0  0  0  0  0  0  0  0  0  0
  153.3675  138.4788  158.9674 O   0  0  0  0  0  0  0  0  0  0  0  0
  151.7991  137.6265  157.3821 C   0  0  0  0  0  0  0  0  0  0  0  0
  150.3851  137.3709  157.6524 N   0  0  0  0  0  0  0  0  0  0  0  0
  149.8517  137.0521  158.8445 C   0  0  0  0  0  0  0  0  0  0  0  0
  150.5047  137.0424  159.8868 O   0  0  0  0  0  0  0  0  0  0  0  0
  148.3726  136.6255  158.8792 C   0  0  0  0  0  0  0  0  0  0  0  0
  148.0287  135.6839  159.9719 N   0  0  0  0  0  0  0  0  0  0  0  0
  147.7077  136.2000  161.2516 C   0  0  0  0  0  0  0  0  0  0  0  0
  147.7056  137.4119  161.4704 O   0  0  0  0  0  0  0  0  0  0  0  0
  147.3786  135.2051  162.2663 C   0  0  0  0  0  0  0  0  0  0  0  0
  147.0917  135.6008  163.5181 F   0  0  0  0  0  0  0  0  0  0  0  0
  147.3526  133.8898  161.9675 C   0  0  0  0  0  0  0  0  0  0  0  0
  147.6223  133.4015  160.7041 N   0  0  0  0  0  0  0  0  0  0  0  0
  147.5575  131.9087  160.4631 C   0  0  1  0  0  0  0  0  0  0  0  0
  148.5175  131.1063  161.3532 C   0  0  0  0  0  0  0  0  0  0  0  0
  147.7178  129.8432  161.5833 C   0  0  0  0  0  0  0  0  0  0  0  0
  146.2921  130.3797  161.6475 C   0  0  0  0  0  0  0  0  0  0  0  0
  146.2577  131.4534  160.7088 O   0  0  0  0  0  0  0  0  0  0  0  0
  148.0034  134.2981  159.6800 C   0  0  0  0  0  0  0  0  0  0  0  0
  148.2967  133.8918  158.5557 O   0  0  0  0  0  0  0  0  0  0  0  0
  151.6724  142.3949  158.4880 C   0  0  0  0  0  0  0  0  0  0  0  0
  150.8527  142.5366  157.2076 C   0  0  0  0  0  0  0  0  0  0  0  0
  151.7141  145.6850  159.5681 H   0  0  0  0  0  0  0  0  0  0  0  0
  150.3396  144.9068  158.7895 H   0  0  0  0  0  0  0  0  0  0  0  0
  151.8290  145.2031  157.8778 H   0  0  0  0  0  0  0  0  0  0  0  0
  152.9308  144.3213  161.0336 H   0  0  0  0  0  0  0  0  0  0  0  0
  153.7807  142.1175  161.7704 H   0  0  0  0  0  0  0  0  0  0  0  0
  153.2860  140.0908  160.4624 H   0  0  0  0  0  0  0  0  0  0  0  0
  151.1393  140.0859  157.4588 H   0  0  0  0  0  0  0  0  0  0  0  0
  151.9558  137.8693  156.3299 H   0  0  0  0  0  0  0  0  0  0  0  0
  152.3494  136.7046  157.5718 H   0  0  0  0  0  0  0  0  0  0  0  0
  149.7714  137.3609  156.8509 H   0  0  0  0  0  0  0  0  0  0  0  0
  147.7589  137.5247  158.9598 H   0  0  0  0  0  0  0  0  0  0  0  0
  148.1183  136.2226  157.8981 H   0  0  0  0  0  0  0  0  0  0  0  0
  147.1000  133.1952  162.7555 H   0  0  0  0  0  0  0  0  0  0  0  0
  147.7702  131.7645  159.4032 H   0  0  0  0  0  0  0  0  0  0  0  0
  149.4699  130.9365  160.8508 H   0  0  0  0  0  0  0  0  0  0  0  0
  148.7061  131.6168  162.2960 H   0  0  0  0  0  0  0  0  0  0  0  0
  147.8267  129.1707  160.7316 H   0  0  0  0  0  0  0  0  0  0  0  0
  148.0136  129.3060  162.4842 H   0  0  0  0  0  0  0  0  0  0  0  0
  145.5487  129.6191  161.4088 H   0  0  0  0  0  0  0  0  0  0  0  0
  146.0731  130.7602  162.6451 H   0  0  0  0  0  0  0  0  0  0  0  0
  151.3336  143.2425  156.5303 H   0  0  0  0  0  0  0  0  0  0  0  0
  149.8560  142.9129  157.4373 H   0  0  0  0  0  0  0  0  0  0  0  0
  150.7293  141.6053  156.6568 H   0  0  0  0  0  0  0  0  0  0  0  0
  1  2  1  0  0  0  0
  1 31  1  0  0  0  0
  1 32  1  0  0  0  0
  1 33  1  0  0  0  0
  2 29  1  0  0  0  0
  2  3  2  0  0  0  0
  3  4  1  0  0  0  0
  3 34  1  0  0  0  0
  4  5  2  0  0  0  0
  4 35  1  0  0  0  0
  5  6  1  0  0  0  0
  5 36  1  0  0  0  0
  6  7  1  0  0  0  0
  6 29  2  0  0  0  0
  7  8  1  0  0  0  0
  7 37  1  0  0  0  0
  8  9  2  0  0  0  0
  8 10  1  0  0  0  0
 10 11  1  0  0  0  0
 10 38  1  0  0  0  0
 10 39  1  0  0  0  0
 11 12  1  0  0  0  0
 11 40  1  0  0  0  0
 12 13  2  0  0  0  0
 12 14  1  0  0  0  0
 14 15  1  0  0  0  0
 14 41  1  0  0  0  0
 14 42  1  0  0  0  0
 15 27  1  0  0  0  0
 15 16  1  0  0  0  0
 16 17  2  0  0  0  0
 16 18  1  0  0  0  0
 18 19  1  0  0  0  0
 18 20  2  0  0  0  0
 20 21  1  0  0  0  0
 20 43  1  0  0  0  0
 21 22  1  0  0  0  0
 21 27  1  0  0  0  0
 22 26  1  0  0  0  0
 22 23  1  0  0  0  0
 22 44  1  0  0  0  0
 23 24  1  0  0  0  0
 23 45  1  0  0  0  0
 23 46  1  0  0  0  0
 24 25  1  0  0  0  0
 24 47  1  0  0  0  0
 24 48  1  0  0  0  0
 25 26  1  0  0  0  0
 25 49  1  0  0  0  0
 25 50  1  0  0  0  0
 27 28  2  0  0  0  0
 29 30  1  0  0  0  0
 30 51  1  0  0  0  0
 30 52  1  0  0  0  0
 30 53  1  0  0  0  0
M  END
> <s_m_source_file>
AV-unprocessed.smi

> <i_m_source_file_index>
117

> <i_lp_mmshare_version>
43012

> <i_f3d_flags>
0

> <s_epik_input>
W0NIM11jMVtjSF1bY0hdW2NIXWMoYzFbQ0gzXSlbTkhdQyg9TylbQ0gyXVtOSF1DKD1PKVtDSDJdbjJjKD1PKWMoRilbY0hdbihjMj1PKVtDQEBIXTNbQ0gyXVtDSDJdW0NIMl1PMw==

> <s_epik_cmdline>
J2VwaWtfcHl0aG9uJywgJy1waCcsICc3LjAnLCAnLXRuJywgJzgnLCAnLW1hJywgJzIwMCcsICctbWV0YWxfYmluZGluZycsICctaW1hZScsICc8aW5maWxlLm1hZT4nLCAnLW9tYWUnLCAnPG91dGZpbGUubWFlPic=

> <r_lp_tautomer_probability>
1

> <r_epik_Ionization_Penalty>
1.58439e-06

> <r_epik_Ionization_Penalty_Charging>
4.14583e-09

> <r_epik_Ionization_Penalty_Neutral>
1.58025e-06

> <r_epik_State_Penalty>
-0

> <r_epik_Charging_Adjusted_Penalty>
4.14583e-09

> <i_epik_Tot_Q>
0

> <i_epik_Tot_abs_Q>
0

> <r_epik_Metal_State_Penalty>
-0

> <b_epik_Metal_Only>
0

> <s_epik_Chemistry_Notes>
This compound contains an acetal/aminal-like group ( X-CH(R)-Y where X, Y are N, S, or O) that may be acid/base labile, releasing an aldehyde.

> <s_lp_Force_Field>
OPLS_2005

> <r_lp_Energy>
23.1061

> <b_lp_Chiralities_Consistent>
1

> <s_lp_Variant>
AV-unprocessed.smi:117-2

> <Gold.Version>
5.8.1

> <Gold.Id.Protein>
6NUR|6NUR_protein|mol2

> <Gold.PLP.Fitness>
60.2335

> <Gold.PLP.PLP>
-54.0342

> <Gold.PLP.part.hbond>
-3.1186

> <Gold.PLP.part.metal>
0.0000

> <Gold.PLP.part.buried>
-5.6079

> <Gold.PLP.part.nonpolar>
-46.0484

> <Gold.PLP.part.repulsive>
0.1439

> <Gold.PLP.ligand.clash>
0.0000

> <Gold.PLP.ligand.torsion>
0.7847

> <Gold.PLP.Chemscore.Hbond>
2.5753

> <Gold.PLP.Chemscore.CHOScore>
0.0000

> <Gold.PLP.Chemscore.Metal>
0.0000

> <Gold.Chemscore.Hbonds>
donor molecule, donor type, donor heavy atom, donor atom, acceptor molecule, acceptor atom, score
      P1  H  6896  6909       L1    13  0.96
      P1  H  6931  6943       L1    17  0.88
      P1  H  6934  6947       L1    17  0.72

> <Gold.PLP.Chemscore.Internal.Correction>
0.0429

> <Gold.Rescore>
     Score         DG    S(hbond)    S(metal)    S(lipo)     H(rot)  DE(clash)    DE(int)     intcor
     19.94     -22.01       2.72        0.00     114.43       2.32       0.02       2.05       ----

> <Gold.Chemscore.Fitness>
19.9370

> <Gold.Chemscore.DG>
-22.0124

> <Gold.Chemscore.ZeroCoef>
-5.4800

> <Gold.Chemscore.Hbond>
2.7171

> <Gold.Chemscore.Metal>
0.0000

> <Gold.Chemscore.Lipo>
114.4276

> <Gold.Chemscore.Internal_Hbond>
0.0000

> <Gold.Chemscore.DEClash>
0.0209

> <Gold.Chemscore.DEInternal>
2.0545

> <Gold.Chemscore.Rot>
2.3166

> <Gold.Chemscore.Internal.Correction>
   9.000000E+99

> <Gold.Chemscore.Hbonds>
donor molecule, donor type, donor heavy atom, donor atom, acceptor molecule, acceptor atom, score
      P1  H  6896  6909       L1    13  0.32
      P1  H  6931  6943       L1    17  0.86
      P1  H  6934  6947       L1    17  0.72

> <Gold.Chemscore.Hbond.Weighted>
-9.0750

> <Gold.Chemscore.Metal.Weighted>
-0.0000

> <Gold.Chemscore.Lipo.Weighted>
-13.3880

> <Gold.Chemscore.Internal_Hbond.Weighted>
0.0000

> <Gold.Chemscore.DEClash.Weighted>
0.0209

> <Gold.Chemscore.DEInternal.Weighted>
2.0545

> <Gold.Chemscore.Rot.Weighted>
5.9306

> <Gold.Chemscore.Internal.Correction.Weighted>
   9.000000E+99

> <Gold.Protein.RotatedTorsions>
[ 6907 6896 6895 6894 ] final  100.10 input  -60.11 | X-H torsion
[ 7974 7965 7964 7962 ] final  124.94 input  175.53 | X-H torsion
[ 8008 7997 7996 7995 ] final -163.81 input   59.86 | X-H torsion
[ 10167 10162 10161 10158 ] final   -8.00 input  -65.29 | X-H torsion
[ 10718 10713 10712 10709 ] final  112.69 input   66.30 | X-H torsion
[ 10763 10752 10751 10750 ] final  -38.31 input  -60.55 | X-H torsion
[ 11005 11000 10999 10996 ] final  146.38 input  -57.11 | X-H torsion

> <Gold.Protein.ActiveResidues>
 VAL166  LYS551  ARG553  GLY616  TRP617  ASP618  TYR619  PRO620  LYS621  CYS622 
 ASP623  PHE694  ASN695  SER759  ASP760  ASP761  ALA762  ILE779  LEU786  VAL792 
 PHE793  MET794  SER795  GLU796  ALA797  LYS798  CYS799  TRP800  GLU811  SER814 

> <Gold.Protein.RotatedAtoms>
  152.5379  134.0328  159.8032 H   0  0  0  0  0  0  0  0  0  0  0  0  # atno 6907 bound_to 6896
  151.0496  133.5627  159.2650 H   0  0  0  0  0  0  0  0  0  0  0  0  # atno 6908 bound_to 6896
  151.2566  135.0648  159.9136 H   0  0  0  0  0  0  0  0  0  0  0  0  # atno 6909 bound_to 6896
  145.0787  139.3674  143.4920 H   0  0  0  0  0  0  0  0  0  0  0  0  # atno 7974 bound_to 7965
  155.8266  140.0927  157.1817 H   0  0  0  0  0  0  0  0  0  0  0  0  # atno 8008 bound_to 7997
  154.3979  140.1427  156.3624 H   0  0  0  0  0  0  0  0  0  0  0  0  # atno 8009 bound_to 7997
  155.8210  140.3446  155.5517 H   0  0  0  0  0  0  0  0  0  0  0  0  # atno 8010 bound_to 7997
  140.7046  143.6017  150.8791 H   0  0  0  0  0  0  0  0  0  0  0  0  # atno 10167 bound_to 10162
  157.6379  131.0972  150.6932 H   0  0  0  0  0  0  0  0  0  0  0  0  # atno 10718 bound_to 10713
  153.9108  135.6792  153.4751 H   0  0  0  0  0  0  0  0  0  0  0  0  # atno 10763 bound_to 10752
  153.1079  135.4796  154.8982 H   0  0  0  0  0  0  0  0  0  0  0  0  # atno 10764 bound_to 10752
  154.7528  135.3189  154.8481 H   0  0  0  0  0  0  0  0  0  0  0  0  # atno 10765 bound_to 10752
  140.0789  134.9109  157.1468 H   0  0  0  0  0  0  0  0  0  0  0  0  # atno 11005 bound_to 11000
  146.3530  140.0567  142.8632 LP  0  0  0  0  0  0  0  0  0  0  0  0  # atno 17320 bound_to 7965
  145.1204  140.9459  143.4603 LP  0  0  0  0  0  0  0  0  0  0  0  0  # atno 17321 bound_to 7965
  139.9742  143.6023  152.2964 LP  0  0  0  0  0  0  0  0  0  0  0  0  # atno 17342 bound_to 10162
  139.6621  144.7662  151.1943 LP  0  0  0  0  0  0  0  0  0  0  0  0  # atno 17343 bound_to 10162
  156.7261  130.4695  149.5511 LP  0  0  0  0  0  0  0  0  0  0  0  0  # atno 17370 bound_to 10713
  156.1633  130.6388  151.0746 LP  0  0  0  0  0  0  0  0  0  0  0  0  # atno 17371 bound_to 10713
  140.3517  134.2591  155.7197 LP  0  0  0  0  0  0  0  0  0  0  0  0  # atno 17394 bound_to 11000
  141.2039  133.7899  157.0313 LP  0  0  0  0  0  0  0  0  0  0  0  0  # atno 17395 bound_to 11000

$$$$
