AV-unprocessed.smi:1987|AV-procd|sdf|8057|dock4
  -GOLD-   2272010263D 1   1.00000     0.00000
 Structure written by MMmdl.
 37 39  0  0  0  0  0  0  0  0  2 V2000
  152.5601  139.9110  155.0929 O   0  0  0  0  0  0  0  0  0  0  0  0
  151.4770  139.6038  155.5894 C   0  0  0  0  0  0  0  0  0  0  0  0
  150.2948  139.2427  154.6916 C   0  0  0  0  0  0  0  0  0  0  0  0
  149.1974  140.1639  154.9234 N   0  0  0  0  0  0  0  0  0  0  0  0
  148.6381  141.0787  154.1287 C   0  0  0  0  0  0  0  0  0  0  0  0
  147.6119  141.6747  154.7168 N   0  0  0  0  0  0  0  0  0  0  0  0
  147.5650  141.0680  155.9605 N   0  0  0  0  0  0  0  0  0  0  0  0
  148.5025  140.1699  156.0889 N   0  0  0  0  0  0  0  0  0  0  0  0
  151.2664  139.5105  156.9113 N   0  0  0  0  0  0  0  0  0  0  0  0
  152.3001  139.5937  157.9355 C   0  0  0  0  0  0  0  0  0  0  0  0
  151.9841  140.6954  158.9677 C   0  0  1  0  0  0  0  0  0  0  0  0
  153.0833  140.9269  160.0021 C   0  0  0  0  0  0  0  0  0  0  0  0
  152.8278  142.3514  160.5141 C   0  0  0  0  0  0  0  0  0  0  0  0
  151.9494  143.0139  159.5213 N   0  3  1  0  0  0  0  0  0  0  0  0
  152.3740  144.3779  159.1423 C   0  0  0  0  0  0  0  0  0  0  0  0
  151.8684  145.4494  160.0779 C   0  0  0  0  0  0  0  0  0  0  0  0
  151.2303  145.2678  158.7174 C   0  0  0  0  0  0  0  0  0  0  0  0
  151.7979  142.0942  158.3775 C   0  0  0  0  0  0  0  0  0  0  0  0
  150.5881  139.2791  153.6411 H   0  0  0  0  0  0  0  0  0  0  0  0
  149.9556  138.2275  154.9020 H   0  0  0  0  0  0  0  0  0  0  0  0
  148.9685  141.2938  153.1230 H   0  0  0  0  0  0  0  0  0  0  0  0
  150.3359  139.2717  157.2238 H   0  0  0  0  0  0  0  0  0  0  0  0
  152.4179  138.6281  158.4296 H   0  0  0  0  0  0  0  0  0  0  0  0
  153.2462  139.8055  157.4366 H   0  0  0  0  0  0  0  0  0  0  0  0
  151.0708  140.4309  159.5034 H   0  0  0  0  0  0  0  0  0  0  0  0
  153.0722  140.1847  160.8008 H   0  0  0  0  0  0  0  0  0  0  0  0
  154.0624  140.8839  159.5231 H   0  0  0  0  0  0  0  0  0  0  0  0
  152.3108  142.3341  161.4741 H   0  0  0  0  0  0  0  0  0  0  0  0
  153.7678  142.8871  160.6558 H   0  0  0  0  0  0  0  0  0  0  0  0
  153.3498  144.4698  158.6682 H   0  0  0  0  0  0  0  0  0  0  0  0
  151.2916  145.1431  160.9489 H   0  0  0  0  0  0  0  0  0  0  0  0
  152.4946  146.3277  160.2208 H   0  0  0  0  0  0  0  0  0  0  0  0
  151.4369  146.0257  157.9645 H   0  0  0  0  0  0  0  0  0  0  0  0
  150.2294  144.8407  158.6840 H   0  0  0  0  0  0  0  0  0  0  0  0
  152.5749  142.2935  157.6371 H   0  0  0  0  0  0  0  0  0  0  0  0
  150.8289  142.2223  157.8932 H   0  0  0  0  0  0  0  0  0  0  0  0
  151.0393  143.0872  159.9529 H   0  0  0  0  0  0  0  0  0  0  0  0
  1  2  2  0  0  0  0
  2  3  1  0  0  0  0
  2  9  1  0  0  0  0
  3  4  1  0  0  0  0
  3 19  1  0  0  0  0
  3 20  1  0  0  0  0
  4  8  1  0  0  0  0
  4  5  1  0  0  0  0
  5  6  2  0  0  0  0
  5 21  1  0  0  0  0
  6  7  1  0  0  0  0
  7  8  2  0  0  0  0
  9 10  1  0  0  0  0
  9 22  1  0  0  0  0
 10 11  1  0  0  0  0
 10 23  1  0  0  0  0
 10 24  1  0  0  0  0
 11 18  1  0  0  0  0
 11 12  1  0  0  0  0
 11 25  1  0  0  0  0
 12 13  1  0  0  0  0
 12 26  1  0  0  0  0
 12 27  1  0  0  0  0
 13 14  1  0  0  0  0
 13 28  1  0  0  0  0
 13 29  1  0  0  0  0
 14 15  1  0  0  0  0
 14 18  1  0  0  0  0
 14 37  1  0  0  0  0
 15 17  1  0  0  0  0
 15 16  1  0  0  0  0
 15 30  1  0  0  0  0
 16 17  1  0  0  0  0
 16 31  1  0  0  0  0
 16 32  1  0  0  0  0
 17 33  1  0  0  0  0
 17 34  1  0  0  0  0
 18 35  1  0  0  0  0
 18 36  1  0  0  0  0
M  CHG  1  14   1
M  END
> <s_m_source_file>
AV-unprocessed.smi

> <i_m_source_file_index>
1987

> <i_lp_mmshare_version>
43012

> <i_f3d_flags>
0

> <s_epik_input>
bjFubltjSF1uMVtDSDJdQyg9TylbTkhdW0NIMl1bQ0BASF0yW0NIMl1bQ0gyXU4oW0NIMl0yKVtDSF0zW0NIMl1bQ0gyXTM=

> <s_epik_cmdline>
J2VwaWtfcHl0aG9uJywgJy1waCcsICc3LjAnLCAnLXRuJywgJzgnLCAnLW1hJywgJzIwMCcsICctbWV0YWxfYmluZGluZycsICctaW1hZScsICc8aW5maWxlLm1hZT4nLCAnLW9tYWUnLCAnPG91dGZpbGUubWFlPic=

> <r_lp_tautomer_probability>
1

> <r_epik_Ionization_Penalty>
0.000242849

> <r_epik_Ionization_Penalty_Charging>
0.000241326

> <r_epik_Ionization_Penalty_Neutral>
1.52322e-06

> <r_epik_State_Penalty>
-0

> <r_epik_Charging_Adjusted_Penalty>
0.000241326

> <i_epik_Tot_Q>
1

> <i_epik_Tot_abs_Q>
1

> <r_epik_Metal_State_Penalty>
-0

> <b_epik_Metal_Only>
0

> <s_lp_Force_Field>
OPLS_2005

> <r_lp_Energy>
37.5901

> <b_lp_Chiralities_Consistent>
1

> <s_lp_Variant>
AV-unprocessed.smi:1987-4

> <Gold.Version>
5.8.1

> <Gold.Id.Protein>
6NUR|6NUR_protein|mol2

> <Gold.PLP.Fitness>
46.2226

> <Gold.PLP.PLP>
-39.4357

> <Gold.PLP.part.hbond>
-2.0000

> <Gold.PLP.part.metal>
0.0000

> <Gold.PLP.part.buried>
-4.6418

> <Gold.PLP.part.nonpolar>
-32.6434

> <Gold.PLP.part.repulsive>
0.3557

> <Gold.PLP.ligand.clash>
0.0000

> <Gold.PLP.ligand.torsion>
0.7073

> <Gold.PLP.Chemscore.Hbond>
1.3058

> <Gold.PLP.Chemscore.CHOScore>
1.0000

> <Gold.PLP.Chemscore.Metal>
0.0000

> <Gold.Chemscore.Hbonds>
donor molecule, donor type, donor heavy atom, donor atom, acceptor molecule, acceptor atom, score
      P1  H  7989  7998       L1     1  0.35
      P1  H  7997  8010       L1     1  0.91
      L1  C     5    21       P1  7957  1.00

> <Gold.PLP.Chemscore.Internal.Correction>
1.2843

> <Gold.Rescore>
     Score         DG    S(hbond)    S(metal)    S(lipo)     H(rot)  DE(clash)    DE(int)     intcor
     11.31     -12.16       1.01        0.00      85.77       2.62       0.13       0.72       ----

> <Gold.Chemscore.Fitness>
11.3057

> <Gold.Chemscore.DG>
-12.1580

> <Gold.Chemscore.ZeroCoef>
-5.4800

> <Gold.Chemscore.Hbond>
1.0064

> <Gold.Chemscore.Metal>
0.0000

> <Gold.Chemscore.Lipo>
85.7708

> <Gold.Chemscore.Internal_Hbond>
0.0000

> <Gold.Chemscore.DEClash>
0.1334

> <Gold.Chemscore.DEInternal>
0.7189

> <Gold.Chemscore.Rot>
2.6244

> <Gold.Chemscore.Internal.Correction>
   9.000000E+99

> <Gold.Chemscore.Hbonds>
donor molecule, donor type, donor heavy atom, donor atom, acceptor molecule, acceptor atom, score
      P1  H  7989  7998       L1     1  0.03
      P1  H  7997  8010       L1     1  0.87

> <Gold.Chemscore.Hbond.Weighted>
-3.3613

> <Gold.Chemscore.Metal.Weighted>
-0.0000

> <Gold.Chemscore.Lipo.Weighted>
-10.0352

> <Gold.Chemscore.Internal_Hbond.Weighted>
0.0000

> <Gold.Chemscore.DEClash.Weighted>
0.1334

> <Gold.Chemscore.DEInternal.Weighted>
0.7189

> <Gold.Chemscore.Rot.Weighted>
6.7186

> <Gold.Chemscore.Internal.Correction.Weighted>
   9.000000E+99

> <Gold.Protein.RotatedTorsions>
[ 6907 6896 6895 6894 ] final -129.22 input  -60.11 | X-H torsion
[ 7974 7965 7964 7962 ] final  167.30 input  175.53 | X-H torsion
[ 8008 7997 7996 7995 ] final   98.75 input   59.86 | X-H torsion
[ 10167 10162 10161 10158 ] final  155.22 input  -65.29 | X-H torsion
[ 10718 10713 10712 10709 ] final   -1.64 input   66.30 | X-H torsion
[ 10763 10752 10751 10750 ] final   95.20 input  -60.55 | X-H torsion
[ 11005 11000 10999 10996 ] final -141.94 input  -57.11 | X-H torsion

> <Gold.Protein.ActiveResidues>
 VAL166  LYS551  ARG553  GLY616  TRP617  ASP618  TYR619  PRO620  LYS621  CYS622 
 ASP623  PHE694  ASN695  SER759  ASP760  ASP761  ALA762  ILE779  LEU786  VAL792 
 PHE793  MET794  SER795  GLU796  ALA797  LYS798  CYS799  TRP800  GLU811  SER814 

> <Gold.Protein.RotatedAtoms>
  150.9263  133.6819  159.2820 H   0  0  0  0  0  0  0  0  0  0  0  0  # atno 6907 bound_to 6896
  151.4257  135.1002  159.9637 H   0  0  0  0  0  0  0  0  0  0  0  0  # atno 6908 bound_to 6896
  152.5004  133.8705  159.7351 H   0  0  0  0  0  0  0  0  0  0  0  0  # atno 6909 bound_to 6896
  144.7429  139.8741  143.6391 H   0  0  0  0  0  0  0  0  0  0  0  0  # atno 7974 bound_to 7965
  156.1036  140.3239  155.7975 H   0  0  0  0  0  0  0  0  0  0  0  0  # atno 8008 bound_to 7997
  155.4795  140.0553  157.2986 H   0  0  0  0  0  0  0  0  0  0  0  0  # atno 8009 bound_to 7997
  154.4713  140.2012  156.0004 H   0  0  0  0  0  0  0  0  0  0  0  0  # atno 8010 bound_to 7997
  139.4821  144.5118  151.8013 H   0  0  0  0  0  0  0  0  0  0  0  0  # atno 10167 bound_to 10162
  156.8026  130.5398  149.5719 H   0  0  0  0  0  0  0  0  0  0  0  0  # atno 10718 bound_to 10713
  153.2504  135.4262  155.0792 H   0  0  0  0  0  0  0  0  0  0  0  0  # atno 10763 bound_to 10752
  154.8379  135.3424  154.6520 H   0  0  0  0  0  0  0  0  0  0  0  0  # atno 10764 bound_to 10752
  153.6942  135.7032  153.5138 H   0  0  0  0  0  0  0  0  0  0  0  0  # atno 10765 bound_to 10752
  140.8274  134.2558  157.4872 H   0  0  0  0  0  0  0  0  0  0  0  0  # atno 11005 bound_to 11000
  146.1259  139.4285  143.0199 LP  0  0  0  0  0  0  0  0  0  0  0  0  # atno 17320 bound_to 7965
  145.7236  141.0066  143.1389 LP  0  0  0  0  0  0  0  0  0  0  0  0  # atno 17321 bound_to 7965
  140.4622  144.1706  150.5907 LP  0  0  0  0  0  0  0  0  0  0  0  0  # atno 17342 bound_to 10162
  140.4472  143.2501  151.9395 LP  0  0  0  0  0  0  0  0  0  0  0  0  # atno 17343 bound_to 10162
  156.1092  130.6027  151.0020 LP  0  0  0  0  0  0  0  0  0  0  0  0  # atno 17370 bound_to 10713
  157.6546  131.0891  150.7975 LP  0  0  0  0  0  0  0  0  0  0  0  0  # atno 17371 bound_to 10713
  139.8706  134.9568  156.4248 LP  0  0  0  0  0  0  0  0  0  0  0  0  # atno 17394 bound_to 11000
  140.9034  133.7763  155.9707 LP  0  0  0  0  0  0  0  0  0  0  0  0  # atno 17395 bound_to 11000

$$$$
