#       Name:                AV-unprocessed.smi:1909
#       Creating user name   scv26
#       Creation time:       Fri Mar 27 09:47:39 2020


#       File generated by GOLD software.
#

@<TRIPOS>MOLECULE
AV-unprocessed.smi:1909
    43    44     1
SMALL
NO_CHARGES


@<TRIPOS>ATOM
      1 ****        -4.6742   2.0412   3.4015 C.3            1 S1                 0.0000
      2 ****        -3.6369   0.9794   3.2714 C.2            1 S1                 0.0000
      3 ****        -2.3334   1.1919   3.4687 N.2            1 S1                 0.0000
      4 ****        -1.5638   0.0388   3.2810 C.2            1 S1                 0.0000
      5 ****        -0.0715   0.0930   3.4488 C.3            1 S1                 0.0000
      6 ****         0.6012   0.6277   2.1814 C.2            1 S1                 0.0000
      7 ****         1.3065   1.6347   2.2397 O.2            1 S1                 0.0000
      8 ****         0.3856  -0.0614   1.0482 N.am           1 S1                 0.0000
      9 ****         0.8994   0.2806  -0.2759 C.3            1 S1                 0.0000
     10 ****        -0.2120  -0.0355  -1.3053 C.3            1 S1                 0.0000
     11 ****         0.0462   0.4851  -2.7338 C.3            1 S1                 0.0000
     12 ****         0.5188  -0.5712  -3.7516 C.3            1 S1                 0.0000
     13 ****         1.5858  -1.5727  -3.2738 C.3            1 S1                 0.0000
     14 ****         2.9692  -0.9908  -2.9318 C.3            1 S1                 0.0000
     15 ****         3.0402  -0.0160  -1.7404 C.3            1 S1                 0.0000
     16 ****         2.2529  -0.4432  -0.4849 C.3            1 S1                 0.0000
     17 ****        -2.3148  -1.0621   2.9485 C.2            1 S1                 0.0000
     18 ****        -4.0122  -0.6852   2.8441 S.3            1 S1                 0.0000
     19 ****        -4.2120   3.0286   3.4217 H              1 S1                 0.0000
     20 ****        -5.2384   1.8988   4.3232 H              1 S1                 0.0000
     21 ****        -5.3627   1.9961   2.5576 H              1 S1                 0.0000
     22 ****         0.1957   0.7260   4.2962 H              1 S1                 0.0000
     23 ****         0.3287  -0.8977   3.6673 H              1 S1                 0.0000
     24 ****        -0.2057  -0.8779   1.1035 H              1 S1                 0.0000
     25 ****         1.0781   1.3570  -0.3087 H              1 S1                 0.0000
     26 ****        -0.4512  -1.0991  -1.3123 H              1 S1                 0.0000
     27 ****        -1.1240   0.4505  -0.9540 H              1 S1                 0.0000
     28 ****        -0.8873   0.8987  -3.1178 H              1 S1                 0.0000
     29 ****         0.7232   1.3373  -2.7155 H              1 S1                 0.0000
     30 ****        -0.3529  -1.1485  -4.0620 H              1 S1                 0.0000
     31 ****         0.8695  -0.0663  -4.6522 H              1 S1                 0.0000
     32 ****         1.2069  -2.1646  -2.4421 H              1 S1                 0.0000
     33 ****         1.7304  -2.2970  -4.0762 H              1 S1                 0.0000
     34 ****         3.6317  -1.8301  -2.7166 H              1 S1                 0.0000
     35 ****         3.3893  -0.5067  -3.8140 H              1 S1                 0.0000
     36 ****         4.0925   0.0732  -1.4673 H              1 S1                 0.0000
     37 ****         2.7612   0.9910  -2.0452 H              1 S1                 0.0000
     38 ****         2.8833  -0.2092   0.3743 H              1 S1                 0.0000
     39 ****         2.1286  -1.5258  -0.4500 H              1 S1                 0.0000
     40 ****        -1.9724  -2.0676   2.7542 H              1 S1                 0.0000
     41 ****        -1.9489   2.0793   3.7231 LP             1 S1                 0.0000
     42 ****         1.4394   2.1021   3.1137 LP             1 S1                 0.0000
     43 ****         1.7467   1.9854   1.4131 LP             1 S1                 0.0000
@<TRIPOS>BOND
    1    1    2 1     
    2    1   19 1     
    3    1   20 1     
    4    1   21 1     
    5    2   18 1     
    6    2    3 2     
    7    3    4 1     
    8    4    5 1     
    9    4   17 2     
   10    5    6 1     
   11    5   22 1     
   12    5   23 1     
   13    6    7 2     
   14    6    8 am    
   15    8    9 1     
   16    8   24 1     
   17    9   16 1     
   18    9   10 1     
   19    9   25 1     
   20   10   11 1     
   21   10   26 1     
   22   10   27 1     
   23   11   12 1     
   24   11   28 1     
   25   11   29 1     
   26   12   13 1     
   27   12   30 1     
   28   12   31 1     
   29   13   14 1     
   30   13   32 1     
   31   13   33 1     
   32   14   15 1     
   33   14   34 1     
   34   14   35 1     
   35   15   16 1     
   36   15   36 1     
   37   15   37 1     
   38   16   38 1     
   39   16   39 1     
   40   17   18 1     
   41   17   40 1     
   42    3   41 1     
   43    7   42 1     
   44    7   43 1     
@<TRIPOS>SUBSTRUCTURE
      1 S1             1
@<TRIPOS>SET
LONE_PAIRS      STATIC     ATOMS    <user>   **** ""
3 41 42 43
DONOR_HYDROGENS      STATIC     ATOMS    <user>   **** ""
1 24
ATOM$BLUE        STATIC     ATOMS    COLORGROUP SYSTEM
3 41 42 43
ATOM$RED        STATIC     ATOMS    COLORGROUP SYSTEM
1 24
