#       Name:                AV-unprocessed.smi:2041
#       Creating user name   scv26
#       Creation time:       Fri Mar 27 10:55:51 2020


#       File generated by GOLD software.
#

@<TRIPOS>MOLECULE
AV-unprocessed.smi:2041
    36    37     1
SMALL
NO_CHARGES


@<TRIPOS>ATOM
      1 ****         1.7771   0.5899   0.5672 O.2            1 S1                 0.0000
      2 ****         1.4587  -0.4321  -0.0416 C.2            1 S1                 0.0000
      3 ****         2.2923  -1.4358  -0.3660 N.am           1 S1                 0.0000
      4 ****         3.6829  -1.5443  -0.1013 C.2            1 S1                 0.0000
      5 ****         4.4008  -0.6260   0.5562 N.2            1 S1                 0.0000
      6 ****         5.7443  -0.9931   0.6688 C.2            1 S1                 0.0000
      7 ****         6.0335  -2.2030   0.0885 C.2            1 S1                 0.0000
      8 ****         4.6217  -2.9343  -0.6263 S.3            1 S1                 0.0000
      9 ****         0.2124  -0.6819  -0.4689 N.am           1 S1                 0.0000
     10 ****        -0.9381   0.2097  -0.3206 C.3            1 S1                 0.0000
     11 ****        -1.5352   0.1025   1.1069 C.3            1 S1                 0.0000
     12 ****        -3.0265   0.4730   1.2497 C.3            1 S1                 0.0000
     13 ****        -3.4224   1.8608   0.7058 C.3            1 S1                 0.0000
     14 ****        -3.0523   2.1611  -0.7662 C.3            1 S1                 0.0000
     15 ****        -2.9073   0.9727  -1.6057 N.am           1 S1                 0.0000
     16 ****        -1.9457   0.0425  -1.4747 C.2            1 S1                 0.0000
     17 ****        -1.8791  -0.9230  -2.2347 O.2            1 S1                 0.0000
     18 ****         1.8856  -2.2113  -0.8682 H              1 S1                 0.0000
     19 ****         6.4284  -0.3313   1.1792 H              1 S1                 0.0000
     20 ****         6.9877  -2.7060   0.0384 H              1 S1                 0.0000
     21 ****         0.0445  -1.5460  -0.9635 H              1 S1                 0.0000
     22 ****        -0.5470   1.2217  -0.4340 H              1 S1                 0.0000
     23 ****        -1.4176  -0.9191   1.4717 H              1 S1                 0.0000
     24 ****        -0.9457   0.7230   1.7829 H              1 S1                 0.0000
     25 ****        -3.6370  -0.2906   0.7658 H              1 S1                 0.0000
     26 ****        -3.2976   0.4223   2.3046 H              1 S1                 0.0000
     27 ****        -4.5030   1.9594   0.8143 H              1 S1                 0.0000
     28 ****        -2.9953   2.6370   1.3416 H              1 S1                 0.0000
     29 ****        -3.8141   2.8034  -1.2088 H              1 S1                 0.0000
     30 ****        -2.1300   2.7416  -0.8079 H              1 S1                 0.0000
     31 ****        -3.5761   0.8569  -2.3535 H              1 S1                 0.0000
     32 ****         2.7235   0.7220   0.8619 LP             1 S1                 0.0000
     33 ****         1.0892   1.2877   0.7669 LP             1 S1                 0.0000
     34 ****         4.0206   0.2228   0.9236 LP             1 S1                 0.0000
     35 ****        -1.1648  -1.6112  -2.1074 LP             1 S1                 0.0000
     36 ****        -2.5393  -1.0194  -2.9796 LP             1 S1                 0.0000
@<TRIPOS>BOND
    1    1    2 2     
    2    2    3 am    
    3    2    9 am    
    4    3    4 1     
    5    3   18 1     
    6    4    8 1     
    7    4    5 2     
    8    5    6 1     
    9    6    7 2     
   10    6   19 1     
   11    7    8 1     
   12    7   20 1     
   13    9   10 1     
   14    9   21 1     
   15   10   16 1     
   16   10   11 1     
   17   10   22 1     
   18   11   12 1     
   19   11   23 1     
   20   11   24 1     
   21   12   13 1     
   22   12   25 1     
   23   12   26 1     
   24   13   14 1     
   25   13   27 1     
   26   13   28 1     
   27   14   15 1     
   28   14   29 1     
   29   14   30 1     
   30   15   16 am    
   31   15   31 1     
   32   16   17 2     
   33    1   32 1     
   34    1   33 1     
   35    5   34 1     
   36   17   35 1     
   37   17   36 1     
@<TRIPOS>SUBSTRUCTURE
      1 S1             1
@<TRIPOS>SET
LONE_PAIRS      STATIC     ATOMS    <user>   **** ""
5 32 33 34 35 36
DONOR_HYDROGENS      STATIC     ATOMS    <user>   **** ""
3 18 21 31
ATOM$BLUE        STATIC     ATOMS    COLORGROUP SYSTEM
5 32 33 34 35 36
ATOM$RED        STATIC     ATOMS    COLORGROUP SYSTEM
3 18 21 31
