AV-unprocessed.smi:1796|AV-procd|sdf|7252|dock3
  -GOLD-   22720 8503D 1   1.00000     0.00000
 Structure written by MMmdl.
 42 43  0  0  0  0  0  0  0  0  1 V2000
  151.1709  137.6372  154.4526 C   0  0  0  0  0  0  0  0  0  0  0  0
  150.8565  139.1182  154.6754 C   0  0  0  0  0  0  0  0  0  0  0  0
  151.7933  139.9167  154.6559 O   0  0  0  0  0  0  0  0  0  0  0  0
  149.5735  139.4991  154.8871 N   0  0  0  0  0  0  0  0  0  0  0  0
  149.1124  140.8853  155.0409 C   0  0  0  0  0  0  0  0  0  0  0  0
  148.3033  141.2799  153.7923 C   0  0  0  0  0  0  0  0  0  0  0  0
  147.1373  140.3006  153.5585 C   0  0  0  0  0  0  0  0  0  0  0  0
  147.6149  138.8298  153.5724 C   0  0  2  0  0  0  0  0  0  0  0  0
  146.4271  137.8652  153.4706 C   0  0  0  0  0  0  0  0  0  0  0  0
  145.3112  138.2096  153.8614 O   0  0  0  0  0  0  0  0  0  0  0  0
  146.6840  136.6615  152.9372 N   0  0  0  0  0  0  0  0  0  0  0  0
  145.6993  135.6118  152.6852 C   0  0  2  0  0  0  0  0  0  0  0  0
  144.8150  135.4238  153.9265 C   0  0  0  0  0  0  0  0  0  0  0  0
  146.4120  134.3040  152.2904 C   0  0  0  0  0  0  0  0  0  0  0  0
  145.5484  133.4144  151.5330 N   0  0  0  0  0  0  0  0  0  0  0  0
  145.8743  132.2255  150.9149 C   0  0  0  0  0  0  0  0  0  0  0  0
  144.7340  131.7400  150.3417 C   0  0  0  0  0  0  0  0  0  0  0  0
  143.7499  132.7150  150.6676 C   0  0  0  0  0  0  0  0  0  0  0  0
  144.2405  133.7166  151.3794 N   0  0  0  0  0  0  0  0  0  0  0  0
  148.4494  138.5550  154.8437 C   0  0  0  0  0  0  0  0  0  0  0  0
  150.8478  137.0401  155.3057 H   0  0  0  0  0  0  0  0  0  0  0  0
  152.2441  137.4874  154.3303 H   0  0  0  0  0  0  0  0  0  0  0  0
  150.6783  137.2686  153.5524 H   0  0  0  0  0  0  0  0  0  0  0  0
  148.4832  140.9555  155.9295 H   0  0  0  0  0  0  0  0  0  0  0  0
  149.9188  141.5996  155.2004 H   0  0  0  0  0  0  0  0  0  0  0  0
  147.9216  142.2960  153.8966 H   0  0  0  0  0  0  0  0  0  0  0  0
  148.9584  141.2832  152.9200 H   0  0  0  0  0  0  0  0  0  0  0  0
  146.3890  140.4553  154.3377 H   0  0  0  0  0  0  0  0  0  0  0  0
  146.6467  140.5301  152.6117 H   0  0  0  0  0  0  0  0  0  0  0  0
  148.2602  138.6737  152.7053 H   0  0  0  0  0  0  0  0  0  0  0  0
  147.6314  136.4712  152.6435 H   0  0  0  0  0  0  0  0  0  0  0  0
  145.0546  135.9035  151.8538 H   0  0  0  0  0  0  0  0  0  0  0  0
  144.0624  134.6531  153.7584 H   0  0  0  0  0  0  0  0  0  0  0  0
  144.2899  136.3457  154.1791 H   0  0  0  0  0  0  0  0  0  0  0  0
  145.4062  135.1286  154.7940 H   0  0  0  0  0  0  0  0  0  0  0  0
  147.3104  134.5149  151.7074 H   0  0  0  0  0  0  0  0  0  0  0  0
  146.7393  133.7716  153.1841 H   0  0  0  0  0  0  0  0  0  0  0  0
  146.8780  131.8271  150.9379 H   0  0  0  0  0  0  0  0  0  0  0  0
  144.6194  130.8267  149.7769 H   0  0  0  0  0  0  0  0  0  0  0  0
  142.7012  132.7248  150.4099 H   0  0  0  0  0  0  0  0  0  0  0  0
  148.7771  137.5141  154.8617 H   0  0  0  0  0  0  0  0  0  0  0  0
  147.8412  138.6871  155.7404 H   0  0  0  0  0  0  0  0  0  0  0  0
  1  2  1  0  0  0  0
  1 21  1  0  0  0  0
  1 22  1  0  0  0  0
  1 23  1  0  0  0  0
  2  3  2  0  0  0  0
  2  4  1  0  0  0  0
  4 20  1  0  0  0  0
  4  5  1  0  0  0  0
  5  6  1  0  0  0  0
  5 24  1  0  0  0  0
  5 25  1  0  0  0  0
  6  7  1  0  0  0  0
  6 26  1  0  0  0  0
  6 27  1  0  0  0  0
  7  8  1  0  0  0  0
  7 28  1  0  0  0  0
  7 29  1  0  0  0  0
  8  9  1  0  0  0  0
  8 20  1  0  0  0  0
  8 30  1  0  0  0  0
  9 10  2  0  0  0  0
  9 11  1  0  0  0  0
 11 12  1  0  0  0  0
 11 31  1  0  0  0  0
 12 13  1  0  0  0  0
 12 14  1  0  0  0  0
 12 32  1  0  0  0  0
 13 33  1  0  0  0  0
 13 34  1  0  0  0  0
 13 35  1  0  0  0  0
 14 15  1  0  0  0  0
 14 36  1  0  0  0  0
 14 37  1  0  0  0  0
 15 19  1  0  0  0  0
 15 16  1  0  0  0  0
 16 17  2  0  0  0  0
 16 38  1  0  0  0  0
 17 18  1  0  0  0  0
 17 39  1  0  0  0  0
 18 19  2  0  0  0  0
 18 40  1  0  0  0  0
 20 41  1  0  0  0  0
 20 42  1  0  0  0  0
M  END
> <s_m_source_file>
AV-unprocessed.smi

> <i_m_source_file_index>
1796

> <i_lp_mmshare_version>
43012

> <i_f3d_flags>
0

> <s_epik_input>
W0NIM11DKD1PKU4xW0NIMl1bQ0gyXVtDSDJdW0NASF0oW0NIMl0xKUMoPU8pW05IXVtDQEhdKFtDSDNdKVtDSDJdbjJbY0hdW2NIXVtjSF1uMg==

> <s_epik_cmdline>
J2VwaWtfcHl0aG9uJywgJy1waCcsICc3LjAnLCAnLXRuJywgJzgnLCAnLW1hJywgJzIwMCcsICctbWV0YWxfYmluZGluZycsICctaW1hZScsICc8aW5maWxlLm1hZT4nLCAnLW9tYWUnLCAnPG91dGZpbGUubWFlPic=

> <r_lp_tautomer_probability>
1

> <r_epik_Ionization_Penalty>
0.000315051

> <r_epik_Ionization_Penalty_Charging>
0

> <r_epik_Ionization_Penalty_Neutral>
0.000315051

> <r_epik_State_Penalty>
-0

> <r_epik_Charging_Adjusted_Penalty>
0

> <i_epik_Tot_Q>
0

> <i_epik_Tot_abs_Q>
0

> <r_epik_Metal_State_Penalty>
-0

> <b_epik_Metal_Only>
0

> <s_lp_Force_Field>
OPLS_2005

> <r_lp_Energy>
23.6711

> <b_lp_Chiralities_Consistent>
1

> <s_lp_Variant>
AV-unprocessed.smi:1796-2

> <Gold.Version>
5.8.1

> <Gold.Id.Protein>
6NUR|6NUR_protein|mol2

> <Gold.PLP.Fitness>
44.4348

> <Gold.PLP.PLP>
-34.5784

> <Gold.PLP.part.hbond>
-1.7399

> <Gold.PLP.part.metal>
0.0000

> <Gold.PLP.part.buried>
-4.2702

> <Gold.PLP.part.nonpolar>
-29.4494

> <Gold.PLP.part.repulsive>
0.7454

> <Gold.PLP.ligand.clash>
0.0000

> <Gold.PLP.ligand.torsion>
1.0761

> <Gold.PLP.Chemscore.Hbond>
1.9913

> <Gold.PLP.Chemscore.CHOScore>
2.0000

> <Gold.PLP.Chemscore.Metal>
0.0000

> <Gold.Chemscore.Hbonds>
donor molecule, donor type, donor heavy atom, donor atom, acceptor molecule, acceptor atom, score
      L1  H    11    31       P1  7948  1.00
      P1  H  7989  7998       L1     3  0.91
      L1  C    16    38       P1 10747  1.00
      L1  C    18    40       P1 10186  0.97

> <Gold.PLP.Chemscore.Internal.Correction>
0.0348

> <Gold.Rescore>
     Score         DG    S(hbond)    S(metal)    S(lipo)     H(rot)  DE(clash)    DE(int)     intcor
     14.07     -16.77       1.94        0.00      77.00       1.63       0.12       2.58       ----

> <Gold.Chemscore.Fitness>
14.0735

> <Gold.Chemscore.DG>
-16.7729

> <Gold.Chemscore.ZeroCoef>
-5.4800

> <Gold.Chemscore.Hbond>
1.9359

> <Gold.Chemscore.Metal>
0.0000

> <Gold.Chemscore.Lipo>
77.0013

> <Gold.Chemscore.Internal_Hbond>
0.0000

> <Gold.Chemscore.DEClash>
0.1192

> <Gold.Chemscore.DEInternal>
2.5802

> <Gold.Chemscore.Rot>
1.6336

> <Gold.Chemscore.Internal.Correction>
   9.000000E+99

> <Gold.Chemscore.Hbonds>
donor molecule, donor type, donor heavy atom, donor atom, acceptor molecule, acceptor atom, score
      L1  H    11    31       P1  7948  0.95
      P1  H  7989  7998       L1     3  0.66

> <Gold.Chemscore.Hbond.Weighted>
-6.4659

> <Gold.Chemscore.Metal.Weighted>
-0.0000

> <Gold.Chemscore.Lipo.Weighted>
-9.0091

> <Gold.Chemscore.Internal_Hbond.Weighted>
0.0000

> <Gold.Chemscore.DEClash.Weighted>
0.1192

> <Gold.Chemscore.DEInternal.Weighted>
2.5802

> <Gold.Chemscore.Rot.Weighted>
4.1821

> <Gold.Chemscore.Internal.Correction.Weighted>
   9.000000E+99

> <Gold.Protein.RotatedTorsions>
[ 6907 6896 6895 6894 ] final  -22.95 input  -60.11 | X-H torsion
[ 7974 7965 7964 7962 ] final   83.39 input  175.53 | X-H torsion
[ 8008 7997 7996 7995 ] final -103.94 input   59.86 | X-H torsion
[ 10167 10162 10161 10158 ] final   90.11 input  -65.29 | X-H torsion
[ 10718 10713 10712 10709 ] final  -98.15 input   66.30 | X-H torsion
[ 10763 10752 10751 10750 ] final   -3.07 input  -60.55 | X-H torsion
[ 11005 11000 10999 10996 ] final  -37.64 input  -57.11 | X-H torsion

> <Gold.Protein.ActiveResidues>
 VAL166  LYS551  ARG553  GLY616  TRP617  ASP618  TYR619  PRO620  LYS621  CYS622 
 ASP623  PHE694  ASN695  SER759  ASP760  ASP761  ALA762  ILE779  LEU786  VAL792 
 PHE793  MET794  SER795  GLU796  ALA797  LYS798  CYS799  TRP800  GLU811  SER814 

> <Gold.Protein.RotatedAtoms>
  151.2111  135.0481  159.8911 H   0  0  0  0  0  0  0  0  0  0  0  0  # atno 6907 bound_to 6896
  152.5424  134.0744  159.8218 H   0  0  0  0  0  0  0  0  0  0  0  0  # atno 6908 bound_to 6896
  151.0897  133.5277  159.2647 H   0  0  0  0  0  0  0  0  0  0  0  0  # atno 6909 bound_to 6896
  145.6125  139.2371  143.2184 H   0  0  0  0  0  0  0  0  0  0  0  0  # atno 7974 bound_to 7965
  154.8781  140.0420  157.1765 H   0  0  0  0  0  0  0  0  0  0  0  0  # atno 8008 bound_to 7997
  154.8668  140.2952  155.5484 H   0  0  0  0  0  0  0  0  0  0  0  0  # atno 8009 bound_to 7997
  156.2999  140.2436  156.3651 H   0  0  0  0  0  0  0  0  0  0  0  0  # atno 8010 bound_to 7997
  139.8506  144.6595  150.9174 H   0  0  0  0  0  0  0  0  0  0  0  0  # atno 10167 bound_to 10162
  156.0100  130.5225  150.6481 H   0  0  0  0  0  0  0  0  0  0  0  0  # atno 10718 bound_to 10713
  153.3664  135.6992  153.6672 H   0  0  0  0  0  0  0  0  0  0  0  0  # atno 10763 bound_to 10752
  153.5339  135.3586  155.2689 H   0  0  0  0  0  0  0  0  0  0  0  0  # atno 10764 bound_to 10752
  154.8675  135.4187  154.2933 H   0  0  0  0  0  0  0  0  0  0  0  0  # atno 10765 bound_to 10752
  140.9967  133.6976  156.1947 H   0  0  0  0  0  0  0  0  0  0  0  0  # atno 11005 bound_to 11000
  146.1493  140.6947  142.9329 LP  0  0  0  0  0  0  0  0  0  0  0  0  # atno 17320 bound_to 7965
  144.7264  140.4537  143.6970 LP  0  0  0  0  0  0  0  0  0  0  0  0  # atno 17321 bound_to 7965
  140.7788  143.3831  151.1442 LP  0  0  0  0  0  0  0  0  0  0  0  0  # atno 17342 bound_to 10162
  139.7469  143.8838  152.3066 LP  0  0  0  0  0  0  0  0  0  0  0  0  # atno 17343 bound_to 10162
  157.4247  131.0841  151.1096 LP  0  0  0  0  0  0  0  0  0  0  0  0  # atno 17370 bound_to 10713
  157.1688  130.6258  149.5634 LP  0  0  0  0  0  0  0  0  0  0  0  0  # atno 17371 bound_to 10713
  140.6954  134.4621  157.5588 LP  0  0  0  0  0  0  0  0  0  0  0  0  # atno 17394 bound_to 11000
  139.9018  134.8538  156.1864 LP  0  0  0  0  0  0  0  0  0  0  0  0  # atno 17395 bound_to 11000

$$$$
