AV-unprocessed.smi:2756|AV-procd|sdf|10619|dock2
  -GOLD-   2272015 63D 1   1.00000     0.00000
 Structure written by MMmdl.
 18 18  0  0  0  0  0  0  0  0  2 V2000
  150.3547  142.6464  156.2463 N   0  0  0  0  0  0  0  0  0  0  0  0
  151.2816  142.9031  157.2554 C   0  0  0  0  0  0  0  0  0  0  0  0
  151.6172  144.2006  157.4246 N   0  0  0  0  0  0  0  0  0  0  0  0
  152.5065  144.5105  158.3916 C   0  0  0  0  0  0  0  0  0  0  0  0
  153.1033  143.5494  159.2292 C   0  0  0  0  0  0  0  0  0  0  0  0
  152.7537  142.1983  159.0486 C   0  0  0  0  0  0  0  0  0  0  0  0
  151.8252  141.8566  158.0422 C   0  0  0  0  0  0  0  0  0  0  0  0
  151.4428  140.3959  157.8332 C   0  0  0  0  0  0  0  0  0  0  0  0
  151.9038  139.9659  156.4388 C   0  0  0  0  0  0  0  0  0  0  0  0
  152.8312  139.1290  156.3790 O   0  0  0  0  0  0  0  0  0  0  0  0
  151.3178  140.4756  155.4580 O   0  5  0  0  0  0  0  0  0  0  0  0
  150.0511  141.7017  156.0561 H   0  0  0  0  0  0  0  0  0  0  0  0
  149.8015  143.3916  155.8493 H   0  0  0  0  0  0  0  0  0  0  0  0
  152.7503  145.5568  158.5006 H   0  0  0  0  0  0  0  0  0  0  0  0
  153.8099  143.8413  159.9917 H   0  0  0  0  0  0  0  0  0  0  0  0
  153.1916  141.4357  159.6760 H   0  0  0  0  0  0  0  0  0  0  0  0
  151.8882  139.7628  158.6018 H   0  0  0  0  0  0  0  0  0  0  0  0
  150.3619  140.2737  157.9116 H   0  0  0  0  0  0  0  0  0  0  0  0
  1  2  1  0  0  0  0
  1 12  1  0  0  0  0
  1 13  1  0  0  0  0
  2  7  1  0  0  0  0
  2  3  2  0  0  0  0
  3  4  1  0  0  0  0
  4  5  2  0  0  0  0
  4 14  1  0  0  0  0
  5  6  1  0  0  0  0
  5 15  1  0  0  0  0
  6  7  2  0  0  0  0
  6 16  1  0  0  0  0
  7  8  1  0  0  0  0
  8  9  1  0  0  0  0
  8 17  1  0  0  0  0
  8 18  1  0  0  0  0
  9 10  2  0  0  0  0
  9 11  1  0  0  0  0
M  CHG  1  11  -1
M  END
> <s_m_source_file>
AV-unprocessed.smi

> <i_m_source_file_index>
2756

> <i_lp_mmshare_version>
43012

> <i_f3d_flags>
0

> <s_epik_input>
W05IMl1jMW5bY0hdW2NIXVtjSF1jMVtDSDJdQyg9TylbT0hd

> <s_epik_cmdline>
J2VwaWtfcHl0aG9uJywgJy1waCcsICc3LjAnLCAnLXRuJywgJzgnLCAnLW1hJywgJzIwMCcsICctbWV0YWxfYmluZGluZycsICctaW1hZScsICc8aW5maWxlLm1hZT4nLCAnLW9tYWUnLCAnPG91dGZpbGUubWFlPic=

> <r_lp_tautomer_probability>
1

> <r_epik_Ionization_Penalty>
1.10944

> <r_epik_Ionization_Penalty_Charging>
0.000636915

> <r_epik_Ionization_Penalty_Neutral>
1.1088

> <r_epik_State_Penalty>
1.16638

> <r_epik_Charging_Adjusted_Penalty>
1.16702

> <i_epik_Tot_Q>
-1

> <i_epik_Tot_abs_Q>
1

> <r_epik_Metal_State_Penalty>
0.00363901

> <b_epik_Metal_Only>
0

> <s_lp_Force_Field>
OPLS_2005

> <r_lp_Energy>
0.0507989

> <b_lp_Chiralities_Consistent>
1

> <s_lp_Variant>
AV-unprocessed.smi:2756-2

> <Gold.Version>
5.8.1

> <Gold.Id.Protein>
6NUR|6NUR_protein|mol2

> <Gold.PLP.Fitness>
37.6295

> <Gold.PLP.PLP>
-26.0981

> <Gold.PLP.part.hbond>
-3.0000

> <Gold.PLP.part.metal>
0.0000

> <Gold.PLP.part.buried>
-4.5615

> <Gold.PLP.part.nonpolar>
-18.6636

> <Gold.PLP.part.repulsive>
0.2728

> <Gold.PLP.ligand.clash>
0.0000

> <Gold.PLP.ligand.torsion>
0.0785

> <Gold.PLP.Chemscore.Hbond>
3.8960

> <Gold.PLP.Chemscore.CHOScore>
0.0000

> <Gold.PLP.Chemscore.Metal>
0.0000

> <Gold.Chemscore.Hbonds>
donor molecule, donor type, donor heavy atom, donor atom, acceptor molecule, acceptor atom, score
      L1  H     1    13       P1  8028  1.00
      P1  H  7989  7998       L1    11  0.90
      P1  H  7997  8009       L1    10  2.00

> <Gold.PLP.Chemscore.Internal.Correction>
0.0004

> <Gold.Rescore>
     Score         DG    S(hbond)    S(metal)    S(lipo)     H(rot)  DE(clash)    DE(int)     intcor
     15.13     -16.99       2.85        0.00      51.08       1.56       0.02       1.84       ----

> <Gold.Chemscore.Fitness>
15.1340

> <Gold.Chemscore.DG>
-16.9896

> <Gold.Chemscore.ZeroCoef>
-5.4800

> <Gold.Chemscore.Hbond>
2.8543

> <Gold.Chemscore.Metal>
0.0000

> <Gold.Chemscore.Lipo>
51.0793

> <Gold.Chemscore.Internal_Hbond>
0.0000

> <Gold.Chemscore.DEClash>
0.0154

> <Gold.Chemscore.DEInternal>
1.8401

> <Gold.Chemscore.Rot>
1.5625

> <Gold.Chemscore.Internal.Correction>
   9.000000E+99

> <Gold.Chemscore.Hbonds>
donor molecule, donor type, donor heavy atom, donor atom, acceptor molecule, acceptor atom, score
      L1  H     1    13       P1  8028  0.99
      P1  H  7989  7998       L1    11  0.82
      P1  H  7997  8009       L1    10  0.50

> <Gold.Chemscore.Hbond.Weighted>
-9.5333

> <Gold.Chemscore.Metal.Weighted>
-0.0000

> <Gold.Chemscore.Lipo.Weighted>
-5.9763

> <Gold.Chemscore.Internal_Hbond.Weighted>
0.0000

> <Gold.Chemscore.DEClash.Weighted>
0.0154

> <Gold.Chemscore.DEInternal.Weighted>
1.8401

> <Gold.Chemscore.Rot.Weighted>
4.0000

> <Gold.Chemscore.Internal.Correction.Weighted>
   9.000000E+99

> <Gold.Protein.RotatedTorsions>
[ 6907 6896 6895 6894 ] final  -20.20 input  -60.11 | X-H torsion
[ 7974 7965 7964 7962 ] final -136.14 input  175.53 | X-H torsion
[ 8008 7997 7996 7995 ] final -168.21 input   59.86 | X-H torsion
[ 10167 10162 10161 10158 ] final  -34.94 input  -65.29 | X-H torsion
[ 10718 10713 10712 10709 ] final -142.33 input   66.30 | X-H torsion
[ 10763 10752 10751 10750 ] final    5.73 input  -60.55 | X-H torsion
[ 11005 11000 10999 10996 ] final -148.68 input  -57.11 | X-H torsion

> <Gold.Protein.ActiveResidues>
 VAL166  LYS551  ARG553  GLY616  TRP617  ASP618  TYR619  PRO620  LYS621  CYS622 
 ASP623  PHE694  ASN695  SER759  ASP760  ASP761  ALA762  ILE779  LEU786  VAL792 
 PHE793  MET794  SER795  GLU796  ALA797  LYS798  CYS799  TRP800  GLU811  SER814 

> <Gold.Protein.RotatedAtoms>
  151.2517  135.0624  159.9064 H   0  0  0  0  0  0  0  0  0  0  0  0  # atno 6907 bound_to 6896
  152.5379  134.0325  159.8041 H   0  0  0  0  0  0  0  0  0  0  0  0  # atno 6908 bound_to 6896
  151.0534  133.5555  159.2671 H   0  0  0  0  0  0  0  0  0  0  0  0  # atno 6909 bound_to 6896
  144.8953  140.6698  143.5119 H   0  0  0  0  0  0  0  0  0  0  0  0  # atno 7974 bound_to 7965
  155.8882  140.1020  157.1437 H   0  0  0  0  0  0  0  0  0  0  0  0  # atno 8008 bound_to 7997
  154.4012  140.1316  156.4346 H   0  0  0  0  0  0  0  0  0  0  0  0  # atno 8009 bound_to 7997
  155.7564  140.3464  155.5178 H   0  0  0  0  0  0  0  0  0  0  0  0  # atno 8010 bound_to 7997
  140.7175  143.3512  151.2152 H   0  0  0  0  0  0  0  0  0  0  0  0  # atno 10167 bound_to 10162
  156.3447  130.7656  151.1798 H   0  0  0  0  0  0  0  0  0  0  0  0  # atno 10718 bound_to 10713
  153.2559  135.6918  153.7629 H   0  0  0  0  0  0  0  0  0  0  0  0  # atno 10763 bound_to 10752
  153.6706  135.3345  155.3153 H   0  0  0  0  0  0  0  0  0  0  0  0  # atno 10764 bound_to 10752
  154.8412  135.4499  154.1533 H   0  0  0  0  0  0  0  0  0  0  0  0  # atno 10765 bound_to 10752
  140.7587  134.3323  157.5107 H   0  0  0  0  0  0  0  0  0  0  0  0  # atno 11005 bound_to 11000
  145.3711  139.1658  143.4331 LP  0  0  0  0  0  0  0  0  0  0  0  0  # atno 17320 bound_to 7965
  146.3077  140.3783  142.8681 LP  0  0  0  0  0  0  0  0  0  0  0  0  # atno 17321 bound_to 7965
  139.7043  143.9481  152.2920 LP  0  0  0  0  0  0  0  0  0  0  0  0  # atno 17342 bound_to 10162
  139.9184  144.6814  150.8487 LP  0  0  0  0  0  0  0  0  0  0  0  0  # atno 17343 bound_to 10162
  157.7452  131.0444  150.4794 LP  0  0  0  0  0  0  0  0  0  0  0  0  # atno 17370 bound_to 10713
  156.4980  130.4110  149.6369 LP  0  0  0  0  0  0  0  0  0  0  0  0  # atno 17371 bound_to 10713
  139.8774  134.9188  156.3212 LP  0  0  0  0  0  0  0  0  0  0  0  0  # atno 17394 bound_to 11000
  140.9683  133.7344  156.0498 LP  0  0  0  0  0  0  0  0  0  0  0  0  # atno 17395 bound_to 11000

$$$$
