#       Name:                AV-unprocessed.smi:72
#       Creating user name   scv26
#       Creation time:       Thu Mar 26 17:02:23 2020


#       File generated by GOLD software.
#

@<TRIPOS>MOLECULE
AV-unprocessed.smi:72
    41    42     1
SMALL
NO_CHARGES


@<TRIPOS>ATOM
      1 ****        -4.9575   0.0672  -0.0432 N.pl3          1 S1                 0.0000
      2 ****        -3.6404  -0.3412  -0.0721 C.2            1 S1                 0.0000
      3 ****        -2.7318   0.4653  -0.7324 N.pl3          1 S1                 1.0000
      4 ****        -1.4183   0.2228  -0.8372 C.2            1 S1                 0.0000
      5 ****        -0.9135  -0.8461  -0.2500 N.am           1 S1                 0.0000
      6 ****         0.5597  -1.1823  -0.3301 C.3            1 S1                 0.0000
      7 ****         1.2000  -0.2011  -1.0808 O.3            1 S1                 0.0000
      8 ****         1.6178   0.8458  -0.2146 C.3            1 S1                 0.0000
      9 ****         2.6785   1.7111  -0.9103 C.3            1 S1                 0.0000
     10 ****         2.0471   2.6537  -1.7502 O.3            1 S1                 0.0000
     11 ****         2.1465   0.0664   0.9920 C.3            1 S1                 0.0000
     12 ****         2.0256   0.8478   2.1633 O.3            1 S1                 0.0000
     13 ****         1.2267  -1.1531   1.0637 C.3            1 S1                 0.0000
     14 ****         1.9787  -2.3250   1.3026 O.3            1 S1                 0.0000
     15 ****        -1.7820  -1.7689   0.3907 C.2            1 S1                 0.0000
     16 ****        -1.3390  -2.8138   0.8655 O.2            1 S1                 0.0000
     17 ****        -3.1403  -1.4258   0.4512 N.2            1 S1                 0.0000
     18 ****         0.5987  -2.1474  -0.8388 H              1 S1                 0.0000
     19 ****         0.7584   1.4489   0.0862 H              1 S1                 0.0000
     20 ****         3.1854  -0.2276   0.8309 H              1 S1                 0.0000
     21 ****         0.4740  -1.0419   1.8457 H              1 S1                 0.0000
     22 ****        -5.6903  -0.4624   0.4079 H              1 S1                 0.0000
     23 ****        -5.2942   0.9196  -0.4675 H              1 S1                 0.0000
     24 ****        -0.8114   0.9073  -1.4149 H              1 S1                 0.0000
     25 ****         3.2556   2.2656  -0.1696 H              1 S1                 0.0000
     26 ****         3.3806   1.1014  -1.4798 H              1 S1                 0.0000
     27 ****         2.7130   3.1890  -2.1550 H              1 S1                 0.0000
     28 ****         2.3328   0.3371   2.8973 H              1 S1                 0.0000
     29 ****         2.6294  -2.4121   0.6227 H              1 S1                 0.0000
     30 ****        -3.0905   1.2999  -1.1740 H              1 S1                 0.0000
     31 ****         0.5685   0.1624  -1.7657 LP             1 S1                 0.0000
     32 ****         1.9969  -0.5957  -1.5383 LP             1 S1                 0.0000
     33 ****         1.4340   3.2297  -1.2095 LP             1 S1                 0.0000
     34 ****         1.5218   2.1781  -2.4557 LP             1 S1                 0.0000
     35 ****         1.0679   1.0987   2.3041 LP             1 S1                 0.0000
     36 ****         2.5778   1.6768   2.0744 LP             1 S1                 0.0000
     37 ****         1.3734  -3.1209   1.2928 LP             1 S1                 0.0000
     38 ****         2.4293  -2.2599   2.1930 LP             1 S1                 0.0000
     39 ****        -0.3620  -3.0174   0.8015 LP             1 S1                 0.0000
     40 ****        -1.9558  -3.4596   1.3155 LP             1 S1                 0.0000
     41 ****        -3.7624  -2.0500   0.9238 LP             1 S1                 0.0000
@<TRIPOS>BOND
    1    1    2 1     
    2    1   22 1     
    3    1   23 1     
    4    2   17 2     
    5    2    3 1     
    6    3    4 2     
    7    3   30 1     
    8    4    5 1     
    9    4   24 1     
   10    5    6 1     
   11    5   15 am    
   12    6   18 1     
   13    6   13 1     
   14    6    7 1     
   15    7    8 1     
   16    8   19 1     
   17    8    9 1     
   18    8   11 1     
   19    9   10 1     
   20    9   25 1     
   21    9   26 1     
   22   10   27 1     
   23   11   20 1     
   24   11   12 1     
   25   11   13 1     
   26   12   28 1     
   27   13   21 1     
   28   13   14 1     
   29   14   29 1     
   30   15   16 2     
   31   15   17 1     
   32    7   31 1     
   33    7   32 1     
   34   10   33 1     
   35   10   34 1     
   36   12   35 1     
   37   12   36 1     
   38   14   37 1     
   39   14   38 1     
   40   16   39 1     
   41   16   40 1     
   42   17   41 1     
@<TRIPOS>SUBSTRUCTURE
      1 S1             1
@<TRIPOS>SET
LONE_PAIRS      STATIC     ATOMS    <user>   **** ""
11 31 32 33 34 35 36 37 38 39 40 41
DONOR_HYDROGENS      STATIC     ATOMS    <user>   **** ""
6 22 23 30 27 28 29
ATOM$BLUE        STATIC     ATOMS    COLORGROUP SYSTEM
11 31 32 33 34 35 36 37 38 39 40 41
ATOM$RED        STATIC     ATOMS    COLORGROUP SYSTEM
6 22 23 30 27 28 29
