AV-unprocessed.smi:3068|AV-procd|sdf|11707|dock8
  -GOLD-   2272017113D 1   1.00000     0.00000
 Structure written by MMmdl.
 39 41  0  0  0  0  0  0  0  0  1 V2000
  154.1405  136.7170  162.5722 N   0  0  0  0  0  0  0  0  0  0  0  0
  154.1176  136.9148  161.4321 C   0  0  0  0  0  0  0  0  0  0  0  0
  154.0883  137.1637  159.9964 C   0  0  0  0  0  0  0  0  0  0  0  0
  153.4249  136.2609  159.2373 N   0  0  0  0  0  0  0  0  0  0  0  0
  153.3906  136.4788  157.9055 C   0  0  0  0  0  0  0  0  0  0  0  0
  154.0174  137.5983  157.3253 C   0  0  0  0  0  0  0  0  0  0  0  0
  154.6798  138.5045  158.0747 N   0  0  0  0  0  0  0  0  0  0  0  0
  154.7244  138.2969  159.4148 C   0  0  0  0  0  0  0  0  0  0  0  0
  155.4089  139.2345  160.2106 N   0  0  0  0  0  0  0  0  0  0  0  0
  155.0045  140.6345  160.2670 C   0  0  0  0  0  0  0  0  0  0  0  0
  153.6037  140.8193  160.8894 C   0  0  1  0  0  0  0  0  0  0  0  0
  153.2053  142.3005  161.0322 C   0  0  0  0  0  0  0  0  0  0  0  0
  152.8951  142.9284  159.7534 N   0  0  0  0  0  0  0  0  0  0  0  0
  152.5036  144.3257  159.9355 C   0  0  0  0  0  0  0  0  0  0  0  0
  152.1995  145.0290  158.6037 C   0  0  0  0  0  0  0  0  0  0  0  0
  151.1067  144.2688  157.8394 C   0  0  0  0  0  0  0  0  0  0  0  0
  151.4989  142.7905  157.6940 C   0  0  0  0  0  0  0  0  0  0  0  0
  151.8467  142.1711  159.0640 C   0  0  1  0  0  0  0  0  0  0  0  0
  152.2534  140.6936  158.8970 C   0  0  0  0  0  0  0  0  0  0  0  0
  152.5928  140.1225  160.1583 O   0  0  0  0  0  0  0  0  0  0  0  0
  152.8608  135.7580  157.3007 H   0  0  0  0  0  0  0  0  0  0  0  0
  153.9872  137.7675  156.2591 H   0  0  0  0  0  0  0  0  0  0  0  0
  156.3122  138.9877  160.5892 H   0  0  0  0  0  0  0  0  0  0  0  0
  155.7431  141.2043  160.8314 H   0  0  0  0  0  0  0  0  0  0  0  0
  155.0352  141.0413  159.2569 H   0  0  0  0  0  0  0  0  0  0  0  0
  153.6177  140.3898  161.8914 H   0  0  0  0  0  0  0  0  0  0  0  0
  152.3348  142.3662  161.6868 H   0  0  0  0  0  0  0  0  0  0  0  0
  154.0053  142.8480  161.5316 H   0  0  0  0  0  0  0  0  0  0  0  0
  151.6274  144.3833  160.5833 H   0  0  0  0  0  0  0  0  0  0  0  0
  153.3009  144.8655  160.4476 H   0  0  0  0  0  0  0  0  0  0  0  0
  151.8871  146.0578  158.7836 H   0  0  0  0  0  0  0  0  0  0  0  0
  153.1068  145.0781  158.0000 H   0  0  0  0  0  0  0  0  0  0  0  0
  150.1615  144.3454  158.3784 H   0  0  0  0  0  0  0  0  0  0  0  0
  150.9463  144.7178  156.8589 H   0  0  0  0  0  0  0  0  0  0  0  0
  150.6840  142.2378  157.2257 H   0  0  0  0  0  0  0  0  0  0  0  0
  152.3556  142.7078  157.0235 H   0  0  0  0  0  0  0  0  0  0  0  0
  150.9442  142.1948  159.6775 H   0  0  0  0  0  0  0  0  0  0  0  0
  151.4281  140.1213  158.4727 H   0  0  0  0  0  0  0  0  0  0  0  0
  153.0876  140.5942  158.2023 H   0  0  0  0  0  0  0  0  0  0  0  0
  1  2  3  0  0  0  0
  2  3  1  0  0  0  0
  3  8  1  0  0  0  0
  3  4  2  0  0  0  0
  4  5  1  0  0  0  0
  5  6  2  0  0  0  0
  5 21  1  0  0  0  0
  6  7  1  0  0  0  0
  6 22  1  0  0  0  0
  7  8  2  0  0  0  0
  8  9  1  0  0  0  0
  9 10  1  0  0  0  0
  9 23  1  0  0  0  0
 10 11  1  0  0  0  0
 10 24  1  0  0  0  0
 10 25  1  0  0  0  0
 11 20  1  0  0  0  0
 11 12  1  0  0  0  0
 11 26  1  0  0  0  0
 12 13  1  0  0  0  0
 12 27  1  0  0  0  0
 12 28  1  0  0  0  0
 13 18  1  0  0  0  0
 13 14  1  0  0  0  0
 14 15  1  0  0  0  0
 14 29  1  0  0  0  0
 14 30  1  0  0  0  0
 15 16  1  0  0  0  0
 15 31  1  0  0  0  0
 15 32  1  0  0  0  0
 16 17  1  0  0  0  0
 16 33  1  0  0  0  0
 16 34  1  0  0  0  0
 17 18  1  0  0  0  0
 17 35  1  0  0  0  0
 17 36  1  0  0  0  0
 18 19  1  0  0  0  0
 18 37  1  0  0  0  0
 19 20  1  0  0  0  0
 19 38  1  0  0  0  0
 19 39  1  0  0  0  0
M  END
> <s_m_source_file>
AV-unprocessed.smi

> <i_m_source_file_index>
3068

> <i_lp_mmshare_version>
43012

> <i_f3d_flags>
0

> <s_epik_input>
TiNDYzFuW2NIXVtjSF1uYzFbTkhdW0NIMl1bQ0BIXShbQ0gyXTIpT1tDSDJdW0NAQEhdKE4yMylbQ0gyXVtDSDJdW0NIMl1bQ0gyXTM=

> <s_epik_cmdline>
J2VwaWtfcHl0aG9uJywgJy1waCcsICc3LjAnLCAnLXRuJywgJzgnLCAnLW1hJywgJzIwMCcsICctbWV0YWxfYmluZGluZycsICctaW1hZScsICc8aW5maWxlLm1hZT4nLCAnLW9tYWUnLCAnPG91dGZpbGUubWFlPic=

> <r_epik_Ionization_Penalty>
1.22359

> <r_epik_Ionization_Penalty_Charging>
0

> <r_epik_Ionization_Penalty_Neutral>
1.22359

> <r_epik_State_Penalty>
1.29103

> <r_epik_Charging_Adjusted_Penalty>
1.29103

> <i_epik_Tot_Q>
0

> <i_epik_Tot_abs_Q>
0

> <r_epik_Metal_State_Penalty>
1.29103

> <b_epik_Metal_Only>
0

> <s_lp_Force_Field>
OPLS_2005

> <r_lp_Energy>
49.2936

> <b_lp_Chiralities_Consistent>
1

> <s_lp_Variant>
AV-unprocessed.smi:3068-10

> <Gold.Version>
5.8.1

> <Gold.Id.Protein>
6NUR|6NUR_protein|mol2

> <Gold.PLP.Fitness>
38.4457

> <Gold.PLP.PLP>
-33.6411

> <Gold.PLP.part.hbond>
-2.0000

> <Gold.PLP.part.metal>
0.0000

> <Gold.PLP.part.buried>
-3.2910

> <Gold.PLP.part.nonpolar>
-28.9392

> <Gold.PLP.part.repulsive>
0.0551

> <Gold.PLP.ligand.clash>
0.0000

> <Gold.PLP.ligand.torsion>
0.5880

> <Gold.PLP.Chemscore.Hbond>
1.9920

> <Gold.PLP.Chemscore.CHOScore>
0.0000

> <Gold.PLP.Chemscore.Metal>
0.0000

> <Gold.Chemscore.Hbonds>
donor molecule, donor type, donor heavy atom, donor atom, acceptor molecule, acceptor atom, score
      P1  H  6896  6908       L1     4  1.00
      P1  H  7997  8010       L1     7  0.99

> <Gold.PLP.Chemscore.Internal.Correction>
0.0047

> <Gold.Rescore>
     Score         DG    S(hbond)    S(metal)    S(lipo)     H(rot)  DE(clash)    DE(int)     intcor
     18.41     -20.28       1.79        0.00     103.83       1.30       0.10       1.77       ----

> <Gold.Chemscore.Fitness>
18.4072

> <Gold.Chemscore.DG>
-20.2793

> <Gold.Chemscore.ZeroCoef>
-5.4800

> <Gold.Chemscore.Hbond>
1.7916

> <Gold.Chemscore.Metal>
0.0000

> <Gold.Chemscore.Lipo>
103.8303

> <Gold.Chemscore.Internal_Hbond>
0.0000

> <Gold.Chemscore.DEClash>
0.1049

> <Gold.Chemscore.DEInternal>
1.7671

> <Gold.Chemscore.Rot>
1.3019

> <Gold.Chemscore.Internal.Correction>
   9.000000E+99

> <Gold.Chemscore.Hbonds>
donor molecule, donor type, donor heavy atom, donor atom, acceptor molecule, acceptor atom, score
      P1  H  6896  6908       L1     4  0.90
      P1  H  7997  8010       L1     7  0.80

> <Gold.Chemscore.Hbond.Weighted>
-5.9839

> <Gold.Chemscore.Metal.Weighted>
-0.0000

> <Gold.Chemscore.Lipo.Weighted>
-12.1481

> <Gold.Chemscore.Internal_Hbond.Weighted>
0.0000

> <Gold.Chemscore.DEClash.Weighted>
0.1049

> <Gold.Chemscore.DEInternal.Weighted>
1.7671

> <Gold.Chemscore.Rot.Weighted>
3.3327

> <Gold.Chemscore.Internal.Correction.Weighted>
   9.000000E+99

> <Gold.Protein.RotatedTorsions>
[ 6907 6896 6895 6894 ] final  -70.46 input  -60.11 | X-H torsion
[ 7974 7965 7964 7962 ] final  145.15 input  175.53 | X-H torsion
[ 8008 7997 7996 7995 ] final    9.56 input   59.86 | X-H torsion
[ 10167 10162 10161 10158 ] final  142.54 input  -65.29 | X-H torsion
[ 10718 10713 10712 10709 ] final  163.60 input   66.30 | X-H torsion
[ 10763 10752 10751 10750 ] final   88.68 input  -60.55 | X-H torsion
[ 11005 11000 10999 10996 ] final  -18.93 input  -57.11 | X-H torsion

> <Gold.Protein.ActiveResidues>
 VAL166  LYS551  ARG553  GLY616  TRP617  ASP618  TYR619  PRO620  LYS621  CYS622 
 ASP623  PHE694  ASN695  SER759  ASP760  ASP761  ALA762  ILE779  LEU786  VAL792 
 PHE793  MET794  SER795  GLU796  ALA797  LYS798  CYS799  TRP800  GLU811  SER814 

> <Gold.Protein.RotatedAtoms>
  150.7257  134.5450  159.5765 H   0  0  0  0  0  0  0  0  0  0  0  0  # atno 6907 bound_to 6896
  152.2951  134.7673  160.0379 H   0  0  0  0  0  0  0  0  0  0  0  0  # atno 6908 bound_to 6896
  151.8273  133.3368  159.3639 H   0  0  0  0  0  0  0  0  0  0  0  0  # atno 6909 bound_to 6896
  144.8776  139.5748  143.5858 H   0  0  0  0  0  0  0  0  0  0  0  0  # atno 7974 bound_to 7965
  154.7817  140.2820  155.6059 H   0  0  0  0  0  0  0  0  0  0  0  0  # atno 8008 bound_to 7997
  156.2951  140.2622  156.2572 H   0  0  0  0  0  0  0  0  0  0  0  0  # atno 8009 bound_to 7997
  154.9776  140.0375  157.2253 H   0  0  0  0  0  0  0  0  0  0  0  0  # atno 8010 bound_to 7997
  139.4991  144.6100  151.6293 H   0  0  0  0  0  0  0  0  0  0  0  0  # atno 10167 bound_to 10162
  157.1061  131.0456  151.2477 H   0  0  0  0  0  0  0  0  0  0  0  0  # atno 10718 bound_to 10713
  153.1793  135.4498  155.0007 H   0  0  0  0  0  0  0  0  0  0  0  0  # atno 10763 bound_to 10752
  154.8019  135.3259  154.7530 H   0  0  0  0  0  0  0  0  0  0  0  0  # atno 10764 bound_to 10752
  153.7996  135.6963  153.4913 H   0  0  0  0  0  0  0  0  0  0  0  0  # atno 10765 bound_to 10752
  140.8317  133.7992  155.9765 H   0  0  0  0  0  0  0  0  0  0  0  0  # atno 11005 bound_to 11000
  146.2973  139.7317  142.9117 LP  0  0  0  0  0  0  0  0  0  0  0  0  # atno 17320 bound_to 7965
  145.4013  141.0385  143.3069 LP  0  0  0  0  0  0  0  0  0  0  0  0  # atno 17321 bound_to 7965
  140.5772  144.0008  150.6248 LP  0  0  0  0  0  0  0  0  0  0  0  0  # atno 17342 bound_to 10162
  140.3145  143.3176  152.0846 LP  0  0  0  0  0  0  0  0  0  0  0  0  # atno 17343 bound_to 10162
  157.4599  130.7647  149.7226 LP  0  0  0  0  0  0  0  0  0  0  0  0  # atno 17370 bound_to 10713
  155.9861  130.3977  150.3226 LP  0  0  0  0  0  0  0  0  0  0  0  0  # atno 17371 bound_to 10713
  140.8991  134.2401  157.5052 LP  0  0  0  0  0  0  0  0  0  0  0  0  # atno 17394 bound_to 11000
  139.8705  134.9698  156.4678 LP  0  0  0  0  0  0  0  0  0  0  0  0  # atno 17395 bound_to 11000

$$$$
