AV-unprocessed.smi:1092|AV-procd|sdf|4737|dock7
  -GOLD-   22720 3273D 1   1.00000     0.00000
 Structure written by MMmdl.
 43 45  0  0  0  0  0  0  0  0  1 V2000
  154.4494  138.4816  159.5057 C   0  0  0  0  0  0  0  0  0  0  0  0
  154.1800  137.1259  158.8236 C   0  0  0  0  0  0  0  0  0  0  0  0
  155.3219  136.1415  159.1291 C   0  0  0  0  0  0  0  0  0  0  0  0
  153.0249  136.5616  159.4151 O   0  0  0  0  0  0  0  0  0  0  0  0
  153.9503  137.2080  157.2886 C   0  0  0  0  0  0  0  0  0  0  0  0
  152.7644  137.9852  156.8993 N   0  0  0  0  0  0  0  0  0  0  0  0
  152.7502  139.2707  157.3877 N   0  0  0  0  0  0  0  0  0  0  0  0
  151.7934  140.0972  157.1075 C   0  0  0  0  0  0  0  0  0  0  0  0
  151.8744  141.4398  157.7290 C   0  0  0  0  0  0  0  0  0  0  0  0
  151.2375  142.5320  157.0969 C   0  0  0  0  0  0  0  0  0  0  0  0
  151.3146  143.8110  157.6820 C   0  0  0  0  0  0  0  0  0  0  0  0
  152.0283  143.9981  158.8828 C   0  0  0  0  0  0  0  0  0  0  0  0
  152.6726  142.9084  159.5017 C   0  0  0  0  0  0  0  0  0  0  0  0
  152.6019  141.6249  158.9259 C   0  0  0  0  0  0  0  0  0  0  0  0
  150.7015  139.5697  156.2204 C   0  0  0  0  0  0  0  0  0  0  0  0
  149.5740  140.4227  155.7459 C   0  0  0  0  0  0  0  0  0  0  0  0
  148.6867  140.9995  156.6851 C   0  0  0  0  0  0  0  0  0  0  0  0
  147.6104  141.7981  156.2524 C   0  0  0  0  0  0  0  0  0  0  0  0
  147.4046  142.0212  154.8781 C   0  0  0  0  0  0  0  0  0  0  0  0
  148.2732  141.4406  153.9353 C   0  0  0  0  0  0  0  0  0  0  0  0
  149.3496  140.6413  154.3657 C   0  0  0  0  0  0  0  0  0  0  0  0
  150.7216  138.3504  155.8036 N   0  0  0  0  0  0  0  0  0  0  0  0
  151.7611  137.4733  156.1277 C   0  0  0  0  0  0  0  0  0  0  0  0
  151.7816  136.3093  155.7284 O   0  0  0  0  0  0  0  0  0  0  0  0
  155.3202  138.9743  159.0724 H   0  0  0  0  0  0  0  0  0  0  0  0
  154.6404  138.3565  160.5720 H   0  0  0  0  0  0  0  0  0  0  0  0
  153.6010  139.1602  159.4110 H   0  0  0  0  0  0  0  0  0  0  0  0
  156.2684  136.5009  158.7239 H   0  0  0  0  0  0  0  0  0  0  0  0
  155.1300  135.1599  158.6942 H   0  0  0  0  0  0  0  0  0  0  0  0
  155.4566  136.0055  160.2029 H   0  0  0  0  0  0  0  0  0  0  0  0
  152.7858  137.0831  160.1658 H   0  0  0  0  0  0  0  0  0  0  0  0
  154.8379  137.6334  156.8176 H   0  0  0  0  0  0  0  0  0  0  0  0
  153.8800  136.2043  156.8651 H   0  0  0  0  0  0  0  0  0  0  0  0
  150.6832  142.4018  156.1781 H   0  0  0  0  0  0  0  0  0  0  0  0
  150.8251  144.6496  157.2094 H   0  0  0  0  0  0  0  0  0  0  0  0
  152.0855  144.9806  159.3279 H   0  0  0  0  0  0  0  0  0  0  0  0
  153.2246  143.0581  160.4180 H   0  0  0  0  0  0  0  0  0  0  0  0
  153.1134  140.8021  159.4037 H   0  0  0  0  0  0  0  0  0  0  0  0
  148.8286  140.8420  157.7447 H   0  0  0  0  0  0  0  0  0  0  0  0
  146.9414  142.2392  156.9766 H   0  0  0  0  0  0  0  0  0  0  0  0
  146.5781  142.6324  154.5471 H   0  0  0  0  0  0  0  0  0  0  0  0
  148.1116  141.6042  152.8800 H   0  0  0  0  0  0  0  0  0  0  0  0
  149.9930  140.1911  153.6240 H   0  0  0  0  0  0  0  0  0  0  0  0
  1  2  1  0  0  0  0
  1 25  1  0  0  0  0
  1 26  1  0  0  0  0
  1 27  1  0  0  0  0
  2  3  1  0  0  0  0
  2  4  1  0  0  0  0
  2  5  1  0  0  0  0
  3 28  1  0  0  0  0
  3 29  1  0  0  0  0
  3 30  1  0  0  0  0
  4 31  1  0  0  0  0
  5  6  1  0  0  0  0
  5 32  1  0  0  0  0
  5 33  1  0  0  0  0
  6 23  1  0  0  0  0
  6  7  1  0  0  0  0
  7  8  2  0  0  0  0
  8  9  1  0  0  0  0
  8 15  1  0  0  0  0
  9 14  1  0  0  0  0
  9 10  2  0  0  0  0
 10 11  1  0  0  0  0
 10 34  1  0  0  0  0
 11 12  2  0  0  0  0
 11 35  1  0  0  0  0
 12 13  1  0  0  0  0
 12 36  1  0  0  0  0
 13 14  2  0  0  0  0
 13 37  1  0  0  0  0
 14 38  1  0  0  0  0
 15 16  1  0  0  0  0
 15 22  2  0  0  0  0
 16 21  1  0  0  0  0
 16 17  2  0  0  0  0
 17 18  1  0  0  0  0
 17 39  1  0  0  0  0
 18 19  2  0  0  0  0
 18 40  1  0  0  0  0
 19 20  1  0  0  0  0
 19 41  1  0  0  0  0
 20 21  2  0  0  0  0
 20 42  1  0  0  0  0
 21 43  1  0  0  0  0
 22 23  1  0  0  0  0
 23 24  2  0  0  0  0
M  END
> <s_m_source_file>
AV-unprocessed.smi

> <i_m_source_file_index>
1092

> <i_lp_mmshare_version>
43012

> <i_f3d_flags>
0

> <s_epik_input>
W2NIXTFbY0hdW2NIXVtjSF1bY0hdYzEtYyhubjJbQ0gyXUMoW0NIM10pKFtDSDNdKVtPSF0pYyhuYzI9TyktYzNbY0hdW2NIXVtjSF1bY0hdW2NIXTM=

> <s_epik_cmdline>
J2VwaWtfcHl0aG9uJywgJy1waCcsICc3LjAnLCAnLXRuJywgJzgnLCAnLW1hJywgJzIwMCcsICctbWV0YWxfYmluZGluZycsICctaW1hZScsICc8aW5maWxlLm1hZT4nLCAnLW9tYWUnLCAnPG91dGZpbGUubWFlPic=

> <r_lp_tautomer_probability>
1

> <r_epik_Ionization_Penalty>
4.51197e-08

> <r_epik_Ionization_Penalty_Charging>
4.64162e-09

> <r_epik_Ionization_Penalty_Neutral>
4.04781e-08

> <r_epik_State_Penalty>
-0

> <r_epik_Charging_Adjusted_Penalty>
4.64162e-09

> <i_epik_Tot_Q>
0

> <i_epik_Tot_abs_Q>
0

> <r_epik_Metal_State_Penalty>
-0

> <b_epik_Metal_Only>
0

> <s_lp_Force_Field>
OPLS_2005

> <r_lp_Energy>
39.3317

> <b_lp_Chiralities_Consistent>
1

> <s_lp_Variant>
AV-unprocessed.smi:1092-1

> <Gold.Version>
5.8.1

> <Gold.Id.Protein>
6NUR|6NUR_protein|mol2

> <Gold.PLP.Fitness>
46.6632

> <Gold.PLP.PLP>
-38.2484

> <Gold.PLP.part.hbond>
-3.0000

> <Gold.PLP.part.metal>
0.0000

> <Gold.PLP.part.buried>
-2.7157

> <Gold.PLP.part.nonpolar>
-31.6292

> <Gold.PLP.part.repulsive>
0.0406

> <Gold.PLP.ligand.clash>
0.0000

> <Gold.PLP.ligand.torsion>
1.4523

> <Gold.PLP.Chemscore.Hbond>
3.0000

> <Gold.PLP.Chemscore.CHOScore>
0.0000

> <Gold.PLP.Chemscore.Metal>
0.0000

> <Gold.Chemscore.Hbonds>
donor molecule, donor type, donor heavy atom, donor atom, acceptor molecule, acceptor atom, score
      P1  H  6896  6909       L1     4  0.80
      P1  H  7997  8008       L1     7  1.00
      P1  H 10752 10764       L1    24  1.00

> <Gold.PLP.Chemscore.Internal.Correction>
2.3194

> <Gold.Rescore>
     Score         DG    S(hbond)    S(metal)    S(lipo)     H(rot)  DE(clash)    DE(int)     intcor
     19.04     -22.94       2.23        0.00     120.32       1.59       0.78       3.12       ----

> <Gold.Chemscore.Fitness>
19.0441

> <Gold.Chemscore.DG>
-22.9436

> <Gold.Chemscore.ZeroCoef>
-5.4800

> <Gold.Chemscore.Hbond>
2.2337

> <Gold.Chemscore.Metal>
0.0000

> <Gold.Chemscore.Lipo>
120.3234

> <Gold.Chemscore.Internal_Hbond>
0.0000

> <Gold.Chemscore.DEClash>
0.7841

> <Gold.Chemscore.DEInternal>
3.1154

> <Gold.Chemscore.Rot>
1.5918

> <Gold.Chemscore.Internal.Correction>
   9.000000E+99

> <Gold.Chemscore.Hbonds>
donor molecule, donor type, donor heavy atom, donor atom, acceptor molecule, acceptor atom, score
      P1  H  6896  6909       L1     4  0.11
      P1  H  7997  8008       L1     7  0.37
      P1  H 10752 10764       L1    24  1.00

> <Gold.Chemscore.Hbond.Weighted>
-7.4607

> <Gold.Chemscore.Metal.Weighted>
-0.0000

> <Gold.Chemscore.Lipo.Weighted>
-14.0778

> <Gold.Chemscore.Internal_Hbond.Weighted>
0.0000

> <Gold.Chemscore.DEClash.Weighted>
0.7841

> <Gold.Chemscore.DEInternal.Weighted>
3.1154

> <Gold.Chemscore.Rot.Weighted>
4.0749

> <Gold.Chemscore.Internal.Correction.Weighted>
   9.000000E+99

> <Gold.Protein.RotatedTorsions>
[ 6907 6896 6895 6894 ] final  161.71 input  -60.11 | X-H torsion
[ 7974 7965 7964 7962 ] final  127.44 input  175.53 | X-H torsion
[ 8008 7997 7996 7995 ] final  -75.10 input   59.86 | X-H torsion
[ 10167 10162 10161 10158 ] final -160.27 input  -65.29 | X-H torsion
[ 10718 10713 10712 10709 ] final  -38.23 input   66.30 | X-H torsion
[ 10763 10752 10751 10750 ] final  -54.38 input  -60.55 | X-H torsion
[ 11005 11000 10999 10996 ] final  -59.21 input  -57.11 | X-H torsion

> <Gold.Protein.ActiveResidues>
 VAL166  LYS551  ARG553  GLY616  TRP617  ASP618  TYR619  PRO620  LYS621  CYS622 
 ASP623  PHE694  ASN695  SER759  ASP760  ASP761  ALA762  ILE779  LEU786  VAL792 
 PHE793  MET794  SER795  GLU796  ALA797  LYS798  CYS799  TRP800  GLU811  SER814 

> <Gold.Protein.RotatedAtoms>
  151.9514  133.3667  159.4001 H   0  0  0  0  0  0  0  0  0  0  0  0  # atno 6907 bound_to 6896
  150.6980  134.4336  159.5269 H   0  0  0  0  0  0  0  0  0  0  0  0  # atno 6908 bound_to 6896
  152.2010  134.8588  160.0558 H   0  0  0  0  0  0  0  0  0  0  0  0  # atno 6909 bound_to 6896
  145.0506  139.3886  143.5056 H   0  0  0  0  0  0  0  0  0  0  0  0  # atno 7974 bound_to 7965
  154.5387  140.0750  156.8473 H   0  0  0  0  0  0  0  0  0  0  0  0  # atno 8008 bound_to 7997
  155.3224  140.3397  155.4223 H   0  0  0  0  0  0  0  0  0  0  0  0  # atno 8009 bound_to 7997
  156.1854  140.1667  156.8182 H   0  0  0  0  0  0  0  0  0  0  0  0  # atno 8010 bound_to 7997
  139.6552  144.0012  152.2189 H   0  0  0  0  0  0  0  0  0  0  0  0  # atno 10167 bound_to 10162
  156.3061  130.4246  149.8095 H   0  0  0  0  0  0  0  0  0  0  0  0  # atno 10718 bound_to 10713
  154.1739  135.6454  153.5016 H   0  0  0  0  0  0  0  0  0  0  0  0  # atno 10763 bound_to 10752
  153.0077  135.5390  154.6584 H   0  0  0  0  0  0  0  0  0  0  0  0  # atno 10764 bound_to 10752
  154.5930  135.2936  155.0588 H   0  0  0  0  0  0  0  0  0  0  0  0  # atno 10765 bound_to 10752
  141.1239  133.6615  156.5037 H   0  0  0  0  0  0  0  0  0  0  0  0  # atno 11005 bound_to 11000
  146.3517  140.0153  142.8663 LP  0  0  0  0  0  0  0  0  0  0  0  0  # atno 17320 bound_to 7965
  145.1532  140.9634  143.4420 LP  0  0  0  0  0  0  0  0  0  0  0  0  # atno 17321 bound_to 7965
  139.9736  144.6477  150.7966 LP  0  0  0  0  0  0  0  0  0  0  0  0  # atno 17342 bound_to 10162
  140.7556  143.3049  151.2987 LP  0  0  0  0  0  0  0  0  0  0  0  0  # atno 17343 bound_to 10162
  156.5456  130.8319  151.3283 LP  0  0  0  0  0  0  0  0  0  0  0  0  # atno 17370 bound_to 10713
  157.7380  130.9805  150.2225 LP  0  0  0  0  0  0  0  0  0  0  0  0  # atno 17371 bound_to 10713
  140.4425  134.7002  157.4999 LP  0  0  0  0  0  0  0  0  0  0  0  0  # atno 17394 bound_to 11000
  140.0219  134.6534  155.9227 LP  0  0  0  0  0  0  0  0  0  0  0  0  # atno 17395 bound_to 11000

$$$$
