#       Name:                AV-unprocessed.smi:1203
#       Creating user name   scv26
#       Creation time:       Fri Mar 27 04:05:58 2020


#       File generated by GOLD software.
#

@<TRIPOS>MOLECULE
AV-unprocessed.smi:1203
    43    44     1
SMALL
NO_CHARGES


@<TRIPOS>ATOM
      1 ****        -1.8602   1.7731   1.9192 C.3            1 S1                 0.0000
      2 ****        -2.1049   0.2653   0.8950 S.o2           1 S1                 0.0000
      3 ****        -1.1583  -0.7645   1.3499 O.2            1 S1                 0.0000
      4 ****        -3.5418  -0.0398   0.8253 O.2            1 S1                 0.0000
      5 ****        -1.5964   0.7781  -0.6770 N.3            1 S1                 0.0000
      6 ****        -2.2755   1.9229  -1.2982 C.3            1 S1                 0.0000
      7 ****        -2.0542   1.7661  -2.7997 C.3            1 S1                 0.0000
      8 ****        -1.9981   0.2561  -2.9803 C.3            1 S1                 0.0000
      9 ****        -1.3252  -0.2529  -1.6934 C.3            1 S1                 0.0000
     10 ****         0.1724  -0.5385  -1.8642 C.2            1 S1                 0.0000
     11 ****         0.8815   0.2073  -2.5403 O.2            1 S1                 0.0000
     12 ****         0.6441  -1.6180  -1.2228 N.am           1 S1                 0.0000
     13 ****         2.0323  -2.0685  -1.2342 C.3            1 S1                 0.0000
     14 ****         2.9691  -1.1641  -0.4080 C.3            1 S1                 0.0000
     15 ****         2.4460  -0.8473   0.9830 C.ar           1 S1                 0.0000
     16 ****         2.3584  -1.8573   1.9664 C.ar           1 S1                 0.0000
     17 ****         1.8626  -1.5351   3.2468 C.ar           1 S1                 0.0000
     18 ****         1.4694  -0.2084   3.5166 C.ar           1 S1                 0.0000
     19 ****         1.5705   0.7320   2.5519 N.pl3          1 S1                 1.0000
     20 ****         2.0351   0.4628   1.3122 C.ar           1 S1                 0.0000
     21 ****        -2.0772   1.5414   2.9618 H              1 S1                 0.0000
     22 ****        -2.5349   2.5588   1.5795 H              1 S1                 0.0000
     23 ****        -0.8310   2.1165   1.8266 H              1 S1                 0.0000
     24 ****        -3.3414   1.8794  -1.0707 H              1 S1                 0.0000
     25 ****        -1.8815   2.8645  -0.9154 H              1 S1                 0.0000
     26 ****        -2.8381   2.2356  -3.3945 H              1 S1                 0.0000
     27 ****        -1.1006   2.2126  -3.0848 H              1 S1                 0.0000
     28 ****        -3.0105  -0.1451  -3.0469 H              1 S1                 0.0000
     29 ****        -1.4766  -0.0305  -3.8948 H              1 S1                 0.0000
     30 ****        -1.8183  -1.1817  -1.4001 H              1 S1                 0.0000
     31 ****        -0.0089  -2.1676  -0.6827 H              1 S1                 0.0000
     32 ****         2.0447  -3.0767  -0.8197 H              1 S1                 0.0000
     33 ****         2.3929  -2.1545  -2.2604 H              1 S1                 0.0000
     34 ****         3.9473  -1.6370  -0.3157 H              1 S1                 0.0000
     35 ****         3.1392  -0.2290  -0.9432 H              1 S1                 0.0000
     36 ****         2.6639  -2.8690   1.7419 H              1 S1                 0.0000
     37 ****         1.7847  -2.2948   4.0107 H              1 S1                 0.0000
     38 ****         1.0788   0.1261   4.4666 H              1 S1                 0.0000
     39 ****         2.0592   1.2967   0.6257 H              1 S1                 0.0000
     40 ****         1.2807   1.6859   2.7677 H              1 S1                 0.0000
     41 ****        -0.7095   1.1145  -0.3604 LP             1 S1                 0.0000
     42 ****         0.4824   1.0091  -2.9851 LP             1 S1                 0.0000
     43 ****         1.8565   0.0112  -2.6446 LP             1 S1                 0.0000
@<TRIPOS>BOND
    1    1    2 1     
    2    1   21 1     
    3    1   22 1     
    4    1   23 1     
    5    2    3 2     
    6    2    4 2     
    7    2    5 1     
    8    5    9 1     
    9    5    6 1     
   10    6    7 1     
   11    6   24 1     
   12    6   25 1     
   13    7    8 1     
   14    7   26 1     
   15    7   27 1     
   16    8    9 1     
   17    8   28 1     
   18    8   29 1     
   19    9   10 1     
   20    9   30 1     
   21   10   11 2     
   22   10   12 am    
   23   12   13 1     
   24   12   31 1     
   25   13   14 1     
   26   13   32 1     
   27   13   33 1     
   28   14   15 1     
   29   14   34 1     
   30   14   35 1     
   31   15   20 ar    
   32   15   16 ar    
   33   16   17 ar    
   34   16   36 1     
   35   17   18 ar    
   36   17   37 1     
   37   18   19 ar    
   38   18   38 1     
   39   19   20 ar    
   40   19   40 1     
   41   20   39 1     
   42    5   41 1     
   43   11   42 1     
   44   11   43 1     
@<TRIPOS>SUBSTRUCTURE
      1 S1             1
@<TRIPOS>SET
LONE_PAIRS      STATIC     ATOMS    <user>   **** ""
5 3 4 41 42 43
DONOR_HYDROGENS      STATIC     ATOMS    <user>   **** ""
2 31 40
ATOM$BLUE        STATIC     ATOMS    COLORGROUP SYSTEM
5 3 4 41 42 43
ATOM$RED        STATIC     ATOMS    COLORGROUP SYSTEM
2 31 40
