AV-unprocessed.smi:244|AV-procd|sdf|1875|dock8
  -GOLD-   2262020513D 1   1.00000     0.00000
 Structure written by MMmdl.
 56 60  0  0  0  0  0  0  0  0  1 V2000
  150.7586  143.8764  159.1920 C   0  0  0  0  0  0  0  0  0  0  0  0
  151.7726  143.4653  158.2273 N   0  0  0  0  0  0  0  0  0  0  0  0
  153.1299  143.5266  158.7773 C   0  0  0  0  0  0  0  0  0  0  0  0
  153.4118  142.3987  159.7914 C   0  0  0  0  0  0  0  0  0  0  0  0
  153.1387  141.0317  159.1555 C   0  0  1  0  0  0  0  0  0  0  0  0
  153.3287  139.9958  160.1133 O   0  0  0  0  0  0  0  0  0  0  0  0
  153.1400  138.7076  159.5352 C   0  0  0  0  0  0  0  0  0  0  0  0
  151.7053  138.5911  158.9936 C   0  0  0  0  0  0  0  0  0  0  0  0
  151.4280  139.6723  158.0521 N   0  0  0  0  0  0  0  0  0  0  0  0
  150.2190  139.5478  157.4608 C   0  0  0  0  0  0  0  0  0  0  0  0
  149.0833  139.6044  158.2061 N   0  0  0  0  0  0  0  0  0  0  0  0
  147.8907  139.5171  157.6087 C   0  0  0  0  0  0  0  0  0  0  0  0
  147.6153  139.3835  156.3090 N   0  0  0  0  0  0  0  0  0  0  0  0
  148.7561  139.3280  155.5627 C   0  0  0  0  0  0  0  0  0  0  0  0
  150.0877  139.3938  156.0569 C   0  0  0  0  0  0  0  0  0  0  0  0
  150.9934  139.3002  155.0089 N   0  0  0  0  0  0  0  0  0  0  0  0
  150.2378  139.1866  153.9506 C   0  0  0  0  0  0  0  0  0  0  0  0
  148.8816  139.2167  154.1890 N   0  0  0  0  0  0  0  0  0  0  0  0
  147.8200  139.1302  153.1986 C   0  0  0  0  0  0  0  0  0  0  0  0
  146.7994  137.9909  153.4531 C   0  0  0  0  0  0  0  0  0  0  0  0
  147.5693  136.8970  153.9179 O   0  0  0  0  0  0  0  0  0  0  0  0
  145.7551  138.3463  154.5339 C   0  0  0  0  0  0  0  0  0  0  0  0
  144.7002  137.2374  154.6999 C   0  0  0  0  0  0  0  0  0  0  0  0
  144.0754  136.9674  153.4502 O   0  0  0  0  0  0  0  0  0  0  0  0
  144.9852  136.4845  152.4685 C   0  0  0  0  0  0  0  0  0  0  0  0
  146.0557  137.5507  152.1731 C   0  0  0  0  0  0  0  0  0  0  0  0
  151.6906  140.9918  158.6301 C   0  0  2  0  0  0  0  0  0  0  0  0
  151.4824  142.1589  157.6290 C   0  0  0  0  0  0  0  0  0  0  0  0
  150.9628  144.8870  159.5468 H   0  0  0  0  0  0  0  0  0  0  0  0
  150.7165  143.2180  160.0588 H   0  0  0  0  0  0  0  0  0  0  0  0
  149.7731  143.8838  158.7255 H   0  0  0  0  0  0  0  0  0  0  0  0
  153.8355  143.4485  157.9494 H   0  0  0  0  0  0  0  0  0  0  0  0
  153.2990  144.5021  159.2343 H   0  0  0  0  0  0  0  0  0  0  0  0
  154.4498  142.4520  160.1206 H   0  0  0  0  0  0  0  0  0  0  0  0
  152.8019  142.5265  160.6860 H   0  0  0  0  0  0  0  0  0  0  0  0
  153.8389  140.8855  158.3301 H   0  0  0  0  0  0  0  0  0  0  0  0
  153.8697  138.5417  158.7412 H   0  0  0  0  0  0  0  0  0  0  0  0
  153.3183  137.9469  160.2950 H   0  0  0  0  0  0  0  0  0  0  0  0
  151.5702  137.6267  158.5018 H   0  0  0  0  0  0  0  0  0  0  0  0
  150.9984  138.6312  159.8237 H   0  0  0  0  0  0  0  0  0  0  0  0
  147.0346  139.5673  158.2651 H   0  0  0  0  0  0  0  0  0  0  0  0
  150.6520  139.0921  152.9572 H   0  0  0  0  0  0  0  0  0  0  0  0
  147.3085  140.0935  153.1704 H   0  0  0  0  0  0  0  0  0  0  0  0
  148.2831  139.0057  152.2185 H   0  0  0  0  0  0  0  0  0  0  0  0
  148.2076  136.6761  153.2568 H   0  0  0  0  0  0  0  0  0  0  0  0
  146.2437  138.5481  155.4879 H   0  0  0  0  0  0  0  0  0  0  0  0
  145.2324  139.2619  154.2575 H   0  0  0  0  0  0  0  0  0  0  0  0
  145.1441  136.3255  155.1018 H   0  0  0  0  0  0  0  0  0  0  0  0
  143.9369  137.5544  155.4106 H   0  0  0  0  0  0  0  0  0  0  0  0
  145.4382  135.5502  152.8033 H   0  0  0  0  0  0  0  0  0  0  0  0
  144.4288  136.2555  151.5595 H   0  0  0  0  0  0  0  0  0  0  0  0
  145.5522  138.4058  151.7230 H   0  0  0  0  0  0  0  0  0  0  0  0
  146.7606  137.1812  151.4273 H   0  0  0  0  0  0  0  0  0  0  0  0
  151.0106  141.1168  159.4736 H   0  0  0  0  0  0  0  0  0  0  0  0
  150.4621  142.1726  157.2443 H   0  0  0  0  0  0  0  0  0  0  0  0
  152.1356  142.0209  156.7662 H   0  0  0  0  0  0  0  0  0  0  0  0
  1  2  1  0  0  0  0
  1 29  1  0  0  0  0
  1 30  1  0  0  0  0
  1 31  1  0  0  0  0
  2 28  1  0  0  0  0
  2  3  1  0  0  0  0
  3  4  1  0  0  0  0
  3 32  1  0  0  0  0
  3 33  1  0  0  0  0
  4  5  1  0  0  0  0
  4 34  1  0  0  0  0
  4 35  1  0  0  0  0
  5 27  1  0  0  0  0
  5  6  1  0  0  0  0
  5 36  1  0  0  0  0
  6  7  1  0  0  0  0
  7  8  1  0  0  0  0
  7 37  1  0  0  0  0
  7 38  1  0  0  0  0
  8  9  1  0  0  0  0
  8 39  1  0  0  0  0
  8 40  1  0  0  0  0
  9 10  1  0  0  0  0
  9 27  1  0  0  0  0
 10 15  1  0  0  0  0
 10 11  2  0  0  0  0
 11 12  1  0  0  0  0
 12 13  2  0  0  0  0
 12 41  1  0  0  0  0
 13 14  1  0  0  0  0
 14 18  1  0  0  0  0
 14 15  2  0  0  0  0
 15 16  1  0  0  0  0
 16 17  2  0  0  0  0
 17 18  1  0  0  0  0
 17 42  1  0  0  0  0
 18 19  1  0  0  0  0
 19 20  1  0  0  0  0
 19 43  1  0  0  0  0
 19 44  1  0  0  0  0
 20 26  1  0  0  0  0
 20 21  1  0  0  0  0
 20 22  1  0  0  0  0
 21 45  1  0  0  0  0
 22 23  1  0  0  0  0
 22 46  1  0  0  0  0
 22 47  1  0  0  0  0
 23 24  1  0  0  0  0
 23 48  1  0  0  0  0
 23 49  1  0  0  0  0
 24 25  1  0  0  0  0
 25 26  1  0  0  0  0
 25 50  1  0  0  0  0
 25 51  1  0  0  0  0
 26 52  1  0  0  0  0
 26 53  1  0  0  0  0
 27 28  1  0  0  0  0
 27 54  1  0  0  0  0
 28 55  1  0  0  0  0
 28 56  1  0  0  0  0
M  END
> <s_m_source_file>
AV-unprocessed.smi

> <i_m_source_file_index>
244

> <i_lp_mmshare_version>
43012

> <i_f3d_flags>
0

> <s_epik_input>
W0NIMl0xW0NIMl1OKFtDSDNdKVtDSDJdW0NAQEhdKFtDQEhdMTIpTihbQ0gyXVtDSDJdTzIpYyhuW2NIXW4zKWMoYzM0KW5bY0hdbjRbQ0gyXUM1KFtPSF0pW0NIMl1bQ0gyXU9bQ0gyXVtDSDJdNQ==

> <s_epik_cmdline>
J2VwaWtfcHl0aG9uJywgJy1waCcsICc3LjAnLCAnLXRuJywgJzgnLCAnLW1hJywgJzIwMCcsICctbWV0YWxfYmluZGluZycsICctaW1hZScsICc8aW5maWxlLm1hZT4nLCAnLW9tYWUnLCAnPG91dGZpbGUubWFlPic=

> <r_lp_tautomer_probability>
1

> <r_epik_Ionization_Penalty>
2.27765

> <r_epik_Ionization_Penalty_Charging>
0

> <r_epik_Ionization_Penalty_Neutral>
2.27765

> <r_epik_State_Penalty>
2.4114

> <r_epik_Charging_Adjusted_Penalty>
2.4114

> <i_epik_Tot_Q>
0

> <i_epik_Tot_abs_Q>
0

> <r_epik_Metal_State_Penalty>
2.39769

> <b_epik_Metal_Only>
0

> <s_lp_Force_Field>
OPLS_2005

> <r_lp_Energy>
45.6912

> <b_lp_Chiralities_Consistent>
1

> <s_lp_Variant>
AV-unprocessed.smi:244-12

> <Gold.Version>
5.8.1

> <Gold.Id.Protein>
6NUR|6NUR_protein|mol2

> <Gold.PLP.Fitness>
38.6741

> <Gold.PLP.PLP>
-33.4308

> <Gold.PLP.part.hbond>
-1.8433

> <Gold.PLP.part.metal>
0.0000

> <Gold.PLP.part.buried>
-3.3421

> <Gold.PLP.part.nonpolar>
-28.5512

> <Gold.PLP.part.repulsive>
0.2361

> <Gold.PLP.ligand.clash>
0.0000

> <Gold.PLP.ligand.torsion>
0.3942

> <Gold.PLP.Chemscore.Hbond>
1.0000

> <Gold.PLP.Chemscore.CHOScore>
0.9752

> <Gold.PLP.Chemscore.Metal>
0.0000

> <Gold.Chemscore.Hbonds>
donor molecule, donor type, donor heavy atom, donor atom, acceptor molecule, acceptor atom, score
      L1  H    21    45       P1  7948  1.00
      L1  C    17    42       P1  7957  0.84

> <Gold.PLP.Chemscore.Internal.Correction>
0.1060

> <Gold.Rescore>
     Score         DG    S(hbond)    S(metal)    S(lipo)     H(rot)  DE(clash)    DE(int)     intcor
     12.46     -14.50       0.99        0.00      94.07       2.06       0.13       1.91       ----

> <Gold.Chemscore.Fitness>
12.4556

> <Gold.Chemscore.DG>
-14.4993

> <Gold.Chemscore.ZeroCoef>
-5.4800

> <Gold.Chemscore.Hbond>
0.9850

> <Gold.Chemscore.Metal>
0.0000

> <Gold.Chemscore.Lipo>
94.0666

> <Gold.Chemscore.Internal_Hbond>
0.0000

> <Gold.Chemscore.DEClash>
0.1309

> <Gold.Chemscore.DEInternal>
1.9128

> <Gold.Chemscore.Rot>
2.0611

> <Gold.Chemscore.Internal.Correction>
   9.000000E+99

> <Gold.Chemscore.Hbonds>
donor molecule, donor type, donor heavy atom, donor atom, acceptor molecule, acceptor atom, score
      L1  H    21    45       P1  7948  1.00

> <Gold.Chemscore.Hbond.Weighted>
-3.2901

> <Gold.Chemscore.Metal.Weighted>
-0.0000

> <Gold.Chemscore.Lipo.Weighted>
-11.0058

> <Gold.Chemscore.Internal_Hbond.Weighted>
0.0000

> <Gold.Chemscore.DEClash.Weighted>
0.1309

> <Gold.Chemscore.DEInternal.Weighted>
1.9128

> <Gold.Chemscore.Rot.Weighted>
5.2765

> <Gold.Chemscore.Internal.Correction.Weighted>
   9.000000E+99

> <Gold.Protein.RotatedTorsions>
[ 6907 6896 6895 6894 ] final -154.69 input  -60.11 | X-H torsion
[ 7974 7965 7964 7962 ] final  128.70 input  175.53 | X-H torsion
[ 8008 7997 7996 7995 ] final   75.66 input   59.86 | X-H torsion
[ 10167 10162 10161 10158 ] final -155.80 input  -65.29 | X-H torsion
[ 10718 10713 10712 10709 ] final   -0.96 input   66.30 | X-H torsion
[ 10763 10752 10751 10750 ] final   25.60 input  -60.55 | X-H torsion
[ 11005 11000 10999 10996 ] final -169.29 input  -57.11 | X-H torsion

> <Gold.Protein.ActiveResidues>
 VAL166  LYS551  ARG553  GLY616  TRP617  ASP618  TYR619  PRO620  LYS621  CYS622 
 ASP623  PHE694  ASN695  SER759  ASP760  ASP761  ALA762  ILE779  LEU786  VAL792 
 PHE793  MET794  SER795  GLU796  ALA797  LYS798  CYS799  TRP800  GLU811  SER814 

> <Gold.Protein.RotatedAtoms>
  151.2613  133.4301  159.2616 H   0  0  0  0  0  0  0  0  0  0  0  0  # atno 6907 bound_to 6896
  151.0528  134.9685  159.8230 H   0  0  0  0  0  0  0  0  0  0  0  0  # atno 6908 bound_to 6896
  152.5385  134.2566  159.8972 H   0  0  0  0  0  0  0  0  0  0  0  0  # atno 6909 bound_to 6896
  145.0367  139.3999  143.5122 H   0  0  0  0  0  0  0  0  0  0  0  0  # atno 7974 bound_to 7965
  155.8161  140.3471  155.5486 H   0  0  0  0  0  0  0  0  0  0  0  0  # atno 8008 bound_to 7997
  155.8390  140.0938  157.1766 H   0  0  0  0  0  0  0  0  0  0  0  0  # atno 8009 bound_to 7997
  154.4005  140.1398  156.3693 H   0  0  0  0  0  0  0  0  0  0  0  0  # atno 8010 bound_to 7997
  139.6902  143.9434  152.2381 H   0  0  0  0  0  0  0  0  0  0  0  0  # atno 10167 bound_to 10162
  156.8127  130.5430  149.5707 H   0  0  0  0  0  0  0  0  0  0  0  0  # atno 10718 bound_to 10713
  153.0680  135.6579  154.0311 H   0  0  0  0  0  0  0  0  0  0  0  0  # atno 10763 bound_to 10752
  153.9963  135.2941  155.3408 H   0  0  0  0  0  0  0  0  0  0  0  0  # atno 10764 bound_to 10752
  154.7045  135.5231  153.8644 H   0  0  0  0  0  0  0  0  0  0  0  0  # atno 10765 bound_to 10752
  140.5324  134.5603  157.5078 H   0  0  0  0  0  0  0  0  0  0  0  0  # atno 11005 bound_to 11000
  146.3505  139.9946  142.8682 LP  0  0  0  0  0  0  0  0  0  0  0  0  # atno 17320 bound_to 7965
  145.1701  140.9716  143.4327 LP  0  0  0  0  0  0  0  0  0  0  0  0  # atno 17321 bound_to 7965
  139.9248  144.6778  150.8424 LP  0  0  0  0  0  0  0  0  0  0  0  0  # atno 17342 bound_to 10162
  140.7680  143.3350  151.2329 LP  0  0  0  0  0  0  0  0  0  0  0  0  # atno 17343 bound_to 10162
  156.1035  130.5987  150.9933 LP  0  0  0  0  0  0  0  0  0  0  0  0  # atno 17370 bound_to 10713
  157.6498  131.0899  150.8076 LP  0  0  0  0  0  0  0  0  0  0  0  0  # atno 17371 bound_to 10713
  139.9547  134.7556  156.0369 LP  0  0  0  0  0  0  0  0  0  0  0  0  # atno 17394 bound_to 11000
  141.1274  133.6595  156.3372 LP  0  0  0  0  0  0  0  0  0  0  0  0  # atno 17395 bound_to 11000

$$$$
