#       Name:                AV-unprocessed.smi:383
#       Creating user name   scv26
#       Creation time:       Thu Mar 26 22:40:46 2020


#       File generated by GOLD software.
#

@<TRIPOS>MOLECULE
AV-unprocessed.smi:383
    46    47     1
SMALL
NO_CHARGES


@<TRIPOS>ATOM
      1 ****        -3.7334   0.0646   2.4342 C.3            1 S1                 0.0000
      2 ****        -3.3586   0.2868   0.9597 C.3            1 S1                 0.0000
      3 ****        -3.9028  -0.8421   0.0689 C.3            1 S1                 0.0000
      4 ****        -1.8387   0.4150   0.7969 C.2            1 S1                 0.0000
      5 ****        -1.0990  -0.5059   1.1452 O.2            1 S1                 0.0000
      6 ****        -1.3880   1.5612   0.2634 N.am           1 S1                 0.0000
      7 ****         0.0121   1.8657  -0.0046 C.3            1 S1                 0.0000
      8 ****         0.5064   1.2398  -1.3049 C.ar           1 S1                 0.0000
      9 ****         0.0484   1.7664  -2.5314 C.ar           1 S1                 0.0000
     10 ****         0.4722   1.1783  -3.7364 C.ar           1 S1                 0.0000
     11 ****         1.3420   0.0754  -3.6680 C.ar           1 S1                 0.0000
     12 ****         1.7870  -0.4427  -2.5049 N.ar           1 S1                 0.0000
     13 ****         1.3810   0.1201  -1.3402 C.ar           1 S1                 0.0000
     14 ****         1.8690  -0.4453  -0.1497 N.3            1 S1                 0.0000
     15 ****         3.0655   0.2098   0.3604 C.3            1 S1                 0.0000
     16 ****         3.3705  -0.2980   1.7803 C.3            1 S1                 0.0000
     17 ****         3.4830  -1.7187   1.7691 O.3            1 S1                 0.0000
     18 ****         2.2807  -2.3499   1.3354 C.3            1 S1                 0.0000
     19 ****         1.9517  -1.9004  -0.0981 C.3            1 S1                 0.0000
     20 ****        -3.3489   0.8659   3.0665 H              1 S1                 0.0000
     21 ****        -3.3369  -0.8785   2.8128 H              1 S1                 0.0000
     22 ****        -4.8161   0.0405   2.5608 H              1 S1                 0.0000
     23 ****        -3.8190   1.2215   0.6352 H              1 S1                 0.0000
     24 ****        -3.6312  -0.6878  -0.9764 H              1 S1                 0.0000
     25 ****        -4.9909  -0.8882   0.1198 H              1 S1                 0.0000
     26 ****        -3.5165  -1.8160   0.3731 H              1 S1                 0.0000
     27 ****        -2.0653   2.2663   0.0115 H              1 S1                 0.0000
     28 ****         0.1080   2.9483  -0.0896 H              1 S1                 0.0000
     29 ****         0.6234   1.5856   0.8531 H              1 S1                 0.0000
     30 ****        -0.6257   2.6103  -2.5489 H              1 S1                 0.0000
     31 ****         0.1366   1.5608  -4.6888 H              1 S1                 0.0000
     32 ****         1.6889  -0.4052  -4.5707 H              1 S1                 0.0000
     33 ****         3.9036  -0.0063  -0.3035 H              1 S1                 0.0000
     34 ****         2.9355   1.2925   0.3700 H              1 S1                 0.0000
     35 ****         4.3059   0.1302   2.1406 H              1 S1                 0.0000
     36 ****         2.5892   0.0090   2.4777 H              1 S1                 0.0000
     37 ****         2.4138  -3.4311   1.3694 H              1 S1                 0.0000
     38 ****         1.4629  -2.1066   2.0158 H              1 S1                 0.0000
     39 ****         1.0060  -2.3372  -0.4218 H              1 S1                 0.0000
     40 ****         2.7261  -2.2527  -0.7811 H              1 S1                 0.0000
     41 ****        -1.4888  -1.3401   1.5353 LP             1 S1                 0.0000
     42 ****        -0.1085  -0.4196   1.0379 LP             1 S1                 0.0000
     43 ****         2.4057  -1.2284  -2.5017 LP             1 S1                 0.0000
     44 ****         1.1299  -0.2426   0.4926 LP             1 S1                 0.0000
     45 ****         3.6959  -2.0324   2.6945 LP             1 S1                 0.0000
     46 ****         4.2245  -1.9783   1.1504 LP             1 S1                 0.0000
@<TRIPOS>BOND
    1    1    2 1     
    2    1   20 1     
    3    1   21 1     
    4    1   22 1     
    5    2    3 1     
    6    2    4 1     
    7    2   23 1     
    8    3   24 1     
    9    3   25 1     
   10    3   26 1     
   11    4    5 2     
   12    4    6 am    
   13    6    7 1     
   14    6   27 1     
   15    7    8 1     
   16    7   28 1     
   17    7   29 1     
   18    8   13 ar    
   19    8    9 ar    
   20    9   10 ar    
   21    9   30 1     
   22   10   11 ar    
   23   10   31 1     
   24   11   12 ar    
   25   11   32 1     
   26   12   13 ar    
   27   13   14 1     
   28   14   19 1     
   29   14   15 1     
   30   15   16 1     
   31   15   33 1     
   32   15   34 1     
   33   16   17 1     
   34   16   35 1     
   35   16   36 1     
   36   17   18 1     
   37   18   19 1     
   38   18   37 1     
   39   18   38 1     
   40   19   39 1     
   41   19   40 1     
   42    5   41 1     
   43    5   42 1     
   44   12   43 1     
   45   14   44 1     
   46   17   45 1     
   47   17   46 1     
@<TRIPOS>SUBSTRUCTURE
      1 S1             1
@<TRIPOS>SET
LONE_PAIRS      STATIC     ATOMS    <user>   **** ""
6 41 42 43 44 45 46
DONOR_HYDROGENS      STATIC     ATOMS    <user>   **** ""
1 27
ATOM$BLUE        STATIC     ATOMS    COLORGROUP SYSTEM
6 41 42 43 44 45 46
ATOM$RED        STATIC     ATOMS    COLORGROUP SYSTEM
1 27
