AV-unprocessed.smi:699|AV-procd|sdf|3402|dock5
  -GOLD-   22720 0383D 1   1.00000     0.00000
 Structure written by MMmdl.
 34 35  0  0  0  0  0  0  0  0  1 V2000
  151.7462  140.1743  159.2665 N   0  0  0  0  0  0  0  0  0  0  0  0
  152.4983  141.2750  159.3432 C   0  0  0  0  0  0  0  0  0  0  0  0
  153.7203  141.2227  159.4700 O   0  0  0  0  0  0  0  0  0  0  0  0
  151.7694  142.6250  159.2664 C   0  0  1  0  0  0  0  0  0  0  0  0
  152.1385  143.5765  160.4135 C   0  0  0  0  0  0  0  0  0  0  0  0
  151.8299  144.9649  159.8615 C   0  0  0  0  0  0  0  0  0  0  0  0
  152.2388  144.8916  158.3904 C   0  0  0  0  0  0  0  0  0  0  0  0
  152.0844  143.4149  157.9723 C   0  0  2  0  0  0  0  0  0  0  0  0
  151.0258  143.2316  156.9809 N   0  0  0  0  0  0  0  0  0  0  0  0
  150.6818  142.0605  156.4259 C   0  0  0  0  0  0  0  0  0  0  0  0
  151.2437  140.9974  156.6879 O   0  0  0  0  0  0  0  0  0  0  0  0
  149.6724  142.2180  155.5514 N   0  0  0  0  0  0  0  0  0  0  0  0
  149.0120  141.2412  154.7561 C   0  0  0  0  0  0  0  0  0  0  0  0
  147.8246  141.6293  154.1011 C   0  0  0  0  0  0  0  0  0  0  0  0
  147.1392  140.6814  153.3154 C   0  0  0  0  0  0  0  0  0  0  0  0
  147.5560  139.4075  153.1594 N   0  0  0  0  0  0  0  0  0  0  0  0
  148.6856  139.0332  153.7962 C   0  0  0  0  0  0  0  0  0  0  0  0
  149.4459  139.9016  154.6051 C   0  0  0  0  0  0  0  0  0  0  0  0
  152.1840  139.2659  159.3182 H   0  0  0  0  0  0  0  0  0  0  0  0
  150.7450  140.2513  159.1628 H   0  0  0  0  0  0  0  0  0  0  0  0
  150.6924  142.4531  159.3267 H   0  0  0  0  0  0  0  0  0  0  0  0
  151.5753  143.3662  161.3231 H   0  0  0  0  0  0  0  0  0  0  0  0
  153.1999  143.5092  160.6575 H   0  0  0  0  0  0  0  0  0  0  0  0
  150.7586  145.1579  159.9345 H   0  0  0  0  0  0  0  0  0  0  0  0
  152.3481  145.7574  160.4021 H   0  0  0  0  0  0  0  0  0  0  0  0
  151.6566  145.5803  157.7768 H   0  0  0  0  0  0  0  0  0  0  0  0
  153.2851  145.1840  158.2907 H   0  0  0  0  0  0  0  0  0  0  0  0
  153.0284  143.0786  157.5378 H   0  0  0  0  0  0  0  0  0  0  0  0
  150.5169  144.0576  156.7022 H   0  0  0  0  0  0  0  0  0  0  0  0
  149.3644  143.1678  155.4039 H   0  0  0  0  0  0  0  0  0  0  0  0
  147.4436  142.6361  154.1921 H   0  0  0  0  0  0  0  0  0  0  0  0
  146.2304  140.9544  152.8000 H   0  0  0  0  0  0  0  0  0  0  0  0
  148.9915  138.0062  153.6618 H   0  0  0  0  0  0  0  0  0  0  0  0
  150.3283  139.5191  155.0932 H   0  0  0  0  0  0  0  0  0  0  0  0
  1  2  1  0  0  0  0
  1 19  1  0  0  0  0
  1 20  1  0  0  0  0
  2  3  2  0  0  0  0
  2  4  1  0  0  0  0
  4  8  1  0  0  0  0
  4  5  1  0  0  0  0
  4 21  1  0  0  0  0
  5  6  1  0  0  0  0
  5 22  1  0  0  0  0
  5 23  1  0  0  0  0
  6  7  1  0  0  0  0
  6 24  1  0  0  0  0
  6 25  1  0  0  0  0
  7  8  1  0  0  0  0
  7 26  1  0  0  0  0
  7 27  1  0  0  0  0
  8  9  1  0  0  0  0
  8 28  1  0  0  0  0
  9 10  1  0  0  0  0
  9 29  1  0  0  0  0
 10 11  2  0  0  0  0
 10 12  1  0  0  0  0
 12 13  1  0  0  0  0
 12 30  1  0  0  0  0
 13 18  1  0  0  0  0
 13 14  2  0  0  0  0
 14 15  1  0  0  0  0
 14 31  1  0  0  0  0
 15 16  2  0  0  0  0
 15 32  1  0  0  0  0
 16 17  1  0  0  0  0
 17 18  2  0  0  0  0
 17 33  1  0  0  0  0
 18 34  1  0  0  0  0
M  END
> <s_m_source_file>
AV-unprocessed.smi

> <i_m_source_file_index>
699

> <i_lp_mmshare_version>
43012

> <i_f3d_flags>
0

> <s_epik_input>
W05IMl1DKD1PKVtDQEBIXTFbQ0gyXVtDSDJdW0NIMl1bQ0BIXTFbTkhdQyg9TylbTkhdYzJbY0hdW2NIXW5bY0hdW2NIXTI=

> <s_epik_cmdline>
J2VwaWtfcHl0aG9uJywgJy1waCcsICc3LjAnLCAnLXRuJywgJzgnLCAnLW1hJywgJzIwMCcsICctbWV0YWxfYmluZGluZycsICctaW1hZScsICc8aW5maWxlLm1hZT4nLCAnLW9tYWUnLCAnPG91dGZpbGUubWFlPic=

> <r_epik_Ionization_Penalty>
0.113907

> <r_epik_Ionization_Penalty_Charging>
0

> <r_epik_Ionization_Penalty_Neutral>
0.113907

> <r_epik_State_Penalty>
0.103543

> <r_epik_Charging_Adjusted_Penalty>
0.103543

> <i_epik_Tot_Q>
0

> <i_epik_Tot_abs_Q>
0

> <r_epik_Metal_State_Penalty>
0.0867106

> <b_epik_Metal_Only>
0

> <s_lp_Force_Field>
OPLS_2005

> <r_lp_Energy>
21.0397

> <b_lp_Chiralities_Consistent>
1

> <s_lp_Variant>
AV-unprocessed.smi:699-4

> <Gold.Version>
5.8.1

> <Gold.Id.Protein>
6NUR|6NUR_protein|mol2

> <Gold.PLP.Fitness>
50.1127

> <Gold.PLP.PLP>
-38.8998

> <Gold.PLP.part.hbond>
-2.0000

> <Gold.PLP.part.metal>
0.0000

> <Gold.PLP.part.buried>
-5.8568

> <Gold.PLP.part.nonpolar>
-33.4393

> <Gold.PLP.part.repulsive>
1.5205

> <Gold.PLP.ligand.clash>
0.0000

> <Gold.PLP.ligand.torsion>
0.1619

> <Gold.PLP.Chemscore.Hbond>
1.9120

> <Gold.PLP.Chemscore.CHOScore>
1.9326

> <Gold.PLP.Chemscore.Metal>
0.0000

> <Gold.Chemscore.Hbonds>
donor molecule, donor type, donor heavy atom, donor atom, acceptor molecule, acceptor atom, score
      L1  H     9    29       P1  8028  0.91
      L1  H    12    30       P1  8028  1.00
      L1  C    15    32       P1 10175  0.83
      L1  C    17    33       P1  7948  1.00

> <Gold.PLP.Chemscore.Internal.Correction>
0.0028

> <Gold.Rescore>
     Score         DG    S(hbond)    S(metal)    S(lipo)     H(rot)  DE(clash)    DE(int)     intcor
     16.60     -18.83       1.96        0.00      90.77       1.49       0.21       2.01       ----

> <Gold.Chemscore.Fitness>
16.6038

> <Gold.Chemscore.DG>
-18.8272

> <Gold.Chemscore.ZeroCoef>
-5.4800

> <Gold.Chemscore.Hbond>
1.9578

> <Gold.Chemscore.Metal>
0.0000

> <Gold.Chemscore.Lipo>
90.7731

> <Gold.Chemscore.Internal_Hbond>
0.0000

> <Gold.Chemscore.DEClash>
0.2117

> <Gold.Chemscore.DEInternal>
2.0118

> <Gold.Chemscore.Rot>
1.4892

> <Gold.Chemscore.Internal.Correction>
   9.000000E+99

> <Gold.Chemscore.Hbonds>
donor molecule, donor type, donor heavy atom, donor atom, acceptor molecule, acceptor atom, score
      L1  H     9    29       P1  8028  0.82
      L1  H    12    30       P1  8028  0.99

> <Gold.Chemscore.Hbond.Weighted>
-6.5391

> <Gold.Chemscore.Metal.Weighted>
-0.0000

> <Gold.Chemscore.Lipo.Weighted>
-10.6204

> <Gold.Chemscore.Internal_Hbond.Weighted>
0.0000

> <Gold.Chemscore.DEClash.Weighted>
0.2117

> <Gold.Chemscore.DEInternal.Weighted>
2.0118

> <Gold.Chemscore.Rot.Weighted>
3.8123

> <Gold.Chemscore.Internal.Correction.Weighted>
   9.000000E+99

> <Gold.Protein.RotatedTorsions>
[ 6907 6896 6895 6894 ] final   20.63 input  -60.11 | X-H torsion
[ 7974 7965 7964 7962 ] final  -31.04 input  175.53 | X-H torsion
[ 8008 7997 7996 7995 ] final   56.11 input   59.86 | X-H torsion
[ 10167 10162 10161 10158 ] final  -45.26 input  -65.29 | X-H torsion
[ 10718 10713 10712 10709 ] final   36.69 input   66.30 | X-H torsion
[ 10763 10752 10751 10750 ] final  -23.16 input  -60.55 | X-H torsion
[ 11005 11000 10999 10996 ] final   94.01 input  -57.11 | X-H torsion

> <Gold.Protein.ActiveResidues>
 VAL166  LYS551  ARG553  GLY616  TRP617  ASP618  TYR619  PRO620  LYS621  CYS622 
 ASP623  PHE694  ASN695  SER759  ASP760  ASP761  ALA762  ILE779  LEU786  VAL792 
 PHE793  MET794  SER795  GLU796  ALA797  LYS798  CYS799  TRP800  GLU811  SER814 

> <Gold.Protein.RotatedAtoms>
  151.8994  135.0384  160.0504 H   0  0  0  0  0  0  0  0  0  0  0  0  # atno 6907 bound_to 6896
  152.2371  133.5100  159.5257 H   0  0  0  0  0  0  0  0  0  0  0  0  # atno 6908 bound_to 6896
  150.7042  134.1056  159.4024 H   0  0  0  0  0  0  0  0  0  0  0  0  # atno 6909 bound_to 6896
  146.1097  140.5617  142.8783 H   0  0  0  0  0  0  0  0  0  0  0  0  # atno 7974 bound_to 7965
  155.5121  140.3477  155.4390 H   0  0  0  0  0  0  0  0  0  0  0  0  # atno 8008 bound_to 7997
  156.0843  140.1394  156.9701 H   0  0  0  0  0  0  0  0  0  0  0  0  # atno 8009 bound_to 7997
  154.4597  140.0939  156.6835 H   0  0  0  0  0  0  0  0  0  0  0  0  # atno 8010 bound_to 7997
  140.6865  143.2888  151.3614 H   0  0  0  0  0  0  0  0  0  0  0  0  # atno 10167 bound_to 10162
  157.3379  130.7532  149.6892 H   0  0  0  0  0  0  0  0  0  0  0  0  # atno 10718 bound_to 10713
  153.6634  135.6975  153.5170 H   0  0  0  0  0  0  0  0  0  0  0  0  # atno 10763 bound_to 10752
  153.2614  135.4243  155.0897 H   0  0  0  0  0  0  0  0  0  0  0  0  # atno 10764 bound_to 10752
  154.8446  135.3556  154.6178 H   0  0  0  0  0  0  0  0  0  0  0  0  # atno 10765 bound_to 10752
  139.8803  134.8822  156.3802 H   0  0  0  0  0  0  0  0  0  0  0  0  # atno 11005 bound_to 11000
  144.7501  140.5169  143.6808 LP  0  0  0  0  0  0  0  0  0  0  0  0  # atno 17320 bound_to 7965
  145.5688  139.1482  143.3300 LP  0  0  0  0  0  0  0  0  0  0  0  0  # atno 17321 bound_to 7965
  139.6228  144.0874  152.2406 LP  0  0  0  0  0  0  0  0  0  0  0  0  # atno 17342 bound_to 10162
  140.0323  144.6071  150.7477 LP  0  0  0  0  0  0  0  0  0  0  0  0  # atno 17343 bound_to 10162
  155.9704  130.4176  150.4287 LP  0  0  0  0  0  0  0  0  0  0  0  0  # atno 17370 bound_to 10713
  157.2330  131.0508  151.2481 LP  0  0  0  0  0  0  0  0  0  0  0  0  # atno 17371 bound_to 10713
  140.9404  133.7518  156.0139 LP  0  0  0  0  0  0  0  0  0  0  0  0  # atno 17394 bound_to 11000
  140.8226  134.3272  157.5376 LP  0  0  0  0  0  0  0  0  0  0  0  0  # atno 17395 bound_to 11000

$$$$
