#       Name:                AV-unprocessed.smi:155
#       Creating user name   scv26
#       Creation time:       Thu Mar 26 18:52:19 2020


#       File generated by GOLD software.
#

@<TRIPOS>MOLECULE
AV-unprocessed.smi:155
    71    74     1
SMALL
NO_CHARGES


@<TRIPOS>ATOM
      1 ****        -5.8447   1.0659   3.2323 C.3            1 S1                 0.0000
      2 ****        -5.2174   2.1317   2.4584 N.3            1 S1                 0.0000
      3 ****        -6.2449   3.1014   2.1025 C.3            1 S1                 0.0000
      4 ****        -4.5955   1.6232   1.2359 C.3            1 S1                 0.0000
      5 ****        -3.3085   0.7965   1.4817 C.3            1 S1                 0.0000
      6 ****        -2.0830   1.5967   1.7481 N.4            1 S1                 1.0000
      7 ****        -1.9909   2.1327   3.1347 C.3            1 S1                 0.0000
      8 ****        -0.7147   2.9568   3.4071 C.3            1 S1                 0.0000
      9 ****         0.5943   2.2972   2.9294 C.3            1 S1                 0.0000
     10 ****         0.5981   2.0101   1.4924 N.pl3          1 S1                 0.0000
     11 ****         1.3298   0.9638   1.0278 C.ar           1 S1                 0.0000
     12 ****         2.4890   0.6563   1.6672 N.ar           1 S1                 0.0000
     13 ****         3.2492  -0.3580   1.2450 C.ar           1 S1                 0.0000
     14 ****         3.0387  -1.1874   0.2221 N.ar           1 S1                 0.0000
     15 ****         1.8704  -0.8958  -0.4168 C.ar           1 S1                 0.0000
     16 ****         0.9615   0.1494  -0.0841 C.ar           1 S1                 0.0000
     17 ****        -0.1264   0.1134  -0.9506 N.2            1 S1                 0.0000
     18 ****         0.1356  -0.8770  -1.7591 C.2            1 S1                 0.0000
     19 ****         1.3168  -1.5361  -1.5101 N.pl3          1 S1                 0.0000
     20 ****         1.8596  -2.6655  -2.2454 C.3            1 S1                 0.0000
     21 ****         3.0082  -2.2518  -3.1940 C.3            1 S1                 0.0000
     22 ****         2.4955  -1.2698  -4.0755 O.3            1 S1                 0.0000
     23 ****         3.5587  -3.4027  -4.0674 C.3            1 S1                 0.0000
     24 ****         4.0947  -4.6206  -3.2911 C.3            1 S1                 0.0000
     25 ****         5.5856  -4.3791  -3.2287 C.3            1 S1                 0.0000
     26 ****         5.8303  -3.7317  -4.5804 C.3            1 S1                 0.0000
     27 ****         4.6995  -2.8917  -4.7655 O.3            1 S1                 0.0000
     28 ****        -0.1996   2.8256   0.5738 C.3            1 S1                 0.0000
     29 ****        -1.7231   2.5575   0.6693 C.3            1 S1                 0.0000
     30 ****        -5.1106   0.3487   3.5965 H              1 S1                 0.0000
     31 ****        -6.5869   0.5274   2.6411 H              1 S1                 0.0000
     32 ****        -6.3466   1.4786   4.1085 H              1 S1                 0.0000
     33 ****        -5.8129   3.9344   1.5469 H              1 S1                 0.0000
     34 ****        -6.7115   3.5124   2.9988 H              1 S1                 0.0000
     35 ****        -7.0253   2.6490   1.4884 H              1 S1                 0.0000
     36 ****        -5.3243   1.0042   0.7101 H              1 S1                 0.0000
     37 ****        -4.3753   2.4517   0.5623 H              1 S1                 0.0000
     38 ****        -3.4389   0.0502   2.2642 H              1 S1                 0.0000
     39 ****        -3.1087   0.2187   0.5785 H              1 S1                 0.0000
     40 ****        -2.8513   2.7628   3.3536 H              1 S1                 0.0000
     41 ****        -2.0334   1.2920   3.8282 H              1 S1                 0.0000
     42 ****        -0.8144   3.9465   2.9608 H              1 S1                 0.0000
     43 ****        -0.6427   3.1407   4.4795 H              1 S1                 0.0000
     44 ****         1.4406   2.9454   3.1592 H              1 S1                 0.0000
     45 ****         0.7431   1.3733   3.4904 H              1 S1                 0.0000
     46 ****         4.1561  -0.5285   1.8065 H              1 S1                 0.0000
     47 ****        -0.5268  -1.1544  -2.5663 H              1 S1                 0.0000
     48 ****         2.1944  -3.3953  -1.5102 H              1 S1                 0.0000
     49 ****         1.0524  -3.1369  -2.8080 H              1 S1                 0.0000
     50 ****         3.8191  -1.8107  -2.6126 H              1 S1                 0.0000
     51 ****         3.1908  -1.0039  -4.6584 H              1 S1                 0.0000
     52 ****         2.8015  -3.7305  -4.7816 H              1 S1                 0.0000
     53 ****         3.6583  -4.7725  -2.3064 H              1 S1                 0.0000
     54 ****         3.9045  -5.5270  -3.8678 H              1 S1                 0.0000
     55 ****         5.8231  -3.6813  -2.4244 H              1 S1                 0.0000
     56 ****         6.1637  -5.2912  -3.0790 H              1 S1                 0.0000
     57 ****         6.7617  -3.1660  -4.6170 H              1 S1                 0.0000
     58 ****         5.8520  -4.4840  -5.3703 H              1 S1                 0.0000
     59 ****        -0.0050   3.8727   0.8076 H              1 S1                 0.0000
     60 ****         0.1450   2.7059  -0.4537 H              1 S1                 0.0000
     61 ****        -2.0481   2.1503  -0.2888 H              1 S1                 0.0000
     62 ****        -2.2691   3.4926   0.8008 H              1 S1                 0.0000
     63 ****        -1.3423   0.9111   1.7057 H              1 S1                 0.0000
     64 ****        -4.4988   2.5493   3.0145 LP             1 S1                 0.0000
     65 ****         2.7754   1.1938   2.4603 LP             1 S1                 0.0000
     66 ****         3.6576  -1.9271  -0.0420 LP             1 S1                 0.0000
     67 ****        -0.9280   0.7113  -0.9533 LP             1 S1                 0.0000
     68 ****         2.1721  -0.4812  -3.5525 LP             1 S1                 0.0000
     69 ****         1.7380  -1.6522  -4.6046 LP             1 S1                 0.0000
     70 ****         4.9115  -1.9775  -4.4200 LP             1 S1                 0.0000
     71 ****         4.4884  -2.8384  -5.7415 LP             1 S1                 0.0000
@<TRIPOS>BOND
    1    1    2 1     
    2    1   30 1     
    3    1   31 1     
    4    1   32 1     
    5    2    3 1     
    6    2    4 1     
    7    3   33 1     
    8    3   34 1     
    9    3   35 1     
   10    4    5 1     
   11    4   36 1     
   12    4   37 1     
   13    5    6 1     
   14    5   38 1     
   15    5   39 1     
   16    6   29 1     
   17    6    7 1     
   18    6   63 1     
   19    7    8 1     
   20    7   40 1     
   21    7   41 1     
   22    8    9 1     
   23    8   42 1     
   24    8   43 1     
   25    9   10 1     
   26    9   44 1     
   27    9   45 1     
   28   10   11 1     
   29   10   28 1     
   30   11   16 ar    
   31   11   12 ar    
   32   12   13 ar    
   33   13   14 ar    
   34   13   46 1     
   35   14   15 ar    
   36   15   19 1     
   37   15   16 ar    
   38   16   17 1     
   39   17   18 2     
   40   18   19 1     
   41   18   47 1     
   42   19   20 1     
   43   20   21 1     
   44   20   48 1     
   45   20   49 1     
   46   21   22 1     
   47   21   23 1     
   48   21   50 1     
   49   22   51 1     
   50   23   27 1     
   51   23   24 1     
   52   23   52 1     
   53   24   25 1     
   54   24   53 1     
   55   24   54 1     
   56   25   26 1     
   57   25   55 1     
   58   25   56 1     
   59   26   27 1     
   60   26   57 1     
   61   26   58 1     
   62   28   29 1     
   63   28   59 1     
   64   28   60 1     
   65   29   61 1     
   66   29   62 1     
   67    2   64 1     
   68   12   65 1     
   69   14   66 1     
   70   17   67 1     
   71   22   68 1     
   72   22   69 1     
   73   27   70 1     
   74   27   71 1     
@<TRIPOS>SUBSTRUCTURE
      1 S1             1
@<TRIPOS>SET
LONE_PAIRS      STATIC     ATOMS    <user>   **** ""
8 64 65 66 67 68 69 70 71
DONOR_HYDROGENS      STATIC     ATOMS    <user>   **** ""
2 63 51
ATOM$BLUE        STATIC     ATOMS    COLORGROUP SYSTEM
8 64 65 66 67 68 69 70 71
ATOM$RED        STATIC     ATOMS    COLORGROUP SYSTEM
2 63 51
