AV-unprocessed.smi:331|AV-procd|sdf|2350|dock2
  -GOLD-   2262022263D 1   1.00000     0.00000
 Structure written by MMmdl.
 36 37  0  0  0  0  0  0  0  0  1 V2000
  153.0626  139.9578  157.9903 O   0  0  0  0  0  0  0  0  0  0  0  0
  152.0352  140.6227  157.8727 C   0  0  0  0  0  0  0  0  0  0  0  0
  150.9743  140.2253  157.1512 N   0  0  0  0  0  0  0  0  0  0  0  0
  150.9208  139.0208  156.3301 C   0  0  0  0  0  0  0  0  0  0  0  0
  150.7628  139.3466  154.8327 C   0  0  0  0  0  0  0  0  0  0  0  0
  149.3703  139.8349  154.4705 C   0  0  0  0  0  0  0  0  0  0  0  0
  149.0060  141.1862  154.6463 C   0  0  0  0  0  0  0  0  0  0  0  0
  147.6973  141.5848  154.3135 C   0  0  0  0  0  0  0  0  0  0  0  0
  146.8073  140.6131  153.8141 C   0  0  0  0  0  0  0  0  0  0  0  0
  147.1453  139.3172  153.6399 N   0  0  0  0  0  0  0  0  0  0  0  0
  148.4021  138.9430  153.9626 C   0  0  0  0  0  0  0  0  0  0  0  0
  151.8882  141.8179  158.4716 N   0  0  0  0  0  0  0  0  0  0  0  0
  152.8528  142.5227  159.3197 C   0  0  0  0  0  0  0  0  0  0  0  0
  153.1834  141.6922  160.5743 C   0  0  0  0  0  0  0  0  0  0  0  0
  153.0961  142.6586  161.7563 C   0  0  0  0  0  0  0  0  0  0  0  0
  152.0452  143.6781  161.3297 C   0  0  0  0  0  0  0  0  0  0  0  0
  152.2902  143.8646  159.8318 C   0  0  0  0  0  0  0  0  0  0  0  0
  150.1662  140.8299  157.1252 H   0  0  0  0  0  0  0  0  0  0  0  0
  151.8040  138.4023  156.4966 H   0  0  0  0  0  0  0  0  0  0  0  0
  150.0661  138.4336  156.6669 H   0  0  0  0  0  0  0  0  0  0  0  0
  151.4900  140.1061  154.5422 H   0  0  0  0  0  0  0  0  0  0  0  0
  150.9957  138.4633  154.2371 H   0  0  0  0  0  0  0  0  0  0  0  0
  149.7126  141.9035  155.0377 H   0  0  0  0  0  0  0  0  0  0  0  0
  147.3828  142.6103  154.4385 H   0  0  0  0  0  0  0  0  0  0  0  0
  145.7959  140.8839  153.5488 H   0  0  0  0  0  0  0  0  0  0  0  0
  148.6402  137.8996  153.8169 H   0  0  0  0  0  0  0  0  0  0  0  0
  150.9824  142.2554  158.3830 H   0  0  0  0  0  0  0  0  0  0  0  0
  153.7757  142.7014  158.7643 H   0  0  0  0  0  0  0  0  0  0  0  0
  152.4487  140.8970  160.7143 H   0  0  0  0  0  0  0  0  0  0  0  0
  154.1627  141.2168  160.5072 H   0  0  0  0  0  0  0  0  0  0  0  0
  152.8417  142.1572  162.6905 H   0  0  0  0  0  0  0  0  0  0  0  0
  154.0561  143.1575  161.8957 H   0  0  0  0  0  0  0  0  0  0  0  0
  151.0478  143.2665  161.4910 H   0  0  0  0  0  0  0  0  0  0  0  0
  152.1147  144.6131  161.8867 H   0  0  0  0  0  0  0  0  0  0  0  0
  153.0378  144.6449  159.6842 H   0  0  0  0  0  0  0  0  0  0  0  0
  151.3870  144.1853  159.3107 H   0  0  0  0  0  0  0  0  0  0  0  0
  1  2  2  0  0  0  0
  2  3  1  0  0  0  0
  2 12  1  0  0  0  0
  3  4  1  0  0  0  0
  3 18  1  0  0  0  0
  4  5  1  0  0  0  0
  4 19  1  0  0  0  0
  4 20  1  0  0  0  0
  5  6  1  0  0  0  0
  5 21  1  0  0  0  0
  5 22  1  0  0  0  0
  6 11  1  0  0  0  0
  6  7  2  0  0  0  0
  7  8  1  0  0  0  0
  7 23  1  0  0  0  0
  8  9  2  0  0  0  0
  8 24  1  0  0  0  0
  9 10  1  0  0  0  0
  9 25  1  0  0  0  0
 10 11  2  0  0  0  0
 11 26  1  0  0  0  0
 12 13  1  0  0  0  0
 12 27  1  0  0  0  0
 13 17  1  0  0  0  0
 13 14  1  0  0  0  0
 13 28  1  0  0  0  0
 14 15  1  0  0  0  0
 14 29  1  0  0  0  0
 14 30  1  0  0  0  0
 15 16  1  0  0  0  0
 15 31  1  0  0  0  0
 15 32  1  0  0  0  0
 16 17  1  0  0  0  0
 16 33  1  0  0  0  0
 16 34  1  0  0  0  0
 17 35  1  0  0  0  0
 17 36  1  0  0  0  0
M  END
> <s_m_source_file>
AV-unprocessed.smi

> <i_m_source_file_index>
331

> <i_lp_mmshare_version>
43012

> <i_f3d_flags>
0

> <s_epik_input>
W0NIMl0xW0NIMl1bQ0gyXVtDSDJdW0NIXTFbTkhdQyg9TylbTkhdW0NIMl1bQ0gyXWMyW2NIXVtjSF1bY0hdbltjSF0y

> <s_epik_cmdline>
J2VwaWtfcHl0aG9uJywgJy1waCcsICc3LjAnLCAnLXRuJywgJzgnLCAnLW1hJywgJzIwMCcsICctbWV0YWxfYmluZGluZycsICctaW1hZScsICc8aW5maWxlLm1hZT4nLCAnLW9tYWUnLCAnPG91dGZpbGUubWFlPic=

> <r_epik_Ionization_Penalty>
0.0144384

> <r_epik_Ionization_Penalty_Charging>
0

> <r_epik_Ionization_Penalty_Neutral>
0.0144384

> <r_epik_State_Penalty>
0.0112394

> <r_epik_Charging_Adjusted_Penalty>
0.0112394

> <i_epik_Tot_Q>
0

> <i_epik_Tot_abs_Q>
0

> <r_epik_Metal_State_Penalty>
0.0109726

> <b_epik_Metal_Only>
0

> <s_lp_Force_Field>
OPLS_2005

> <r_lp_Energy>
25.692

> <b_lp_Chiralities_Consistent>
1

> <s_lp_Variant>
AV-unprocessed.smi:331-1

> <Gold.Version>
5.8.1

> <Gold.Id.Protein>
6NUR|6NUR_protein|mol2

> <Gold.PLP.Fitness>
48.0762

> <Gold.PLP.PLP>
-39.8397

> <Gold.PLP.part.hbond>
-1.0000

> <Gold.PLP.part.metal>
0.0000

> <Gold.PLP.part.buried>
-2.1994

> <Gold.PLP.part.nonpolar>
-36.7441

> <Gold.PLP.part.repulsive>
0.3390

> <Gold.PLP.ligand.clash>
0.0000

> <Gold.PLP.ligand.torsion>
0.3878

> <Gold.PLP.Chemscore.Hbond>
1.0000

> <Gold.PLP.Chemscore.CHOScore>
1.9986

> <Gold.PLP.Chemscore.Metal>
0.0000

> <Gold.Chemscore.Hbonds>
donor molecule, donor type, donor heavy atom, donor atom, acceptor molecule, acceptor atom, score
      P1  H  7997  8009       L1     1  1.00
      L1  C     9    25       P1 10175  1.00
      L1  C    11    26       P1  7948  0.89

> <Gold.PLP.Chemscore.Internal.Correction>
0.0161

> <Gold.Rescore>
     Score         DG    S(hbond)    S(metal)    S(lipo)     H(rot)  DE(clash)    DE(int)     intcor
     17.17     -17.54       0.98        0.00     108.14       1.51       0.05       0.32       ----

> <Gold.Chemscore.Fitness>
17.1694

> <Gold.Chemscore.DG>
-17.5363

> <Gold.Chemscore.ZeroCoef>
-5.4800

> <Gold.Chemscore.Hbond>
0.9757

> <Gold.Chemscore.Metal>
0.0000

> <Gold.Chemscore.Lipo>
108.1427

> <Gold.Chemscore.Internal_Hbond>
0.0000

> <Gold.Chemscore.DEClash>
0.0487

> <Gold.Chemscore.DEInternal>
0.3181

> <Gold.Chemscore.Rot>
1.5060

> <Gold.Chemscore.Internal.Correction>
   9.000000E+99

> <Gold.Chemscore.Hbonds>
donor molecule, donor type, donor heavy atom, donor atom, acceptor molecule, acceptor atom, score
      P1  H  7997  8009       L1     1  0.98

> <Gold.Chemscore.Hbond.Weighted>
-3.2588

> <Gold.Chemscore.Metal.Weighted>
-0.0000

> <Gold.Chemscore.Lipo.Weighted>
-12.6527

> <Gold.Chemscore.Internal_Hbond.Weighted>
0.0000

> <Gold.Chemscore.DEClash.Weighted>
0.0487

> <Gold.Chemscore.DEInternal.Weighted>
0.3181

> <Gold.Chemscore.Rot.Weighted>
3.8553

> <Gold.Chemscore.Internal.Correction.Weighted>
   9.000000E+99

> <Gold.Protein.RotatedTorsions>
[ 6907 6896 6895 6894 ] final  -21.29 input  -60.11 | X-H torsion
[ 7974 7965 7964 7962 ] final  -74.31 input  175.53 | X-H torsion
[ 8008 7997 7996 7995 ] final  166.48 input   59.86 | X-H torsion
[ 10167 10162 10161 10158 ] final    6.01 input  -65.29 | X-H torsion
[ 10718 10713 10712 10709 ] final  -22.81 input   66.30 | X-H torsion
[ 10763 10752 10751 10750 ] final   -4.50 input  -60.55 | X-H torsion
[ 11005 11000 10999 10996 ] final   71.97 input  -57.11 | X-H torsion

> <Gold.Protein.ActiveResidues>
 VAL166  LYS551  ARG553  GLY616  TRP617  ASP618  TYR619  PRO620  LYS621  CYS622 
 ASP623  PHE694  ASN695  SER759  ASP760  ASP761  ALA762  ILE779  LEU786  VAL792 
 PHE793  MET794  SER795  GLU796  ALA797  LYS798  CYS799  TRP800  GLU811  SER814 

> <Gold.Protein.RotatedAtoms>
  151.2356  135.0570  159.9004 H   0  0  0  0  0  0  0  0  0  0  0  0  # atno 6907 bound_to 6896
  152.5399  134.0490  159.8111 H   0  0  0  0  0  0  0  0  0  0  0  0  # atno 6908 bound_to 6896
  151.0676  133.5444  159.2661 H   0  0  0  0  0  0  0  0  0  0  0  0  # atno 6909 bound_to 6896
  145.6408  140.9311  143.1037 H   0  0  0  0  0  0  0  0  0  0  0  0  # atno 7974 bound_to 7965
  156.1715  140.1642  156.8439 H   0  0  0  0  0  0  0  0  0  0  0  0  # atno 8008 bound_to 7997
  154.5261  140.0767  156.8296 H   0  0  0  0  0  0  0  0  0  0  0  0  # atno 8009 bound_to 7997
  155.3503  140.3389  155.4241 H   0  0  0  0  0  0  0  0  0  0  0  0  # atno 8010 bound_to 7997
  140.6451  143.7681  150.7486 H   0  0  0  0  0  0  0  0  0  0  0  0  # atno 10167 bound_to 10162
  156.4995  130.4585  149.6709 H   0  0  0  0  0  0  0  0  0  0  0  0  # atno 10718 bound_to 10713
  153.3857  135.7000  153.6532 H   0  0  0  0  0  0  0  0  0  0  0  0  # atno 10763 bound_to 10752
  153.5125  135.3629  155.2594 H   0  0  0  0  0  0  0  0  0  0  0  0  # atno 10764 bound_to 10752
  154.8697  135.4138  154.3164 H   0  0  0  0  0  0  0  0  0  0  0  0  # atno 10765 bound_to 10752
  139.9515  134.7218  156.0851 H   0  0  0  0  0  0  0  0  0  0  0  0  # atno 11005 bound_to 11000
  144.7158  139.8202  143.7399 LP  0  0  0  0  0  0  0  0  0  0  0  0  # atno 17320 bound_to 7965
  146.1282  139.4313  143.0185 LP  0  0  0  0  0  0  0  0  0  0  0  0  # atno 17321 bound_to 7965
  140.1321  143.4517  152.2248 LP  0  0  0  0  0  0  0  0  0  0  0  0  # atno 17342 bound_to 10162
  139.5661  144.7436  151.4018 LP  0  0  0  0  0  0  0  0  0  0  0  0  # atno 17343 bound_to 10162
  156.3347  130.7350  151.2285 LP  0  0  0  0  0  0  0  0  0  0  0  0  # atno 17370 bound_to 10713
  157.7464  131.0420  150.4674 LP  0  0  0  0  0  0  0  0  0  0  0  0  # atno 17371 bound_to 10713
  141.1179  133.6622  156.3140 LP  0  0  0  0  0  0  0  0  0  0  0  0  # atno 17394 bound_to 11000
  140.5707  134.5843  157.5457 LP  0  0  0  0  0  0  0  0  0  0  0  0  # atno 17395 bound_to 11000

$$$$
