AV-unprocessed.smi:2228|AV-procd|sdf|9026|dock10
  -GOLD-   2272012233D 1   1.00000     0.00000
 Structure written by MMmdl.
 40 41  0  0  0  0  0  0  0  0  1 V2000
  145.9121  142.4381  154.5222 C   0  0  0  0  0  0  0  0  0  0  0  0
  145.8862  141.0353  154.7363 O   0  0  0  0  0  0  0  0  0  0  0  0
  147.0448  140.5374  155.3915 C   0  0  1  0  0  0  0  0  0  0  0  0
  147.0066  139.0069  155.4088 C   0  0  0  0  0  0  0  0  0  0  0  0
  148.4733  138.5940  155.4623 C   0  0  0  0  0  0  0  0  0  0  0  0
  149.1733  139.6056  154.5546 C   0  0  0  0  0  0  0  0  0  0  0  0
  148.3581  140.9086  154.6654 C   0  0  2  0  0  0  0  0  0  0  0  0
  149.0929  141.9184  155.4233 N   0  0  0  0  0  0  0  0  0  0  0  0
  149.8485  141.6780  156.5040 C   0  0  0  0  0  0  0  0  0  0  0  0
  149.9870  140.5604  157.0022 O   0  0  0  0  0  0  0  0  0  0  0  0
  150.4237  142.8074  156.9530 N   0  0  0  0  0  0  0  0  0  0  0  0
  151.3156  142.9634  158.0469 C   0  0  0  0  0  0  0  0  0  0  0  0
  151.4247  144.2803  158.5471 C   0  0  0  0  0  0  0  0  0  0  0  0
  152.2869  144.5427  159.6306 C   0  0  0  0  0  0  0  0  0  0  0  0
  152.4191  145.9472  160.1813 C   0  0  0  0  0  0  0  0  0  0  0  0
  153.0172  143.4756  160.1873 C   0  0  0  0  0  0  0  0  0  0  0  0
  152.8494  142.1927  159.6302 C   0  0  0  0  0  0  0  0  0  0  0  0
  153.6002  140.9991  160.1819 C   0  0  0  0  0  0  0  0  0  0  0  0
  152.0238  141.9431  158.5916 N   0  0  0  0  0  0  0  0  0  0  0  0
  144.9811  142.7509  154.0497 H   0  0  0  0  0  0  0  0  0  0  0  0
  146.7318  142.7316  153.8655 H   0  0  0  0  0  0  0  0  0  0  0  0
  146.0090  142.9799  155.4637 H   0  0  0  0  0  0  0  0  0  0  0  0
  147.0653  140.8809  156.4282 H   0  0  0  0  0  0  0  0  0  0  0  0
  146.4243  138.6102  156.2410 H   0  0  0  0  0  0  0  0  0  0  0  0
  146.5621  138.6341  154.4846 H   0  0  0  0  0  0  0  0  0  0  0  0
  148.8462  138.6917  156.4827 H   0  0  0  0  0  0  0  0  0  0  0  0
  148.6324  137.5633  155.1446 H   0  0  0  0  0  0  0  0  0  0  0  0
  150.2263  139.7278  154.8127 H   0  0  0  0  0  0  0  0  0  0  0  0
  149.1371  139.2483  153.5246 H   0  0  0  0  0  0  0  0  0  0  0  0
  148.1343  141.2697  153.6597 H   0  0  0  0  0  0  0  0  0  0  0  0
  149.0326  142.8682  155.0869 H   0  0  0  0  0  0  0  0  0  0  0  0
  150.2127  143.6515  156.4420 H   0  0  0  0  0  0  0  0  0  0  0  0
  150.8546  145.0847  158.1046 H   0  0  0  0  0  0  0  0  0  0  0  0
  153.1721  145.9956  160.9684 H   0  0  0  0  0  0  0  0  0  0  0  0
  151.4684  146.2801  160.5980 H   0  0  0  0  0  0  0  0  0  0  0  0
  152.7089  146.6387  159.3899 H   0  0  0  0  0  0  0  0  0  0  0  0
  153.6874  143.6356  161.0194 H   0  0  0  0  0  0  0  0  0  0  0  0
  154.3286  141.3037  160.9337 H   0  0  0  0  0  0  0  0  0  0  0  0
  154.1332  140.4811  159.3840 H   0  0  0  0  0  0  0  0  0  0  0  0
  152.9055  140.2971  160.6440 H   0  0  0  0  0  0  0  0  0  0  0  0
  1  2  1  0  0  0  0
  1 20  1  0  0  0  0
  1 21  1  0  0  0  0
  1 22  1  0  0  0  0
  2  3  1  0  0  0  0
  3  7  1  0  0  0  0
  3  4  1  0  0  0  0
  3 23  1  0  0  0  0
  4  5  1  0  0  0  0
  4 24  1  0  0  0  0
  4 25  1  0  0  0  0
  5  6  1  0  0  0  0
  5 26  1  0  0  0  0
  5 27  1  0  0  0  0
  6  7  1  0  0  0  0
  6 28  1  0  0  0  0
  6 29  1  0  0  0  0
  7  8  1  0  0  0  0
  7 30  1  0  0  0  0
  8  9  1  0  0  0  0
  8 31  1  0  0  0  0
  9 10  2  0  0  0  0
  9 11  1  0  0  0  0
 11 12  1  0  0  0  0
 11 32  1  0  0  0  0
 12 19  1  0  0  0  0
 12 13  2  0  0  0  0
 13 14  1  0  0  0  0
 13 33  1  0  0  0  0
 14 15  1  0  0  0  0
 14 16  2  0  0  0  0
 15 34  1  0  0  0  0
 15 35  1  0  0  0  0
 15 36  1  0  0  0  0
 16 17  1  0  0  0  0
 16 37  1  0  0  0  0
 17 18  1  0  0  0  0
 17 19  2  0  0  0  0
 18 38  1  0  0  0  0
 18 39  1  0  0  0  0
 18 40  1  0  0  0  0
M  END
> <s_m_source_file>
AV-unprocessed.smi

> <i_m_source_file_index>
2228

> <i_lp_mmshare_version>
43012

> <i_f3d_flags>
0

> <s_epik_input>
W0NIM11PW0NAQEhdMVtDSDJdW0NIMl1bQ0gyXVtDQEhdMVtOSF1DKD1PKVtOSF1jMltjSF1jKFtDSDNdKVtjSF1jKG4yKVtDSDNd

> <s_epik_cmdline>
J2VwaWtfcHl0aG9uJywgJy1waCcsICc3LjAnLCAnLXRuJywgJzgnLCAnLW1hJywgJzIwMCcsICctbWV0YWxfYmluZGluZycsICctaW1hZScsICc8aW5maWxlLm1hZT4nLCAnLW9tYWUnLCAnPG91dGZpbGUubWFlPic=

> <r_lp_tautomer_probability>
1

> <r_epik_Ionization_Penalty>
0.000275391

> <r_epik_Ionization_Penalty_Charging>
0

> <r_epik_Ionization_Penalty_Neutral>
0.000275391

> <r_epik_State_Penalty>
-0

> <r_epik_Charging_Adjusted_Penalty>
0

> <i_epik_Tot_Q>
0

> <i_epik_Tot_abs_Q>
0

> <r_epik_Metal_State_Penalty>
-0

> <b_epik_Metal_Only>
0

> <s_lp_Force_Field>
OPLS_2005

> <r_lp_Energy>
19.8708

> <b_lp_Chiralities_Consistent>
1

> <s_lp_Variant>
AV-unprocessed.smi:2228-4

> <Gold.Version>
5.8.1

> <Gold.Id.Protein>
6NUR|6NUR_protein|mol2

> <Gold.PLP.Fitness>
43.2873

> <Gold.PLP.PLP>
-38.3230

> <Gold.PLP.part.hbond>
-2.0000

> <Gold.PLP.part.metal>
0.0000

> <Gold.PLP.part.buried>
-4.3714

> <Gold.PLP.part.nonpolar>
-33.7623

> <Gold.PLP.part.repulsive>
0.3857

> <Gold.PLP.ligand.clash>
0.0000

> <Gold.PLP.ligand.torsion>
0.3883

> <Gold.PLP.Chemscore.Hbond>
1.9120

> <Gold.PLP.Chemscore.CHOScore>
0.0000

> <Gold.PLP.Chemscore.Metal>
0.0000

> <Gold.Chemscore.Hbonds>
donor molecule, donor type, donor heavy atom, donor atom, acceptor molecule, acceptor atom, score
      L1  H     8    31       P1  8028  0.88
      L1  H    11    32       P1  8028  0.96

> <Gold.PLP.Chemscore.Internal.Correction>
0.0050

> <Gold.Rescore>
     Score         DG    S(hbond)    S(metal)    S(lipo)     H(rot)  DE(clash)    DE(int)     intcor
     15.52     -20.06       1.86        0.00      97.87       1.21       0.28       4.26       ----

> <Gold.Chemscore.Fitness>
15.5170

> <Gold.Chemscore.DG>
-20.0562

> <Gold.Chemscore.ZeroCoef>
-5.4800

> <Gold.Chemscore.Hbond>
1.8648

> <Gold.Chemscore.Metal>
0.0000

> <Gold.Chemscore.Lipo>
97.8670

> <Gold.Chemscore.Internal_Hbond>
0.0000

> <Gold.Chemscore.DEClash>
0.2778

> <Gold.Chemscore.DEInternal>
4.2614

> <Gold.Chemscore.Rot>
1.2119

> <Gold.Chemscore.Internal.Correction>
   9.000000E+99

> <Gold.Chemscore.Hbonds>
donor molecule, donor type, donor heavy atom, donor atom, acceptor molecule, acceptor atom, score
      L1  H     8    31       P1  8028  0.86
      L1  H    11    32       P1  8028  0.92

> <Gold.Chemscore.Hbond.Weighted>
-6.2283

> <Gold.Chemscore.Metal.Weighted>
-0.0000

> <Gold.Chemscore.Lipo.Weighted>
-11.4504

> <Gold.Chemscore.Internal_Hbond.Weighted>
0.0000

> <Gold.Chemscore.DEClash.Weighted>
0.2778

> <Gold.Chemscore.DEInternal.Weighted>
4.2614

> <Gold.Chemscore.Rot.Weighted>
3.1026

> <Gold.Chemscore.Internal.Correction.Weighted>
   9.000000E+99

> <Gold.Protein.RotatedTorsions>
[ 6907 6896 6895 6894 ] final   92.13 input  -60.11 | X-H torsion
[ 7974 7965 7964 7962 ] final  -56.52 input  175.53 | X-H torsion
[ 8008 7997 7996 7995 ] final -107.59 input   59.86 | X-H torsion
[ 10167 10162 10161 10158 ] final -128.21 input  -65.29 | X-H torsion
[ 10718 10713 10712 10709 ] final   73.04 input   66.30 | X-H torsion
[ 10763 10752 10751 10750 ] final  111.30 input  -60.55 | X-H torsion
[ 11005 11000 10999 10996 ] final   81.24 input  -57.11 | X-H torsion

> <Gold.Protein.ActiveResidues>
 VAL166  LYS551  ARG553  GLY616  TRP617  ASP618  TYR619  PRO620  LYS621  CYS622 
 ASP623  PHE694  ASN695  SER759  ASP760  ASP761  ALA762  ILE779  LEU786  VAL792 
 PHE793  MET794  SER795  GLU796  ALA797  LYS798  CYS799  TRP800  GLU811  SER814 

> <Gold.Protein.RotatedAtoms>
  152.5452  134.1549  159.8533 H   0  0  0  0  0  0  0  0  0  0  0  0  # atno 6907 bound_to 6896
  151.1573  133.4861  159.2602 H   0  0  0  0  0  0  0  0  0  0  0  0  # atno 6908 bound_to 6896
  151.1410  135.0190  159.8680 H   0  0  0  0  0  0  0  0  0  0  0  0  # atno 6909 bound_to 6896
  145.8618  140.8280  142.9933 H   0  0  0  0  0  0  0  0  0  0  0  0  # atno 7974 bound_to 7965
  154.9316  140.0405  157.2051 H   0  0  0  0  0  0  0  0  0  0  0  0  # atno 8008 bound_to 7997
  154.8155  140.2875  155.5801 H   0  0  0  0  0  0  0  0  0  0  0  0  # atno 8009 bound_to 7997
  156.2975  140.2529  156.3052 H   0  0  0  0  0  0  0  0  0  0  0  0  # atno 8010 bound_to 7997
  139.9527  143.6037  152.2470 H   0  0  0  0  0  0  0  0  0  0  0  0  # atno 10167 bound_to 10162
  157.6529  130.9608  150.1013 H   0  0  0  0  0  0  0  0  0  0  0  0  # atno 10718 bound_to 10713
  153.4613  135.3721  155.2340 H   0  0  0  0  0  0  0  0  0  0  0  0  # atno 10763 bound_to 10752
  154.8757  135.3909  154.3921 H   0  0  0  0  0  0  0  0  0  0  0  0  # atno 10764 bound_to 10752
  153.4495  135.7085  153.6182 H   0  0  0  0  0  0  0  0  0  0  0  0  # atno 10765 bound_to 10752
  139.9105  134.7981  156.2015 H   0  0  0  0  0  0  0  0  0  0  0  0  # atno 11005 bound_to 11000
  144.6726  140.1106  143.7455 LP  0  0  0  0  0  0  0  0  0  0  0  0  # atno 17320 bound_to 7965
  145.9240  139.2563  143.1365 LP  0  0  0  0  0  0  0  0  0  0  0  0  # atno 17321 bound_to 7965
  139.6615  144.7662  151.1953 LP  0  0  0  0  0  0  0  0  0  0  0  0  # atno 17342 bound_to 10162
  140.7578  143.6002  150.8707 LP  0  0  0  0  0  0  0  0  0  0  0  0  # atno 17343 bound_to 10162
  156.1935  130.3656  149.8880 LP  0  0  0  0  0  0  0  0  0  0  0  0  # atno 17370 bound_to 10713
  156.6802  130.8855  151.3575 LP  0  0  0  0  0  0  0  0  0  0  0  0  # atno 17371 bound_to 10713
  141.0522  133.6883  156.1793 LP  0  0  0  0  0  0  0  0  0  0  0  0  # atno 17394 bound_to 11000
  140.6793  134.4784  157.5589 LP  0  0  0  0  0  0  0  0  0  0  0  0  # atno 17395 bound_to 11000

$$$$
