AV-unprocessed.smi:194|AV-procd|sdf|1522|dock9
  -GOLD-   2262019363D 1   1.00000     0.00000
 Structure written by MMmdl.
 53 55  0  0  0  0  0  0  0  0  1 V2000
  149.2246  141.5339  156.4181 C   0  0  0  0  0  0  0  0  0  0  0  0
  149.1498  140.2511  155.5741 C   0  0  2  0  0  0  0  0  0  0  0  0
  150.5409  139.8509  155.0368 C   0  0  0  0  0  0  0  0  0  0  0  0
  150.5835  138.0316  154.6545 S   0  0  2  0  0  0  0  0  0  0  0  0
  150.1729  137.3851  156.3440 C   0  0  0  0  0  0  0  0  0  0  0  0
  152.0449  137.6712  154.3811 O   0  0  0  0  0  0  0  0  0  0  0  0
  148.1495  140.3869  154.5061 N   0  0  0  0  0  0  0  0  0  0  0  0
  148.1988  141.5107  153.5753 C   0  0  0  0  0  0  0  0  0  0  0  0
  146.9849  139.6965  154.6210 C   0  0  0  0  0  0  0  0  0  0  0  0
  146.2831  139.8180  155.7784 N   0  0  0  0  0  0  0  0  0  0  0  0
  145.1389  139.1520  155.9523 C   0  0  0  0  0  0  0  0  0  0  0  0
  144.5235  138.3202  155.1113 N   0  0  0  0  0  0  0  0  0  0  0  0
  145.2196  138.1888  153.9461 C   0  0  0  0  0  0  0  0  0  0  0  0
  146.4443  138.8390  153.6170 C   0  0  0  0  0  0  0  0  0  0  0  0
  146.8304  138.4809  152.3298 N   0  0  0  0  0  0  0  0  0  0  0  0
  145.8970  137.6634  151.9282 C   0  0  0  0  0  0  0  0  0  0  0  0
  144.9002  137.4142  152.8435 N   0  0  0  0  0  0  0  0  0  0  0  0
  143.7439  136.5507  152.6529 C   0  0  0  0  0  0  0  0  0  0  0  0
  144.0533  135.0385  152.4316 C   0  0  0  0  0  0  0  0  0  0  0  0
  142.7453  134.1907  152.4487 C   0  0  0  0  0  0  0  0  0  0  0  0
  141.9968  134.3195  153.6410 O   0  0  0  0  0  0  0  0  0  0  0  0
  144.8636  134.8206  151.1277 C   0  0  0  0  0  0  0  0  0  0  0  0
  145.4666  133.4087  151.0344 C   0  0  0  0  0  0  0  0  0  0  0  0
  146.3091  133.1725  152.1549 O   0  0  0  0  0  0  0  0  0  0  0  0
  145.6063  133.2062  153.3901 C   0  0  0  0  0  0  0  0  0  0  0  0
  144.9664  134.5925  153.6026 C   0  0  0  0  0  0  0  0  0  0  0  0
  149.9050  141.4078  157.2606 H   0  0  0  0  0  0  0  0  0  0  0  0
  148.2461  141.7947  156.8228 H   0  0  0  0  0  0  0  0  0  0  0  0
  149.5801  142.3814  155.8315 H   0  0  0  0  0  0  0  0  0  0  0  0
  148.8378  139.4703  156.2656 H   0  0  0  0  0  0  0  0  0  0  0  0
  150.7812  140.4055  154.1302 H   0  0  0  0  0  0  0  0  0  0  0  0
  151.3232  140.0811  155.7606 H   0  0  0  0  0  0  0  0  0  0  0  0
  149.1832  137.7095  156.6616 H   0  0  0  0  0  0  0  0  0  0  0  0
  150.9059  137.7303  157.0729 H   0  0  0  0  0  0  0  0  0  0  0  0
  150.1845  136.2954  156.3341 H   0  0  0  0  0  0  0  0  0  0  0  0
  147.6037  141.3065  152.6844 H   0  0  0  0  0  0  0  0  0  0  0  0
  149.2180  141.7048  153.2447 H   0  0  0  0  0  0  0  0  0  0  0  0
  147.8185  142.4179  154.0452 H   0  0  0  0  0  0  0  0  0  0  0  0
  144.6474  139.3064  156.9015 H   0  0  0  0  0  0  0  0  0  0  0  0
  145.9158  137.2060  150.9496 H   0  0  0  0  0  0  0  0  0  0  0  0
  143.0981  136.6771  153.5232 H   0  0  0  0  0  0  0  0  0  0  0  0
  143.1747  136.9390  151.8072 H   0  0  0  0  0  0  0  0  0  0  0  0
  142.0761  134.4727  151.6381 H   0  0  0  0  0  0  0  0  0  0  0  0
  142.9756  133.1358  152.2957 H   0  0  0  0  0  0  0  0  0  0  0  0
  142.3410  133.7140  154.2797 H   0  0  0  0  0  0  0  0  0  0  0  0
  144.2551  135.0181  150.2452 H   0  0  0  0  0  0  0  0  0  0  0  0
  145.6837  135.5387  151.0905 H   0  0  0  0  0  0  0  0  0  0  0  0
  144.6902  132.6450  150.9739 H   0  0  0  0  0  0  0  0  0  0  0  0
  146.0637  133.3209  150.1265 H   0  0  0  0  0  0  0  0  0  0  0  0
  144.8668  132.4061  153.4232 H   0  0  0  0  0  0  0  0  0  0  0  0
  146.3135  133.0013  154.1940 H   0  0  0  0  0  0  0  0  0  0  0  0
  145.7763  135.3127  153.7273 H   0  0  0  0  0  0  0  0  0  0  0  0
  144.4114  134.6019  154.5416 H   0  0  0  0  0  0  0  0  0  0  0  0
  1  2  1  0  0  0  0
  1 27  1  0  0  0  0
  1 28  1  0  0  0  0
  1 29  1  0  0  0  0
  2  3  1  0  0  0  0
  2  7  1  0  0  0  0
  2 30  1  0  0  0  0
  3  4  1  0  0  0  0
  3 31  1  0  0  0  0
  3 32  1  0  0  0  0
  4  5  1  0  0  0  0
  4  6  2  0  0  0  0
  5 33  1  0  0  0  0
  5 34  1  0  0  0  0
  5 35  1  0  0  0  0
  7  8  1  0  0  0  0
  7  9  1  0  0  0  0
  8 36  1  0  0  0  0
  8 37  1  0  0  0  0
  8 38  1  0  0  0  0
  9 14  1  0  0  0  0
  9 10  2  0  0  0  0
 10 11  1  0  0  0  0
 11 12  2  0  0  0  0
 11 39  1  0  0  0  0
 12 13  1  0  0  0  0
 13 17  1  0  0  0  0
 13 14  2  0  0  0  0
 14 15  1  0  0  0  0
 15 16  2  0  0  0  0
 16 17  1  0  0  0  0
 16 40  1  0  0  0  0
 17 18  1  0  0  0  0
 18 19  1  0  0  0  0
 18 41  1  0  0  0  0
 18 42  1  0  0  0  0
 19 26  1  0  0  0  0
 19 20  1  0  0  0  0
 19 22  1  0  0  0  0
 20 21  1  0  0  0  0
 20 43  1  0  0  0  0
 20 44  1  0  0  0  0
 21 45  1  0  0  0  0
 22 23  1  0  0  0  0
 22 46  1  0  0  0  0
 22 47  1  0  0  0  0
 23 24  1  0  0  0  0
 23 48  1  0  0  0  0
 23 49  1  0  0  0  0
 24 25  1  0  0  0  0
 25 26  1  0  0  0  0
 25 50  1  0  0  0  0
 25 51  1  0  0  0  0
 26 52  1  0  0  0  0
 26 53  1  0  0  0  0
M  END
> <s_m_source_file>
AV-unprocessed.smi

> <i_m_source_file_index>
194

> <i_lp_mmshare_version>
43012

> <i_f3d_flags>
0

> <s_epik_input>
W0NIM11bU0BAXSg9TylbQ0gyXVtDQEBIXShbQ0gzXSlOKFtDSDNdKWMobltjSF1uMSljKGMxMiluW2NIXW4yW0NIMl1DMyhbQ0gyXVtPSF0pW0NIMl1bQ0gyXU9bQ0gyXVtDSDJdMw==

> <s_epik_cmdline>
J2VwaWtfcHl0aG9uJywgJy1waCcsICc3LjAnLCAnLXRuJywgJzgnLCAnLW1hJywgJzIwMCcsICctbWV0YWxfYmluZGluZycsICctaW1hZScsICc8aW5maWxlLm1hZT4nLCAnLW9tYWUnLCAnPG91dGZpbGUubWFlPic=

> <r_lp_tautomer_probability>
1

> <r_epik_Ionization_Penalty>
0.00101625

> <r_epik_Ionization_Penalty_Charging>
0

> <r_epik_Ionization_Penalty_Neutral>
0.00101625

> <r_epik_State_Penalty>
0.000568005

> <r_epik_Charging_Adjusted_Penalty>
0.000568005

> <i_epik_Tot_Q>
0

> <i_epik_Tot_abs_Q>
0

> <r_epik_Metal_State_Penalty>
-0

> <b_epik_Metal_Only>
0

> <s_lp_Force_Field>
OPLS_2005

> <r_lp_Energy>
28.7742

> <b_lp_Chiralities_Consistent>
1

> <s_lp_Variant>
AV-unprocessed.smi:194-3

> <Gold.Version>
5.8.1

> <Gold.Id.Protein>
6NUR|6NUR_protein|mol2

> <Gold.PLP.Fitness>
37.5184

> <Gold.PLP.PLP>
-33.3003

> <Gold.PLP.part.hbond>
-2.0000

> <Gold.PLP.part.metal>
0.0000

> <Gold.PLP.part.buried>
-4.7280

> <Gold.PLP.part.nonpolar>
-27.6193

> <Gold.PLP.part.repulsive>
0.9003

> <Gold.PLP.ligand.clash>
0.0000

> <Gold.PLP.ligand.torsion>
1.5969

> <Gold.PLP.Chemscore.Hbond>
1.8640

> <Gold.PLP.Chemscore.CHOScore>
0.4136

> <Gold.PLP.Chemscore.Metal>
0.0000

> <Gold.Chemscore.Hbonds>
donor molecule, donor type, donor heavy atom, donor atom, acceptor molecule, acceptor atom, score
      L1  H    21    45       P1 10957  0.93
      P1  H 10752 10763       L1     6  0.46
      L1  C    16    40       P1 10171  0.21

> <Gold.PLP.Chemscore.Internal.Correction>
0.5789

> <Gold.Rescore>
     Score         DG    S(hbond)    S(metal)    S(lipo)     H(rot)  DE(clash)    DE(int)     intcor
      9.69     -11.50       1.90        0.00      63.35       3.03       0.26       1.55       ----

> <Gold.Chemscore.Fitness>
9.6879

> <Gold.Chemscore.DG>
-11.4970

> <Gold.Chemscore.ZeroCoef>
-5.4800

> <Gold.Chemscore.Hbond>
1.9043

> <Gold.Chemscore.Metal>
0.0000

> <Gold.Chemscore.Lipo>
63.3514

> <Gold.Chemscore.Internal_Hbond>
0.0000

> <Gold.Chemscore.DEClash>
0.2573

> <Gold.Chemscore.DEInternal>
1.5518

> <Gold.Chemscore.Rot>
3.0295

> <Gold.Chemscore.Internal.Correction>
   9.000000E+99

> <Gold.Chemscore.Hbonds>
donor molecule, donor type, donor heavy atom, donor atom, acceptor molecule, acceptor atom, score
      L1  H    21    45       P1 10957  0.84
      P1  H 10752 10763       L1     6  0.46

> <Gold.Chemscore.Hbond.Weighted>
-6.3604

> <Gold.Chemscore.Metal.Weighted>
-0.0000

> <Gold.Chemscore.Lipo.Weighted>
-7.4121

> <Gold.Chemscore.Internal_Hbond.Weighted>
0.0000

> <Gold.Chemscore.DEClash.Weighted>
0.2573

> <Gold.Chemscore.DEInternal.Weighted>
1.5518

> <Gold.Chemscore.Rot.Weighted>
7.7555

> <Gold.Chemscore.Internal.Correction.Weighted>
   9.000000E+99

> <Gold.Protein.RotatedTorsions>
[ 6907 6896 6895 6894 ] final -128.67 input  -60.11 | X-H torsion
[ 7974 7965 7964 7962 ] final  -81.29 input  175.53 | X-H torsion
[ 8008 7997 7996 7995 ] final -112.45 input   59.86 | X-H torsion
[ 10167 10162 10161 10158 ] final  -64.48 input  -65.29 | X-H torsion
[ 10718 10713 10712 10709 ] final  -32.90 input   66.30 | X-H torsion
[ 10763 10752 10751 10750 ] final   31.06 input  -60.55 | X-H torsion
[ 11005 11000 10999 10996 ] final  -45.55 input  -57.11 | X-H torsion

> <Gold.Protein.ActiveResidues>
 VAL166  LYS551  ARG553  GLY616  TRP617  ASP618  TYR619  PRO620  LYS621  CYS622 
 ASP623  PHE694  ASN695  SER759  ASP760  ASP761  ALA762  ILE779  LEU786  VAL792 
 PHE793  MET794  SER795  GLU796  ALA797  LYS798  CYS799  TRP800  GLU811  SER814 

> <Gold.Protein.RotatedAtoms>
  150.9204  133.6887  159.2833 H   0  0  0  0  0  0  0  0  0  0  0  0  # atno 6907 bound_to 6896
  151.4344  135.1012  159.9661 H   0  0  0  0  0  0  0  0  0  0  0  0  # atno 6908 bound_to 6896
  152.4976  133.8627  159.7313 H   0  0  0  0  0  0  0  0  0  0  0  0  # atno 6909 bound_to 6896
  145.5486  140.9500  143.1511 H   0  0  0  0  0  0  0  0  0  0  0  0  # atno 7974 bound_to 7965
  155.0054  140.0394  157.2377 H   0  0  0  0  0  0  0  0  0  0  0  0  # atno 8008 bound_to 7997
  154.7507  140.2766  155.6272 H   0  0  0  0  0  0  0  0  0  0  0  0  # atno 8009 bound_to 7997
  156.2884  140.2647  156.2259 H   0  0  0  0  0  0  0  0  0  0  0  0  # atno 8010 bound_to 7997
  140.5797  143.2326  151.6367 H   0  0  0  0  0  0  0  0  0  0  0  0  # atno 10167 bound_to 10162
  156.3692  130.4336  149.7559 H   0  0  0  0  0  0  0  0  0  0  0  0  # atno 10718 bound_to 10713
  153.0336  135.6448  154.1141 H   0  0  0  0  0  0  0  0  0  0  0  0  # atno 10763 bound_to 10752
  154.0859  135.2870  155.3283 H   0  0  0  0  0  0  0  0  0  0  0  0  # atno 10764 bound_to 10752
  154.6498  135.5430  153.7952 H   0  0  0  0  0  0  0  0  0  0  0  0  # atno 10765 bound_to 10752
  141.0523  133.6738  156.3029 H   0  0  0  0  0  0  0  0  0  0  0  0  # atno 11005 bound_to 11000
  144.7541  139.7120  143.7261 LP  0  0  0  0  0  0  0  0  0  0  0  0  # atno 17320 bound_to 7965
  146.1932  139.5184  142.9791 LP  0  0  0  0  0  0  0  0  0  0  0  0  # atno 17321 bound_to 7965
  139.5163  144.3351  152.0791 LP  0  0  0  0  0  0  0  0  0  0  0  0  # atno 17342 bound_to 10162
  140.2500  144.4179  150.6226 LP  0  0  0  0  0  0  0  0  0  0  0  0  # atno 17343 bound_to 10162
  156.4693  130.7989  151.3007 LP  0  0  0  0  0  0  0  0  0  0  0  0  # atno 17370 bound_to 10713
  157.7482  131.0041  150.3062 LP  0  0  0  0  0  0  0  0  0  0  0  0  # atno 17371 bound_to 10713
  140.6032  134.5534  157.5521 LP  0  0  0  0  0  0  0  0  0  0  0  0  # atno 17394 bound_to 11000
  139.9360  134.7874  156.0801 LP  0  0  0  0  0  0  0  0  0  0  0  0  # atno 17395 bound_to 11000

$$$$
