AV-unprocessed.smi:1290|AV-procd|sdf|5390|dock6
  -GOLD-   22720 4543D 1   1.00000     0.00000
 Structure written by MMmdl.
 38 40  0  0  0  0  0  0  0  0  1 V2000
  151.6815  140.8837  159.4026 C   0  0  0  0  0  0  0  0  0  0  0  0
  151.3375  140.5710  158.0027 N   0  0  0  0  0  0  0  0  0  0  0  0
  150.1491  141.0383  157.5061 C   0  0  0  0  0  0  0  0  0  0  0  0
  149.3362  141.7085  158.1441 O   0  0  0  0  0  0  0  0  0  0  0  0
  149.9017  140.6669  156.1079 C   0  0  0  0  0  0  0  0  0  0  0  0
  150.7711  139.9273  155.3758 C   0  0  0  0  0  0  0  0  0  0  0  0
  150.2912  139.7134  154.0881 N   0  0  0  0  0  0  0  0  0  0  0  0
  149.1227  140.3544  154.1148 C   0  0  0  0  0  0  0  0  0  0  0  0
  148.8126  140.9508  155.2834 N   0  0  0  0  0  0  0  0  0  0  0  0
  147.5984  141.7036  155.5632 C   0  0  0  0  0  0  0  0  0  0  0  0
  146.7934  142.0332  154.2892 C   0  0  1  0  0  0  0  0  0  0  0  0
  146.1153  140.8835  153.8210 O   0  0  0  0  0  0  0  0  0  0  0  0
  145.8436  143.1973  154.5226 C   0  0  0  0  0  0  0  0  0  0  0  0
  145.5001  143.5881  155.8357 C   0  0  0  0  0  0  0  0  0  0  0  0
  144.6231  144.6693  156.0484 C   0  0  0  0  0  0  0  0  0  0  0  0
  144.0852  145.3673  154.9497 C   0  0  0  0  0  0  0  0  0  0  0  0
  143.0101  146.6917  155.2096 Cl  0  0  0  0  0  0  0  0  0  0  0  0
  144.4270  144.9837  153.6383 C   0  0  0  0  0  0  0  0  0  0  0  0
  145.3045  143.9027  153.4253 C   0  0  0  0  0  0  0  0  0  0  0  0
  151.9757  139.4964  155.9895 N   0  0  0  0  0  0  0  0  0  0  0  0
  152.9264  138.6968  155.2117 C   0  0  0  0  0  0  0  0  0  0  0  0
  152.2536  139.8108  157.2961 C   0  0  0  0  0  0  0  0  0  0  0  0
  153.2994  139.4191  157.8224 O   0  0  0  0  0  0  0  0  0  0  0  0
  150.9717  141.5332  159.9159 H   0  0  0  0  0  0  0  0  0  0  0  0
  152.6489  141.3858  159.4576 H   0  0  0  0  0  0  0  0  0  0  0  0
  151.7462  139.9656  159.9885 H   0  0  0  0  0  0  0  0  0  0  0  0
  148.4686  140.3899  153.2558 H   0  0  0  0  0  0  0  0  0  0  0  0
  146.9910  141.1575  156.2835 H   0  0  0  0  0  0  0  0  0  0  0  0
  147.8864  142.6301  156.0621 H   0  0  0  0  0  0  0  0  0  0  0  0
  147.4942  142.3164  153.5026 H   0  0  0  0  0  0  0  0  0  0  0  0
  145.4828  141.1522  153.1724 H   0  0  0  0  0  0  0  0  0  0  0  0
  145.9104  143.0596  156.6839 H   0  0  0  0  0  0  0  0  0  0  0  0
  144.3645  144.9620  157.0555 H   0  0  0  0  0  0  0  0  0  0  0  0
  144.0168  145.5182  152.7940 H   0  0  0  0  0  0  0  0  0  0  0  0
  145.5611  143.6183  152.4154 H   0  0  0  0  0  0  0  0  0  0  0  0
  153.9047  139.1789  155.1875 H   0  0  0  0  0  0  0  0  0  0  0  0
  152.6132  138.5548  154.1776 H   0  0  0  0  0  0  0  0  0  0  0  0
  153.0447  137.7076  155.6559 H   0  0  0  0  0  0  0  0  0  0  0  0
  1  2  1  0  0  0  0
  1 24  1  0  0  0  0
  1 25  1  0  0  0  0
  1 26  1  0  0  0  0
  2 22  1  0  0  0  0
  2  3  1  0  0  0  0
  3  4  2  0  0  0  0
  3  5  1  0  0  0  0
  5  9  1  0  0  0  0
  5  6  2  0  0  0  0
  6  7  1  0  0  0  0
  6 20  1  0  0  0  0
  7  8  2  0  0  0  0
  8  9  1  0  0  0  0
  8 27  1  0  0  0  0
  9 10  1  0  0  0  0
 10 11  1  0  0  0  0
 10 28  1  0  0  0  0
 10 29  1  0  0  0  0
 11 12  1  0  0  0  0
 11 13  1  0  0  0  0
 11 30  1  0  0  0  0
 12 31  1  0  0  0  0
 13 19  1  0  0  0  0
 13 14  2  0  0  0  0
 14 15  1  0  0  0  0
 14 32  1  0  0  0  0
 15 16  2  0  0  0  0
 15 33  1  0  0  0  0
 16 17  1  0  0  0  0
 16 18  1  0  0  0  0
 18 19  2  0  0  0  0
 18 34  1  0  0  0  0
 19 35  1  0  0  0  0
 20 21  1  0  0  0  0
 20 22  1  0  0  0  0
 21 36  1  0  0  0  0
 21 37  1  0  0  0  0
 21 38  1  0  0  0  0
 22 23  2  0  0  0  0
M  END
> <s_m_source_file>
AV-unprocessed.smi

> <i_m_source_file_index>
1290

> <i_lp_mmshare_version>
43012

> <i_f3d_flags>
0

> <s_epik_input>
Tz1jMW4oW0NIM10pYyg9TyluKFtDSDNdKWMoYzEyKW5bY0hdbjJbQ0gyXVtDQEhdKFtPSF0pYzNbY0hdW2NIXWMoQ2wpW2NIXVtjSF0z

> <s_epik_cmdline>
J2VwaWtfcHl0aG9uJywgJy1waCcsICc3LjAnLCAnLXRuJywgJzgnLCAnLW1hJywgJzIwMCcsICctbWV0YWxfYmluZGluZycsICctaW1hZScsICc8aW5maWxlLm1hZT4nLCAnLW9tYWUnLCAnPG91dGZpbGUubWFlPic=

> <r_lp_tautomer_probability>
1

> <r_epik_Ionization_Penalty>
1.48293e-06

> <r_epik_Ionization_Penalty_Charging>
3.74189e-09

> <r_epik_Ionization_Penalty_Neutral>
1.47919e-06

> <r_epik_State_Penalty>
-0

> <r_epik_Charging_Adjusted_Penalty>
3.74189e-09

> <i_epik_Tot_Q>
0

> <i_epik_Tot_abs_Q>
0

> <r_epik_Metal_State_Penalty>
-0

> <b_epik_Metal_Only>
0

> <s_lp_Force_Field>
OPLS_2005

> <r_lp_Energy>
35.8921

> <b_lp_Chiralities_Consistent>
1

> <s_lp_Variant>
AV-unprocessed.smi:1290-2

> <Gold.Version>
5.8.1

> <Gold.Id.Protein>
6NUR|6NUR_protein|mol2

> <Gold.PLP.Fitness>
49.7173

> <Gold.PLP.PLP>
-42.3779

> <Gold.PLP.part.hbond>
-3.0000

> <Gold.PLP.part.metal>
0.0000

> <Gold.PLP.part.buried>
-3.8803

> <Gold.PLP.part.nonpolar>
-36.5609

> <Gold.PLP.part.repulsive>
0.8685

> <Gold.PLP.ligand.clash>
0.0000

> <Gold.PLP.ligand.torsion>
0.6979

> <Gold.PLP.Chemscore.Hbond>
2.2113

> <Gold.PLP.Chemscore.CHOScore>
0.6906

> <Gold.PLP.Chemscore.Metal>
0.0000

> <Gold.Chemscore.Hbonds>
donor molecule, donor type, donor heavy atom, donor atom, acceptor molecule, acceptor atom, score
      L1  H    12    31       P1 10175  0.75
      P1  H  7989  7998       L1     7  0.40
      P1  H  7997  8010       L1    23  1.00
      L1  C     8    27       P1  7957  0.68

> <Gold.PLP.Chemscore.Internal.Correction>
0.0295

> <Gold.Rescore>
     Score         DG    S(hbond)    S(metal)    S(lipo)     H(rot)  DE(clash)    DE(int)     intcor
     11.98     -13.14       1.77        0.00      61.80       2.15       0.73       0.43       ----

> <Gold.Chemscore.Fitness>
11.9804

> <Gold.Chemscore.DG>
-13.1404

> <Gold.Chemscore.ZeroCoef>
-5.4800

> <Gold.Chemscore.Hbond>
1.7747

> <Gold.Chemscore.Metal>
0.0000

> <Gold.Chemscore.Lipo>
61.7979

> <Gold.Chemscore.Internal_Hbond>
0.0000

> <Gold.Chemscore.DEClash>
0.7344

> <Gold.Chemscore.DEInternal>
0.4257

> <Gold.Chemscore.Rot>
2.1474

> <Gold.Chemscore.Internal.Correction>
   9.000000E+99

> <Gold.Chemscore.Hbonds>
donor molecule, donor type, donor heavy atom, donor atom, acceptor molecule, acceptor atom, score
      L1  H    12    31       P1 10175  0.18
      P1  H  7989  7998       L1     7  0.01
      P1  H  7997  8010       L1    23  0.35

> <Gold.Chemscore.Hbond.Weighted>
-5.9274

> <Gold.Chemscore.Metal.Weighted>
-0.0000

> <Gold.Chemscore.Lipo.Weighted>
-7.2304

> <Gold.Chemscore.Internal_Hbond.Weighted>
0.0000

> <Gold.Chemscore.DEClash.Weighted>
0.7344

> <Gold.Chemscore.DEInternal.Weighted>
0.4257

> <Gold.Chemscore.Rot.Weighted>
5.4974

> <Gold.Chemscore.Internal.Correction.Weighted>
   9.000000E+99

> <Gold.Protein.RotatedTorsions>
[ 6907 6896 6895 6894 ] final  163.74 input  -60.11 | X-H torsion
[ 7974 7965 7964 7962 ] final   68.38 input  175.53 | X-H torsion
[ 8008 7997 7996 7995 ] final   50.62 input   59.86 | X-H torsion
[ 10167 10162 10161 10158 ] final  116.15 input  -65.29 | X-H torsion
[ 10718 10713 10712 10709 ] final   59.29 input   66.30 | X-H torsion
[ 10763 10752 10751 10750 ] final -143.56 input  -60.55 | X-H torsion
[ 11005 11000 10999 10996 ] final -114.37 input  -57.11 | X-H torsion

> <Gold.Protein.ActiveResidues>
 VAL166  LYS551  ARG553  GLY616  TRP617  ASP618  TYR619  PRO620  LYS621  CYS622 
 ASP623  PHE694  ASN695  SER759  ASP760  ASP761  ALA762  ILE779  LEU786  VAL792 
 PHE793  MET794  SER795  GLU796  ALA797  LYS798  CYS799  TRP800  GLU811  SER814 

> <Gold.Protein.RotatedAtoms>
  151.9206  133.3584  159.3895 H   0  0  0  0  0  0  0  0  0  0  0  0  # atno 6907 bound_to 6896
  150.7038  134.4639  159.5403 H   0  0  0  0  0  0  0  0  0  0  0  0  # atno 6908 bound_to 6896
  152.2262  134.8366  160.0530 H   0  0  0  0  0  0  0  0  0  0  0  0  # atno 6909 bound_to 6896
  145.8033  139.2993  143.1142 H   0  0  0  0  0  0  0  0  0  0  0  0  # atno 7974 bound_to 7965
  155.4217  140.3447  155.4272 H   0  0  0  0  0  0  0  0  0  0  0  0  # atno 8008 bound_to 7997
  156.1389  140.1536  156.8983 H   0  0  0  0  0  0  0  0  0  0  0  0  # atno 8009 bound_to 7997
  154.4954  140.0829  156.7666 H   0  0  0  0  0  0  0  0  0  0  0  0  # atno 8010 bound_to 7997
  139.6267  144.7109  151.2519 H   0  0  0  0  0  0  0  0  0  0  0  0  # atno 10167 bound_to 10162
  157.5664  130.8874  149.9195 H   0  0  0  0  0  0  0  0  0  0  0  0  # atno 10718 bound_to 10713
  154.8465  135.3464  154.6207 H   0  0  0  0  0  0  0  0  0  0  0  0  # atno 10763 bound_to 10752
  153.6816  135.6980  153.5121 H   0  0  0  0  0  0  0  0  0  0  0  0  # atno 10764 bound_to 10752
  153.2664  135.4306  155.0901 H   0  0  0  0  0  0  0  0  0  0  0  0  # atno 10765 bound_to 10752
  141.0556  133.9618  157.2760 H   0  0  0  0  0  0  0  0  0  0  0  0  # atno 11005 bound_to 11000
  145.9855  140.8647  143.0093 LP  0  0  0  0  0  0  0  0  0  0  0  0  # atno 17320 bound_to 7965
  144.6766  140.2141  143.7374 LP  0  0  0  0  0  0  0  0  0  0  0  0  # atno 17321 bound_to 7965
  140.7415  143.6555  150.8210 LP  0  0  0  0  0  0  0  0  0  0  0  0  # atno 17342 bound_to 10162
  140.0174  143.5578  152.2814 LP  0  0  0  0  0  0  0  0  0  0  0  0  # atno 17343 bound_to 10162
  156.0712  130.3685  150.0772 LP  0  0  0  0  0  0  0  0  0  0  0  0  # atno 17370 bound_to 10713
  156.8930  130.9595  151.3586 LP  0  0  0  0  0  0  0  0  0  0  0  0  # atno 17371 bound_to 10713
  139.9387  135.0193  156.8639 LP  0  0  0  0  0  0  0  0  0  0  0  0  # atno 17394 bound_to 11000
  140.5971  134.0207  155.7522 LP  0  0  0  0  0  0  0  0  0  0  0  0  # atno 17395 bound_to 11000

$$$$
