AV-unprocessed.smi:3337|AV-procd|sdf|12861|dock3
  -GOLD-   2272019253D 1   1.00000     0.00000
 Structure written by MMmdl.
 46 47  0  0  0  0  0  0  0  0  2 V2000
  153.7046  142.2635  162.0316 C   0  0  0  0  0  0  0  0  0  0  0  0
  152.9925  142.9312  160.8467 C   0  0  2  0  0  0  0  0  0  0  0  0
  151.9912  143.9979  161.3248 C   0  0  0  0  0  0  0  0  0  0  0  0
  151.2269  144.6297  160.1471 C   0  0  1  0  0  0  0  0  0  0  0  0
  152.0875  145.6084  159.3290 C   0  0  0  0  0  0  0  0  0  0  0  0
  150.5900  143.5361  159.2667 C   0  0  0  0  0  0  0  0  0  0  0  0
  151.5939  142.5396  158.8096 N   0  3  2  0  0  0  0  0  0  0  0  0
  151.0153  141.5650  157.8507 C   0  0  0  0  0  0  0  0  0  0  0  0
  151.9842  140.4115  157.5235 C   0  0  0  0  0  0  0  0  0  0  0  0
  151.3807  139.4497  156.6087 N   0  0  0  0  0  0  0  0  0  0  0  0
  151.7947  139.2215  155.3522 C   0  0  0  0  0  0  0  0  0  0  0  0
  152.7477  139.8134  154.8441 O   0  0  0  0  0  0  0  0  0  0  0  0
  151.0130  138.1672  154.5540 C   0  0  2  0  0  0  0  0  0  0  0  0
  149.7049  138.7324  153.9647 C   0  0  0  0  0  0  0  0  0  0  0  0
  150.7856  136.9827  155.3727 N   0  0  0  0  0  0  0  0  0  0  0  0
  149.9202  136.7826  156.3695 C   0  0  0  0  0  0  0  0  0  0  0  0
  149.9497  135.5560  156.8711 N   0  0  0  0  0  0  0  0  0  0  0  0
  150.9153  135.0076  156.0759 C   0  0  0  0  0  0  0  0  0  0  0  0
  151.4400  135.8147  155.1540 N   0  0  0  0  0  0  0  0  0  0  0  0
  152.2815  141.8918  159.9586 C   0  0  0  0  0  0  0  0  0  0  0  0
  152.9972  141.7440  162.6787 H   0  0  0  0  0  0  0  0  0  0  0  0
  154.2312  143.0004  162.6385 H   0  0  0  0  0  0  0  0  0  0  0  0
  154.4395  141.5345  161.6893 H   0  0  0  0  0  0  0  0  0  0  0  0
  153.7593  143.4219  160.2461 H   0  0  0  0  0  0  0  0  0  0  0  0
  151.2746  143.5369  162.0063 H   0  0  0  0  0  0  0  0  0  0  0  0
  152.5029  144.7703  161.9005 H   0  0  0  0  0  0  0  0  0  0  0  0
  150.4138  145.2207  160.5709 H   0  0  0  0  0  0  0  0  0  0  0  0
  152.9169  145.1066  158.8307 H   0  0  0  0  0  0  0  0  0  0  0  0
  152.5057  146.3883  159.9658 H   0  0  0  0  0  0  0  0  0  0  0  0
  151.4923  146.1003  158.5594 H   0  0  0  0  0  0  0  0  0  0  0  0
  149.8067  143.0201  159.8247 H   0  0  0  0  0  0  0  0  0  0  0  0
  150.1047  144.0008  158.4072 H   0  0  0  0  0  0  0  0  0  0  0  0
  150.0691  141.1889  158.2426 H   0  0  0  0  0  0  0  0  0  0  0  0
  150.7777  142.0758  156.9162 H   0  0  0  0  0  0  0  0  0  0  0  0
  152.8853  140.8062  157.0532 H   0  0  0  0  0  0  0  0  0  0  0  0
  152.3078  139.8890  158.4239 H   0  0  0  0  0  0  0  0  0  0  0  0
  150.5888  138.9248  156.9511 H   0  0  0  0  0  0  0  0  0  0  0  0
  151.6355  137.8576  153.7127 H   0  0  0  0  0  0  0  0  0  0  0  0
  149.9044  139.5846  153.3141 H   0  0  0  0  0  0  0  0  0  0  0  0
  149.0127  139.0648  154.7396 H   0  0  0  0  0  0  0  0  0  0  0  0
  149.1924  137.9787  153.3662 H   0  0  0  0  0  0  0  0  0  0  0  0
  149.2523  137.5491  156.7343 H   0  0  0  0  0  0  0  0  0  0  0  0
  151.2366  133.9811  156.1747 H   0  0  0  0  0  0  0  0  0  0  0  0
  153.0176  141.1737  159.5995 H   0  0  0  0  0  0  0  0  0  0  0  0
  151.5543  141.3272  160.5451 H   0  0  0  0  0  0  0  0  0  0  0  0
  152.2940  143.0604  158.3010 H   0  0  0  0  0  0  0  0  0  0  0  0
  1  2  1  0  0  0  0
  1 21  1  0  0  0  0
  1 22  1  0  0  0  0
  1 23  1  0  0  0  0
  2 20  1  0  0  0  0
  2  3  1  0  0  0  0
  2 24  1  0  0  0  0
  3  4  1  0  0  0  0
  3 25  1  0  0  0  0
  3 26  1  0  0  0  0
  4  5  1  0  0  0  0
  4  6  1  0  0  0  0
  4 27  1  0  0  0  0
  5 28  1  0  0  0  0
  5 29  1  0  0  0  0
  5 30  1  0  0  0  0
  6  7  1  0  0  0  0
  6 31  1  0  0  0  0
  6 32  1  0  0  0  0
  7  8  1  0  0  0  0
  7 20  1  0  0  0  0
  7 46  1  0  0  0  0
  8  9  1  0  0  0  0
  8 33  1  0  0  0  0
  8 34  1  0  0  0  0
  9 10  1  0  0  0  0
  9 35  1  0  0  0  0
  9 36  1  0  0  0  0
 10 11  1  0  0  0  0
 10 37  1  0  0  0  0
 11 12  2  0  0  0  0
 11 13  1  0  0  0  0
 13 14  1  0  0  0  0
 13 15  1  0  0  0  0
 13 38  1  0  0  0  0
 14 39  1  0  0  0  0
 14 40  1  0  0  0  0
 14 41  1  0  0  0  0
 15 19  1  0  0  0  0
 15 16  1  0  0  0  0
 16 17  2  0  0  0  0
 16 42  1  0  0  0  0
 17 18  1  0  0  0  0
 18 19  2  0  0  0  0
 18 43  1  0  0  0  0
 20 44  1  0  0  0  0
 20 45  1  0  0  0  0
M  CHG  1   7   1
M  END
> <s_m_source_file>
AV-unprocessed.smi

> <i_m_source_file_index>
3337

> <i_lp_mmshare_version>
43012

> <i_f3d_flags>
0

> <s_epik_input>
W0NIM11bQ0BASF0xW0NIMl1bQ0BASF0oW0NIM10pW0NIMl1OKFtDSDJdMSlbQ0gyXVtDSDJdW05IXUMoPU8pW0NASF0oW0NIM10pbjJbY0hdbltjSF1uMg==

> <s_epik_cmdline>
J2VwaWtfcHl0aG9uJywgJy1waCcsICc3LjAnLCAnLXRuJywgJzgnLCAnLW1hJywgJzIwMCcsICctbWV0YWxfYmluZGluZycsICctaW1hZScsICc8aW5maWxlLm1hZT4nLCAnLW9tYWUnLCAnPG91dGZpbGUubWFlPic=

> <r_lp_tautomer_probability>
1

> <r_epik_Ionization_Penalty>
0.00175613

> <r_epik_Ionization_Penalty_Charging>
0.00174812

> <r_epik_Ionization_Penalty_Neutral>
8.01354e-06

> <r_epik_State_Penalty>
0.00118332

> <r_epik_Charging_Adjusted_Penalty>
0.00293143

> <i_epik_Tot_Q>
1

> <i_epik_Tot_abs_Q>
1

> <r_epik_Metal_State_Penalty>
-0

> <b_epik_Metal_Only>
0

> <s_lp_Force_Field>
OPLS_2005

> <r_lp_Energy>
24.9418

> <b_lp_Chiralities_Consistent>
1

> <s_lp_Variant>
AV-unprocessed.smi:3337-1

> <Gold.Version>
5.8.1

> <Gold.Id.Protein>
6NUR|6NUR_protein|mol2

> <Gold.PLP.Fitness>
47.2294

> <Gold.PLP.PLP>
-41.9415

> <Gold.PLP.part.hbond>
-3.0000

> <Gold.PLP.part.metal>
0.0000

> <Gold.PLP.part.buried>
-5.3925

> <Gold.PLP.part.nonpolar>
-33.2511

> <Gold.PLP.part.repulsive>
0.2573

> <Gold.PLP.ligand.clash>
0.0000

> <Gold.PLP.ligand.torsion>
0.7894

> <Gold.PLP.Chemscore.Hbond>
2.2463

> <Gold.PLP.Chemscore.CHOScore>
0.0000

> <Gold.PLP.Chemscore.Metal>
0.0000

> <Gold.Chemscore.Hbonds>
donor molecule, donor type, donor heavy atom, donor atom, acceptor molecule, acceptor atom, score
      P1  H  7989  7998       L1    12  0.41
      P1  H  7997  8010       L1    12  0.91
      P1  H 10752 10764       L1    19  1.00

> <Gold.PLP.Chemscore.Internal.Correction>
0.1280

> <Gold.Rescore>
     Score         DG    S(hbond)    S(metal)    S(lipo)     H(rot)  DE(clash)    DE(int)     intcor
     16.95     -18.03       1.94        0.00     106.92       2.51       0.11       0.97       ----

> <Gold.Chemscore.Fitness>
16.9547

> <Gold.Chemscore.DG>
-18.0326

> <Gold.Chemscore.ZeroCoef>
-5.4800

> <Gold.Chemscore.Hbond>
1.9388

> <Gold.Chemscore.Metal>
0.0000

> <Gold.Chemscore.Lipo>
106.9233

> <Gold.Chemscore.Internal_Hbond>
0.0000

> <Gold.Chemscore.DEClash>
0.1117

> <Gold.Chemscore.DEInternal>
0.9662

> <Gold.Chemscore.Rot>
2.5129

> <Gold.Chemscore.Internal.Correction>
   9.000000E+99

> <Gold.Chemscore.Hbonds>
donor molecule, donor type, donor heavy atom, donor atom, acceptor molecule, acceptor atom, score
      P1  H  7989  7998       L1    12  0.07
      P1  H  7997  8010       L1    12  0.87
      P1  H 10752 10764       L1    19  0.75

> <Gold.Chemscore.Hbond.Weighted>
-6.4757

> <Gold.Chemscore.Metal.Weighted>
-0.0000

> <Gold.Chemscore.Lipo.Weighted>
-12.5100

> <Gold.Chemscore.Internal_Hbond.Weighted>
0.0000

> <Gold.Chemscore.DEClash.Weighted>
0.1117

> <Gold.Chemscore.DEInternal.Weighted>
0.9662

> <Gold.Chemscore.Rot.Weighted>
6.4331

> <Gold.Chemscore.Internal.Correction.Weighted>
   9.000000E+99

> <Gold.Protein.RotatedTorsions>
[ 6907 6896 6895 6894 ] final  122.14 input  -60.11 | X-H torsion
[ 7974 7965 7964 7962 ] final  146.72 input  175.53 | X-H torsion
[ 8008 7997 7996 7995 ] final  118.18 input   59.86 | X-H torsion
[ 10167 10162 10161 10158 ] final  -72.54 input  -65.29 | X-H torsion
[ 10718 10713 10712 10709 ] final -102.24 input   66.30 | X-H torsion
[ 10763 10752 10751 10750 ] final  -37.38 input  -60.55 | X-H torsion
[ 11005 11000 10999 10996 ] final  -76.13 input  -57.11 | X-H torsion

> <Gold.Protein.ActiveResidues>
 VAL166  LYS551  ARG553  GLY616  TRP617  ASP618  TYR619  PRO620  LYS621  CYS622 
 ASP623  PHE694  ASN695  SER759  ASP760  ASP761  ALA762  ILE779  LEU786  VAL792 
 PHE793  MET794  SER795  GLU796  ALA797  LYS798  CYS799  TRP800  GLU811  SER814 

> <Gold.Protein.RotatedAtoms>
  152.4266  133.7206  159.6530 H   0  0  0  0  0  0  0  0  0  0  0  0  # atno 6907 bound_to 6896
  150.8143  133.8354  159.3173 H   0  0  0  0  0  0  0  0  0  0  0  0  # atno 6908 bound_to 6896
  151.6055  135.1046  160.0121 H   0  0  0  0  0  0  0  0  0  0  0  0  # atno 6909 bound_to 6896
  144.8649  139.5940  143.5914 H   0  0  0  0  0  0  0  0  0  0  0  0  # atno 7974 bound_to 7965
  156.2533  140.2880  156.0795 H   0  0  0  0  0  0  0  0  0  0  0  0  # atno 8008 bound_to 7997
  155.1583  140.0399  157.2854 H   0  0  0  0  0  0  0  0  0  0  0  0  # atno 8009 bound_to 7997
  154.6411  140.2522  155.7327 H   0  0  0  0  0  0  0  0  0  0  0  0  # atno 8010 bound_to 7997
  140.5184  143.2335  151.7473 H   0  0  0  0  0  0  0  0  0  0  0  0  # atno 10167 bound_to 10162
  156.0222  130.5411  150.7079 H   0  0  0  0  0  0  0  0  0  0  0  0  # atno 10718 bound_to 10713
  153.8954  135.6808  153.4758 H   0  0  0  0  0  0  0  0  0  0  0  0  # atno 10763 bound_to 10752
  153.1158  135.4762  154.9110 H   0  0  0  0  0  0  0  0  0  0  0  0  # atno 10764 bound_to 10752
  154.7602  135.3208  154.8347 H   0  0  0  0  0  0  0  0  0  0  0  0  # atno 10765 bound_to 10752
  141.1651  133.6972  156.7622 H   0  0  0  0  0  0  0  0  0  0  0  0  # atno 11005 bound_to 11000
  146.2888  139.7079  142.9176 LP  0  0  0  0  0  0  0  0  0  0  0  0  # atno 17320 bound_to 7965
  145.4242  141.0409  143.2947 LP  0  0  0  0  0  0  0  0  0  0  0  0  # atno 17321 bound_to 7965
  139.4916  144.4291  151.9893 LP  0  0  0  0  0  0  0  0  0  0  0  0  # atno 17342 bound_to 10162
  140.3386  144.3231  150.5972 LP  0  0  0  0  0  0  0  0  0  0  0  0  # atno 17343 bound_to 10162
  157.4724  131.0894  151.0627 LP  0  0  0  0  0  0  0  0  0  0  0  0  # atno 17370 bound_to 10713
  157.1084  130.6011  149.5476 LP  0  0  0  0  0  0  0  0  0  0  0  0  # atno 17371 bound_to 10713
  140.2526  134.8529  157.3682 LP  0  0  0  0  0  0  0  0  0  0  0  0  # atno 17394 bound_to 11000
  140.1688  134.4635  155.7845 LP  0  0  0  0  0  0  0  0  0  0  0  0  # atno 17395 bound_to 11000

$$$$
