#       Name:                AV-unprocessed.smi:1764
#       Creating user name   scv26
#       Creation time:       Fri Mar 27 08:37:03 2020


#       File generated by GOLD software.
#

@<TRIPOS>MOLECULE
AV-unprocessed.smi:1764
    36    37     1
SMALL
NO_CHARGES


@<TRIPOS>ATOM
      1 ****         0.1818   0.9967   1.1434 O.2            1 S1                 0.0000
      2 ****        -0.3212  -0.1086   0.9396 C.2            1 S1                 0.0000
      3 ****         0.3956  -1.2319   0.7904 N.am           1 S1                 0.0000
      4 ****         1.8518  -1.3189   0.8390 C.3            1 S1                 0.0000
      5 ****         2.4704  -1.3126  -0.5692 C.3            1 S1                 0.0000
      6 ****         2.2911  -0.0117  -1.3527 C.3            1 S1                 0.0000
      7 ****         3.4431  -0.0858  -2.3277 C.3            1 S1                 0.0000
      8 ****         4.5430  -0.6977  -1.4647 C.3            1 S1                 0.0000
      9 ****         3.8809  -1.4977  -0.4875 O.3            1 S1                 0.0000
     10 ****        -1.6386  -0.3552   0.8298 N.am           1 S1                 0.0000
     11 ****        -2.7166   0.5629   0.9432 C.ar           1 S1                 0.0000
     12 ****        -4.0009   0.0041   0.7543 C.ar           1 S1                 0.0000
     13 ****        -5.1372   0.8306   0.8496 C.ar           1 S1                 0.0000
     14 ****        -4.9600   2.1965   1.1328 C.ar           1 S1                 0.0000
     15 ****        -3.6475   2.6727   1.3070 C.ar           1 S1                 0.0000
     16 ****        -2.5571   1.8824   1.2154 N.ar           1 S1                 0.0000
     17 ****        -0.1022  -2.0943   0.6245 H              1 S1                 0.0000
     18 ****         2.2760  -0.5179   1.4470 H              1 S1                 0.0000
     19 ****         2.1103  -2.2501   1.3432 H              1 S1                 0.0000
     20 ****         2.0687  -2.1410  -1.1552 H              1 S1                 0.0000
     21 ****         1.3196   0.0627  -1.8424 H              1 S1                 0.0000
     22 ****         2.4126   0.8527  -0.6982 H              1 S1                 0.0000
     23 ****         3.1929  -0.7561  -3.1511 H              1 S1                 0.0000
     24 ****         3.7176   0.8831  -2.7454 H              1 S1                 0.0000
     25 ****         5.2480  -1.2875  -2.0508 H              1 S1                 0.0000
     26 ****         5.1024   0.0840  -0.9495 H              1 S1                 0.0000
     27 ****        -1.9016  -1.3123   0.6480 H              1 S1                 0.0000
     28 ****        -4.1195  -1.0478   0.5379 H              1 S1                 0.0000
     29 ****        -6.1270   0.4224   0.7080 H              1 S1                 0.0000
     30 ****        -5.8070   2.8615   1.2143 H              1 S1                 0.0000
     31 ****        -3.4681   3.7147   1.5267 H              1 S1                 0.0000
     32 ****         1.1755   1.0901   1.2055 LP             1 S1                 0.0000
     33 ****        -0.4034   1.8010   1.2468 LP             1 S1                 0.0000
     34 ****         4.0970  -2.4607  -0.6483 LP             1 S1                 0.0000
     35 ****         4.1960  -1.2330   0.4239 LP             1 S1                 0.0000
     36 ****        -1.6426   2.2650   1.3466 LP             1 S1                 0.0000
@<TRIPOS>BOND
    1    1    2 2     
    2    2    3 am    
    3    2   10 am    
    4    3    4 1     
    5    3   17 1     
    6    4    5 1     
    7    4   18 1     
    8    4   19 1     
    9    5    9 1     
   10    5    6 1     
   11    5   20 1     
   12    6    7 1     
   13    6   21 1     
   14    6   22 1     
   15    7    8 1     
   16    7   23 1     
   17    7   24 1     
   18    8    9 1     
   19    8   25 1     
   20    8   26 1     
   21   10   11 1     
   22   10   27 1     
   23   11   16 ar    
   24   11   12 ar    
   25   12   13 ar    
   26   12   28 1     
   27   13   14 ar    
   28   13   29 1     
   29   14   15 ar    
   30   14   30 1     
   31   15   16 ar    
   32   15   31 1     
   33    1   32 1     
   34    1   33 1     
   35    9   34 1     
   36    9   35 1     
   37   16   36 1     
@<TRIPOS>SUBSTRUCTURE
      1 S1             1
@<TRIPOS>SET
LONE_PAIRS      STATIC     ATOMS    <user>   **** ""
5 32 33 34 35 36
DONOR_HYDROGENS      STATIC     ATOMS    <user>   **** ""
2 17 27
ATOM$BLUE        STATIC     ATOMS    COLORGROUP SYSTEM
5 32 33 34 35 36
ATOM$RED        STATIC     ATOMS    COLORGROUP SYSTEM
2 17 27
