#       Name:                AV-unprocessed.smi:837
#       Creating user name   scv26
#       Creation time:       Fri Mar 27 01:36:37 2020


#       File generated by GOLD software.
#

@<TRIPOS>MOLECULE
AV-unprocessed.smi:837
    56    58     1
SMALL
NO_CHARGES


@<TRIPOS>ATOM
      1 ****        -3.6142   0.8760   1.8894 C.3            1 S1                 0.0000
      2 ****        -2.5329   1.8851   1.4448 C.3            1 S1                 0.0000
      3 ****        -3.1096   2.8938   0.4275 C.3            1 S1                 0.0000
      4 ****        -2.0860   3.9761   0.0526 C.3            1 S1                 0.0000
      5 ****        -0.7952   3.3522  -0.4939 C.3            1 S1                 0.0000
      6 ****        -0.1974   2.3501   0.5084 C.3            1 S1                 0.0000
      7 ****        -1.2041   1.2461   0.9244 C.3            1 S1                 0.0000
      8 ****        -1.4408   0.3345  -0.1847 N.pl3          1 S1                -1.0000
      9 ****        -1.0047  -0.8984   0.1601 C.2            1 S1                 0.0000
     10 ****        -1.0346  -1.9096  -0.5411 O.2            1 S1                 0.0000
     11 ****        -0.4921  -0.9009   1.4056 N.am           1 S1                 0.0000
     12 ****         0.1232  -2.0647   2.0542 C.3            1 S1                 0.0000
     13 ****         1.5873  -2.2087   1.6306 C.2            1 S1                 0.0000
     14 ****         2.4497  -1.4779   2.1172 O.2            1 S1                 0.0000
     15 ****         1.8444  -3.1466   0.7072 N.am           1 S1                 0.0000
     16 ****         3.1400  -3.3909   0.0815 C.3            1 S1                 0.0000
     17 ****         3.6350  -2.2131  -0.7888 C.3            1 S1                 0.0000
     18 ****         2.5654  -1.5857  -1.6716 C.ar           1 S1                 0.0000
     19 ****         2.2698  -0.2072  -1.5704 C.ar           1 S1                 0.0000
     20 ****         1.2681   0.3492  -2.3922 C.ar           1 S1                 0.0000
     21 ****         0.5726  -0.4864  -3.2882 C.ar           1 S1                 0.0000
     22 ****         0.8813  -1.7995  -3.3587 N.pl3          1 S1                 1.0000
     23 ****         1.8420  -2.3686  -2.5979 C.ar           1 S1                 0.0000
     24 ****        -0.5584   0.3206   1.9460 C.2            1 S1                 0.0000
     25 ****        -0.1670   0.6709   3.0600 O.2            1 S1                 0.0000
     26 ****        -3.9495   0.2540   1.0592 H              1 S1                 0.0000
     27 ****        -4.4891   1.3944   2.2820 H              1 S1                 0.0000
     28 ****        -3.2551   0.2147   2.6777 H              1 S1                 0.0000
     29 ****        -2.2779   2.4622   2.3354 H              1 S1                 0.0000
     30 ****        -3.4342   2.3700  -0.4725 H              1 S1                 0.0000
     31 ****        -3.9994   3.3698   0.8403 H              1 S1                 0.0000
     32 ****        -2.5142   4.6525  -0.6876 H              1 S1                 0.0000
     33 ****        -1.8566   4.5819   0.9302 H              1 S1                 0.0000
     34 ****        -1.0015   2.8522  -1.4410 H              1 S1                 0.0000
     35 ****        -0.0689   4.1354  -0.7121 H              1 S1                 0.0000
     36 ****         0.7098   1.9102   0.0919 H              1 S1                 0.0000
     37 ****         0.1227   2.9016   1.3939 H              1 S1                 0.0000
     38 ****         0.0774  -1.9685   3.1402 H              1 S1                 0.0000
     39 ****        -0.4342  -2.9719   1.8137 H              1 S1                 0.0000
     40 ****         1.0672  -3.6989   0.3740 H              1 S1                 0.0000
     41 ****         3.8831  -3.6495   0.8370 H              1 S1                 0.0000
     42 ****         3.0213  -4.2740  -0.5464 H              1 S1                 0.0000
     43 ****         4.0508  -1.4410  -0.1403 H              1 S1                 0.0000
     44 ****         4.4592  -2.5451  -1.4205 H              1 S1                 0.0000
     45 ****         2.7960   0.4197  -0.8655 H              1 S1                 0.0000
     46 ****         1.0214   1.3984  -2.3214 H              1 S1                 0.0000
     47 ****        -0.2201  -0.1476  -3.9388 H              1 S1                 0.0000
     48 ****         1.9909  -3.4284  -2.7424 H              1 S1                 0.0000
     49 ****         0.3612  -2.3878  -4.0099 H              1 S1                 0.0000
     50 ****        -1.8582   0.5797  -1.0597 LP             1 S1                 0.0000
     51 ****        -1.4101  -1.8652  -1.4669 LP             1 S1                 0.0000
     52 ****        -0.6835  -2.7756  -0.1850 LP             1 S1                 0.0000
     53 ****         2.1955  -0.7858   2.7928 LP             1 S1                 0.0000
     54 ****         3.4046  -1.5762   1.8370 LP             1 S1                 0.0000
     55 ****        -0.2644   1.6237   3.3474 LP             1 S1                 0.0000
     56 ****         0.2482   0.0025   3.6771 LP             1 S1                 0.0000
@<TRIPOS>BOND
    1    1    2 1     
    2    1   26 1     
    3    1   27 1     
    4    1   28 1     
    5    2    7 1     
    6    2    3 1     
    7    2   29 1     
    8    3    4 1     
    9    3   30 1     
   10    3   31 1     
   11    4    5 1     
   12    4   32 1     
   13    4   33 1     
   14    5    6 1     
   15    5   34 1     
   16    5   35 1     
   17    6    7 1     
   18    6   36 1     
   19    6   37 1     
   20    7   24 1     
   21    7    8 1     
   22    8    9 1     
   23    9   10 2     
   24    9   11 am    
   25   11   12 1     
   26   11   24 am    
   27   12   13 1     
   28   12   38 1     
   29   12   39 1     
   30   13   14 2     
   31   13   15 am    
   32   15   16 1     
   33   15   40 1     
   34   16   17 1     
   35   16   41 1     
   36   16   42 1     
   37   17   18 1     
   38   17   43 1     
   39   17   44 1     
   40   18   23 ar    
   41   18   19 ar    
   42   19   20 ar    
   43   19   45 1     
   44   20   21 ar    
   45   20   46 1     
   46   21   22 ar    
   47   21   47 1     
   48   22   23 ar    
   49   22   49 1     
   50   23   48 1     
   51   24   25 2     
   52    8   50 1     
   53   10   51 1     
   54   10   52 1     
   55   14   53 1     
   56   14   54 1     
   57   25   55 1     
   58   25   56 1     
@<TRIPOS>SUBSTRUCTURE
      1 S1             1
@<TRIPOS>SET
LONE_PAIRS      STATIC     ATOMS    <user>   **** ""
7 50 51 52 53 54 55 56
DONOR_HYDROGENS      STATIC     ATOMS    <user>   **** ""
2 40 49
ATOM$BLUE        STATIC     ATOMS    COLORGROUP SYSTEM
7 50 51 52 53 54 55 56
ATOM$RED        STATIC     ATOMS    COLORGROUP SYSTEM
2 40 49
