AV-unprocessed.smi:2972|AV-procd|sdf|11336|dock2
  -GOLD-   2272016243D 1   1.00000     0.00000
 Structure written by MMmdl.
 33 34  0  0  0  0  0  0  0  0  1 V2000
  150.9451  140.8163  156.3971 O   0  0  0  0  0  0  0  0  0  0  0  0
  150.2758  141.8467  156.3150 C   0  0  0  0  0  0  0  0  0  0  0  0
  149.1925  142.0107  155.5350 N   0  0  0  0  0  0  0  0  0  0  0  0
  148.5923  141.0697  154.6563 C   0  0  0  0  0  0  0  0  0  0  0  0
  147.6108  141.6023  153.7898 C   0  0  0  0  0  0  0  0  0  0  0  0
  146.9554  140.7515  152.8784 C   0  0  0  0  0  0  0  0  0  0  0  0
  147.2999  139.3881  152.8586 C   0  0  0  0  0  0  0  0  0  0  0  0
  146.5316  138.2968  151.7651 Cl  0  0  0  0  0  0  0  0  0  0  0  0
  148.2876  138.9379  153.7542 C   0  0  0  0  0  0  0  0  0  0  0  0
  148.9165  139.7525  154.6278 N   0  0  0  0  0  0  0  0  0  0  0  0
  150.5462  142.9617  157.0096 N   0  0  0  0  0  0  0  0  0  0  0  0
  151.6542  143.1240  157.9467 C   0  0  0  0  0  0  0  0  0  0  0  0
  151.8436  141.8475  158.7927 C   0  0  0  0  0  0  0  0  0  0  0  0
  152.9553  142.0263  159.8393 C   0  0  0  0  0  0  0  0  0  0  0  0
  152.6884  143.2462  160.7349 C   0  0  0  0  0  0  0  0  0  0  0  0
  152.5051  144.5204  159.8955 C   0  0  0  0  0  0  0  0  0  0  0  0
  151.3919  144.3441  158.8499 C   0  0  0  0  0  0  0  0  0  0  0  0
  148.7452  142.9143  155.5743 H   0  0  0  0  0  0  0  0  0  0  0  0
  147.3589  142.6525  153.8194 H   0  0  0  0  0  0  0  0  0  0  0  0
  146.2029  141.1403  152.2083 H   0  0  0  0  0  0  0  0  0  0  0  0
  148.5818  137.8988  153.7716 H   0  0  0  0  0  0  0  0  0  0  0  0
  149.9422  143.7602  156.8807 H   0  0  0  0  0  0  0  0  0  0  0  0
  152.5702  143.3125  157.3830 H   0  0  0  0  0  0  0  0  0  0  0  0
  150.9094  141.5970  159.2977 H   0  0  0  0  0  0  0  0  0  0  0  0
  152.0831  140.9999  158.1496 H   0  0  0  0  0  0  0  0  0  0  0  0
  153.0382  141.1271  160.4506 H   0  0  0  0  0  0  0  0  0  0  0  0
  153.9148  142.1461  159.3345 H   0  0  0  0  0  0  0  0  0  0  0  0
  151.7941  143.0712  161.3343 H   0  0  0  0  0  0  0  0  0  0  0  0
  153.5112  143.3791  161.4380 H   0  0  0  0  0  0  0  0  0  0  0  0
  152.2731  145.3641  160.5461 H   0  0  0  0  0  0  0  0  0  0  0  0
  153.4419  144.7652  159.3934 H   0  0  0  0  0  0  0  0  0  0  0  0
  151.3122  145.2477  158.2445 H   0  0  0  0  0  0  0  0  0  0  0  0
  150.4343  144.2284  159.3600 H   0  0  0  0  0  0  0  0  0  0  0  0
  1  2  2  0  0  0  0
  2  3  1  0  0  0  0
  2 11  1  0  0  0  0
  3  4  1  0  0  0  0
  3 18  1  0  0  0  0
  4 10  1  0  0  0  0
  4  5  2  0  0  0  0
  5  6  1  0  0  0  0
  5 19  1  0  0  0  0
  6  7  2  0  0  0  0
  6 20  1  0  0  0  0
  7  8  1  0  0  0  0
  7  9  1  0  0  0  0
  9 10  2  0  0  0  0
  9 21  1  0  0  0  0
 11 12  1  0  0  0  0
 11 22  1  0  0  0  0
 12 17  1  0  0  0  0
 12 13  1  0  0  0  0
 12 23  1  0  0  0  0
 13 14  1  0  0  0  0
 13 24  1  0  0  0  0
 13 25  1  0  0  0  0
 14 15  1  0  0  0  0
 14 26  1  0  0  0  0
 14 27  1  0  0  0  0
 15 16  1  0  0  0  0
 15 28  1  0  0  0  0
 15 29  1  0  0  0  0
 16 17  1  0  0  0  0
 16 30  1  0  0  0  0
 16 31  1  0  0  0  0
 17 32  1  0  0  0  0
 17 33  1  0  0  0  0
M  END
> <s_m_source_file>
AV-unprocessed.smi

> <i_m_source_file_index>
2972

> <i_lp_mmshare_version>
43012

> <i_f3d_flags>
0

> <s_epik_input>
W0NIMl0xW0NIMl1bQ0gyXVtDSDJdW0NIMl1bQ0hdMVtOSF1DKD1PKVtOSF1jMltjSF1bY0hdYyhDbClbY0hdbjI=

> <s_epik_cmdline>
J2VwaWtfcHl0aG9uJywgJy1waCcsICc3LjAnLCAnLXRuJywgJzgnLCAnLW1hJywgJzIwMCcsICctbWV0YWxfYmluZGluZycsICctaW1hZScsICc8aW5maWxlLm1hZT4nLCAnLW9tYWUnLCAnPG91dGZpbGUubWFlPic=

> <r_lp_tautomer_probability>
1

> <r_epik_Ionization_Penalty>
4.0409e-05

> <r_epik_Ionization_Penalty_Charging>
0

> <r_epik_Ionization_Penalty_Neutral>
4.0409e-05

> <r_epik_State_Penalty>
-0

> <r_epik_Charging_Adjusted_Penalty>
0

> <i_epik_Tot_Q>
0

> <i_epik_Tot_abs_Q>
0

> <r_epik_Metal_State_Penalty>
-0

> <b_epik_Metal_Only>
0

> <s_lp_Force_Field>
OPLS_2005

> <r_lp_Energy>
12.1461

> <b_lp_Chiralities_Consistent>
1

> <s_lp_Variant>
AV-unprocessed.smi:2972-1

> <Gold.Version>
5.8.1

> <Gold.Id.Protein>
6NUR|6NUR_protein|mol2

> <Gold.PLP.Fitness>
46.6675

> <Gold.PLP.PLP>
-38.5615

> <Gold.PLP.part.hbond>
-2.0000

> <Gold.PLP.part.metal>
0.0000

> <Gold.PLP.part.buried>
-1.4912

> <Gold.PLP.part.nonpolar>
-34.8970

> <Gold.PLP.part.repulsive>
0.2916

> <Gold.PLP.ligand.clash>
0.0000

> <Gold.PLP.ligand.torsion>
0.2806

> <Gold.PLP.Chemscore.Hbond>
1.8880

> <Gold.PLP.Chemscore.CHOScore>
1.0000

> <Gold.PLP.Chemscore.Metal>
0.0000

> <Gold.Chemscore.Hbonds>
donor molecule, donor type, donor heavy atom, donor atom, acceptor molecule, acceptor atom, score
      L1  H     3    18       P1  8028  1.00
      L1  H    11    22       P1  8028  0.93
      L1  C     9    21       P1  7948  0.95

> <Gold.PLP.Chemscore.Internal.Correction>
0.0032

> <Gold.Rescore>
     Score         DG    S(hbond)    S(metal)    S(lipo)     H(rot)  DE(clash)    DE(int)     intcor
     18.73     -21.85       1.96        0.00     105.88       1.00       0.30       2.82       ----

> <Gold.Chemscore.Fitness>
18.7344

> <Gold.Chemscore.DG>
-21.8471

> <Gold.Chemscore.ZeroCoef>
-5.4800

> <Gold.Chemscore.Hbond>
1.9577

> <Gold.Chemscore.Metal>
0.0000

> <Gold.Chemscore.Lipo>
105.8844

> <Gold.Chemscore.Internal_Hbond>
0.0000

> <Gold.Chemscore.DEClash>
0.2956

> <Gold.Chemscore.DEInternal>
2.8171

> <Gold.Chemscore.Rot>
1.0000

> <Gold.Chemscore.Internal.Correction>
   9.000000E+99

> <Gold.Chemscore.Hbonds>
donor molecule, donor type, donor heavy atom, donor atom, acceptor molecule, acceptor atom, score
      L1  H     3    18       P1  8028  0.94
      L1  H    11    22       P1  8028  0.89

> <Gold.Chemscore.Hbond.Weighted>
-6.5387

> <Gold.Chemscore.Metal.Weighted>
-0.0000

> <Gold.Chemscore.Lipo.Weighted>
-12.3885

> <Gold.Chemscore.Internal_Hbond.Weighted>
0.0000

> <Gold.Chemscore.DEClash.Weighted>
0.2956

> <Gold.Chemscore.DEInternal.Weighted>
2.8171

> <Gold.Chemscore.Rot.Weighted>
2.5600

> <Gold.Chemscore.Internal.Correction.Weighted>
   9.000000E+99

> <Gold.Protein.RotatedTorsions>
[ 6907 6896 6895 6894 ] final -166.60 input  -60.11 | X-H torsion
[ 7974 7965 7964 7962 ] final  -69.20 input  175.53 | X-H torsion
[ 8008 7997 7996 7995 ] final   53.22 input   59.86 | X-H torsion
[ 10167 10162 10161 10158 ] final   72.59 input  -65.29 | X-H torsion
[ 10718 10713 10712 10709 ] final   34.45 input   66.30 | X-H torsion
[ 10763 10752 10751 10750 ] final   98.55 input  -60.55 | X-H torsion
[ 11005 11000 10999 10996 ] final  -28.20 input  -57.11 | X-H torsion

> <Gold.Protein.ActiveResidues>
 VAL166  LYS551  ARG553  GLY616  TRP617  ASP618  TYR619  PRO620  LYS621  CYS622 
 ASP623  PHE694  ASN695  SER759  ASP760  ASP761  ALA762  ILE779  LEU786  VAL792 
 PHE793  MET794  SER795  GLU796  ALA797  LYS798  CYS799  TRP800  GLU811  SER814 

> <Gold.Protein.RotatedAtoms>
  151.4461  133.3630  159.2788 H   0  0  0  0  0  0  0  0  0  0  0  0  # atno 6907 bound_to 6896
  150.9123  134.8542  159.7444 H   0  0  0  0  0  0  0  0  0  0  0  0  # atno 6908 bound_to 6896
  152.4939  134.4392  159.9590 H   0  0  0  0  0  0  0  0  0  0  0  0  # atno 6909 bound_to 6896
  145.7068  140.9094  143.0702 H   0  0  0  0  0  0  0  0  0  0  0  0  # atno 7974 bound_to 7965
  155.4647  140.3463  155.4317 H   0  0  0  0  0  0  0  0  0  0  0  0  # atno 8008 bound_to 7997
  156.1138  140.1468  156.9330 H   0  0  0  0  0  0  0  0  0  0  0  0  # atno 8009 bound_to 7997
  154.4775  140.0880  156.7276 H   0  0  0  0  0  0  0  0  0  0  0  0  # atno 8010 bound_to 7997
  140.0337  144.5445  150.7487 H   0  0  0  0  0  0  0  0  0  0  0  0  # atno 10167 bound_to 10162
  157.3105  130.7397  149.6722 H   0  0  0  0  0  0  0  0  0  0  0  0  # atno 10718 bound_to 10713
  153.2904  135.4144  155.1161 H   0  0  0  0  0  0  0  0  0  0  0  0  # atno 10763 bound_to 10752
  154.8518  135.3517  154.5989 H   0  0  0  0  0  0  0  0  0  0  0  0  # atno 10764 bound_to 10752
  153.6412  135.7057  153.5299 H   0  0  0  0  0  0  0  0  0  0  0  0  # atno 10765 bound_to 10752
  140.9187  133.7413  156.0771 H   0  0  0  0  0  0  0  0  0  0  0  0  # atno 11005 bound_to 11000
  144.6953  139.9021  143.7459 LP  0  0  0  0  0  0  0  0  0  0  0  0  # atno 17320 bound_to 7965
  146.0749  139.3737  143.0500 LP  0  0  0  0  0  0  0  0  0  0  0  0  # atno 17321 bound_to 7965
  140.7291  143.2669  151.4016 LP  0  0  0  0  0  0  0  0  0  0  0  0  # atno 17342 bound_to 10162
  139.6059  144.1198  152.2248 LP  0  0  0  0  0  0  0  0  0  0  0  0  # atno 17343 bound_to 10162
  155.9677  130.4253  150.4646 LP  0  0  0  0  0  0  0  0  0  0  0  0  # atno 17370 bound_to 10713
  157.2644  131.0574  151.2300 LP  0  0  0  0  0  0  0  0  0  0  0  0  # atno 17371 bound_to 10713
  140.8015  134.3503  157.5438 LP  0  0  0  0  0  0  0  0  0  0  0  0  # atno 17394 bound_to 11000
  139.8771  134.9201  156.3242 LP  0  0  0  0  0  0  0  0  0  0  0  0  # atno 17395 bound_to 11000

$$$$
