AV-unprocessed.smi:1662|AV-procd|sdf|6657|dock10
  -GOLD-   22720 7363D 1   1.00000     0.00000
 Structure written by MMmdl.
 47 48  0  0  0  0  0  0  0  0  1 V2000
  153.0432  138.8128  154.5984 C   0  0  0  0  0  0  0  0  0  0  0  0
  152.4461  138.3335  155.8940 C   0  0  0  0  0  0  0  0  0  0  0  0
  153.1651  138.4874  156.9570 N   0  0  0  0  0  0  0  0  0  0  0  0
  152.7125  138.0799  158.1972 N   0  0  0  0  0  0  0  0  0  0  0  0
  153.6691  138.3091  159.2905 C   0  0  0  0  0  0  0  0  0  0  0  0
  153.7944  139.7865  159.6915 C   0  0  0  0  0  0  0  0  0  0  0  0
  154.7665  140.1843  160.3353 O   0  0  0  0  0  0  0  0  0  0  0  0
  152.8018  140.5904  159.2781 N   0  0  0  0  0  0  0  0  0  0  0  0
  152.6914  142.0248  159.5421 C   0  0  2  0  0  0  0  0  0  0  0  0
  152.7343  142.2474  161.0661 C   0  0  0  0  0  0  0  0  0  0  0  0
  152.5525  143.7262  161.4350 C   0  0  0  0  0  0  0  0  0  0  0  0
  151.2591  144.2929  160.8287 C   0  0  0  0  0  0  0  0  0  0  0  0
  151.2001  144.1033  159.2993 C   0  0  1  0  0  0  0  0  0  0  0  0
  152.1653  145.0609  158.5708 C   0  0  0  0  0  0  0  0  0  0  0  0
  151.3896  142.6074  158.9295 C   0  0  1  0  0  0  0  0  0  0  0  0
  151.2666  142.3598  157.4129 C   0  0  0  0  0  0  0  0  0  0  0  0
  151.4972  137.5049  158.4297 C   0  0  0  0  0  0  0  0  0  0  0  0
  151.1289  137.1664  159.5556 O   0  0  0  0  0  0  0  0  0  0  0  0
  150.6888  137.3320  157.2207 C   0  0  0  0  0  0  0  0  0  0  0  0
  149.4116  136.7264  157.4187 C   0  0  0  0  0  0  0  0  0  0  0  0
  148.3824  136.2274  157.5973 N   0  0  0  0  0  0  0  0  0  0  0  0
  151.1258  137.7203  155.9965 C   0  0  0  0  0  0  0  0  0  0  0  0
  150.3259  137.5626  154.7106 C   0  0  0  0  0  0  0  0  0  0  0  0
  152.4102  139.5711  154.1374 H   0  0  0  0  0  0  0  0  0  0  0  0
  153.1519  137.9879  153.8940 H   0  0  0  0  0  0  0  0  0  0  0  0
  154.0308  139.2539  154.7437 H   0  0  0  0  0  0  0  0  0  0  0  0
  153.3729  137.7440  160.1762 H   0  0  0  0  0  0  0  0  0  0  0  0
  154.6511  137.9220  159.0119 H   0  0  0  0  0  0  0  0  0  0  0  0
  152.0523  140.1725  158.7459 H   0  0  0  0  0  0  0  0  0  0  0  0
  153.5454  142.5458  159.1068 H   0  0  0  0  0  0  0  0  0  0  0  0
  151.9498  141.6606  161.5465 H   0  0  0  0  0  0  0  0  0  0  0  0
  153.6803  141.8843  161.4697 H   0  0  0  0  0  0  0  0  0  0  0  0
  152.5302  143.8354  162.5197 H   0  0  0  0  0  0  0  0  0  0  0  0
  153.4119  144.3006  161.0887 H   0  0  0  0  0  0  0  0  0  0  0  0
  150.4046  143.7916  161.2854 H   0  0  0  0  0  0  0  0  0  0  0  0
  151.1595  145.3484  161.0838 H   0  0  0  0  0  0  0  0  0  0  0  0
  150.1952  144.3908  158.9869 H   0  0  0  0  0  0  0  0  0  0  0  0
  153.2101  144.8267  158.7721 H   0  0  0  0  0  0  0  0  0  0  0  0
  151.9961  146.0921  158.8814 H   0  0  0  0  0  0  0  0  0  0  0  0
  152.0217  145.0290  157.4911 H   0  0  0  0  0  0  0  0  0  0  0  0
  150.5566  142.0723  159.3890 H   0  0  0  0  0  0  0  0  0  0  0  0
  152.1319  142.7431  156.8717 H   0  0  0  0  0  0  0  0  0  0  0  0
  150.3766  142.8409  157.0072 H   0  0  0  0  0  0  0  0  0  0  0  0
  151.1857  141.2964  157.1874 H   0  0  0  0  0  0  0  0  0  0  0  0
  149.3595  137.0892  154.8805 H   0  0  0  0  0  0  0  0  0  0  0  0
  150.8700  136.9459  153.9945 H   0  0  0  0  0  0  0  0  0  0  0  0
  150.1384  138.5354  154.2551 H   0  0  0  0  0  0  0  0  0  0  0  0
  1  2  1  0  0  0  0
  1 24  1  0  0  0  0
  1 25  1  0  0  0  0
  1 26  1  0  0  0  0
  2 22  1  0  0  0  0
  2  3  2  0  0  0  0
  3  4  1  0  0  0  0
  4  5  1  0  0  0  0
  4 17  1  0  0  0  0
  5  6  1  0  0  0  0
  5 27  1  0  0  0  0
  5 28  1  0  0  0  0
  6  7  2  0  0  0  0
  6  8  1  0  0  0  0
  8  9  1  0  0  0  0
  8 29  1  0  0  0  0
  9 15  1  0  0  0  0
  9 10  1  0  0  0  0
  9 30  1  0  0  0  0
 10 11  1  0  0  0  0
 10 31  1  0  0  0  0
 10 32  1  0  0  0  0
 11 12  1  0  0  0  0
 11 33  1  0  0  0  0
 11 34  1  0  0  0  0
 12 13  1  0  0  0  0
 12 35  1  0  0  0  0
 12 36  1  0  0  0  0
 13 14  1  0  0  0  0
 13 15  1  0  0  0  0
 13 37  1  0  0  0  0
 14 38  1  0  0  0  0
 14 39  1  0  0  0  0
 14 40  1  0  0  0  0
 15 16  1  0  0  0  0
 15 41  1  0  0  0  0
 16 42  1  0  0  0  0
 16 43  1  0  0  0  0
 16 44  1  0  0  0  0
 17 18  2  0  0  0  0
 17 19  1  0  0  0  0
 19 20  1  0  0  0  0
 19 22  2  0  0  0  0
 20 21  3  0  0  0  0
 22 23  1  0  0  0  0
 23 45  1  0  0  0  0
 23 46  1  0  0  0  0
 23 47  1  0  0  0  0
M  END
> <s_m_source_file>
AV-unprocessed.smi

> <i_m_source_file_index>
1662

> <i_lp_mmshare_version>
43012

> <i_f3d_flags>
0

> <s_epik_input>
TiNDYyhjMVtDSDNdKWMoPU8pbihuYzFbQ0gzXSlbQ0gyXUMoPU8pW05IXVtDQEBIXTJbQ0gyXVtDSDJdW0NIMl1bQ0BASF0oW0NIM10pW0NASF0yW0NIM10=

> <s_epik_cmdline>
J2VwaWtfcHl0aG9uJywgJy1waCcsICc3LjAnLCAnLXRuJywgJzgnLCAnLW1hJywgJzIwMCcsICctbWV0YWxfYmluZGluZycsICctaW1hZScsICc8aW5maWxlLm1hZT4nLCAnLW9tYWUnLCAnPG91dGZpbGUubWFlPic=

> <r_lp_tautomer_probability>
1

> <r_epik_Ionization_Penalty>
1.90709e-08

> <r_epik_Ionization_Penalty_Charging>
2.37982e-11

> <r_epik_Ionization_Penalty_Neutral>
1.90471e-08

> <r_epik_State_Penalty>
-0

> <r_epik_Charging_Adjusted_Penalty>
2.37982e-11

> <i_epik_Tot_Q>
0

> <i_epik_Tot_abs_Q>
0

> <r_epik_Metal_State_Penalty>
-0

> <b_epik_Metal_Only>
0

> <s_lp_Force_Field>
OPLS_2005

> <r_lp_Energy>
29.144

> <b_lp_Chiralities_Consistent>
1

> <s_lp_Variant>
AV-unprocessed.smi:1662-1

> <Gold.Version>
5.8.1

> <Gold.Id.Protein>
6NUR|6NUR_protein|mol2

> <Gold.PLP.Fitness>
46.9039

> <Gold.PLP.PLP>
-41.7344

> <Gold.PLP.part.hbond>
-2.0000

> <Gold.PLP.part.metal>
0.0000

> <Gold.PLP.part.buried>
-6.8781

> <Gold.PLP.part.nonpolar>
-33.1712

> <Gold.PLP.part.repulsive>
0.1141

> <Gold.PLP.ligand.clash>
0.0000

> <Gold.PLP.ligand.torsion>
0.4046

> <Gold.PLP.Chemscore.Hbond>
1.9913

> <Gold.PLP.Chemscore.CHOScore>
0.0000

> <Gold.PLP.Chemscore.Metal>
0.0000

> <Gold.Chemscore.Hbonds>
donor molecule, donor type, donor heavy atom, donor atom, acceptor molecule, acceptor atom, score
      P1  H  6896  6908       L1    18  0.93
      P1  H  7997  8010       L1     3  1.00

> <Gold.PLP.Chemscore.Internal.Correction>
0.0049

> <Gold.Rescore>
     Score         DG    S(hbond)    S(metal)    S(lipo)     H(rot)  DE(clash)    DE(int)     intcor
     20.92     -22.04       1.84        0.00     120.83       1.45       0.01       1.11       ----

> <Gold.Chemscore.Fitness>
20.9191

> <Gold.Chemscore.DG>
-22.0369

> <Gold.Chemscore.ZeroCoef>
-5.4800

> <Gold.Chemscore.Hbond>
1.8361

> <Gold.Chemscore.Metal>
0.0000

> <Gold.Chemscore.Lipo>
120.8313

> <Gold.Chemscore.Internal_Hbond>
0.0000

> <Gold.Chemscore.DEClash>
0.0111

> <Gold.Chemscore.DEInternal>
1.1067

> <Gold.Chemscore.Rot>
1.4504

> <Gold.Chemscore.Internal.Correction>
   9.000000E+99

> <Gold.Chemscore.Hbonds>
donor molecule, donor type, donor heavy atom, donor atom, acceptor molecule, acceptor atom, score
      P1  H  6896  6908       L1    18  0.78
      P1  H  7997  8010       L1     3  0.76

> <Gold.Chemscore.Hbond.Weighted>
-6.1326

> <Gold.Chemscore.Metal.Weighted>
-0.0000

> <Gold.Chemscore.Lipo.Weighted>
-14.1373

> <Gold.Chemscore.Internal_Hbond.Weighted>
0.0000

> <Gold.Chemscore.DEClash.Weighted>
0.0111

> <Gold.Chemscore.DEInternal.Weighted>
1.1067

> <Gold.Chemscore.Rot.Weighted>
3.7129

> <Gold.Chemscore.Internal.Correction.Weighted>
   9.000000E+99

> <Gold.Protein.RotatedTorsions>
[ 6907 6896 6895 6894 ] final -137.51 input  -60.11 | X-H torsion
[ 7974 7965 7964 7962 ] final  133.34 input  175.53 | X-H torsion
[ 8008 7997 7996 7995 ] final   45.76 input   59.86 | X-H torsion
[ 10167 10162 10161 10158 ] final -150.00 input  -65.29 | X-H torsion
[ 10718 10713 10712 10709 ] final    3.54 input   66.30 | X-H torsion
[ 10763 10752 10751 10750 ] final  150.70 input  -60.55 | X-H torsion
[ 11005 11000 10999 10996 ] final  168.91 input  -57.11 | X-H torsion

> <Gold.Protein.ActiveResidues>
 VAL166  LYS551  ARG553  GLY616  TRP617  ASP618  TYR619  PRO620  LYS621  CYS622 
 ASP623  PHE694  ASN695  SER759  ASP760  ASP761  ALA762  ILE779  LEU786  VAL792 
 PHE793  MET794  SER795  GLU796  ALA797  LYS798  CYS799  TRP800  GLU811  SER814 

> <Gold.Protein.RotatedAtoms>
  151.0234  133.5856  159.2668 H   0  0  0  0  0  0  0  0  0  0  0  0  # atno 6907 bound_to 6896
  151.2964  135.0755  159.9233 H   0  0  0  0  0  0  0  0  0  0  0  0  # atno 6908 bound_to 6896
  152.5328  133.9923  159.7910 H   0  0  0  0  0  0  0  0  0  0  0  0  # atno 6909 bound_to 6896
  144.9875  139.4440  143.5356 H   0  0  0  0  0  0  0  0  0  0  0  0  # atno 7974 bound_to 7965
  155.3413  140.3408  155.4239 H   0  0  0  0  0  0  0  0  0  0  0  0  # atno 8008 bound_to 7997
  156.1812  140.1664  156.8307 H   0  0  0  0  0  0  0  0  0  0  0  0  # atno 8009 bound_to 7997
  154.5335  140.0740  156.8370 H   0  0  0  0  0  0  0  0  0  0  0  0  # atno 8010 bound_to 7997
  139.7392  143.8688  152.2557 H   0  0  0  0  0  0  0  0  0  0  0  0  # atno 10167 bound_to 10162
  156.8794  130.5648  149.5653 H   0  0  0  0  0  0  0  0  0  0  0  0  # atno 10718 bound_to 10713
  154.0918  135.2852  155.3270 H   0  0  0  0  0  0  0  0  0  0  0  0  # atno 10763 bound_to 10752
  154.6615  135.5333  153.8027 H   0  0  0  0  0  0  0  0  0  0  0  0  # atno 10764 bound_to 10752
  153.0410  135.6535  154.1087 H   0  0  0  0  0  0  0  0  0  0  0  0  # atno 10765 bound_to 10752
  140.2922  134.7664  157.3847 H   0  0  0  0  0  0  0  0  0  0  0  0  # atno 11005 bound_to 11000
  146.3423  139.9186  142.8770 LP  0  0  0  0  0  0  0  0  0  0  0  0  # atno 17320 bound_to 7965
  145.2333  140.9981  143.3978 LP  0  0  0  0  0  0  0  0  0  0  0  0  # atno 17321 bound_to 7965
  139.8633  144.7106  150.9073 LP  0  0  0  0  0  0  0  0  0  0  0  0  # atno 17342 bound_to 10162
  140.7783  143.3799  151.1496 LP  0  0  0  0  0  0  0  0  0  0  0  0  # atno 17343 bound_to 10162
  156.0685  130.5723  150.9337 LP  0  0  0  0  0  0  0  0  0  0  0  0  # atno 17370 bound_to 10713
  157.6149  131.0934  150.8728 LP  0  0  0  0  0  0  0  0  0  0  0  0  # atno 17371 bound_to 10713
  140.1185  134.5251  155.8204 LP  0  0  0  0  0  0  0  0  0  0  0  0  # atno 17394 bound_to 11000
  141.2144  133.6748  156.6822 LP  0  0  0  0  0  0  0  0  0  0  0  0  # atno 17395 bound_to 11000

$$$$
