#       Name:                AV-unprocessed.smi:1042
#       Creating user name   scv26
#       Creation time:       Fri Mar 27 02:56:34 2020


#       File generated by GOLD software.
#

@<TRIPOS>MOLECULE
AV-unprocessed.smi:1042
    43    45     1
SMALL
NO_CHARGES


@<TRIPOS>ATOM
      1 ****        -0.3404   2.5140  -0.5478 O.2            1 S1                 0.0000
      2 ****        -0.8124   1.6217  -1.2527 C.2            1 S1                 0.0000
      3 ****        -0.0652   0.6812  -1.8491 N.am           1 S1                 0.0000
      4 ****         1.3889   0.5855  -1.7641 C.3            1 S1                 0.0000
      5 ****         1.8666   0.0759  -0.3900 C.3            1 S1                 0.0000
      6 ****         3.3781  -0.1011  -0.2838 C.3            1 S1                 0.0000
      7 ****         3.5162  -1.0217   0.9257 C.3            1 S1                 0.0000
      8 ****         2.3623  -1.9435   0.8530 N.4            1 S1                 1.0000
      9 ****         1.8782  -2.4022   2.1726 C.3            1 S1                 0.0000
     10 ****         2.6533  -3.5732   2.7277 C.3            1 S1                 0.0000
     11 ****         1.2726  -3.7850   2.1447 C.3            1 S1                 0.0000
     12 ****         1.3216  -1.3021   0.0152 C.3            1 S1                 0.0000
     13 ****        -2.1178   1.4542  -1.5283 N.am           1 S1                 0.0000
     14 ****        -3.2187   2.2186  -1.0581 C.ar           1 S1                 0.0000
     15 ****        -4.4793   1.8244  -1.5607 C.ar           1 S1                 0.0000
     16 ****        -5.6354   2.5181  -1.1532 C.ar           1 S1                 0.0000
     17 ****        -5.5011   3.5874  -0.2501 C.ar           1 S1                 0.0000
     18 ****        -4.2098   3.9141   0.2034 C.ar           1 S1                 0.0000
     19 ****        -3.1004   3.2512  -0.1866 N.ar           1 S1                 0.0000
     20 ****        -0.5347  -0.0089  -2.4171 H              1 S1                 0.0000
     21 ****         1.7266  -0.0891  -2.5514 H              1 S1                 0.0000
     22 ****         1.8330   1.5585  -1.9808 H              1 S1                 0.0000
     23 ****         1.5710   0.7920   0.3789 H              1 S1                 0.0000
     24 ****         3.7691  -0.5946  -1.1750 H              1 S1                 0.0000
     25 ****         3.9084   0.8435  -0.1587 H              1 S1                 0.0000
     26 ****         4.4617  -1.5645   0.9361 H              1 S1                 0.0000
     27 ****         3.4598  -0.4284   1.8401 H              1 S1                 0.0000
     28 ****         1.4802  -1.6369   2.8371 H              1 S1                 0.0000
     29 ****         3.5026  -3.9461   2.1579 H              1 S1                 0.0000
     30 ****         2.7535  -3.6417   3.8091 H              1 S1                 0.0000
     31 ****         0.4642  -3.9938   2.8423 H              1 S1                 0.0000
     32 ****         1.2041  -4.2985   1.1872 H              1 S1                 0.0000
     33 ****         0.3646  -1.2120   0.5321 H              1 S1                 0.0000
     34 ****         1.1619  -1.9319  -0.8609 H              1 S1                 0.0000
     35 ****        -2.3536   0.6881  -2.1414 H              1 S1                 0.0000
     36 ****        -4.5651   1.0000  -2.2538 H              1 S1                 0.0000
     37 ****        -6.6079   2.2336  -1.5272 H              1 S1                 0.0000
     38 ****        -6.3641   4.1430   0.0859 H              1 S1                 0.0000
     39 ****        -4.0633   4.7286   0.8971 H              1 S1                 0.0000
     40 ****         2.6715  -2.7593   0.3441 H              1 S1                 0.0000
     41 ****         0.6469   2.5622  -0.3965 LP             1 S1                 0.0000
     42 ****        -0.9444   3.1906  -0.1265 LP             1 S1                 0.0000
     43 ****        -2.2023   3.5182   0.1628 LP             1 S1                 0.0000
@<TRIPOS>BOND
    1    1    2 2     
    2    2    3 am    
    3    2   13 am    
    4    3    4 1     
    5    3   20 1     
    6    4    5 1     
    7    4   21 1     
    8    4   22 1     
    9    5   12 1     
   10    5    6 1     
   11    5   23 1     
   12    6    7 1     
   13    6   24 1     
   14    6   25 1     
   15    7    8 1     
   16    7   26 1     
   17    7   27 1     
   18    8    9 1     
   19    8   12 1     
   20    8   40 1     
   21    9   11 1     
   22    9   10 1     
   23    9   28 1     
   24   10   11 1     
   25   10   29 1     
   26   10   30 1     
   27   11   31 1     
   28   11   32 1     
   29   12   33 1     
   30   12   34 1     
   31   13   14 1     
   32   13   35 1     
   33   14   19 ar    
   34   14   15 ar    
   35   15   16 ar    
   36   15   36 1     
   37   16   17 ar    
   38   16   37 1     
   39   17   18 ar    
   40   17   38 1     
   41   18   19 ar    
   42   18   39 1     
   43    1   41 1     
   44    1   42 1     
   45   19   43 1     
@<TRIPOS>SUBSTRUCTURE
      1 S1             1
@<TRIPOS>SET
LONE_PAIRS      STATIC     ATOMS    <user>   **** ""
3 41 42 43
DONOR_HYDROGENS      STATIC     ATOMS    <user>   **** ""
3 20 40 35
ATOM$BLUE        STATIC     ATOMS    COLORGROUP SYSTEM
3 41 42 43
ATOM$RED        STATIC     ATOMS    COLORGROUP SYSTEM
3 20 40 35
