AV-unprocessed.smi:1805|AV-procd|sdf|7298|dock2
  -GOLD-   22720 8553D 1   1.00000     0.00000
 Structure written by MMmdl.
 29 30  0  0  0  0  0  0  0  0  1 V2000
  151.1582  140.8068  155.6081 O   0  0  0  0  0  0  0  0  0  0  0  0
  150.3428  141.7284  155.6488 C   0  0  0  0  0  0  0  0  0  0  0  0
  150.5415  142.8678  156.3266 N   0  0  0  0  0  0  0  0  0  0  0  0
  151.7296  143.1904  157.1106 C   0  0  0  0  0  0  0  0  0  0  0  0
  151.3724  143.5864  158.5533 C   0  0  1  0  0  0  0  0  0  0  0  0
  152.4992  143.4148  159.5729 C   0  0  0  0  0  0  0  0  0  0  0  0
  152.0936  144.4041  160.6409 C   0  0  0  0  0  0  0  0  0  0  0  0
  151.5502  145.5576  159.8029 C   0  0  0  0  0  0  0  0  0  0  0  0
  151.0313  144.9689  158.6125 O   0  0  0  0  0  0  0  0  0  0  0  0
  149.1481  141.7291  155.0354 N   0  0  0  0  0  0  0  0  0  0  0  0
  148.5958  140.7052  154.2247 C   0  0  0  0  0  0  0  0  0  0  0  0
  147.3674  140.8072  153.5172 C   0  0  0  0  0  0  0  0  0  0  0  0
  147.1047  139.6975  152.8416 N   0  0  0  0  0  0  0  0  0  0  0  0
  148.1551  138.8891  153.1095 N   0  0  0  0  0  0  0  0  0  0  0  0
  149.0875  139.4605  153.9468 C   0  0  0  0  0  0  0  0  0  0  0  0
  148.2210  137.9608  152.7168 H   0  0  0  0  0  0  0  0  0  0  0  0
  149.8135  143.5666  156.3028 H   0  0  0  0  0  0  0  0  0  0  0  0
  152.4422  142.3640  157.1060 H   0  0  0  0  0  0  0  0  0  0  0  0
  152.2307  144.0253  156.6205 H   0  0  0  0  0  0  0  0  0  0  0  0
  150.4990  143.0238  158.8876 H   0  0  0  0  0  0  0  0  0  0  0  0
  152.5872  142.3939  159.9456 H   0  0  0  0  0  0  0  0  0  0  0  0
  153.4579  143.7063  159.1414 H   0  0  0  0  0  0  0  0  0  0  0  0
  151.3009  143.9824  161.2603 H   0  0  0  0  0  0  0  0  0  0  0  0
  152.9175  144.6991  161.2909 H   0  0  0  0  0  0  0  0  0  0  0  0
  150.7869  146.1302  160.3300 H   0  0  0  0  0  0  0  0  0  0  0  0
  152.3553  146.2397  159.5270 H   0  0  0  0  0  0  0  0  0  0  0  0
  148.5725  142.5489  155.1606 H   0  0  0  0  0  0  0  0  0  0  0  0
  146.6714  141.6320  153.4724 H   0  0  0  0  0  0  0  0  0  0  0  0
  149.9841  138.9423  154.2531 H   0  0  0  0  0  0  0  0  0  0  0  0
  1  2  2  0  0  0  0
  2  3  1  0  0  0  0
  2 10  1  0  0  0  0
  3  4  1  0  0  0  0
  3 17  1  0  0  0  0
  4  5  1  0  0  0  0
  4 18  1  0  0  0  0
  4 19  1  0  0  0  0
  5  9  1  0  0  0  0
  5  6  1  0  0  0  0
  5 20  1  0  0  0  0
  6  7  1  0  0  0  0
  6 21  1  0  0  0  0
  6 22  1  0  0  0  0
  7  8  1  0  0  0  0
  7 23  1  0  0  0  0
  7 24  1  0  0  0  0
  8  9  1  0  0  0  0
  8 25  1  0  0  0  0
  8 26  1  0  0  0  0
 10 11  1  0  0  0  0
 10 27  1  0  0  0  0
 11 15  2  0  0  0  0
 11 12  1  0  0  0  0
 12 13  2  0  0  0  0
 12 28  1  0  0  0  0
 13 14  1  0  0  0  0
 14 16  1  0  0  0  0
 14 15  1  0  0  0  0
 15 29  1  0  0  0  0
M  END
> <s_m_source_file>
AV-unprocessed.smi

> <i_m_source_file_index>
1805

> <i_lp_mmshare_version>
43012

> <i_f3d_flags>
0

> <s_epik_input>
W2NIXTFbbkhdbltjSF1jMVtOSF1DKD1PKVtOSF1bQ0gyXVtDQEBIXTJbQ0gyXVtDSDJdW0NIMl1PMg==

> <s_epik_cmdline>
J2VwaWtfcHl0aG9uJywgJy1waCcsICc3LjAnLCAnLXRuJywgJzgnLCAnLW1hJywgJzIwMCcsICctbWV0YWxfYmluZGluZycsICctaW1hZScsICc8aW5maWxlLm1hZT4nLCAnLW9tYWUnLCAnPG91dGZpbGUubWFlPic=

> <r_lp_tautomer_probability>
1

> <r_epik_Ionization_Penalty>
4.81496e-05

> <r_epik_Ionization_Penalty_Charging>
0

> <r_epik_Ionization_Penalty_Neutral>
4.81496e-05

> <r_epik_State_Penalty>
-0

> <r_epik_Charging_Adjusted_Penalty>
0

> <i_epik_Tot_Q>
0

> <i_epik_Tot_abs_Q>
0

> <r_epik_Metal_State_Penalty>
-0

> <b_epik_Metal_Only>
0

> <s_lp_Force_Field>
OPLS_2005

> <r_lp_Energy>
19.2876

> <b_lp_Chiralities_Consistent>
1

> <s_lp_Variant>
AV-unprocessed.smi:1805-2

> <Gold.Version>
5.8.1

> <Gold.Id.Protein>
6NUR|6NUR_protein|mol2

> <Gold.PLP.Fitness>
39.8843

> <Gold.PLP.PLP>
-31.8263

> <Gold.PLP.part.hbond>
-4.9105

> <Gold.PLP.part.metal>
0.0000

> <Gold.PLP.part.buried>
-4.2171

> <Gold.PLP.part.nonpolar>
-23.0559

> <Gold.PLP.part.repulsive>
1.4686

> <Gold.PLP.ligand.clash>
0.0000

> <Gold.PLP.ligand.torsion>
0.2736

> <Gold.PLP.Chemscore.Hbond>
2.8680

> <Gold.PLP.Chemscore.CHOScore>
0.0000

> <Gold.PLP.Chemscore.Metal>
0.0000

> <Gold.Chemscore.Hbonds>
donor molecule, donor type, donor heavy atom, donor atom, acceptor molecule, acceptor atom, score
      L1  H     3    17       P1  8028  1.00
      L1  H    10    27       P1  8028  0.37
      L1  H    14    16       P1  7948  0.96
      P1  H  7989  7998       L1     1  0.50

> <Gold.PLP.Chemscore.Internal.Correction>
0.0011

> <Gold.Rescore>
     Score         DG    S(hbond)    S(metal)    S(lipo)     H(rot)  DE(clash)    DE(int)     intcor
     16.17     -18.91       2.24        0.00      79.79       1.33       1.38       1.35       ----

> <Gold.Chemscore.Fitness>
16.1715

> <Gold.Chemscore.DG>
-18.9061

> <Gold.Chemscore.ZeroCoef>
-5.4800

> <Gold.Chemscore.Hbond>
2.2447

> <Gold.Chemscore.Metal>
0.0000

> <Gold.Chemscore.Lipo>
79.7862

> <Gold.Chemscore.Internal_Hbond>
0.0000

> <Gold.Chemscore.DEClash>
1.3836

> <Gold.Chemscore.DEInternal>
1.3510

> <Gold.Chemscore.Rot>
1.3306

> <Gold.Chemscore.Internal.Correction>
   9.000000E+99

> <Gold.Chemscore.Hbonds>
donor molecule, donor type, donor heavy atom, donor atom, acceptor molecule, acceptor atom, score
      L1  H     3    17       P1  8028  0.98
      L1  H    10    27       P1  8028  0.36
      L1  H    14    16       P1  7948  0.91
      P1  H  7989  7998       L1     1  0.11

> <Gold.Chemscore.Hbond.Weighted>
-7.4973

> <Gold.Chemscore.Metal.Weighted>
-0.0000

> <Gold.Chemscore.Lipo.Weighted>
-9.3350

> <Gold.Chemscore.Internal_Hbond.Weighted>
0.0000

> <Gold.Chemscore.DEClash.Weighted>
1.3836

> <Gold.Chemscore.DEInternal.Weighted>
1.3510

> <Gold.Chemscore.Rot.Weighted>
3.4063

> <Gold.Chemscore.Internal.Correction.Weighted>
   9.000000E+99

> <Gold.Protein.RotatedTorsions>
[ 6907 6896 6895 6894 ] final   77.94 input  -60.11 | X-H torsion
[ 7974 7965 7964 7962 ] final -161.12 input  175.53 | X-H torsion
[ 8008 7997 7996 7995 ] final -159.81 input   59.86 | X-H torsion
[ 10167 10162 10161 10158 ] final  161.85 input  -65.29 | X-H torsion
[ 10718 10713 10712 10709 ] final -124.18 input   66.30 | X-H torsion
[ 10763 10752 10751 10750 ] final  -48.63 input  -60.55 | X-H torsion
[ 11005 11000 10999 10996 ] final  152.56 input  -57.11 | X-H torsion

> <Gold.Protein.ActiveResidues>
 VAL166  LYS551  ARG553  GLY616  TRP617  ASP618  TYR619  PRO620  LYS621  CYS622 
 ASP623  PHE694  ASN695  SER759  ASP760  ASP761  ALA762  ILE779  LEU786  VAL792 
 PHE793  MET794  SER795  GLU796  ALA797  LYS798  CYS799  TRP800  GLU811  SER814 

> <Gold.Protein.RotatedAtoms>
  152.5139  134.3740  159.9327 H   0  0  0  0  0  0  0  0  0  0  0  0  # atno 6907 bound_to 6896
  151.3695  133.3853  159.2706 H   0  0  0  0  0  0  0  0  0  0  0  0  # atno 6908 bound_to 6896
  150.9588  134.8999  159.7776 H   0  0  0  0  0  0  0  0  0  0  0  0  # atno 6909 bound_to 6896
  144.7402  140.3444  143.6128 H   0  0  0  0  0  0  0  0  0  0  0  0  # atno 7974 bound_to 7965
  155.7681  140.0848  157.2122 H   0  0  0  0  0  0  0  0  0  0  0  0  # atno 8008 bound_to 7997
  154.3998  140.1530  156.2967 H   0  0  0  0  0  0  0  0  0  0  0  0  # atno 8009 bound_to 7997
  155.8774  140.3422  155.5866 H   0  0  0  0  0  0  0  0  0  0  0  0  # atno 8010 bound_to 7997
  139.4854  144.4495  151.8848 H   0  0  0  0  0  0  0  0  0  0  0  0  # atno 10167 bound_to 10162
  156.1565  130.6572  150.9989 H   0  0  0  0  0  0  0  0  0  0  0  0  # atno 10718 bound_to 10713
  154.0809  135.6591  153.4837 H   0  0  0  0  0  0  0  0  0  0  0  0  # atno 10763 bound_to 10752
  153.0356  135.5179  154.7475 H   0  0  0  0  0  0  0  0  0  0  0  0  # atno 10764 bound_to 10752
  154.6570  135.3009  154.9884 H   0  0  0  0  0  0  0  0  0  0  0  0  # atno 10765 bound_to 10752
  140.1319  134.8796  157.2215 H   0  0  0  0  0  0  0  0  0  0  0  0  # atno 11005 bound_to 11000
  145.7341  139.1745  143.2413 LP  0  0  0  0  0  0  0  0  0  0  0  0  # atno 17320 bound_to 7965
  146.1184  140.7341  142.9469 LP  0  0  0  0  0  0  0  0  0  0  0  0  # atno 17321 bound_to 7965
  140.3951  144.2565  150.5896 LP  0  0  0  0  0  0  0  0  0  0  0  0  # atno 17342 bound_to 10162
  140.5109  143.2291  151.8536 LP  0  0  0  0  0  0  0  0  0  0  0  0  # atno 17343 bound_to 10162
  157.6699  131.0863  150.7638 LP  0  0  0  0  0  0  0  0  0  0  0  0  # atno 17370 bound_to 10713
  156.7703  130.4826  149.5420 LP  0  0  0  0  0  0  0  0  0  0  0  0  # atno 17371 bound_to 10713
  140.2832  134.3326  155.7337 LP  0  0  0  0  0  0  0  0  0  0  0  0  # atno 17394 bound_to 11000
  141.2171  133.7490  156.9394 LP  0  0  0  0  0  0  0  0  0  0  0  0  # atno 17395 bound_to 11000

$$$$
