AV-unprocessed.smi:1210|AV-procd|sdf|5077|dock9
  -GOLD-   22720 4123D 1   1.00000     0.00000
 Structure written by MMmdl.
 44 45  0  0  0  0  0  0  0  0  1 V2000
  149.0069  138.6456  157.3930 C   0  0  0  0  0  0  0  0  0  0  0  0
  149.5128  137.2370  157.2672 C   0  0  0  0  0  0  0  0  0  0  0  0
  149.2728  136.3713  158.2377 N   0  0  0  0  0  0  0  0  0  0  0  0
  149.8524  135.1664  157.8286 O   0  0  0  0  0  0  0  0  0  0  0  0
  150.4233  135.3559  156.6120 C   0  0  0  0  0  0  0  0  0  0  0  0
  151.0964  134.1769  155.9948 C   0  0  0  0  0  0  0  0  0  0  0  0
  150.2460  136.6470  156.1968 C   0  0  0  0  0  0  0  0  0  0  0  0
  150.7089  137.2908  154.9150 C   0  0  0  0  0  0  0  0  0  0  0  0
  151.0781  138.7507  155.1776 C   0  0  0  0  0  0  0  0  0  0  0  0
  150.7181  139.6284  154.3930 O   0  0  0  0  0  0  0  0  0  0  0  0
  151.7808  138.9978  156.2935 N   0  0  0  0  0  0  0  0  0  0  0  0
  152.1806  140.3198  156.7570 C   0  0  0  0  0  0  0  0  0  0  0  0
  151.8574  140.5097  158.2507 C   0  0  0  0  0  0  0  0  0  0  0  0
  152.2158  141.8598  158.7087 N   0  0  0  0  0  0  0  0  0  0  0  0
  153.1079  141.9204  159.8768 C   0  0  0  0  0  0  0  0  0  0  0  0
  152.4396  142.5732  161.1027 C   0  0  0  0  0  0  0  0  0  0  0  0
  152.4488  144.1091  161.0763 C   0  0  0  0  0  0  0  0  0  0  0  0
  151.6492  144.7277  159.9208 C   0  0  0  0  0  0  0  0  0  0  0  0
  152.1947  144.3477  158.5346 C   0  0  0  0  0  0  0  0  0  0  0  0
  151.7336  142.9577  158.0784 C   0  0  0  0  0  0  0  0  0  0  0  0
  150.9470  142.8882  157.1331 O   0  0  0  0  0  0  0  0  0  0  0  0
  148.0440  138.7577  156.8943 H   0  0  0  0  0  0  0  0  0  0  0  0
  149.6994  139.3544  156.9392 H   0  0  0  0  0  0  0  0  0  0  0  0
  148.8771  138.9348  158.4365 H   0  0  0  0  0  0  0  0  0  0  0  0
  150.7066  133.9917  154.9939 H   0  0  0  0  0  0  0  0  0  0  0  0
  150.9396  133.2773  156.5901 H   0  0  0  0  0  0  0  0  0  0  0  0
  152.1703  134.3452  155.9139 H   0  0  0  0  0  0  0  0  0  0  0  0
  151.5635  136.7610  154.4926 H   0  0  0  0  0  0  0  0  0  0  0  0
  149.9309  137.2632  154.1512 H   0  0  0  0  0  0  0  0  0  0  0  0
  152.0347  138.2143  156.8776 H   0  0  0  0  0  0  0  0  0  0  0  0
  153.2525  140.4207  156.5850 H   0  0  0  0  0  0  0  0  0  0  0  0
  151.6963  141.0931  156.1581 H   0  0  0  0  0  0  0  0  0  0  0  0
  150.8020  140.3052  158.4351 H   0  0  0  0  0  0  0  0  0  0  0  0
  152.3886  139.7612  158.8418 H   0  0  0  0  0  0  0  0  0  0  0  0
  153.4151  140.9155  160.1674 H   0  0  0  0  0  0  0  0  0  0  0  0
  154.0332  142.4362  159.6173 H   0  0  0  0  0  0  0  0  0  0  0  0
  151.4213  142.2004  161.2214 H   0  0  0  0  0  0  0  0  0  0  0  0
  152.9776  142.2535  161.9957 H   0  0  0  0  0  0  0  0  0  0  0  0
  152.0423  144.4777  162.0185 H   0  0  0  0  0  0  0  0  0  0  0  0
  153.4788  144.4655  161.0372 H   0  0  0  0  0  0  0  0  0  0  0  0
  150.5972  144.4507  160.0048 H   0  0  0  0  0  0  0  0  0  0  0  0
  151.6787  145.8131  160.0225 H   0  0  0  0  0  0  0  0  0  0  0  0
  151.8330  145.0750  157.8063 H   0  0  0  0  0  0  0  0  0  0  0  0
  153.2826  144.4170  158.5052 H   0  0  0  0  0  0  0  0  0  0  0  0
  1  2  1  0  0  0  0
  1 22  1  0  0  0  0
  1 23  1  0  0  0  0
  1 24  1  0  0  0  0
  2  7  1  0  0  0  0
  2  3  2  0  0  0  0
  3  4  1  0  0  0  0
  4  5  1  0  0  0  0
  5  6  1  0  0  0  0
  5  7  2  0  0  0  0
  6 25  1  0  0  0  0
  6 26  1  0  0  0  0
  6 27  1  0  0  0  0
  7  8  1  0  0  0  0
  8  9  1  0  0  0  0
  8 28  1  0  0  0  0
  8 29  1  0  0  0  0
  9 10  2  0  0  0  0
  9 11  1  0  0  0  0
 11 12  1  0  0  0  0
 11 30  1  0  0  0  0
 12 13  1  0  0  0  0
 12 31  1  0  0  0  0
 12 32  1  0  0  0  0
 13 14  1  0  0  0  0
 13 33  1  0  0  0  0
 13 34  1  0  0  0  0
 14 20  1  0  0  0  0
 14 15  1  0  0  0  0
 15 16  1  0  0  0  0
 15 35  1  0  0  0  0
 15 36  1  0  0  0  0
 16 17  1  0  0  0  0
 16 37  1  0  0  0  0
 16 38  1  0  0  0  0
 17 18  1  0  0  0  0
 17 39  1  0  0  0  0
 17 40  1  0  0  0  0
 18 19  1  0  0  0  0
 18 41  1  0  0  0  0
 18 42  1  0  0  0  0
 19 20  1  0  0  0  0
 19 43  1  0  0  0  0
 19 44  1  0  0  0  0
 20 21  2  0  0  0  0
M  END
> <s_m_source_file>
AV-unprocessed.smi

> <i_m_source_file_index>
1210

> <i_lp_mmshare_version>
43012

> <i_f3d_flags>
0

> <s_epik_input>
W0NIM11jMW5vYyhbQ0gzXSljMVtDSDJdQyg9TylbTkhdW0NIMl1bQ0gyXU4yW0NIMl1bQ0gyXVtDSDJdW0NIMl1bQ0gyXUMyPU8=

> <s_epik_cmdline>
J2VwaWtfcHl0aG9uJywgJy1waCcsICc3LjAnLCAnLXRuJywgJzgnLCAnLW1hJywgJzIwMCcsICctbWV0YWxfYmluZGluZycsICctaW1hZScsICc8aW5maWxlLm1hZT4nLCAnLW9tYWUnLCAnPG91dGZpbGUubWFlPic=

> <r_lp_tautomer_probability>
1

> <r_epik_Ionization_Penalty>
5.48219e-08

> <r_epik_Ionization_Penalty_Charging>
0

> <r_epik_Ionization_Penalty_Neutral>
5.48219e-08

> <r_epik_State_Penalty>
-0

> <r_epik_Charging_Adjusted_Penalty>
0

> <i_epik_Tot_Q>
0

> <i_epik_Tot_abs_Q>
0

> <r_epik_Metal_State_Penalty>
-0

> <b_epik_Metal_Only>
0

> <s_lp_Force_Field>
OPLS_2005

> <r_lp_Energy>
11.1007

> <b_lp_Chiralities_Consistent>
1

> <s_lp_Variant>
AV-unprocessed.smi:1210-1

> <Gold.Version>
5.8.1

> <Gold.Id.Protein>
6NUR|6NUR_protein|mol2

> <Gold.PLP.Fitness>
42.5689

> <Gold.PLP.PLP>
-37.9075

> <Gold.PLP.part.hbond>
-2.0000

> <Gold.PLP.part.metal>
0.0000

> <Gold.PLP.part.buried>
-6.3688

> <Gold.PLP.part.nonpolar>
-28.8522

> <Gold.PLP.part.repulsive>
0.3684

> <Gold.PLP.ligand.clash>
0.0000

> <Gold.PLP.ligand.torsion>
0.6706

> <Gold.PLP.Chemscore.Hbond>
1.9920

> <Gold.PLP.Chemscore.CHOScore>
0.0000

> <Gold.PLP.Chemscore.Metal>
0.0000

> <Gold.Chemscore.Hbonds>
donor molecule, donor type, donor heavy atom, donor atom, acceptor molecule, acceptor atom, score
      P1  H  6896  6908       L1     4  0.93
      P1  H  7989  7998       L1    10  1.00

> <Gold.PLP.Chemscore.Internal.Correction>
0.0267

> <Gold.Rescore>
     Score         DG    S(hbond)    S(metal)    S(lipo)     H(rot)  DE(clash)    DE(int)     intcor
     16.13     -17.88       1.87        0.00      91.71       1.79       0.09       1.66       ----

> <Gold.Chemscore.Fitness>
16.1316

> <Gold.Chemscore.DG>
-17.8779

> <Gold.Chemscore.ZeroCoef>
-5.4800

> <Gold.Chemscore.Hbond>
1.8730

> <Gold.Chemscore.Metal>
0.0000

> <Gold.Chemscore.Lipo>
91.7132

> <Gold.Chemscore.Internal_Hbond>
0.0000

> <Gold.Chemscore.DEClash>
0.0874

> <Gold.Chemscore.DEInternal>
1.6589

> <Gold.Chemscore.Rot>
1.7923

> <Gold.Chemscore.Internal.Correction>
   9.000000E+99

> <Gold.Chemscore.Hbonds>
donor molecule, donor type, donor heavy atom, donor atom, acceptor molecule, acceptor atom, score
      P1  H  6896  6908       L1     4  0.45
      P1  H  7989  7998       L1    10  1.00

> <Gold.Chemscore.Hbond.Weighted>
-6.2559

> <Gold.Chemscore.Metal.Weighted>
-0.0000

> <Gold.Chemscore.Lipo.Weighted>
-10.7305

> <Gold.Chemscore.Internal_Hbond.Weighted>
0.0000

> <Gold.Chemscore.DEClash.Weighted>
0.0874

> <Gold.Chemscore.DEInternal.Weighted>
1.6589

> <Gold.Chemscore.Rot.Weighted>
4.5884

> <Gold.Chemscore.Internal.Correction.Weighted>
   9.000000E+99

> <Gold.Protein.RotatedTorsions>
[ 6907 6896 6895 6894 ] final  157.97 input  -60.11 | X-H torsion
[ 7974 7965 7964 7962 ] final   69.58 input  175.53 | X-H torsion
[ 8008 7997 7996 7995 ] final   70.19 input   59.86 | X-H torsion
[ 10167 10162 10161 10158 ] final -156.07 input  -65.29 | X-H torsion
[ 10718 10713 10712 10709 ] final -153.25 input   66.30 | X-H torsion
[ 10763 10752 10751 10750 ] final  -50.63 input  -60.55 | X-H torsion
[ 11005 11000 10999 10996 ] final   24.77 input  -57.11 | X-H torsion

> <Gold.Protein.ActiveResidues>
 VAL166  LYS551  ARG553  GLY616  TRP617  ASP618  TYR619  PRO620  LYS621  CYS622 
 ASP623  PHE694  ASN695  SER759  ASP760  ASP761  ALA762  ILE779  LEU786  VAL792 
 PHE793  MET794  SER795  GLU796  ALA797  LYS798  CYS799  TRP800  GLU811  SER814 

> <Gold.Protein.RotatedAtoms>
  152.0073  133.3848  159.4205 H   0  0  0  0  0  0  0  0  0  0  0  0  # atno 6907 bound_to 6896
  150.6903  134.3769  159.5026 H   0  0  0  0  0  0  0  0  0  0  0  0  # atno 6908 bound_to 6896
  152.1525  134.8977  160.0598 H   0  0  0  0  0  0  0  0  0  0  0  0  # atno 6909 bound_to 6896
  145.7887  139.2923  143.1223 H   0  0  0  0  0  0  0  0  0  0  0  0  # atno 7974 bound_to 7965
  155.7350  140.3491  155.5077 H   0  0  0  0  0  0  0  0  0  0  0  0  # atno 8008 bound_to 7997
  155.9147  140.1056  157.1274 H   0  0  0  0  0  0  0  0  0  0  0  0  # atno 8009 bound_to 7997
  154.4061  140.1261  156.4589 H   0  0  0  0  0  0  0  0  0  0  0  0  # atno 8010 bound_to 7997
  139.6879  143.9469  152.2370 H   0  0  0  0  0  0  0  0  0  0  0  0  # atno 10167 bound_to 10162
  156.4833  130.8313  151.2539 H   0  0  0  0  0  0  0  0  0  0  0  0  # atno 10718 bound_to 10713
  154.1135  135.6545  153.4889 H   0  0  0  0  0  0  0  0  0  0  0  0  # atno 10763 bound_to 10752
  153.0248  135.5253  154.7168 H   0  0  0  0  0  0  0  0  0  0  0  0  # atno 10764 bound_to 10752
  154.6355  135.2981  155.0136 H   0  0  0  0  0  0  0  0  0  0  0  0  # atno 10765 bound_to 10752
  140.3551  134.2186  155.7676 H   0  0  0  0  0  0  0  0  0  0  0  0  # atno 11005 bound_to 11000
  145.9999  140.8529  143.0024 LP  0  0  0  0  0  0  0  0  0  0  0  0  # atno 17320 bound_to 7965
  144.6785  140.2337  143.7352 LP  0  0  0  0  0  0  0  0  0  0  0  0  # atno 17321 bound_to 7965
  139.9277  144.6760  150.8395 LP  0  0  0  0  0  0  0  0  0  0  0  0  # atno 17342 bound_to 10162
  140.7673  143.3330  151.2369 LP  0  0  0  0  0  0  0  0  0  0  0  0  # atno 17343 bound_to 10162
  157.7481  131.0038  150.3050 LP  0  0  0  0  0  0  0  0  0  0  0  0  # atno 17370 bound_to 10713
  156.3500  130.3829  149.7337 LP  0  0  0  0  0  0  0  0  0  0  0  0  # atno 17371 bound_to 10713
  141.2001  133.7996  157.0507 LP  0  0  0  0  0  0  0  0  0  0  0  0  # atno 17394 bound_to 11000
  140.0671  134.9723  157.1405 LP  0  0  0  0  0  0  0  0  0  0  0  0  # atno 17395 bound_to 11000

$$$$
