AV-unprocessed.smi:2416|AV-procd|sdf|9544|dock10
  -GOLD-   2272013173D 1   1.00000     0.00000
 Structure written by MMmdl.
 40 41  0  0  0  0  0  0  0  0  1 V2000
  148.6837  141.4900  154.8010 C   0  0  0  0  0  0  0  0  0  0  0  0
  149.2123  140.4698  155.6395 O   0  0  0  0  0  0  0  0  0  0  0  0
  149.8479  139.3536  155.0019 C   0  0  1  0  0  0  0  0  0  0  0  0
  148.8816  138.6837  154.0160 C   0  0  0  0  0  0  0  0  0  0  0  0
  151.2593  139.7472  154.5259 C   0  0  0  0  0  0  0  0  0  0  0  0
  151.8027  139.3504  155.9004 C   0  0  1  0  0  0  0  0  0  0  0  0
  151.8891  140.5082  156.7910 N   0  0  0  0  0  0  0  0  0  0  0  0
  152.3659  140.4728  158.0426 C   0  0  0  0  0  0  0  0  0  0  0  0
  152.8065  139.4514  158.5710 O   0  0  0  0  0  0  0  0  0  0  0  0
  152.2878  141.6811  158.6272 N   0  0  0  0  0  0  0  0  0  0  0  0
  152.6447  142.0389  159.9545 C   0  0  0  0  0  0  0  0  0  0  0  0
  153.6853  141.2691  160.5225 C   0  0  0  0  0  0  0  0  0  0  0  0
  154.1187  141.5486  161.8333 C   0  0  0  0  0  0  0  0  0  0  0  0
  153.4981  142.5928  162.5415 C   0  0  0  0  0  0  0  0  0  0  0  0
  153.8821  142.8999  163.8032 F   0  0  0  0  0  0  0  0  0  0  0  0
  152.4685  143.3100  161.9050 C   0  0  0  0  0  0  0  0  0  0  0  0
  152.0524  143.0430  160.6489 N   0  0  0  0  0  0  0  0  0  0  0  0
  150.5326  138.4793  156.1026 C   0  0  0  0  0  0  0  0  0  0  0  0
  149.8676  138.4588  157.4892 C   0  0  0  0  0  0  0  0  0  0  0  0
  150.7530  137.0028  155.7412 C   0  0  0  0  0  0  0  0  0  0  0  0
  148.3792  142.3340  155.4194 H   0  0  0  0  0  0  0  0  0  0  0  0
  147.7985  141.1507  154.2635 H   0  0  0  0  0  0  0  0  0  0  0  0
  149.4130  141.8565  154.0794 H   0  0  0  0  0  0  0  0  0  0  0  0
  149.3008  137.7723  153.5911 H   0  0  0  0  0  0  0  0  0  0  0  0
  148.6489  139.3295  153.1698 H   0  0  0  0  0  0  0  0  0  0  0  0
  147.9430  138.4160  154.5020 H   0  0  0  0  0  0  0  0  0  0  0  0
  151.6284  139.0955  153.7327 H   0  0  0  0  0  0  0  0  0  0  0  0
  151.4054  140.7940  154.2601 H   0  0  0  0  0  0  0  0  0  0  0  0
  152.7278  138.7749  155.8335 H   0  0  0  0  0  0  0  0  0  0  0  0
  151.5367  141.3842  156.4342 H   0  0  0  0  0  0  0  0  0  0  0  0
  151.9105  142.4279  158.0627 H   0  0  0  0  0  0  0  0  0  0  0  0
  154.1517  140.4714  159.9625 H   0  0  0  0  0  0  0  0  0  0  0  0
  154.9129  140.9728  162.2850 H   0  0  0  0  0  0  0  0  0  0  0  0
  151.9666  144.1193  162.4149 H   0  0  0  0  0  0  0  0  0  0  0  0
  150.4995  137.9628  158.2266 H   0  0  0  0  0  0  0  0  0  0  0  0
  148.9144  137.9303  157.4652 H   0  0  0  0  0  0  0  0  0  0  0  0
  149.6625  139.4576  157.8736 H   0  0  0  0  0  0  0  0  0  0  0  0
  151.3992  136.5080  156.4672 H   0  0  0  0  0  0  0  0  0  0  0  0
  151.2286  136.8873  154.7670 H   0  0  0  0  0  0  0  0  0  0  0  0
  149.8138  136.4494  155.7105 H   0  0  0  0  0  0  0  0  0  0  0  0
  1  2  1  0  0  0  0
  1 21  1  0  0  0  0
  1 22  1  0  0  0  0
  1 23  1  0  0  0  0
  2  3  1  0  0  0  0
  3 18  1  0  0  0  0
  3  4  1  0  0  0  0
  3  5  1  0  0  0  0
  4 24  1  0  0  0  0
  4 25  1  0  0  0  0
  4 26  1  0  0  0  0
  5  6  1  0  0  0  0
  5 27  1  0  0  0  0
  5 28  1  0  0  0  0
  6  7  1  0  0  0  0
  6 18  1  0  0  0  0
  6 29  1  0  0  0  0
  7  8  1  0  0  0  0
  7 30  1  0  0  0  0
  8  9  2  0  0  0  0
  8 10  1  0  0  0  0
 10 11  1  0  0  0  0
 10 31  1  0  0  0  0
 11 17  1  0  0  0  0
 11 12  2  0  0  0  0
 12 13  1  0  0  0  0
 12 32  1  0  0  0  0
 13 14  2  0  0  0  0
 13 33  1  0  0  0  0
 14 15  1  0  0  0  0
 14 16  1  0  0  0  0
 16 17  2  0  0  0  0
 16 34  1  0  0  0  0
 18 19  1  0  0  0  0
 18 20  1  0  0  0  0
 19 35  1  0  0  0  0
 19 36  1  0  0  0  0
 19 37  1  0  0  0  0
 20 38  1  0  0  0  0
 20 39  1  0  0  0  0
 20 40  1  0  0  0  0
M  END
> <s_m_source_file>
AV-unprocessed.smi

> <i_m_source_file_index>
2416

> <i_lp_mmshare_version>
43012

> <i_f3d_flags>
0

> <s_epik_input>
W0NIM11PW0NAQF0xKFtDSDNdKVtDSDJdW0NASF0oQzEoW0NIM10pW0NIM10pW05IXUMoPU8pW05IXWMyW2NIXVtjSF1jKEYpW2NIXW4y

> <s_epik_cmdline>
J2VwaWtfcHl0aG9uJywgJy1waCcsICc3LjAnLCAnLXRuJywgJzgnLCAnLW1hJywgJzIwMCcsICctbWV0YWxfYmluZGluZycsICctaW1hZScsICc8aW5maWxlLm1hZT4nLCAnLW9tYWUnLCAnPG91dGZpbGUubWFlPic=

> <r_lp_tautomer_probability>
1

> <r_epik_Ionization_Penalty>
3.67756e-05

> <r_epik_Ionization_Penalty_Charging>
0

> <r_epik_Ionization_Penalty_Neutral>
3.67756e-05

> <r_epik_State_Penalty>
-0

> <r_epik_Charging_Adjusted_Penalty>
0

> <i_epik_Tot_Q>
0

> <i_epik_Tot_abs_Q>
0

> <r_epik_Metal_State_Penalty>
-0

> <b_epik_Metal_Only>
0

> <s_lp_Force_Field>
OPLS_2005

> <r_lp_Energy>
27.553

> <b_lp_Chiralities_Consistent>
1

> <s_lp_Variant>
AV-unprocessed.smi:2416-1

> <Gold.Version>
5.8.1

> <Gold.Id.Protein>
6NUR|6NUR_protein|mol2

> <Gold.PLP.Fitness>
37.1917

> <Gold.PLP.PLP>
-37.6981

> <Gold.PLP.part.hbond>
0.0000

> <Gold.PLP.part.metal>
0.0000

> <Gold.PLP.part.buried>
-2.5659

> <Gold.PLP.part.nonpolar>
-35.2105

> <Gold.PLP.part.repulsive>
0.3321

> <Gold.PLP.ligand.clash>
0.0000

> <Gold.PLP.ligand.torsion>
0.4446

> <Gold.PLP.Chemscore.Hbond>
0.0000

> <Gold.PLP.Chemscore.CHOScore>
0.0000

> <Gold.PLP.Chemscore.Metal>
0.0000

> <Gold.PLP.Chemscore.Internal.Correction>
0.3828

> <Gold.Rescore>
     Score         DG    S(hbond)    S(metal)    S(lipo)     H(rot)  DE(clash)    DE(int)     intcor
      9.54     -12.88       0.00        0.00      90.91       1.27       1.51       1.83       ----

> <Gold.Chemscore.Fitness>
9.5400

> <Gold.Chemscore.DG>
-12.8778

> <Gold.Chemscore.ZeroCoef>
-5.4800

> <Gold.Chemscore.Hbond>
0.0000

> <Gold.Chemscore.Metal>
0.0000

> <Gold.Chemscore.Lipo>
90.9149

> <Gold.Chemscore.Internal_Hbond>
0.0000

> <Gold.Chemscore.DEClash>
1.5113

> <Gold.Chemscore.DEInternal>
1.8265

> <Gold.Chemscore.Rot>
1.2653

> <Gold.Chemscore.Internal.Correction>
   9.000000E+99

> <Gold.Chemscore.Hbond.Weighted>
-0.0000

> <Gold.Chemscore.Metal.Weighted>
-0.0000

> <Gold.Chemscore.Lipo.Weighted>
-10.6370

> <Gold.Chemscore.Internal_Hbond.Weighted>
0.0000

> <Gold.Chemscore.DEClash.Weighted>
1.5113

> <Gold.Chemscore.DEInternal.Weighted>
1.8265

> <Gold.Chemscore.Rot.Weighted>
3.2392

> <Gold.Chemscore.Internal.Correction.Weighted>
   9.000000E+99

> <Gold.Protein.RotatedTorsions>
[ 6907 6896 6895 6894 ] final    8.13 input  -60.11 | X-H torsion
[ 7974 7965 7964 7962 ] final -134.78 input  175.53 | X-H torsion
[ 8008 7997 7996 7995 ] final -117.61 input   59.86 | X-H torsion
[ 10167 10162 10161 10158 ] final  159.39 input  -65.29 | X-H torsion
[ 10718 10713 10712 10709 ] final  -42.40 input   66.30 | X-H torsion
[ 10763 10752 10751 10750 ] final   -6.74 input  -60.55 | X-H torsion
[ 11005 11000 10999 10996 ] final  -53.85 input  -57.11 | X-H torsion

> <Gold.Protein.ActiveResidues>
 VAL166  LYS551  ARG553  GLY616  TRP617  ASP618  TYR619  PRO620  LYS621  CYS622 
 ASP623  PHE694  ASN695  SER759  ASP760  ASP761  ALA762  ILE779  LEU786  VAL792 
 PHE793  MET794  SER795  GLU796  ALA797  LYS798  CYS799  TRP800  GLU811  SER814 

> <Gold.Protein.RotatedAtoms>
  151.7011  135.0930  160.0250 H   0  0  0  0  0  0  0  0  0  0  0  0  # atno 6907 bound_to 6896
  152.3720  133.6427  159.6103 H   0  0  0  0  0  0  0  0  0  0  0  0  # atno 6908 bound_to 6896
  150.7680  133.9171  159.3428 H   0  0  0  0  0  0  0  0  0  0  0  0  # atno 6909 bound_to 6896
  144.9072  140.6849  143.5047 H   0  0  0  0  0  0  0  0  0  0  0  0  # atno 7974 bound_to 7965
  155.0865  140.0394  157.2655 H   0  0  0  0  0  0  0  0  0  0  0  0  # atno 8008 bound_to 7997
  154.6865  140.2644  155.6830 H   0  0  0  0  0  0  0  0  0  0  0  0  # atno 8009 bound_to 7997
  156.2714  140.2768  156.1428 H   0  0  0  0  0  0  0  0  0  0  0  0  # atno 8010 bound_to 7997
  139.4832  144.4735  151.8544 H   0  0  0  0  0  0  0  0  0  0  0  0  # atno 10167 bound_to 10162
  156.2600  130.4196  149.8553 H   0  0  0  0  0  0  0  0  0  0  0  0  # atno 10718 bound_to 10713
  153.4166  135.7009  153.6323 H   0  0  0  0  0  0  0  0  0  0  0  0  # atno 10763 bound_to 10752
  153.4795  135.3697  155.2434 H   0  0  0  0  0  0  0  0  0  0  0  0  # atno 10764 bound_to 10752
  154.8720  135.4062  154.3527 H   0  0  0  0  0  0  0  0  0  0  0  0  # atno 10765 bound_to 10752
  141.0996  133.6619  156.4232 H   0  0  0  0  0  0  0  0  0  0  0  0  # atno 11005 bound_to 11000
  145.3515  139.1705  143.4432 LP  0  0  0  0  0  0  0  0  0  0  0  0  # atno 17320 bound_to 7965
  146.3140  140.3567  142.8661 LP  0  0  0  0  0  0  0  0  0  0  0  0  # atno 17321 bound_to 7965
  140.4205  144.2249  150.5887 LP  0  0  0  0  0  0  0  0  0  0  0  0  # atno 17342 bound_to 10162
  140.4878  143.2357  151.8862 LP  0  0  0  0  0  0  0  0  0  0  0  0  # atno 17343 bound_to 10162
  156.6071  130.8571  151.3445 LP  0  0  0  0  0  0  0  0  0  0  0  0  # atno 17370 bound_to 10713
  157.7247  130.9606  150.1584 LP  0  0  0  0  0  0  0  0  0  0  0  0  # atno 17371 bound_to 10713
  140.5054  134.6446  157.5264 LP  0  0  0  0  0  0  0  0  0  0  0  0  # atno 17394 bound_to 11000
  139.9844  134.7086  155.9801 LP  0  0  0  0  0  0  0  0  0  0  0  0  # atno 17395 bound_to 11000

$$$$
