#       Name:                AV-unprocessed.smi:2298
#       Creating user name   scv26
#       Creation time:       Fri Mar 27 12:44:48 2020


#       File generated by GOLD software.
#

@<TRIPOS>MOLECULE
AV-unprocessed.smi:2298
    42    43     1
SMALL
NO_CHARGES


@<TRIPOS>ATOM
      1 ****        -5.6981   2.8504   1.1942 C.3            1 S1                 0.0000
      2 ****        -4.8169   1.6267   1.0315 C.ar           1 S1                 0.0000
      3 ****        -5.4066   0.4134   1.1092 N.pl3          1 S1                 1.0000
      4 ****        -4.7249  -0.7443   0.9874 C.ar           1 S1                 0.0000
      5 ****        -3.3349  -0.7209   0.7624 C.ar           1 S1                 0.0000
      6 ****        -2.6667   0.5253   0.6543 C.ar           1 S1                 0.0000
      7 ****        -1.2633   0.6383   0.4450 N.am           1 S1                 0.0000
      8 ****        -0.4292  -0.2418  -0.1347 C.2            1 S1                 0.0000
      9 ****        -0.7599  -1.3313  -0.6022 O.2            1 S1                 0.0000
     10 ****         0.8282   0.2232  -0.1585 N.am           1 S1                 0.0000
     11 ****         1.9756  -0.4804  -0.7247 C.3            1 S1                 0.0000
     12 ****         3.0538   0.5382  -1.1410 C.3            1 S1                 0.0000
     13 ****         4.3064  -0.1628  -1.6916 C.3            1 S1                 0.0000
     14 ****         4.8684  -1.1720  -0.6757 C.3            1 S1                 0.0000
     15 ****         5.9736  -1.8452  -1.2401 O.3            1 S1                 0.0000
     16 ****         3.7976  -2.1967  -0.2639 C.3            1 S1                 0.0000
     17 ****         2.5447  -1.4970   0.2872 C.3            1 S1                 0.0000
     18 ****        -3.4227   1.7145   0.8056 C.ar           1 S1                 0.0000
     19 ****        -2.6551   3.2639   0.7081 Cl             1 S1                 0.0000
     20 ****         1.6558  -1.0166  -1.6206 H              1 S1                 0.0000
     21 ****         5.2177  -0.6385   0.2092 H              1 S1                 0.0000
     22 ****        -5.6643   3.4629   0.2928 H              1 S1                 0.0000
     23 ****        -5.3578   3.4553   2.0352 H              1 S1                 0.0000
     24 ****        -6.7375   2.5729   1.3754 H              1 S1                 0.0000
     25 ****        -5.3071  -1.6497   1.0792 H              1 S1                 0.0000
     26 ****        -2.8073  -1.6596   0.6896 H              1 S1                 0.0000
     27 ****        -0.8592   1.5276   0.7012 H              1 S1                 0.0000
     28 ****         1.0089   1.1313   0.2441 H              1 S1                 0.0000
     29 ****         2.6548   1.2186  -1.8943 H              1 S1                 0.0000
     30 ****         3.3329   1.1540  -0.2847 H              1 S1                 0.0000
     31 ****         4.0539  -0.6736  -2.6221 H              1 S1                 0.0000
     32 ****         5.0649   0.5801  -1.9413 H              1 S1                 0.0000
     33 ****         5.6805  -2.3152  -2.0058 H              1 S1                 0.0000
     34 ****         3.5198  -2.8090  -1.1232 H              1 S1                 0.0000
     35 ****         4.1997  -2.8788   0.4861 H              1 S1                 0.0000
     36 ****         2.7958  -0.9890   1.2195 H              1 S1                 0.0000
     37 ****         1.7914  -2.2453   0.5364 H              1 S1                 0.0000
     38 ****        -6.4129   0.3707   1.2726 H              1 S1                 0.0000
     39 ****        -1.7164  -1.6209  -0.5671 LP             1 S1                 0.0000
     40 ****        -0.0721  -1.9269  -1.0172 LP             1 S1                 0.0000
     41 ****         6.3525  -2.4881  -0.5745 LP             1 S1                 0.0000
     42 ****         6.6755  -1.1820  -1.4999 LP             1 S1                 0.0000
@<TRIPOS>BOND
    1    1    2 1     
    2    1   22 1     
    3    1   23 1     
    4    1   24 1     
    5    2   18 ar    
    6    2    3 ar    
    7    3    4 ar    
    8    3   38 1     
    9    4    5 ar    
   10    4   25 1     
   11    5    6 ar    
   12    5   26 1     
   13    6    7 1     
   14    6   18 ar    
   15    7    8 am    
   16    7   27 1     
   17    8    9 2     
   18    8   10 am    
   19   10   11 1     
   20   10   28 1     
   21   11   20 1     
   22   11   17 1     
   23   11   12 1     
   24   12   13 1     
   25   12   29 1     
   26   12   30 1     
   27   13   14 1     
   28   13   31 1     
   29   13   32 1     
   30   14   21 1     
   31   14   15 1     
   32   14   16 1     
   33   15   33 1     
   34   16   17 1     
   35   16   34 1     
   36   16   35 1     
   37   17   36 1     
   38   17   37 1     
   39   18   19 1     
   40    9   39 1     
   41    9   40 1     
   42   15   41 1     
   43   15   42 1     
@<TRIPOS>SUBSTRUCTURE
      1 S1             1
@<TRIPOS>SET
LONE_PAIRS      STATIC     ATOMS    <user>   **** ""
4 39 40 41 42
DONOR_HYDROGENS      STATIC     ATOMS    <user>   **** ""
4 38 27 28 33
ATOM$BLUE        STATIC     ATOMS    COLORGROUP SYSTEM
4 39 40 41 42
ATOM$RED        STATIC     ATOMS    COLORGROUP SYSTEM
4 38 27 28 33
