AV-unprocessed.smi:976|AV-procd|sdf|4302|dock9
  -GOLD-   22720 2213D 1   1.00000     0.00000
 Structure written by MMmdl.
 41 42  0  0  0  0  0  0  0  0  1 V2000
  146.8865  138.2339  158.4695 C   0  0  0  0  0  0  0  0  0  0  0  0
  147.7370  137.0463  158.9440 C   0  0  2  0  0  0  0  0  0  0  0  0
  147.7238  137.0508  160.3695 O   0  0  0  0  0  0  0  0  0  0  0  0
  146.5209  136.5865  160.9749 C   0  0  0  0  0  0  0  0  0  0  0  0
  146.8595  135.5294  162.0328 C   0  0  0  0  0  0  0  0  0  0  0  0
  145.7330  135.1030  162.6027 F   0  0  0  0  0  0  0  0  0  0  0  0
  147.4723  134.4898  161.4670 F   0  0  0  0  0  0  0  0  0  0  0  0
  147.6432  136.0539  162.9744 F   0  0  0  0  0  0  0  0  0  0  0  0
  149.1793  137.1460  158.4212 C   0  0  0  0  0  0  0  0  0  0  0  0
  150.0967  136.6196  159.0509 O   0  0  0  0  0  0  0  0  0  0  0  0
  149.3371  137.8287  157.2729 N   0  0  0  0  0  0  0  0  0  0  0  0
  150.5409  138.0881  156.5581 C   0  0  0  0  0  0  0  0  0  0  0  0
  151.7547  137.4208  156.8522 C   0  0  0  0  0  0  0  0  0  0  0  0
  152.8931  137.6902  156.0719 C   0  0  0  0  0  0  0  0  0  0  0  0
  152.7759  138.6105  155.0158 C   0  0  0  0  0  0  0  0  0  0  0  0
  151.6242  139.2430  154.7132 N   0  0  0  0  0  0  0  0  0  0  0  0
  150.5221  138.9923  155.4617 C   0  0  0  0  0  0  0  0  0  0  0  0
  149.3414  139.6870  155.1304 N   0  0  0  0  0  0  0  0  0  0  0  0
  149.5140  141.1338  155.0701 C   0  0  0  0  0  0  0  0  0  0  0  0
  148.1425  141.8219  154.9682 C   0  0  0  0  0  0  0  0  0  0  0  0
  147.4306  141.3100  153.8449 O   0  0  0  0  0  0  0  0  0  0  0  0
  147.2023  139.9071  153.9468 C   0  0  0  0  0  0  0  0  0  0  0  0
  148.5500  139.1689  154.0187 C   0  0  0  0  0  0  0  0  0  0  0  0
  146.8645  138.2961  157.3810 H   0  0  0  0  0  0  0  0  0  0  0  0
  147.2691  139.1808  158.8526 H   0  0  0  0  0  0  0  0  0  0  0  0
  145.8571  138.1330  158.8141 H   0  0  0  0  0  0  0  0  0  0  0  0
  147.2724  136.1274  158.5805 H   0  0  0  0  0  0  0  0  0  0  0  0
  145.9939  137.4197  161.4419 H   0  0  0  0  0  0  0  0  0  0  0  0
  145.8506  136.1526  160.2320 H   0  0  0  0  0  0  0  0  0  0  0  0
  148.5140  138.2922  156.9158 H   0  0  0  0  0  0  0  0  0  0  0  0
  151.8264  136.6945  157.6472 H   0  0  0  0  0  0  0  0  0  0  0  0
  153.8317  137.1955  156.2734 H   0  0  0  0  0  0  0  0  0  0  0  0
  153.6276  138.8407  154.3932 H   0  0  0  0  0  0  0  0  0  0  0  0
  150.0487  141.5009  155.9461 H   0  0  0  0  0  0  0  0  0  0  0  0
  150.1222  141.3834  154.1997 H   0  0  0  0  0  0  0  0  0  0  0  0
  147.5632  141.6692  155.8804 H   0  0  0  0  0  0  0  0  0  0  0  0
  148.2702  142.8976  154.8478 H   0  0  0  0  0  0  0  0  0  0  0  0
  146.5917  139.6896  154.8247 H   0  0  0  0  0  0  0  0  0  0  0  0
  146.6376  139.5751  153.0756 H   0  0  0  0  0  0  0  0  0  0  0  0
  149.0941  139.3062  153.0831 H   0  0  0  0  0  0  0  0  0  0  0  0
  148.3845  138.0984  154.1465 H   0  0  0  0  0  0  0  0  0  0  0  0
  1  2  1  0  0  0  0
  1 24  1  0  0  0  0
  1 25  1  0  0  0  0
  1 26  1  0  0  0  0
  2  3  1  0  0  0  0
  2  9  1  0  0  0  0
  2 27  1  0  0  0  0
  3  4  1  0  0  0  0
  4  5  1  0  0  0  0
  4 28  1  0  0  0  0
  4 29  1  0  0  0  0
  5  6  1  0  0  0  0
  5  7  1  0  0  0  0
  5  8  1  0  0  0  0
  9 10  2  0  0  0  0
  9 11  1  0  0  0  0
 11 12  1  0  0  0  0
 11 30  1  0  0  0  0
 12 17  1  0  0  0  0
 12 13  2  0  0  0  0
 13 14  1  0  0  0  0
 13 31  1  0  0  0  0
 14 15  2  0  0  0  0
 14 32  1  0  0  0  0
 15 16  1  0  0  0  0
 15 33  1  0  0  0  0
 16 17  2  0  0  0  0
 17 18  1  0  0  0  0
 18 23  1  0  0  0  0
 18 19  1  0  0  0  0
 19 20  1  0  0  0  0
 19 34  1  0  0  0  0
 19 35  1  0  0  0  0
 20 21  1  0  0  0  0
 20 36  1  0  0  0  0
 20 37  1  0  0  0  0
 21 22  1  0  0  0  0
 22 23  1  0  0  0  0
 22 38  1  0  0  0  0
 22 39  1  0  0  0  0
 23 40  1  0  0  0  0
 23 41  1  0  0  0  0
M  END
> <s_m_source_file>
AV-unprocessed.smi

> <i_m_source_file_index>
976

> <i_lp_mmshare_version>
43012

> <i_f3d_flags>
0

> <s_epik_input>
RkMoRikoRilbQ0gyXU9bQ0BASF0oW0NIM10pQyg9TylbTkhdYzFbY0hdW2NIXVtjSF1uYzFOMltDSDJdW0NIMl1PW0NIMl1bQ0gyXTI=

> <s_epik_cmdline>
J2VwaWtfcHl0aG9uJywgJy1waCcsICc3LjAnLCAnLXRuJywgJzgnLCAnLW1hJywgJzIwMCcsICctbWV0YWxfYmluZGluZycsICctaW1hZScsICc8aW5maWxlLm1hZT4nLCAnLW9tYWUnLCAnPG91dGZpbGUubWFlPic=

> <r_lp_tautomer_probability>
1

> <r_epik_Ionization_Penalty>
0.000443367

> <r_epik_Ionization_Penalty_Charging>
0

> <r_epik_Ionization_Penalty_Neutral>
0.000443367

> <r_epik_State_Penalty>
0.00027288

> <r_epik_Charging_Adjusted_Penalty>
0.00027288

> <i_epik_Tot_Q>
0

> <i_epik_Tot_abs_Q>
0

> <r_epik_Metal_State_Penalty>
-0

> <b_epik_Metal_Only>
0

> <s_lp_Force_Field>
OPLS_2005

> <r_lp_Energy>
26.1193

> <b_lp_Chiralities_Consistent>
1

> <s_lp_Variant>
AV-unprocessed.smi:976-1

> <Gold.Version>
5.8.1

> <Gold.Id.Protein>
6NUR|6NUR_protein|mol2

> <Gold.PLP.Fitness>
41.5901

> <Gold.PLP.PLP>
-36.2429

> <Gold.PLP.part.hbond>
-3.9062

> <Gold.PLP.part.metal>
0.0000

> <Gold.PLP.part.buried>
-5.6192

> <Gold.PLP.part.nonpolar>
-29.0991

> <Gold.PLP.part.repulsive>
0.3216

> <Gold.PLP.ligand.clash>
0.0000

> <Gold.PLP.ligand.torsion>
1.5569

> <Gold.PLP.Chemscore.Hbond>
2.7352

> <Gold.PLP.Chemscore.CHOScore>
0.0000

> <Gold.PLP.Chemscore.Metal>
0.0000

> <Gold.Chemscore.Hbonds>
donor molecule, donor type, donor heavy atom, donor atom, acceptor molecule, acceptor atom, score
      P1  H  6896  6909       L1    10  1.00
      P1  H  6931  6943       L1     3  0.17
      P1  H  6934  6947       L1     3  0.33
      P1  H  7989  7998       L1    16  1.00

> <Gold.PLP.Chemscore.Internal.Correction>
0.2555

> <Gold.Rescore>
     Score         DG    S(hbond)    S(metal)    S(lipo)     H(rot)  DE(clash)    DE(int)     intcor
     12.40     -15.61       2.13        0.00      68.39       1.95       0.18       3.03       ----

> <Gold.Chemscore.Fitness>
12.3969

> <Gold.Chemscore.DG>
-15.6072

> <Gold.Chemscore.ZeroCoef>
-5.4800

> <Gold.Chemscore.Hbond>
2.1303

> <Gold.Chemscore.Metal>
0.0000

> <Gold.Chemscore.Lipo>
68.3898

> <Gold.Chemscore.Internal_Hbond>
0.0000

> <Gold.Chemscore.DEClash>
0.1796

> <Gold.Chemscore.DEInternal>
3.0307

> <Gold.Chemscore.Rot>
1.9491

> <Gold.Chemscore.Internal.Correction>
   9.000000E+99

> <Gold.Chemscore.Hbonds>
donor molecule, donor type, donor heavy atom, donor atom, acceptor molecule, acceptor atom, score
      P1  H  6896  6909       L1    10  0.97
      P1  H  6931  6943       L1     3  0.15
      P1  H  6934  6947       L1     3  0.01
      P1  H  7989  7998       L1    16  0.89

> <Gold.Chemscore.Hbond.Weighted>
-7.1153

> <Gold.Chemscore.Metal.Weighted>
-0.0000

> <Gold.Chemscore.Lipo.Weighted>
-8.0016

> <Gold.Chemscore.Internal_Hbond.Weighted>
0.0000

> <Gold.Chemscore.DEClash.Weighted>
0.1796

> <Gold.Chemscore.DEInternal.Weighted>
3.0307

> <Gold.Chemscore.Rot.Weighted>
4.9897

> <Gold.Chemscore.Internal.Correction.Weighted>
   9.000000E+99

> <Gold.Protein.RotatedTorsions>
[ 6907 6896 6895 6894 ] final   86.56 input  -60.11 | X-H torsion
[ 7974 7965 7964 7962 ] final  -69.87 input  175.53 | X-H torsion
[ 8008 7997 7996 7995 ] final  133.48 input   59.86 | X-H torsion
[ 10167 10162 10161 10158 ] final  -18.95 input  -65.29 | X-H torsion
[ 10718 10713 10712 10709 ] final  -93.87 input   66.30 | X-H torsion
[ 10763 10752 10751 10750 ] final  -51.71 input  -60.55 | X-H torsion
[ 11005 11000 10999 10996 ] final   98.62 input  -57.11 | X-H torsion

> <Gold.Protein.ActiveResidues>
 VAL166  LYS551  ARG553  GLY616  TRP617  ASP618  TYR619  PRO620  LYS621  CYS622 
 ASP623  PHE694  ASN695  SER759  ASP760  ASP761  ALA762  ILE779  LEU786  VAL792 
 PHE793  MET794  SER795  GLU796  ALA797  LYS798  CYS799  TRP800  GLU811  SER814 

> <Gold.Protein.RotatedAtoms>
  152.5396  134.2413  159.8862 H   0  0  0  0  0  0  0  0  0  0  0  0  # atno 6907 bound_to 6896
  151.2380  133.4408  159.2614 H   0  0  0  0  0  0  0  0  0  0  0  0  # atno 6908 bound_to 6896
  151.0653  134.9777  159.8337 H   0  0  0  0  0  0  0  0  0  0  0  0  # atno 6909 bound_to 6896
  145.6982  140.9127  143.0745 H   0  0  0  0  0  0  0  0  0  0  0  0  # atno 7974 bound_to 7965
  156.2992  140.2520  156.3260 H   0  0  0  0  0  0  0  0  0  0  0  0  # atno 8008 bound_to 7997
  154.9190  140.0401  157.2006 H   0  0  0  0  0  0  0  0  0  0  0  0  # atno 8009 bound_to 7997
  154.8330  140.2878  155.5714 H   0  0  0  0  0  0  0  0  0  0  0  0  # atno 8010 bound_to 7997
  140.7264  143.4866  151.0046 H   0  0  0  0  0  0  0  0  0  0  0  0  # atno 10167 bound_to 10162
  156.0019  130.5044  150.5841 H   0  0  0  0  0  0  0  0  0  0  0  0  # atno 10718 bound_to 10713
  154.1310  135.6520  153.4922 H   0  0  0  0  0  0  0  0  0  0  0  0  # atno 10763 bound_to 10752
  153.0195  135.5293  154.7001 H   0  0  0  0  0  0  0  0  0  0  0  0  # atno 10764 bound_to 10752
  154.6236  135.2967  155.0268 H   0  0  0  0  0  0  0  0  0  0  0  0  # atno 10765 bound_to 10752
  139.8772  134.9058  156.4484 H   0  0  0  0  0  0  0  0  0  0  0  0  # atno 11005 bound_to 11000
  144.6976  139.8912  143.7453 LP  0  0  0  0  0  0  0  0  0  0  0  0  # atno 17320 bound_to 7965
  146.0821  139.3809  143.0458 LP  0  0  0  0  0  0  0  0  0  0  0  0  # atno 17321 bound_to 7965
  139.8568  143.7366  152.3175 LP  0  0  0  0  0  0  0  0  0  0  0  0  # atno 17342 bound_to 10162
  139.7568  144.7518  151.0424 LP  0  0  0  0  0  0  0  0  0  0  0  0  # atno 17343 bound_to 10162
  157.3716  131.0766  151.1553 LP  0  0  0  0  0  0  0  0  0  0  0  0  # atno 17370 bound_to 10713
  157.2304  130.6522  149.5847 LP  0  0  0  0  0  0  0  0  0  0  0  0  # atno 17371 bound_to 10713
  140.8949  133.7821  155.9614 LP  0  0  0  0  0  0  0  0  0  0  0  0  # atno 17394 bound_to 11000
  140.8713  134.2723  157.5189 LP  0  0  0  0  0  0  0  0  0  0  0  0  # atno 17395 bound_to 11000

$$$$
