AV-unprocessed.smi:2690|AV-procd|sdf|10389|dock1
  -GOLD-   2272014423D 1   1.00000     0.00000
 Structure written by MMmdl.
 47 49  0  0  0  0  0  0  0  0  1 V2000
  152.9692  142.8504  161.9652 C   0  0  0  0  0  0  0  0  0  0  0  0
  152.6846  143.1804  160.4932 C   0  0  2  0  0  0  0  0  0  0  0  0
  151.3742  143.9753  160.3394 C   0  0  0  0  0  0  0  0  0  0  0  0
  151.0718  144.2908  158.8639 C   0  0  0  0  0  0  0  0  0  0  0  0
  151.0345  143.0233  157.9799 C   0  0  2  0  0  0  0  0  0  0  0  0
  150.9956  143.4701  156.6372 O   0  0  0  0  0  0  0  0  0  0  0  0
  149.7519  142.1827  158.2310 C   0  0  0  0  0  0  0  0  0  0  0  0
  149.2625  141.4727  157.0573 N   0  0  0  0  0  0  0  0  0  0  0  0
  147.9881  141.5192  156.5357 C   0  0  0  0  0  0  0  0  0  0  0  0
  147.7913  140.7879  155.4725 N   0  0  0  0  0  0  0  0  0  0  0  0
  149.0213  140.1830  155.2500 C   0  0  0  0  0  0  0  0  0  0  0  0
  149.5075  139.2739  154.2747 C   0  0  0  0  0  0  0  0  0  0  0  0
  148.7043  138.8158  153.2884 N   0  0  0  0  0  0  0  0  0  0  0  0
  147.2874  139.1656  153.2339 C   0  0  0  0  0  0  0  0  0  0  0  0
  146.3970  137.9300  153.4476 C   0  0  0  0  0  0  0  0  0  0  0  0
  146.9682  139.8448  151.8959 C   0  0  0  0  0  0  0  0  0  0  0  0
  150.8037  138.8770  154.3719 N   0  0  0  0  0  0  0  0  0  0  0  0
  151.5749  139.3427  155.3592 C   0  0  0  0  0  0  0  0  0  0  0  0
  151.2562  140.1946  156.3362 N   0  0  0  0  0  0  0  0  0  0  0  0
  149.9562  140.5956  156.2403 C   0  0  0  0  0  0  0  0  0  0  0  0
  152.3502  142.2275  158.1539 C   0  0  0  0  0  0  0  0  0  0  0  0
  152.6489  141.9062  159.6290 C   0  0  0  0  0  0  0  0  0  0  0  0
  152.1845  142.2235  162.3895 H   0  0  0  0  0  0  0  0  0  0  0  0
  153.0320  143.7581  162.5660 H   0  0  0  0  0  0  0  0  0  0  0  0
  153.9147  142.3181  162.0725 H   0  0  0  0  0  0  0  0  0  0  0  0
  153.5019  143.8069  160.1328 H   0  0  0  0  0  0  0  0  0  0  0  0
  150.5467  143.4176  160.7786 H   0  0  0  0  0  0  0  0  0  0  0  0
  151.4404  144.9080  160.9007 H   0  0  0  0  0  0  0  0  0  0  0  0
  150.1300  144.8357  158.7875 H   0  0  0  0  0  0  0  0  0  0  0  0
  151.8432  144.9694  158.4958 H   0  0  0  0  0  0  0  0  0  0  0  0
  150.2898  144.0920  156.5485 H   0  0  0  0  0  0  0  0  0  0  0  0
  149.9214  141.4497  159.0194 H   0  0  0  0  0  0  0  0  0  0  0  0
  148.9476  142.8251  158.5922 H   0  0  0  0  0  0  0  0  0  0  0  0
  147.2028  142.1212  156.9693 H   0  0  0  0  0  0  0  0  0  0  0  0
  149.0254  138.1757  152.5763 H   0  0  0  0  0  0  0  0  0  0  0  0
  147.0728  139.8902  154.0202 H   0  0  0  0  0  0  0  0  0  0  0  0
  145.3411  138.1988  153.4115 H   0  0  0  0  0  0  0  0  0  0  0  0
  146.5801  137.4643  154.4161 H   0  0  0  0  0  0  0  0  0  0  0  0
  146.5739  137.1770  152.6791 H   0  0  0  0  0  0  0  0  0  0  0  0
  145.9221  140.1490  151.8504 H   0  0  0  0  0  0  0  0  0  0  0  0
  147.1574  139.1768  151.0548 H   0  0  0  0  0  0  0  0  0  0  0  0
  147.5761  140.7390  151.7552 H   0  0  0  0  0  0  0  0  0  0  0  0
  152.5926  138.9812  155.3668 H   0  0  0  0  0  0  0  0  0  0  0  0
  152.3345  141.3089  157.5670 H   0  0  0  0  0  0  0  0  0  0  0  0
  153.1820  142.8131  157.7586 H   0  0  0  0  0  0  0  0  0  0  0  0
  153.6041  141.3844  159.6981 H   0  0  0  0  0  0  0  0  0  0  0  0
  151.8988  141.2196  160.0204 H   0  0  0  0  0  0  0  0  0  0  0  0
  1  2  1  0  0  0  0
  1 23  1  0  0  0  0
  1 24  1  0  0  0  0
  1 25  1  0  0  0  0
  2 22  1  0  0  0  0
  2  3  1  0  0  0  0
  2 26  1  0  0  0  0
  3  4  1  0  0  0  0
  3 27  1  0  0  0  0
  3 28  1  0  0  0  0
  4  5  1  0  0  0  0
  4 29  1  0  0  0  0
  4 30  1  0  0  0  0
  5  6  1  0  0  0  0
  5  7  1  0  0  0  0
  5 21  1  0  0  0  0
  6 31  1  0  0  0  0
  7  8  1  0  0  0  0
  7 32  1  0  0  0  0
  7 33  1  0  0  0  0
  8 20  1  0  0  0  0
  8  9  1  0  0  0  0
  9 10  2  0  0  0  0
  9 34  1  0  0  0  0
 10 11  1  0  0  0  0
 11 20  2  0  0  0  0
 11 12  1  0  0  0  0
 12 13  1  0  0  0  0
 12 17  2  0  0  0  0
 13 14  1  0  0  0  0
 13 35  1  0  0  0  0
 14 15  1  0  0  0  0
 14 16  1  0  0  0  0
 14 36  1  0  0  0  0
 15 37  1  0  0  0  0
 15 38  1  0  0  0  0
 15 39  1  0  0  0  0
 16 40  1  0  0  0  0
 16 41  1  0  0  0  0
 16 42  1  0  0  0  0
 17 18  1  0  0  0  0
 18 19  2  0  0  0  0
 18 43  1  0  0  0  0
 19 20  1  0  0  0  0
 21 22  1  0  0  0  0
 21 44  1  0  0  0  0
 21 45  1  0  0  0  0
 22 46  1  0  0  0  0
 22 47  1  0  0  0  0
M  END
> <s_m_source_file>
AV-unprocessed.smi

> <i_m_source_file_index>
2690

> <i_lp_mmshare_version>
43012

> <i_f3d_flags>
0

> <s_epik_input>
W0NIMl0xW0NIMl1bQ0BIXShbQ0gzXSlbQ0gyXVtDSDJdW0NAQF0xKFtPSF0pW0NIMl1uKFtjSF1uMiljKGMyMyluW2NIXW5jM1tOSF1bQ0hdKFtDSDNdKVtDSDNd

> <s_epik_cmdline>
J2VwaWtfcHl0aG9uJywgJy1waCcsICc3LjAnLCAnLXRuJywgJzgnLCAnLW1hJywgJzIwMCcsICctbWV0YWxfYmluZGluZycsICctaW1hZScsICc8aW5maWxlLm1hZT4nLCAnLW9tYWUnLCAnPG91dGZpbGUubWFlPic=

> <r_lp_tautomer_probability>
1

> <r_epik_Ionization_Penalty>
0.00225104

> <r_epik_Ionization_Penalty_Charging>
0

> <r_epik_Ionization_Penalty_Neutral>
0.00225104

> <r_epik_State_Penalty>
-0

> <r_epik_Charging_Adjusted_Penalty>
0

> <i_epik_Tot_Q>
0

> <i_epik_Tot_abs_Q>
0

> <r_epik_Metal_State_Penalty>
-0

> <b_epik_Metal_Only>
0

> <s_lp_Force_Field>
OPLS_2005

> <r_lp_Energy>
15.1009

> <b_lp_Chiralities_Consistent>
1

> <s_lp_Variant>
AV-unprocessed.smi:2690-2

> <Gold.Version>
5.8.1

> <Gold.Id.Protein>
6NUR|6NUR_protein|mol2

> <Gold.PLP.Fitness>
45.9309

> <Gold.PLP.PLP>
-41.1242

> <Gold.PLP.part.hbond>
-3.0000

> <Gold.PLP.part.metal>
0.0000

> <Gold.PLP.part.buried>
-4.3050

> <Gold.PLP.part.nonpolar>
-34.4349

> <Gold.PLP.part.repulsive>
0.2773

> <Gold.PLP.ligand.clash>
0.0000

> <Gold.PLP.ligand.torsion>
0.6066

> <Gold.PLP.Chemscore.Hbond>
1.9939

> <Gold.PLP.Chemscore.CHOScore>
0.0000

> <Gold.PLP.Chemscore.Metal>
0.0000

> <Gold.Chemscore.Hbonds>
donor molecule, donor type, donor heavy atom, donor atom, acceptor molecule, acceptor atom, score
      L1  H     6    31       P1  8028  1.00
      L1  H    13    35       P1  7948  0.94

> <Gold.PLP.Chemscore.Internal.Correction>
0.0381

> <Gold.Rescore>
     Score         DG    S(hbond)    S(metal)    S(lipo)     H(rot)  DE(clash)    DE(int)     intcor
     15.12     -18.25       1.99        0.00      97.21       2.05       0.07       3.06       ----

> <Gold.Chemscore.Fitness>
15.1206

> <Gold.Chemscore.DG>
-18.2525

> <Gold.Chemscore.ZeroCoef>
-5.4800

> <Gold.Chemscore.Hbond>
1.9921

> <Gold.Chemscore.Metal>
0.0000

> <Gold.Chemscore.Lipo>
97.2078

> <Gold.Chemscore.Internal_Hbond>
0.0000

> <Gold.Chemscore.DEClash>
0.0694

> <Gold.Chemscore.DEInternal>
3.0624

> <Gold.Chemscore.Rot>
2.0526

> <Gold.Chemscore.Internal.Correction>
   9.000000E+99

> <Gold.Chemscore.Hbonds>
donor molecule, donor type, donor heavy atom, donor atom, acceptor molecule, acceptor atom, score
      L1  H     6    31       P1  8028  0.96
      L1  H    13    35       P1  7948  0.83

> <Gold.Chemscore.Hbond.Weighted>
-6.6538

> <Gold.Chemscore.Metal.Weighted>
-0.0000

> <Gold.Chemscore.Lipo.Weighted>
-11.3733

> <Gold.Chemscore.Internal_Hbond.Weighted>
0.0000

> <Gold.Chemscore.DEClash.Weighted>
0.0694

> <Gold.Chemscore.DEInternal.Weighted>
3.0624

> <Gold.Chemscore.Rot.Weighted>
5.2546

> <Gold.Chemscore.Internal.Correction.Weighted>
   9.000000E+99

> <Gold.Protein.RotatedTorsions>
[ 6907 6896 6895 6894 ] final    7.79 input  -60.11 | X-H torsion
[ 7974 7965 7964 7962 ] final   85.59 input  175.53 | X-H torsion
[ 8008 7997 7996 7995 ] final   29.03 input   59.86 | X-H torsion
[ 10167 10162 10161 10158 ] final   22.49 input  -65.29 | X-H torsion
[ 10718 10713 10712 10709 ] final  -25.05 input   66.30 | X-H torsion
[ 10763 10752 10751 10750 ] final  -86.37 input  -60.55 | X-H torsion
[ 11005 11000 10999 10996 ] final   28.89 input  -57.11 | X-H torsion

> <Gold.Protein.ActiveResidues>
 VAL166  LYS551  ARG553  GLY616  TRP617  ASP618  TYR619  PRO620  LYS621  CYS622 
 ASP623  PHE694  ASN695  SER759  ASP760  ASP761  ALA762  ILE779  LEU786  VAL792 
 PHE793  MET794  SER795  GLU796  ALA797  LYS798  CYS799  TRP800  GLU811  SER814 

> <Gold.Protein.RotatedAtoms>
  151.6955  135.0939  160.0241 H   0  0  0  0  0  0  0  0  0  0  0  0  # atno 6907 bound_to 6896
  152.3752  133.6468  159.6127 H   0  0  0  0  0  0  0  0  0  0  0  0  # atno 6908 bound_to 6896
  150.7704  133.9121  159.3414 H   0  0  0  0  0  0  0  0  0  0  0  0  # atno 6909 bound_to 6896
  145.5835  139.2328  143.2339 H   0  0  0  0  0  0  0  0  0  0  0  0  # atno 7974 bound_to 7965
  155.0680  140.3197  155.4639 H   0  0  0  0  0  0  0  0  0  0  0  0  # atno 8008 bound_to 7997
  156.2797  140.2117  156.5752 H   0  0  0  0  0  0  0  0  0  0  0  0  # atno 8009 bound_to 7997
  154.7078  140.0501  157.0508 H   0  0  0  0  0  0  0  0  0  0  0  0  # atno 8010 bound_to 7997
  140.5344  143.9786  150.6483 H   0  0  0  0  0  0  0  0  0  0  0  0  # atno 10167 bound_to 10162
  156.4695  130.4521  149.6878 H   0  0  0  0  0  0  0  0  0  0  0  0  # atno 10718 bound_to 10713
  154.6217  135.5451  153.7582 H   0  0  0  0  0  0  0  0  0  0  0  0  # atno 10763 bound_to 10752
  153.0241  135.6414  154.1431 H   0  0  0  0  0  0  0  0  0  0  0  0  # atno 10764 bound_to 10752
  154.1365  135.2911  155.3152 H   0  0  0  0  0  0  0  0  0  0  0  0  # atno 10765 bound_to 10752
  140.3108  134.2652  155.7735 H   0  0  0  0  0  0  0  0  0  0  0  0  # atno 11005 bound_to 11000
  146.1699  140.6662  142.9238 LP  0  0  0  0  0  0  0  0  0  0  0  0  # atno 17320 bound_to 7965
  144.7383  140.4871  143.6888 LP  0  0  0  0  0  0  0  0  0  0  0  0  # atno 17321 bound_to 7965
  140.3169  143.3162  152.0823 LP  0  0  0  0  0  0  0  0  0  0  0  0  # atno 17342 bound_to 10162
  139.4965  144.6599  151.6488 LP  0  0  0  0  0  0  0  0  0  0  0  0  # atno 17343 bound_to 10162
  156.3633  130.7493  151.2468 LP  0  0  0  0  0  0  0  0  0  0  0  0  # atno 17370 bound_to 10713
  157.7492  131.0344  150.4315 LP  0  0  0  0  0  0  0  0  0  0  0  0  # atno 17371 bound_to 10713
  141.2108  133.7707  156.9904 LP  0  0  0  0  0  0  0  0  0  0  0  0  # atno 17394 bound_to 11000
  140.1026  134.9526  157.1946 LP  0  0  0  0  0  0  0  0  0  0  0  0  # atno 17395 bound_to 11000

$$$$
