#       Name:                AV-unprocessed.smi:3147
#       Creating user name   scv26
#       Creation time:       Fri Mar 27 17:39:24 2020


#       File generated by GOLD software.
#

@<TRIPOS>MOLECULE
AV-unprocessed.smi:3147
    41    42     1
SMALL
NO_CHARGES


@<TRIPOS>ATOM
      1 ****        -4.7067  -0.4113  -1.1643 C.3            1 S1                 0.0000
      2 ****        -3.5226   0.4946  -1.2137 C.2            1 S1                 0.0000
      3 ****        -3.6454   1.8565  -1.2993 N.pl3          1 S1                 1.0000
      4 ****        -2.4439   2.4354  -1.3212 C.2            1 S1                 0.0000
      5 ****        -1.5399   1.4521  -1.2497 N.pl3          1 S1                 0.0000
      6 ****        -0.0943   1.7261  -1.2439 C.3            1 S1                 0.0000
      7 ****         0.5213   1.6166   0.1554 C.2            1 S1                 0.0000
      8 ****        -0.1807   1.7176   1.1624 O.2            1 S1                 0.0000
      9 ****         1.8449   1.4039   0.1972 N.am           1 S1                 0.0000
     10 ****         2.6309   1.2196   1.4137 C.3            1 S1                 0.0000
     11 ****         2.7804  -0.2635   1.8019 C.3            1 S1                 0.0000
     12 ****         3.3861  -1.1746   0.7338 C.3            1 S1                 0.0000
     13 ****         2.9456  -2.5343   1.2275 C.3            1 S1                 0.0000
     14 ****         1.5491  -2.2457   1.7778 C.3            1 S1                 0.0000
     15 ****         1.5240  -0.8584   2.1104 O.3            1 S1                 0.0000
     16 ****        -2.1728   0.2306  -1.1798 C.2            1 S1                 0.0000
     17 ****        -1.4363  -1.0653  -1.0777 C.3            1 S1                 0.0000
     18 ****        -4.5412  -1.2837  -1.7970 H              1 S1                 0.0000
     19 ****        -5.6023   0.1035  -1.5136 H              1 S1                 0.0000
     20 ****        -4.8758  -0.7497  -0.1418 H              1 S1                 0.0000
     21 ****        -2.2446   3.4906  -1.3809 H              1 S1                 0.0000
     22 ****         0.3856   1.0240  -1.9268 H              1 S1                 0.0000
     23 ****         0.0761   2.7288  -1.6384 H              1 S1                 0.0000
     24 ****         2.3437   1.3386  -0.6784 H              1 S1                 0.0000
     25 ****         3.6180   1.6477   1.2385 H              1 S1                 0.0000
     26 ****         2.2002   1.7832   2.2428 H              1 S1                 0.0000
     27 ****         3.3935  -0.3301   2.7022 H              1 S1                 0.0000
     28 ****         2.9536  -0.9829  -0.2486 H              1 S1                 0.0000
     29 ****         4.4694  -1.0782   0.6568 H              1 S1                 0.0000
     30 ****         2.9481  -3.2966   0.4480 H              1 S1                 0.0000
     31 ****         3.6032  -2.8677   2.0317 H              1 S1                 0.0000
     32 ****         0.7911  -2.4345   1.0176 H              1 S1                 0.0000
     33 ****         1.3173  -2.8634   2.6457 H              1 S1                 0.0000
     34 ****        -2.1287  -1.9047  -1.1403 H              1 S1                 0.0000
     35 ****        -0.9117  -1.1229  -0.1242 H              1 S1                 0.0000
     36 ****        -0.7100  -1.1580  -1.8853 H              1 S1                 0.0000
     37 ****        -4.5241   2.3576  -1.3371 H              1 S1                 0.0000
     38 ****        -1.1645   1.8729   1.0725 LP             1 S1                 0.0000
     39 ****         0.2331   1.6443   2.0698 LP             1 S1                 0.0000
     40 ****         0.8042  -0.4045   1.5851 LP             1 S1                 0.0000
     41 ****         1.3391  -0.7550   3.0877 LP             1 S1                 0.0000
@<TRIPOS>BOND
    1    1    2 1     
    2    1   18 1     
    3    1   19 1     
    4    1   20 1     
    5    2   16 2     
    6    2    3 1     
    7    3    4 2     
    8    3   37 1     
    9    4    5 1     
   10    4   21 1     
   11    5    6 1     
   12    5   16 1     
   13    6    7 1     
   14    6   22 1     
   15    6   23 1     
   16    7    8 2     
   17    7    9 am    
   18    9   10 1     
   19    9   24 1     
   20   10   11 1     
   21   10   25 1     
   22   10   26 1     
   23   11   15 1     
   24   11   12 1     
   25   11   27 1     
   26   12   13 1     
   27   12   28 1     
   28   12   29 1     
   29   13   14 1     
   30   13   30 1     
   31   13   31 1     
   32   14   15 1     
   33   14   32 1     
   34   14   33 1     
   35   16   17 1     
   36   17   34 1     
   37   17   35 1     
   38   17   36 1     
   39    8   38 1     
   40    8   39 1     
   41   15   40 1     
   42   15   41 1     
@<TRIPOS>SUBSTRUCTURE
      1 S1             1
@<TRIPOS>SET
LONE_PAIRS      STATIC     ATOMS    <user>   **** ""
4 38 39 40 41
DONOR_HYDROGENS      STATIC     ATOMS    <user>   **** ""
2 37 24
ATOM$BLUE        STATIC     ATOMS    COLORGROUP SYSTEM
4 38 39 40 41
ATOM$RED        STATIC     ATOMS    COLORGROUP SYSTEM
2 37 24
