AV-unprocessed.smi:1278|AV-procd|sdf|5348|dock5
  -GOLD-   22720 4483D 1   1.00000     0.00000
 Structure written by MMmdl.
 39 40  0  0  0  0  0  0  0  0  2 V2000
  149.4065  141.4337  156.6411 C   0  0  0  0  0  0  0  0  0  0  0  0
  149.9872  141.2576  155.2268 C   0  0  1  0  0  0  0  0  0  0  0  0
  150.9854  140.0888  155.1318 C   0  0  0  0  0  0  0  0  0  0  0  0
  150.2628  138.7347  155.1596 C   0  0  0  0  0  0  0  0  0  0  0  0
  149.1628  138.6730  154.0881 C   0  0  0  0  0  0  0  0  0  0  0  0
  148.2012  139.7949  154.2426 N   0  3  2  0  0  0  0  0  0  0  0  0
  147.0430  139.6734  153.3222 C   0  0  0  0  0  0  0  0  0  0  0  0
  146.1327  138.4829  153.6809 C   0  0  0  0  0  0  0  0  0  0  0  0
  146.4947  137.2863  152.9297 N   0  0  0  0  0  0  0  0  0  0  0  0
  145.6177  136.4517  152.3531 C   0  0  0  0  0  0  0  0  0  0  0  0
  144.3978  136.6099  152.4111 O   0  0  0  0  0  0  0  0  0  0  0  0
  146.2431  135.4431  151.7213 N   0  0  0  0  0  0  0  0  0  0  0  0
  145.6623  134.3655  151.0023 C   0  0  0  0  0  0  0  0  0  0  0  0
  144.3867  134.3284  150.5991 N   0  0  0  0  0  0  0  0  0  0  0  0
  144.0879  133.1481  149.9136 C   0  0  0  0  0  0  0  0  0  0  0  0
  145.1549  132.2914  149.8045 C   0  0  0  0  0  0  0  0  0  0  0  0
  146.5861  132.9360  150.5635 S   0  0  0  0  0  0  0  0  0  0  0  0
  148.8833  141.1151  154.1587 C   0  0  0  0  0  0  0  0  0  0  0  0
  148.8097  140.5747  156.9476 H   0  0  0  0  0  0  0  0  0  0  0  0
  148.7646  142.3136  156.6925 H   0  0  0  0  0  0  0  0  0  0  0  0
  150.2005  141.5654  157.3766 H   0  0  0  0  0  0  0  0  0  0  0  0
  150.5387  142.1726  155.0063 H   0  0  0  0  0  0  0  0  0  0  0  0
  151.5476  140.1719  154.2005 H   0  0  0  0  0  0  0  0  0  0  0  0
  151.7197  140.1437  155.9364 H   0  0  0  0  0  0  0  0  0  0  0  0
  150.9806  137.9295  155.0003 H   0  0  0  0  0  0  0  0  0  0  0  0
  149.8274  138.5636  156.1446 H   0  0  0  0  0  0  0  0  0  0  0  0
  149.6033  138.7040  153.0903 H   0  0  0  0  0  0  0  0  0  0  0  0
  148.6384  137.7205  154.1741 H   0  0  0  0  0  0  0  0  0  0  0  0
  146.4778  140.6067  153.3111 H   0  0  0  0  0  0  0  0  0  0  0  0
  147.4132  139.5272  152.3065 H   0  0  0  0  0  0  0  0  0  0  0  0
  146.1777  138.2766  154.7519 H   0  0  0  0  0  0  0  0  0  0  0  0
  145.0913  138.7056  153.4521 H   0  0  0  0  0  0  0  0  0  0  0  0
  147.4796  137.0852  152.8341 H   0  0  0  0  0  0  0  0  0  0  0  0
  147.2520  135.4467  151.7547 H   0  0  0  0  0  0  0  0  0  0  0  0
  143.0870  132.9996  149.5362 H   0  0  0  0  0  0  0  0  0  0  0  0
  145.1854  131.3240  149.3257 H   0  0  0  0  0  0  0  0  0  0  0  0
  148.1667  141.9275  154.2743 H   0  0  0  0  0  0  0  0  0  0  0  0
  149.3173  141.2270  153.1636 H   0  0  0  0  0  0  0  0  0  0  0  0
  147.8286  139.7143  155.1782 H   0  0  0  0  0  0  0  0  0  0  0  0
  1  2  1  0  0  0  0
  1 19  1  0  0  0  0
  1 20  1  0  0  0  0
  1 21  1  0  0  0  0
  2 18  1  0  0  0  0
  2  3  1  0  0  0  0
  2 22  1  0  0  0  0
  3  4  1  0  0  0  0
  3 23  1  0  0  0  0
  3 24  1  0  0  0  0
  4  5  1  0  0  0  0
  4 25  1  0  0  0  0
  4 26  1  0  0  0  0
  5  6  1  0  0  0  0
  5 27  1  0  0  0  0
  5 28  1  0  0  0  0
  6  7  1  0  0  0  0
  6 18  1  0  0  0  0
  6 39  1  0  0  0  0
  7  8  1  0  0  0  0
  7 29  1  0  0  0  0
  7 30  1  0  0  0  0
  8  9  1  0  0  0  0
  8 31  1  0  0  0  0
  8 32  1  0  0  0  0
  9 10  1  0  0  0  0
  9 33  1  0  0  0  0
 10 11  2  0  0  0  0
 10 12  1  0  0  0  0
 12 13  1  0  0  0  0
 12 34  1  0  0  0  0
 13 17  1  0  0  0  0
 13 14  2  0  0  0  0
 14 15  1  0  0  0  0
 15 16  2  0  0  0  0
 15 35  1  0  0  0  0
 16 17  1  0  0  0  0
 16 36  1  0  0  0  0
 18 37  1  0  0  0  0
 18 38  1  0  0  0  0
M  CHG  1   6   1
M  END
> <s_m_source_file>
AV-unprocessed.smi

> <i_m_source_file_index>
1278

> <i_lp_mmshare_version>
43012

> <i_f3d_flags>
0

> <s_epik_input>
W0NIM11bQ0BASF0xW0NIMl1bQ0gyXVtDSDJdTihbQ0gyXTEpW0NIMl1bQ0gyXVtOSF1DKD1PKVtOSF1jMm5bY0hdW2NIXXMy

> <s_epik_cmdline>
J2VwaWtfcHl0aG9uJywgJy1waCcsICc3LjAnLCAnLXRuJywgJzgnLCAnLW1hJywgJzIwMCcsICctbWV0YWxfYmluZGluZycsICctaW1hZScsICc8aW5maWxlLm1hZT4nLCAnLW9tYWUnLCAnPG91dGZpbGUubWFlPic=

> <r_lp_tautomer_probability>
0.999

> <r_epik_Ionization_Penalty>
0.00222194

> <r_epik_Ionization_Penalty_Charging>
0.00208169

> <r_epik_Ionization_Penalty_Neutral>
0.000140251

> <r_epik_State_Penalty>
0.00142585

> <r_epik_Charging_Adjusted_Penalty>
0.00350754

> <i_epik_Tot_Q>
1

> <i_epik_Tot_abs_Q>
1

> <r_epik_Metal_State_Penalty>
0.0570424

> <b_epik_Metal_Only>
0

> <s_lp_Force_Field>
OPLS_2005

> <r_lp_Energy>
16.7193

> <b_lp_Chiralities_Consistent>
1

> <s_lp_Variant>
AV-unprocessed.smi:1278-2

> <Gold.Version>
5.8.1

> <Gold.Id.Protein>
6NUR|6NUR_protein|mol2

> <Gold.PLP.Fitness>
39.6191

> <Gold.PLP.PLP>
-31.5331

> <Gold.PLP.part.hbond>
-2.0000

> <Gold.PLP.part.metal>
0.0000

> <Gold.PLP.part.buried>
-0.9342

> <Gold.PLP.part.nonpolar>
-28.3385

> <Gold.PLP.part.repulsive>
0.8218

> <Gold.PLP.ligand.clash>
0.0000

> <Gold.PLP.ligand.torsion>
0.4580

> <Gold.PLP.Chemscore.Hbond>
1.9920

> <Gold.PLP.Chemscore.CHOScore>
1.0000

> <Gold.PLP.Chemscore.Metal>
0.0000

> <Gold.Chemscore.Hbonds>
donor molecule, donor type, donor heavy atom, donor atom, acceptor molecule, acceptor atom, score
      L1  H     9    33       P1  7948  0.99
      L1  H    12    34       P1  7948  1.00
      L1  C    15    35       P1 10186  1.00

> <Gold.PLP.Chemscore.Internal.Correction>
0.0261

> <Gold.Rescore>
     Score         DG    S(hbond)    S(metal)    S(lipo)     H(rot)  DE(clash)    DE(int)     intcor
     15.36     -17.09       1.91        0.00      79.68       1.60       0.06       1.67       ----

> <Gold.Chemscore.Fitness>
15.3560

> <Gold.Chemscore.DG>
-17.0878

> <Gold.Chemscore.ZeroCoef>
-5.4800

> <Gold.Chemscore.Hbond>
1.9106

> <Gold.Chemscore.Metal>
0.0000

> <Gold.Chemscore.Lipo>
79.6813

> <Gold.Chemscore.Internal_Hbond>
0.0000

> <Gold.Chemscore.DEClash>
0.0620

> <Gold.Chemscore.DEInternal>
1.6697

> <Gold.Chemscore.Rot>
1.6001

> <Gold.Chemscore.Internal.Correction>
   9.000000E+99

> <Gold.Chemscore.Hbonds>
donor molecule, donor type, donor heavy atom, donor atom, acceptor molecule, acceptor atom, score
      L1  H     9    33       P1  7948  0.93
      L1  H    12    34       P1  7948  0.98

> <Gold.Chemscore.Hbond.Weighted>
-6.3813

> <Gold.Chemscore.Metal.Weighted>
-0.0000

> <Gold.Chemscore.Lipo.Weighted>
-9.3227

> <Gold.Chemscore.Internal_Hbond.Weighted>
0.0000

> <Gold.Chemscore.DEClash.Weighted>
0.0620

> <Gold.Chemscore.DEInternal.Weighted>
1.6697

> <Gold.Chemscore.Rot.Weighted>
4.0963

> <Gold.Chemscore.Internal.Correction.Weighted>
   9.000000E+99

> <Gold.Protein.RotatedTorsions>
[ 6907 6896 6895 6894 ] final -128.05 input  -60.11 | X-H torsion
[ 7974 7965 7964 7962 ] final  -67.14 input  175.53 | X-H torsion
[ 8008 7997 7996 7995 ] final   30.78 input   59.86 | X-H torsion
[ 10167 10162 10161 10158 ] final  100.02 input  -65.29 | X-H torsion
[ 10718 10713 10712 10709 ] final   23.15 input   66.30 | X-H torsion
[ 10763 10752 10751 10750 ] final  161.89 input  -60.55 | X-H torsion
[ 11005 11000 10999 10996 ] final  152.54 input  -57.11 | X-H torsion

> <Gold.Protein.ActiveResidues>
 VAL166  LYS551  ARG553  GLY616  TRP617  ASP618  TYR619  PRO620  LYS621  CYS622 
 ASP623  PHE694  ASN695  SER759  ASP760  ASP761  ALA762  ILE779  LEU786  VAL792 
 PHE793  MET794  SER795  GLU796  ALA797  LYS798  CYS799  TRP800  GLU811  SER814 

> <Gold.Protein.RotatedAtoms>
  150.9138  133.6964  159.2848 H   0  0  0  0  0  0  0  0  0  0  0  0  # atno 6907 bound_to 6896
  151.4442  135.1022  159.9688 H   0  0  0  0  0  0  0  0  0  0  0  0  # atno 6908 bound_to 6896
  152.4944  133.8539  159.7271 H   0  0  0  0  0  0  0  0  0  0  0  0  # atno 6909 bound_to 6896
  145.7330  140.8988  143.0570 H   0  0  0  0  0  0  0  0  0  0  0  0  # atno 7974 bound_to 7965
  155.0959  140.3224  155.4560 H   0  0  0  0  0  0  0  0  0  0  0  0  # atno 8008 bound_to 7997
  156.2730  140.2069  156.6032 H   0  0  0  0  0  0  0  0  0  0  0  0  # atno 8009 bound_to 7997
  154.6867  140.0520  157.0309 H   0  0  0  0  0  0  0  0  0  0  0  0  # atno 8010 bound_to 7997
  139.7565  144.6968  151.0355 H   0  0  0  0  0  0  0  0  0  0  0  0  # atno 10167 bound_to 10162
  157.1621  130.6721  149.6048 H   0  0  0  0  0  0  0  0  0  0  0  0  # atno 10718 bound_to 10713
  154.2700  135.2766  155.2742 H   0  0  0  0  0  0  0  0  0  0  0  0  # atno 10763 bound_to 10752
  154.5310  135.5729  153.6762 H   0  0  0  0  0  0  0  0  0  0  0  0  # atno 10764 bound_to 10752
  152.9947  135.6227  154.2854 H   0  0  0  0  0  0  0  0  0  0  0  0  # atno 10765 bound_to 10752
  140.1316  134.8798  157.2212 H   0  0  0  0  0  0  0  0  0  0  0  0  # atno 11005 bound_to 11000
  144.6888  139.9356  143.7473 LP  0  0  0  0  0  0  0  0  0  0  0  0  # atno 17320 bound_to 7965
  146.0520  139.3520  143.0634 LP  0  0  0  0  0  0  0  0  0  0  0  0  # atno 17321 bound_to 7965
  140.7803  143.4747  151.0098 LP  0  0  0  0  0  0  0  0  0  0  0  0  # atno 17342 bound_to 10162
  139.8434  143.7533  152.3180 LP  0  0  0  0  0  0  0  0  0  0  0  0  # atno 17343 bound_to 10162
  155.9752  130.4708  150.6443 LP  0  0  0  0  0  0  0  0  0  0  0  0  # atno 17370 bound_to 10713
  157.4123  131.0825  151.1209 LP  0  0  0  0  0  0  0  0  0  0  0  0  # atno 17371 bound_to 10713
  140.2834  134.3323  155.7336 LP  0  0  0  0  0  0  0  0  0  0  0  0  # atno 17394 bound_to 11000
  141.2171  133.7492  156.9398 LP  0  0  0  0  0  0  0  0  0  0  0  0  # atno 17395 bound_to 11000

$$$$
