AV-unprocessed.smi:582|AV-procd|sdf|2995|dock5
  -GOLD-   2262023503D 1   1.00000     0.00000
 Structure written by MMmdl.
 26 27  0  0  0  0  0  0  0  0  2 V2000
  154.9846  135.3290  157.1944 O   0  0  0  0  0  0  0  0  0  0  0  0
  154.5522  135.4944  158.3569 C   0  0  0  0  0  0  0  0  0  0  0  0
  154.4899  134.5613  159.1879 O   0  5  0  0  0  0  0  0  0  0  0  0
  154.0910  136.8642  158.7689 C   0  0  0  0  0  0  0  0  0  0  0  0
  153.8483  137.1768  160.1251 C   0  0  0  0  0  0  0  0  0  0  0  0
  153.4179  138.4740  160.4644 C   0  0  0  0  0  0  0  0  0  0  0  0
  153.2422  139.4211  159.4353 C   0  0  0  0  0  0  0  0  0  0  0  0
  152.8156  140.7145  159.7679 N   0  0  0  0  0  0  0  0  0  0  0  0
  153.6871  141.3822  160.7264 C   0  0  0  0  0  0  0  0  0  0  0  0
  153.0833  142.7383  161.1300 C   0  0  0  0  0  0  0  0  0  0  0  0
  152.8538  143.5257  159.9647 O   0  0  0  0  0  0  0  0  0  0  0  0
  151.9446  142.8982  159.0645 C   0  0  0  0  0  0  0  0  0  0  0  0
  152.5207  141.5468  158.6080 C   0  0  0  0  0  0  0  0  0  0  0  0
  153.4715  139.1329  158.1324 N   0  0  0  0  0  0  0  0  0  0  0  0
  153.8846  137.8865  157.8145 C   0  0  0  0  0  0  0  0  0  0  0  0
  153.9869  136.4407  160.9035 H   0  0  0  0  0  0  0  0  0  0  0  0
  153.2272  138.7333  161.4955 H   0  0  0  0  0  0  0  0  0  0  0  0
  153.8186  140.7527  161.6075 H   0  0  0  0  0  0  0  0  0  0  0  0
  154.6740  141.5330  160.2864 H   0  0  0  0  0  0  0  0  0  0  0  0
  152.1499  142.6006  161.6783 H   0  0  0  0  0  0  0  0  0  0  0  0
  153.7657  143.2723  161.7913 H   0  0  0  0  0  0  0  0  0  0  0  0
  150.9742  142.7647  159.5453 H   0  0  0  0  0  0  0  0  0  0  0  0
  151.7880  143.5502  158.2052 H   0  0  0  0  0  0  0  0  0  0  0  0
  153.4304  141.7100  158.0282 H   0  0  0  0  0  0  0  0  0  0  0  0
  151.8096  141.0357  157.9579 H   0  0  0  0  0  0  0  0  0  0  0  0
  154.0527  137.7116  156.7619 H   0  0  0  0  0  0  0  0  0  0  0  0
  1  2  2  0  0  0  0
  2  3  1  0  0  0  0
  2  4  1  0  0  0  0
  4 15  1  0  0  0  0
  4  5  2  0  0  0  0
  5  6  1  0  0  0  0
  5 16  1  0  0  0  0
  6  7  2  0  0  0  0
  6 17  1  0  0  0  0
  7  8  1  0  0  0  0
  7 14  1  0  0  0  0
  8 13  1  0  0  0  0
  8  9  1  0  0  0  0
  9 10  1  0  0  0  0
  9 18  1  0  0  0  0
  9 19  1  0  0  0  0
 10 11  1  0  0  0  0
 10 20  1  0  0  0  0
 10 21  1  0  0  0  0
 11 12  1  0  0  0  0
 12 13  1  0  0  0  0
 12 22  1  0  0  0  0
 12 23  1  0  0  0  0
 13 24  1  0  0  0  0
 13 25  1  0  0  0  0
 14 15  2  0  0  0  0
 15 26  1  0  0  0  0
M  CHG  1   3  -1
M  END
> <s_m_source_file>
AV-unprocessed.smi

> <i_m_source_file_index>
582

> <i_lp_mmshare_version>
43012

> <i_f3d_flags>
0

> <s_epik_input>
Tz1DKFtPSF0pYzFbY0hdW2NIXWMobltjSF0xKU4yW0NIMl1bQ0gyXU9bQ0gyXVtDSDJdMg==

> <s_epik_cmdline>
J2VwaWtfcHl0aG9uJywgJy1waCcsICc3LjAnLCAnLXRuJywgJzgnLCAnLW1hJywgJzIwMCcsICctbWV0YWxfYmluZGluZycsICctaW1hZScsICc8aW5maWxlLm1hZT4nLCAnLW9tYWUnLCAnPG91dGZpbGUubWFlPic=

> <r_epik_Ionization_Penalty>
0.00875305

> <r_epik_Ionization_Penalty_Charging>
0.000191694

> <r_epik_Ionization_Penalty_Neutral>
0.00856136

> <r_epik_State_Penalty>
0.00645777

> <r_epik_Charging_Adjusted_Penalty>
0.00664946

> <i_epik_Tot_Q>
-1

> <i_epik_Tot_abs_Q>
1

> <r_epik_Metal_State_Penalty>
6.49305e-06

> <b_epik_Metal_Only>
0

> <s_lp_Force_Field>
OPLS_2005

> <r_lp_Energy>
18.8372

> <b_lp_Chiralities_Consistent>
1

> <s_lp_Variant>
AV-unprocessed.smi:582-1

> <Gold.Version>
5.8.1

> <Gold.Id.Protein>
6NUR|6NUR_protein|mol2

> <Gold.PLP.Fitness>
38.2100

> <Gold.PLP.PLP>
-23.3706

> <Gold.PLP.part.hbond>
-3.0000

> <Gold.PLP.part.metal>
0.0000

> <Gold.PLP.part.buried>
-4.2753

> <Gold.PLP.part.nonpolar>
-15.6769

> <Gold.PLP.part.repulsive>
0.0000

> <Gold.PLP.ligand.clash>
0.0000

> <Gold.PLP.ligand.torsion>
0.1309

> <Gold.PLP.Chemscore.Hbond>
5.0000

> <Gold.PLP.Chemscore.CHOScore>
0.0000

> <Gold.PLP.Chemscore.Metal>
0.0000

> <Gold.Chemscore.Hbonds>
donor molecule, donor type, donor heavy atom, donor atom, acceptor molecule, acceptor atom, score
      P1  H  6896  6908       L1     3  2.00
      P1  H  7997  8009       L1    14  0.85
      P1  H 10752 10764       L1     1  2.00

> <Gold.PLP.Chemscore.Internal.Correction>
0.1011

> <Gold.Rescore>
     Score         DG    S(hbond)    S(metal)    S(lipo)     H(rot)  DE(clash)    DE(int)     intcor
     18.09     -18.28       2.47        0.00      60.88       1.00       0.08       0.11       ----

> <Gold.Chemscore.Fitness>
18.0905

> <Gold.Chemscore.DG>
-18.2838

> <Gold.Chemscore.ZeroCoef>
-5.4800

> <Gold.Chemscore.Hbond>
2.4673

> <Gold.Chemscore.Metal>
0.0000

> <Gold.Chemscore.Lipo>
60.8794

> <Gold.Chemscore.Internal_Hbond>
0.0000

> <Gold.Chemscore.DEClash>
0.0834

> <Gold.Chemscore.DEInternal>
0.1099

> <Gold.Chemscore.Rot>
1.0000

> <Gold.Chemscore.Internal.Correction>
   9.000000E+99

> <Gold.Chemscore.Hbonds>
donor molecule, donor type, donor heavy atom, donor atom, acceptor molecule, acceptor atom, score
      P1  H  6896  6908       L1     3  0.82
      P1  H  7997  8009       L1    14  0.15
      P1  H 10752 10764       L1     1  0.97

> <Gold.Chemscore.Hbond.Weighted>
-8.2409

> <Gold.Chemscore.Metal.Weighted>
-0.0000

> <Gold.Chemscore.Lipo.Weighted>
-7.1229

> <Gold.Chemscore.Internal_Hbond.Weighted>
0.0000

> <Gold.Chemscore.DEClash.Weighted>
0.0834

> <Gold.Chemscore.DEInternal.Weighted>
0.1099

> <Gold.Chemscore.Rot.Weighted>
2.5600

> <Gold.Chemscore.Internal.Correction.Weighted>
   9.000000E+99

> <Gold.Protein.RotatedTorsions>
[ 6907 6896 6895 6894 ] final  -27.30 input  -60.11 | X-H torsion
[ 7974 7965 7964 7962 ] final   -2.06 input  175.53 | X-H torsion
[ 8008 7997 7996 7995 ] final  158.94 input   59.86 | X-H torsion
[ 10167 10162 10161 10158 ] final -121.70 input  -65.29 | X-H torsion
[ 10718 10713 10712 10709 ] final  -24.42 input   66.30 | X-H torsion
[ 10763 10752 10751 10750 ] final   47.05 input  -60.55 | X-H torsion
[ 11005 11000 10999 10996 ] final  -53.25 input  -57.11 | X-H torsion

> <Gold.Protein.ActiveResidues>
 VAL166  LYS551  ARG553  GLY616  TRP617  ASP618  TYR619  PRO620  LYS621  CYS622 
 ASP623  PHE694  ASN695  SER759  ASP760  ASP761  ALA762  ILE779  LEU786  VAL792 
 PHE793  MET794  SER795  GLU796  ALA797  LYS798  CYS799  TRP800  GLU811  SER814 

> <Gold.Protein.RotatedAtoms>
  151.1488  135.0217  159.8658 H   0  0  0  0  0  0  0  0  0  0  0  0  # atno 6907 bound_to 6896
  152.5453  134.1413  159.8490 H   0  0  0  0  0  0  0  0  0  0  0  0  # atno 6908 bound_to 6896
  151.1496  133.4870  159.2628 H   0  0  0  0  0  0  0  0  0  0  0  0  # atno 6909 bound_to 6896
  146.2409  140.1515  142.8334 H   0  0  0  0  0  0  0  0  0  0  0  0  # atno 7974 bound_to 7965
  156.2271  140.1844  156.7336 H   0  0  0  0  0  0  0  0  0  0  0  0  # atno 8008 bound_to 7997
  154.5959  140.0643  156.9330 H   0  0  0  0  0  0  0  0  0  0  0  0  # atno 8009 bound_to 7997
  155.2257  140.3311  155.4312 H   0  0  0  0  0  0  0  0  0  0  0  0  # atno 8010 bound_to 7997
  140.0222  143.5332  152.2215 H   0  0  0  0  0  0  0  0  0  0  0  0  # atno 10167 bound_to 10162
  156.4778  130.4538  149.6830 H   0  0  0  0  0  0  0  0  0  0  0  0  # atno 10718 bound_to 10713
  152.9804  135.5989  154.3699 H   0  0  0  0  0  0  0  0  0  0  0  0  # atno 10763 bound_to 10752
  154.3373  135.2768  155.2443 H   0  0  0  0  0  0  0  0  0  0  0  0  # atno 10764 bound_to 10752
  154.4540  135.5982  153.6266 H   0  0  0  0  0  0  0  0  0  0  0  0  # atno 10765 bound_to 10752
  141.0966  133.6623  156.4145 H   0  0  0  0  0  0  0  0  0  0  0  0  # atno 11005 bound_to 11000
  145.0164  140.8757  143.5193 LP  0  0  0  0  0  0  0  0  0  0  0  0  # atno 17320 bound_to 7965
  145.1556  139.2488  143.5418 LP  0  0  0  0  0  0  0  0  0  0  0  0  # atno 17321 bound_to 7965
  139.6132  144.7613  151.2905 LP  0  0  0  0  0  0  0  0  0  0  0  0  # atno 17342 bound_to 10162
  140.7337  143.6786  150.8020 LP  0  0  0  0  0  0  0  0  0  0  0  0  # atno 17343 bound_to 10162
  156.3552  130.7453  151.2418 LP  0  0  0  0  0  0  0  0  0  0  0  0  # atno 17370 bound_to 10713
  157.7486  131.0366  150.4416 LP  0  0  0  0  0  0  0  0  0  0  0  0  # atno 17371 bound_to 10713
  140.5124  134.6382  157.5289 LP  0  0  0  0  0  0  0  0  0  0  0  0  # atno 17394 bound_to 11000
  139.9805  134.7145  155.9868 LP  0  0  0  0  0  0  0  0  0  0  0  0  # atno 17395 bound_to 11000

$$$$
