AV-unprocessed.smi:34|AV-procd|sdf|225|dock4
  -GOLD-   2262015543D 1   1.00000     0.00000
 Structure written by MMmdl.
 55 59  0  0  0  0  0  0  0  0  1 V2000
  146.7733  133.8167  153.7734 O   0  0  0  0  0  0  0  0  0  0  0  0
  146.2623  134.4327  152.8376 C   0  0  0  0  0  0  0  0  0  0  0  0
  146.2479  135.8842  152.7836 N   0  0  0  0  0  0  0  0  0  0  0  0
  146.8184  136.7594  153.6446 C   0  0  0  0  0  0  0  0  0  0  0  0
  147.2763  136.3853  154.8682 N   0  0  0  0  0  0  0  0  0  0  0  0
  147.8323  137.2864  155.6828 C   0  0  0  0  0  0  0  0  0  0  0  0
  148.0262  138.5898  155.4743 N   0  0  0  0  0  0  0  0  0  0  0  0
  147.5690  138.9755  154.2481 C   0  0  0  0  0  0  0  0  0  0  0  0
  146.9575  138.1254  153.2847 C   0  0  0  0  0  0  0  0  0  0  0  0
  146.6215  138.8603  152.1551 N   0  0  0  0  0  0  0  0  0  0  0  0
  147.0160  140.0727  152.4378 C   0  0  0  0  0  0  0  0  0  0  0  0
  147.5950  140.2330  153.6775 N   0  0  0  0  0  0  0  0  0  0  0  0
  148.1428  141.4947  154.2732 C   0  0  2  0  0  0  0  0  0  0  0  0
  149.5156  141.3194  154.4535 O   0  0  0  0  0  0  0  0  0  0  0  0
  149.8911  141.7325  155.7611 C   0  0  2  0  0  0  0  0  0  0  0  0
  151.1274  140.9510  156.2212 C   0  0  0  0  0  0  0  0  0  0  0  0
  151.6174  141.5043  157.4315 O   0  0  0  0  0  0  0  0  0  0  0  0
  152.4038  140.7674  158.2397 C   0  0  0  0  0  0  0  0  0  0  0  0
  152.8871  139.6807  157.9157 O   0  0  0  0  0  0  0  0  0  0  0  0
  152.6290  141.4050  159.5690 C   0  0  0  0  0  0  0  0  0  0  0  0
  152.0280  142.6546  159.8491 C   0  0  0  0  0  0  0  0  0  0  0  0
  152.2235  143.2815  161.0949 C   0  0  0  0  0  0  0  0  0  0  0  0
  153.0229  142.6669  162.0761 C   0  0  0  0  0  0  0  0  0  0  0  0
  153.6272  141.4244  161.8096 C   0  0  0  0  0  0  0  0  0  0  0  0
  153.4327  140.7956  160.5643 C   0  0  0  0  0  0  0  0  0  0  0  0
  148.6431  141.4887  156.6077 C   0  0  1  0  0  0  0  0  0  0  0  0
  148.6185  142.2753  157.6845 F   0  0  0  0  0  0  0  0  0  0  0  0
  147.5190  141.8299  155.6462 C   0  0  2  0  0  0  0  0  0  0  0  0
  146.3401  141.1103  155.9609 O   0  0  0  0  0  0  0  0  0  0  0  0
  145.5449  133.7244  151.7252 C   0  0  0  0  0  0  0  0  0  0  0  0
  145.6858  132.3268  151.5704 C   0  0  0  0  0  0  0  0  0  0  0  0
  145.0301  131.6561  150.5196 C   0  0  0  0  0  0  0  0  0  0  0  0
  144.2332  132.3775  149.6110 C   0  0  0  0  0  0  0  0  0  0  0  0
  144.0964  133.7714  149.7506 C   0  0  0  0  0  0  0  0  0  0  0  0
  144.7526  134.4437  150.8001 C   0  0  0  0  0  0  0  0  0  0  0  0
  145.7700  136.2911  151.9930 H   0  0  0  0  0  0  0  0  0  0  0  0
  148.1707  136.9095  156.6365 H   0  0  0  0  0  0  0  0  0  0  0  0
  146.8927  140.8909  151.7433 H   0  0  0  0  0  0  0  0  0  0  0  0
  147.9473  142.2592  153.5204 H   0  0  0  0  0  0  0  0  0  0  0  0
  150.1095  142.8010  155.7172 H   0  0  0  0  0  0  0  0  0  0  0  0
  150.8804  139.8972  156.3577 H   0  0  0  0  0  0  0  0  0  0  0  0
  151.9066  141.0082  155.4603 H   0  0  0  0  0  0  0  0  0  0  0  0
  151.4100  143.1460  159.1113 H   0  0  0  0  0  0  0  0  0  0  0  0
  151.7593  144.2356  161.2972 H   0  0  0  0  0  0  0  0  0  0  0  0
  153.1726  143.1478  163.0315 H   0  0  0  0  0  0  0  0  0  0  0  0
  154.2422  140.9520  162.5614 H   0  0  0  0  0  0  0  0  0  0  0  0
  153.9122  139.8431  160.3923 H   0  0  0  0  0  0  0  0  0  0  0  0
  148.5880  140.4512  156.9397 H   0  0  0  0  0  0  0  0  0  0  0  0
  147.3175  142.9018  155.6675 H   0  0  0  0  0  0  0  0  0  0  0  0
  145.7613  141.1400  155.2147 H   0  0  0  0  0  0  0  0  0  0  0  0
  146.2947  131.7583  152.2587 H   0  0  0  0  0  0  0  0  0  0  0  0
  145.1401  130.5873  150.4104 H   0  0  0  0  0  0  0  0  0  0  0  0
  143.7307  131.8626  148.8056 H   0  0  0  0  0  0  0  0  0  0  0  0
  143.4897  134.3265  149.0502 H   0  0  0  0  0  0  0  0  0  0  0  0
  144.6423  135.5151  150.8817 H   0  0  0  0  0  0  0  0  0  0  0  0
  1  2  2  0  0  0  0
  2  3  1  0  0  0  0
  2 30  1  0  0  0  0
  3  4  1  0  0  0  0
  3 36  1  0  0  0  0
  4  9  1  0  0  0  0
  4  5  2  0  0  0  0
  5  6  1  0  0  0  0
  6  7  2  0  0  0  0
  6 37  1  0  0  0  0
  7  8  1  0  0  0  0
  8 12  1  0  0  0  0
  8  9  2  0  0  0  0
  9 10  1  0  0  0  0
 10 11  2  0  0  0  0
 11 12  1  0  0  0  0
 11 38  1  0  0  0  0
 12 13  1  0  0  0  0
 13 28  1  0  0  0  0
 13 14  1  0  0  0  0
 13 39  1  0  0  0  0
 14 15  1  0  0  0  0
 15 16  1  0  0  0  0
 15 26  1  0  0  0  0
 15 40  1  0  0  0  0
 16 17  1  0  0  0  0
 16 41  1  0  0  0  0
 16 42  1  0  0  0  0
 17 18  1  0  0  0  0
 18 19  2  0  0  0  0
 18 20  1  0  0  0  0
 20 25  1  0  0  0  0
 20 21  2  0  0  0  0
 21 22  1  0  0  0  0
 21 43  1  0  0  0  0
 22 23  2  0  0  0  0
 22 44  1  0  0  0  0
 23 24  1  0  0  0  0
 23 45  1  0  0  0  0
 24 25  2  0  0  0  0
 24 46  1  0  0  0  0
 25 47  1  0  0  0  0
 26 27  1  0  0  0  0
 26 28  1  0  0  0  0
 26 48  1  0  0  0  0
 28 29  1  0  0  0  0
 28 49  1  0  0  0  0
 29 50  1  0  0  0  0
 30 35  1  0  0  0  0
 30 31  2  0  0  0  0
 31 32  1  0  0  0  0
 31 51  1  0  0  0  0
 32 33  2  0  0  0  0
 32 52  1  0  0  0  0
 33 34  1  0  0  0  0
 33 53  1  0  0  0  0
 34 35  2  0  0  0  0
 34 54  1  0  0  0  0
 35 55  1  0  0  0  0
M  END
> <s_m_source_file>
AV-unprocessed.smi

> <i_m_source_file_index>
34

> <i_lp_mmshare_version>
43012

> <i_f3d_flags>
0

> <s_epik_input>
W2NIXTFbY0hdW2NIXVtjSF1bY0hdYzFDKD1PKVtOSF1jKG5bY0hdbjIpYyhjMjMpbltjSF1uM1tDQEBIXTRPW0NASF0oW0NAQEhdKEYpW0NASF00W09IXSlbQ0gyXU9DKD1PKWM1W2NIXVtjSF1bY0hdW2NIXVtjSF01

> <s_epik_cmdline>
J2VwaWtfcHl0aG9uJywgJy1waCcsICc3LjAnLCAnLXRuJywgJzgnLCAnLW1hJywgJzIwMCcsICctbWV0YWxfYmluZGluZycsICctaW1hZScsICc8aW5maWxlLm1hZT4nLCAnLW9tYWUnLCAnPG91dGZpbGUubWFlPic=

> <r_lp_tautomer_probability>
1

> <r_epik_Ionization_Penalty>
0.00257489

> <r_epik_Ionization_Penalty_Charging>
0

> <r_epik_Ionization_Penalty_Neutral>
0.00257489

> <r_epik_State_Penalty>
0.00519398

> <r_epik_Charging_Adjusted_Penalty>
0.00519398

> <i_epik_Tot_Q>
0

> <i_epik_Tot_abs_Q>
0

> <r_epik_Metal_State_Penalty>
0.335891

> <b_epik_Metal_Only>
0

> <s_epik_Chemistry_Notes>
This compound has an ester and may undergo hydrolysis at high or low pH. This compound contains an acetal/aminal-like group ( X-CH(R)-Y where X, Y are N, S, or O) that may be acid/base labile, releasing an aldehyde.

> <s_lp_Force_Field>
OPLS_2005

> <r_lp_Energy>
52.3036

> <b_lp_Chiralities_Consistent>
1

> <s_lp_Variant>
AV-unprocessed.smi:34-11

> <Gold.Version>
5.8.1

> <Gold.Id.Protein>
6NUR|6NUR_protein|mol2

> <Gold.PLP.Fitness>
58.3124

> <Gold.PLP.PLP>
-55.6337

> <Gold.PLP.part.hbond>
-3.7438

> <Gold.PLP.part.metal>
0.0000

> <Gold.PLP.part.buried>
2.7489

> <Gold.PLP.part.nonpolar>
-53.4209

> <Gold.PLP.part.repulsive>
0.7220

> <Gold.PLP.ligand.clash>
0.0000

> <Gold.PLP.ligand.torsion>
0.3941

> <Gold.PLP.Chemscore.Hbond>
1.1296

> <Gold.PLP.Chemscore.CHOScore>
0.0000

> <Gold.PLP.Chemscore.Metal>
0.0000

> <Gold.Chemscore.Hbonds>
donor molecule, donor type, donor heavy atom, donor atom, acceptor molecule, acceptor atom, score
      P1  H  7989  7998       L1    14  0.09
      P1  H  7997  8009       L1    19  1.00
      P1  H  8011  8017       L1    14  0.02

> <Gold.PLP.Chemscore.Internal.Correction>
0.0779

> <Gold.Rescore>
     Score         DG    S(hbond)    S(metal)    S(lipo)     H(rot)  DE(clash)    DE(int)     intcor
     14.02     -17.13       0.96        0.00     131.70       2.72       0.51       2.60       ----

> <Gold.Chemscore.Fitness>
14.0192

> <Gold.Chemscore.DG>
-17.1289

> <Gold.Chemscore.ZeroCoef>
-5.4800

> <Gold.Chemscore.Hbond>
0.9602

> <Gold.Chemscore.Metal>
0.0000

> <Gold.Chemscore.Lipo>
131.7013

> <Gold.Chemscore.Internal_Hbond>
0.0000

> <Gold.Chemscore.DEClash>
0.5146

> <Gold.Chemscore.DEInternal>
2.5951

> <Gold.Chemscore.Rot>
2.7215

> <Gold.Chemscore.Internal.Correction>
   9.000000E+99

> <Gold.Chemscore.Hbonds>
donor molecule, donor type, donor heavy atom, donor atom, acceptor molecule, acceptor atom, score
      P1  H  7989  7998       L1    14  0.03
      P1  H  7997  8009       L1    19  0.60

> <Gold.Chemscore.Hbond.Weighted>
-3.2069

> <Gold.Chemscore.Metal.Weighted>
-0.0000

> <Gold.Chemscore.Lipo.Weighted>
-15.4091

> <Gold.Chemscore.Internal_Hbond.Weighted>
0.0000

> <Gold.Chemscore.DEClash.Weighted>
0.5146

> <Gold.Chemscore.DEInternal.Weighted>
2.5951

> <Gold.Chemscore.Rot.Weighted>
6.9670

> <Gold.Chemscore.Internal.Correction.Weighted>
   9.000000E+99

> <Gold.Protein.RotatedTorsions>
[ 6907 6896 6895 6894 ] final   73.79 input  -60.11 | X-H torsion
[ 7974 7965 7964 7962 ] final   30.83 input  175.53 | X-H torsion
[ 8008 7997 7996 7995 ] final  162.67 input   59.86 | X-H torsion
[ 10167 10162 10161 10158 ] final -154.70 input  -65.29 | X-H torsion
[ 10718 10713 10712 10709 ] final  148.86 input   66.30 | X-H torsion
[ 10763 10752 10751 10750 ] final  100.76 input  -60.55 | X-H torsion
[ 11005 11000 10999 10996 ] final  -71.84 input  -57.11 | X-H torsion

> <Gold.Protein.ActiveResidues>
 VAL166  LYS551  ARG553  GLY616  TRP617  ASP618  TYR619  PRO620  LYS621  CYS622 
 ASP623  PHE694  ASN695  SER759  ASP760  ASP761  ALA762  ILE779  LEU786  VAL792 
 PHE793  MET794  SER795  GLU796  ALA797  LYS798  CYS799  TRP800  GLU811  SER814 

> <Gold.Protein.RotatedAtoms>
  152.4942  134.4369  159.9530 H   0  0  0  0  0  0  0  0  0  0  0  0  # atno 6907 bound_to 6896
  151.4351  133.3653  159.2782 H   0  0  0  0  0  0  0  0  0  0  0  0  # atno 6908 bound_to 6896
  150.9127  134.8567  159.7496 H   0  0  0  0  0  0  0  0  0  0  0  0  # atno 6909 bound_to 6896
  146.1587  139.6736  142.9048 H   0  0  0  0  0  0  0  0  0  0  0  0  # atno 7974 bound_to 7965
  156.2014  140.1744  156.7891 H   0  0  0  0  0  0  0  0  0  0  0  0  # atno 8008 bound_to 7997
  154.5597  140.0702  156.8830 H   0  0  0  0  0  0  0  0  0  0  0  0  # atno 8009 bound_to 7997
  155.2871  140.3353  155.4257 H   0  0  0  0  0  0  0  0  0  0  0  0  # atno 8010 bound_to 7997
  139.6992  143.9292  152.2421 H   0  0  0  0  0  0  0  0  0  0  0  0  # atno 10167 bound_to 10162
  157.3034  131.0875  151.1373 H   0  0  0  0  0  0  0  0  0  0  0  0  # atno 10718 bound_to 10713
  153.3181  135.4068  155.1393 H   0  0  0  0  0  0  0  0  0  0  0  0  # atno 10763 bound_to 10752
  154.8593  135.3580  154.5634 H   0  0  0  0  0  0  0  0  0  0  0  0  # atno 10764 bound_to 10752
  153.6066  135.7069  153.5422 H   0  0  0  0  0  0  0  0  0  0  0  0  # atno 10765 bound_to 10752
  141.1599  133.6829  156.6968 H   0  0  0  0  0  0  0  0  0  0  0  0  # atno 11005 bound_to 11000
  145.4642  141.0434  143.2734 LP  0  0  0  0  0  0  0  0  0  0  0  0  # atno 17320 bound_to 7965
  144.7998  139.6163  143.7076 LP  0  0  0  0  0  0  0  0  0  0  0  0  # atno 17321 bound_to 7965
  139.9129  144.6845  150.8543 LP  0  0  0  0  0  0  0  0  0  0  0  0  # atno 17342 bound_to 10162
  140.7705  143.3430  151.2169 LP  0  0  0  0  0  0  0  0  0  0  0  0  # atno 17343 bound_to 10162
  157.2723  130.6710  149.6025 LP  0  0  0  0  0  0  0  0  0  0  0  0  # atno 17370 bound_to 10713
  155.9673  130.4475  150.5584 LP  0  0  0  0  0  0  0  0  0  0  0  0  # atno 17371 bound_to 10713
  140.2989  134.8180  157.4080 LP  0  0  0  0  0  0  0  0  0  0  0  0  # atno 17394 bound_to 11000
  140.1280  134.5133  155.8129 LP  0  0  0  0  0  0  0  0  0  0  0  0  # atno 17395 bound_to 11000

$$$$
