AV-unprocessed.smi:1692|AV-procd|sdf|6782|dock7
  -GOLD-   22720 7543D 1   1.00000     0.00000
 Structure written by MMmdl.
 45 46  0  0  0  0  0  0  0  0  1 V2000
  152.7392  138.4585  154.4310 C   0  0  0  0  0  0  0  0  0  0  0  0
  151.4929  139.0124  155.1299 C   0  0  2  0  0  0  0  0  0  0  0  0
  150.2060  138.7184  154.3385 C   0  0  0  0  0  0  0  0  0  0  0  0
  149.0314  139.3132  154.9634 N   0  0  0  0  0  0  0  0  0  0  0  0
  147.8204  138.9839  154.2130 C   0  0  0  0  0  0  0  0  0  0  0  0
  147.5561  139.8617  152.9776 C   0  0  0  0  0  0  0  0  0  0  0  0
  146.5418  139.2161  152.0201 C   0  0  0  0  0  0  0  0  0  0  0  0
  146.8264  137.8016  151.8070 N   0  0  0  0  0  0  0  0  0  0  0  0
  145.9010  136.8496  151.6183 C   0  0  0  0  0  0  0  0  0  0  0  0
  144.6905  137.0749  151.5973 O   0  0  0  0  0  0  0  0  0  0  0  0
  146.4713  135.6423  151.4588 N   0  0  0  0  0  0  0  0  0  0  0  0
  145.8339  134.3891  151.2552 C   0  0  0  0  0  0  0  0  0  0  0  0
  146.6543  133.2587  151.4715 C   0  0  0  0  0  0  0  0  0  0  0  0
  146.1165  131.9687  151.2981 C   0  0  0  0  0  0  0  0  0  0  0  0
  144.7701  131.8419  150.9124 C   0  0  0  0  0  0  0  0  0  0  0  0
  144.0226  133.0180  150.7174 C   0  0  0  0  0  0  0  0  0  0  0  0
  144.5361  134.2554  150.8829 N   0  0  0  0  0  0  0  0  0  0  0  0
  149.2393  140.7542  155.0894 C   0  0  0  0  0  0  0  0  0  0  0  0
  150.5380  141.1075  155.8428 C   0  0  1  0  0  0  0  0  0  0  0  0
  150.4469  140.8683  157.3594 C   0  0  0  0  0  0  0  0  0  0  0  0
  151.6511  140.4235  155.2653 O   0  0  0  0  0  0  0  0  0  0  0  0
  152.6724  137.3773  154.3083 H   0  0  0  0  0  0  0  0  0  0  0  0
  153.6378  138.6718  155.0104 H   0  0  0  0  0  0  0  0  0  0  0  0
  152.8673  138.9008  153.4427 H   0  0  0  0  0  0  0  0  0  0  0  0
  151.4247  138.5579  156.1187 H   0  0  0  0  0  0  0  0  0  0  0  0
  150.3109  139.0936  153.3191 H   0  0  0  0  0  0  0  0  0  0  0  0
  150.0738  137.6387  154.2600 H   0  0  0  0  0  0  0  0  0  0  0  0
  147.8437  137.9340  153.9165 H   0  0  0  0  0  0  0  0  0  0  0  0
  146.9614  139.0874  154.8775 H   0  0  0  0  0  0  0  0  0  0  0  0
  147.1871  140.8361  153.3006 H   0  0  0  0  0  0  0  0  0  0  0  0
  148.4846  140.0433  152.4366 H   0  0  0  0  0  0  0  0  0  0  0  0
  145.5371  139.2982  152.4354 H   0  0  0  0  0  0  0  0  0  0  0  0
  146.5259  139.7444  151.0653 H   0  0  0  0  0  0  0  0  0  0  0  0
  147.7981  137.5285  151.8092 H   0  0  0  0  0  0  0  0  0  0  0  0
  147.4795  135.6148  151.4948 H   0  0  0  0  0  0  0  0  0  0  0  0
  147.6869  133.3740  151.7681 H   0  0  0  0  0  0  0  0  0  0  0  0
  146.7270  131.0924  151.4586 H   0  0  0  0  0  0  0  0  0  0  0  0
  144.3217  130.8699  150.7696 H   0  0  0  0  0  0  0  0  0  0  0  0
  142.9857  132.9648  150.4206 H   0  0  0  0  0  0  0  0  0  0  0  0
  149.2778  141.2011  154.0948 H   0  0  0  0  0  0  0  0  0  0  0  0
  148.3983  141.2188  155.6030 H   0  0  0  0  0  0  0  0  0  0  0  0
  150.7269  142.1719  155.7010 H   0  0  0  0  0  0  0  0  0  0  0  0
  149.6661  141.4863  157.8027 H   0  0  0  0  0  0  0  0  0  0  0  0
  151.3870  141.1216  157.8497 H   0  0  0  0  0  0  0  0  0  0  0  0
  150.2142  139.8307  157.5976 H   0  0  0  0  0  0  0  0  0  0  0  0
  1  2  1  0  0  0  0
  1 22  1  0  0  0  0
  1 23  1  0  0  0  0
  1 24  1  0  0  0  0
  2 21  1  0  0  0  0
  2  3  1  0  0  0  0
  2 25  1  0  0  0  0
  3  4  1  0  0  0  0
  3 26  1  0  0  0  0
  3 27  1  0  0  0  0
  4  5  1  0  0  0  0
  4 18  1  0  0  0  0
  5  6  1  0  0  0  0
  5 28  1  0  0  0  0
  5 29  1  0  0  0  0
  6  7  1  0  0  0  0
  6 30  1  0  0  0  0
  6 31  1  0  0  0  0
  7  8  1  0  0  0  0
  7 32  1  0  0  0  0
  7 33  1  0  0  0  0
  8  9  1  0  0  0  0
  8 34  1  0  0  0  0
  9 10  2  0  0  0  0
  9 11  1  0  0  0  0
 11 12  1  0  0  0  0
 11 35  1  0  0  0  0
 12 17  1  0  0  0  0
 12 13  2  0  0  0  0
 13 14  1  0  0  0  0
 13 36  1  0  0  0  0
 14 15  2  0  0  0  0
 14 37  1  0  0  0  0
 15 16  1  0  0  0  0
 15 38  1  0  0  0  0
 16 17  2  0  0  0  0
 16 39  1  0  0  0  0
 18 19  1  0  0  0  0
 18 40  1  0  0  0  0
 18 41  1  0  0  0  0
 19 20  1  0  0  0  0
 19 21  1  0  0  0  0
 19 42  1  0  0  0  0
 20 43  1  0  0  0  0
 20 44  1  0  0  0  0
 20 45  1  0  0  0  0
M  END
> <s_m_source_file>
AV-unprocessed.smi

> <i_m_source_file_index>
1692

> <i_lp_mmshare_version>
43012

> <i_f3d_flags>
0

> <s_epik_input>
W0NIM11bQ0BASF0xW0NIMl1OKFtDSDJdW0NASF0oTzEpW0NIM10pW0NIMl1bQ0gyXVtDSDJdW05IXUMoPU8pW05IXWMyW2NIXVtjSF1bY0hdW2NIXW4y

> <s_epik_cmdline>
J2VwaWtfcHl0aG9uJywgJy1waCcsICc3LjAnLCAnLXRuJywgJzgnLCAnLW1hJywgJzIwMCcsICctbWV0YWxfYmluZGluZycsICctaW1hZScsICc8aW5maWxlLm1hZT4nLCAnLW9tYWUnLCAnPG91dGZpbGUubWFlPic=

> <r_epik_Ionization_Penalty>
0.594711

> <r_epik_Ionization_Penalty_Charging>
0

> <r_epik_Ionization_Penalty_Neutral>
0.594711

> <r_epik_State_Penalty>
0.608529

> <r_epik_Charging_Adjusted_Penalty>
0.608529

> <i_epik_Tot_Q>
0

> <i_epik_Tot_abs_Q>
0

> <r_epik_Metal_State_Penalty>
0.608528

> <b_epik_Metal_Only>
0

> <s_lp_Force_Field>
OPLS_2005

> <r_lp_Energy>
25.8915

> <b_lp_Chiralities_Consistent>
1

> <s_lp_Variant>
AV-unprocessed.smi:1692-5

> <Gold.Version>
5.8.1

> <Gold.Id.Protein>
6NUR|6NUR_protein|mol2

> <Gold.PLP.Fitness>
46.3339

> <Gold.PLP.PLP>
-35.8810

> <Gold.PLP.part.hbond>
-3.0000

> <Gold.PLP.part.metal>
0.0000

> <Gold.PLP.part.buried>
-2.5325

> <Gold.PLP.part.nonpolar>
-34.7239

> <Gold.PLP.part.repulsive>
4.5380

> <Gold.PLP.ligand.clash>
0.0000

> <Gold.PLP.ligand.torsion>
0.5520

> <Gold.PLP.Chemscore.Hbond>
2.8480

> <Gold.PLP.Chemscore.CHOScore>
1.0000

> <Gold.PLP.Chemscore.Metal>
0.0000

> <Gold.Chemscore.Hbonds>
donor molecule, donor type, donor heavy atom, donor atom, acceptor molecule, acceptor atom, score
      L1  H     8    34       P1  7948  0.96
      L1  H    11    35       P1  7948  1.00
      P1  H  7989  7998       L1    21  0.79
      L1  C    16    39       P1 10186  0.81

> <Gold.PLP.Chemscore.Internal.Correction>
0.0130

> <Gold.Rescore>
     Score         DG    S(hbond)    S(metal)    S(lipo)     H(rot)  DE(clash)    DE(int)     intcor
     14.16     -18.86       2.06        0.00      93.32       1.73       2.91       1.79       ----

> <Gold.Chemscore.Fitness>
14.1553

> <Gold.Chemscore.DG>
-18.8589

> <Gold.Chemscore.ZeroCoef>
-5.4800

> <Gold.Chemscore.Hbond>
2.0601

> <Gold.Chemscore.Metal>
0.0000

> <Gold.Chemscore.Lipo>
93.3192

> <Gold.Chemscore.Internal_Hbond>
0.0000

> <Gold.Chemscore.DEClash>
2.9099

> <Gold.Chemscore.DEInternal>
1.7938

> <Gold.Chemscore.Rot>
1.7266

> <Gold.Chemscore.Internal.Correction>
   9.000000E+99

> <Gold.Chemscore.Hbonds>
donor molecule, donor type, donor heavy atom, donor atom, acceptor molecule, acceptor atom, score
      L1  H     8    34       P1  7948  0.92
      L1  H    11    35       P1  7948  0.92
      P1  H  7989  7998       L1    21  0.10

> <Gold.Chemscore.Hbond.Weighted>
-6.8806

> <Gold.Chemscore.Metal.Weighted>
-0.0000

> <Gold.Chemscore.Lipo.Weighted>
-10.9184

> <Gold.Chemscore.Internal_Hbond.Weighted>
0.0000

> <Gold.Chemscore.DEClash.Weighted>
2.9099

> <Gold.Chemscore.DEInternal.Weighted>
1.7938

> <Gold.Chemscore.Rot.Weighted>
4.4200

> <Gold.Chemscore.Internal.Correction.Weighted>
   9.000000E+99

> <Gold.Protein.RotatedTorsions>
[ 6907 6896 6895 6894 ] final -137.00 input  -60.11 | X-H torsion
[ 7974 7965 7964 7962 ] final  144.48 input  175.53 | X-H torsion
[ 8008 7997 7996 7995 ] final  159.23 input   59.86 | X-H torsion
[ 10167 10162 10161 10158 ] final   13.85 input  -65.29 | X-H torsion
[ 10718 10713 10712 10709 ] final  -98.61 input   66.30 | X-H torsion
[ 10763 10752 10751 10750 ] final -145.14 input  -60.55 | X-H torsion
[ 11005 11000 10999 10996 ] final -106.68 input  -57.11 | X-H torsion

> <Gold.Protein.ActiveResidues>
 VAL166  LYS551  ARG553  GLY616  TRP617  ASP618  TYR619  PRO620  LYS621  CYS622 
 ASP623  PHE694  ASN695  SER759  ASP760  ASP761  ALA762  ILE779  LEU786  VAL792 
 PHE793  MET794  SER795  GLU796  ALA797  LYS798  CYS799  TRP800  GLU811  SER814 

> <Gold.Protein.RotatedAtoms>
  151.0171  133.5911  159.2675 H   0  0  0  0  0  0  0  0  0  0  0  0  # atno 6907 bound_to 6896
  151.3042  135.0776  159.9259 H   0  0  0  0  0  0  0  0  0  0  0  0  # atno 6908 bound_to 6896
  152.5314  133.9847  159.7877 H   0  0  0  0  0  0  0  0  0  0  0  0  # atno 6909 bound_to 6896
  144.8832  139.5668  143.5833 H   0  0  0  0  0  0  0  0  0  0  0  0  # atno 7974 bound_to 7965
  156.2252  140.1837  156.7381 H   0  0  0  0  0  0  0  0  0  0  0  0  # atno 8008 bound_to 7997
  154.5929  140.0648  156.9292 H   0  0  0  0  0  0  0  0  0  0  0  0  # atno 8009 bound_to 7997
  155.2305  140.3314  155.4306 H   0  0  0  0  0  0  0  0  0  0  0  0  # atno 8010 bound_to 7997
  140.5975  143.8672  150.6932 H   0  0  0  0  0  0  0  0  0  0  0  0  # atno 10167 bound_to 10162
  156.0112  130.5246  150.6548 H   0  0  0  0  0  0  0  0  0  0  0  0  # atno 10718 bound_to 10713
  154.8397  135.3421  154.6457 H   0  0  0  0  0  0  0  0  0  0  0  0  # atno 10763 bound_to 10752
  153.7069  135.6966  153.5052 H   0  0  0  0  0  0  0  0  0  0  0  0  # atno 10764 bound_to 10752
  153.2481  135.4362  155.0723 H   0  0  0  0  0  0  0  0  0  0  0  0  # atno 10765 bound_to 10752
  141.0992  133.8914  157.1885 H   0  0  0  0  0  0  0  0  0  0  0  0  # atno 11005 bound_to 11000
  146.3008  139.7420  142.9093 LP  0  0  0  0  0  0  0  0  0  0  0  0  # atno 17320 bound_to 7965
  145.3916  141.0373  143.3121 LP  0  0  0  0  0  0  0  0  0  0  0  0  # atno 17321 bound_to 7965
  140.2210  143.3809  152.1643 LP  0  0  0  0  0  0  0  0  0  0  0  0  # atno 17342 bound_to 10162
  139.5268  144.7112  151.5200 LP  0  0  0  0  0  0  0  0  0  0  0  0  # atno 17343 bound_to 10162
  157.4302  131.0848  151.1046 LP  0  0  0  0  0  0  0  0  0  0  0  0  # atno 17370 bound_to 10713
  157.1621  130.6230  149.5614 LP  0  0  0  0  0  0  0  0  0  0  0  0  # atno 17371 bound_to 10713
  139.9838  135.0089  156.9814 LP  0  0  0  0  0  0  0  0  0  0  0  0  # atno 17394 bound_to 11000
  140.5063  134.1046  155.7261 LP  0  0  0  0  0  0  0  0  0  0  0  0  # atno 17395 bound_to 11000

$$$$
