AV-unprocessed.smi:1617|AV-procd|sdf|6485|dock5
  -GOLD-   22720 7143D 1   1.00000     0.00000
 Structure written by MMmdl.
 47 49  0  0  0  0  0  0  0  0  1 V2000
  149.7134  136.1423  157.0017 O   0  0  0  0  0  0  0  0  0  0  0  0
  149.6308  136.4823  155.8216 C   0  0  0  0  0  0  0  0  0  0  0  0
  149.9123  137.7058  155.3424 N   0  0  0  0  0  0  0  0  0  0  0  0
  150.3866  138.8445  156.0475 C   0  0  0  0  0  0  0  0  0  0  0  0
  150.8306  139.9502  155.2971 C   0  0  0  0  0  0  0  0  0  0  0  0
  151.3210  141.0862  155.9677 C   0  0  0  0  0  0  0  0  0  0  0  0
  151.3646  141.0875  157.3816 C   0  0  0  0  0  0  0  0  0  0  0  0
  151.8502  142.2167  158.0762 N   0  0  0  0  0  0  0  0  0  0  0  0
  151.2166  143.4889  157.7381 C   0  0  0  0  0  0  0  0  0  0  0  0
  152.0280  144.6615  158.3159 C   0  0  0  0  0  0  0  0  0  0  0  0
  152.2008  144.4850  159.7180 O   0  0  0  0  0  0  0  0  0  0  0  0
  152.9206  143.2933  160.0162 C   0  0  0  0  0  0  0  0  0  0  0  0
  152.1379  142.0733  159.5023 C   0  0  0  0  0  0  0  0  0  0  0  0
  150.9578  140.0142  158.1028 N   0  0  0  0  0  0  0  0  0  0  0  0
  150.4844  138.9277  157.4565 C   0  0  0  0  0  0  0  0  0  0  0  0
  149.2229  135.6616  154.8420 N   0  0  0  0  0  0  0  0  0  0  0  0
  148.8542  134.2541  155.0119 C   0  0  1  0  0  0  0  0  0  0  0  0
  148.8340  133.6038  153.6095 C   0  0  0  0  0  0  0  0  0  0  0  0
  147.9743  132.3304  153.5287 C   0  0  0  0  0  0  0  0  0  0  0  0
  148.4817  131.1503  154.3709 C   0  0  0  0  0  0  0  0  0  0  0  0
  148.5046  131.4336  155.8828 C   0  0  0  0  0  0  0  0  0  0  0  0
  149.6437  132.2552  156.2699 N   0  0  0  0  0  0  0  0  0  0  0  0
  149.8886  133.5207  155.8975 C   0  0  0  0  0  0  0  0  0  0  0  0
  150.9242  134.0834  156.2527 O   0  0  0  0  0  0  0  0  0  0  0  0
  149.7182  137.8539  154.3629 H   0  0  0  0  0  0  0  0  0  0  0  0
  150.7959  139.9325  154.2176 H   0  0  0  0  0  0  0  0  0  0  0  0
  151.6698  141.9309  155.3930 H   0  0  0  0  0  0  0  0  0  0  0  0
  151.1216  143.6204  156.6613 H   0  0  0  0  0  0  0  0  0  0  0  0
  150.2062  143.4974  158.1488 H   0  0  0  0  0  0  0  0  0  0  0  0
  152.9997  144.7399  157.8255 H   0  0  0  0  0  0  0  0  0  0  0  0
  151.5061  145.6017  158.1380 H   0  0  0  0  0  0  0  0  0  0  0  0
  153.9152  143.3344  159.5689 H   0  0  0  0  0  0  0  0  0  0  0  0
  153.0598  143.2222  161.0949 H   0  0  0  0  0  0  0  0  0  0  0  0
  151.2010  141.9722  160.0519 H   0  0  0  0  0  0  0  0  0  0  0  0
  152.7213  141.1691  159.6806 H   0  0  0  0  0  0  0  0  0  0  0  0
  150.2032  138.1091  158.1000 H   0  0  0  0  0  0  0  0  0  0  0  0
  149.1870  136.0271  153.9019 H   0  0  0  0  0  0  0  0  0  0  0  0
  147.8635  134.1978  155.4668 H   0  0  0  0  0  0  0  0  0  0  0  0
  148.4169  134.3145  152.8941 H   0  0  0  0  0  0  0  0  0  0  0  0
  149.8471  133.3988  153.2582 H   0  0  0  0  0  0  0  0  0  0  0  0
  146.9494  132.5669  153.8173 H   0  0  0  0  0  0  0  0  0  0  0  0
  147.9217  132.0131  152.4869 H   0  0  0  0  0  0  0  0  0  0  0  0
  147.8249  130.2990  154.1897 H   0  0  0  0  0  0  0  0  0  0  0  0
  149.4711  130.8413  154.0303 H   0  0  0  0  0  0  0  0  0  0  0  0
  147.5714  131.8911  156.2144 H   0  0  0  0  0  0  0  0  0  0  0  0
  148.5924  130.4904  156.4222 H   0  0  0  0  0  0  0  0  0  0  0  0
  150.3336  131.8103  156.8579 H   0  0  0  0  0  0  0  0  0  0  0  0
  1  2  2  0  0  0  0
  2  3  1  0  0  0  0
  2 16  1  0  0  0  0
  3  4  1  0  0  0  0
  3 25  1  0  0  0  0
  4 15  1  0  0  0  0
  4  5  2  0  0  0  0
  5  6  1  0  0  0  0
  5 26  1  0  0  0  0
  6  7  2  0  0  0  0
  6 27  1  0  0  0  0
  7  8  1  0  0  0  0
  7 14  1  0  0  0  0
  8 13  1  0  0  0  0
  8  9  1  0  0  0  0
  9 10  1  0  0  0  0
  9 28  1  0  0  0  0
  9 29  1  0  0  0  0
 10 11  1  0  0  0  0
 10 30  1  0  0  0  0
 10 31  1  0  0  0  0
 11 12  1  0  0  0  0
 12 13  1  0  0  0  0
 12 32  1  0  0  0  0
 12 33  1  0  0  0  0
 13 34  1  0  0  0  0
 13 35  1  0  0  0  0
 14 15  2  0  0  0  0
 15 36  1  0  0  0  0
 16 17  1  0  0  0  0
 16 37  1  0  0  0  0
 17 23  1  0  0  0  0
 17 18  1  0  0  0  0
 17 38  1  0  0  0  0
 18 19  1  0  0  0  0
 18 39  1  0  0  0  0
 18 40  1  0  0  0  0
 19 20  1  0  0  0  0
 19 41  1  0  0  0  0
 19 42  1  0  0  0  0
 20 21  1  0  0  0  0
 20 43  1  0  0  0  0
 20 44  1  0  0  0  0
 21 22  1  0  0  0  0
 21 45  1  0  0  0  0
 21 46  1  0  0  0  0
 22 23  1  0  0  0  0
 22 47  1  0  0  0  0
 23 24  2  0  0  0  0
M  END
> <s_m_source_file>
AV-unprocessed.smi

> <i_m_source_file_index>
1617

> <i_lp_mmshare_version>
43012

> <i_f3d_flags>
0

> <s_epik_input>
Tz1DMVtOSF1bQ0gyXVtDSDJdW0NIMl1bQ0gyXVtDQEhdMVtOSF1DKD1PKVtOSF1jMltjSF1bY0hdYyhuW2NIXTIpTjNbQ0gyXVtDSDJdT1tDSDJdW0NIMl0z

> <s_epik_cmdline>
J2VwaWtfcHl0aG9uJywgJy1waCcsICc3LjAnLCAnLXRuJywgJzgnLCAnLW1hJywgJzIwMCcsICctbWV0YWxfYmluZGluZycsICctaW1hZScsICc8aW5maWxlLm1hZT4nLCAnLW9tYWUnLCAnPG91dGZpbGUubWFlPic=

> <r_lp_tautomer_probability>
1

> <r_epik_Ionization_Penalty>
0.00171733

> <r_epik_Ionization_Penalty_Charging>
0

> <r_epik_Ionization_Penalty_Neutral>
0.00171733

> <r_epik_State_Penalty>
0.00113787

> <r_epik_Charging_Adjusted_Penalty>
0.00113787

> <i_epik_Tot_Q>
0

> <i_epik_Tot_abs_Q>
0

> <r_epik_Metal_State_Penalty>
-0

> <b_epik_Metal_Only>
0

> <s_lp_Force_Field>
OPLS_2005

> <r_lp_Energy>
26.8457

> <b_lp_Chiralities_Consistent>
1

> <s_lp_Variant>
AV-unprocessed.smi:1617-2

> <Gold.Version>
5.8.1

> <Gold.Id.Protein>
6NUR|6NUR_protein|mol2

> <Gold.PLP.Fitness>
40.2554

> <Gold.PLP.PLP>
-36.7962

> <Gold.PLP.part.hbond>
-2.0000

> <Gold.PLP.part.metal>
0.0000

> <Gold.PLP.part.buried>
0.5618

> <Gold.PLP.part.nonpolar>
-32.5913

> <Gold.PLP.part.repulsive>
0.1522

> <Gold.PLP.ligand.clash>
0.0000

> <Gold.PLP.ligand.torsion>
0.3893

> <Gold.PLP.Chemscore.Hbond>
1.2991

> <Gold.PLP.Chemscore.CHOScore>
0.0000

> <Gold.PLP.Chemscore.Metal>
0.0000

> <Gold.Chemscore.Hbonds>
donor molecule, donor type, donor heavy atom, donor atom, acceptor molecule, acceptor atom, score
      L1  H    16    37       P1  7948  0.98

> <Gold.PLP.Chemscore.Internal.Correction>
0.3406

> <Gold.Rescore>
     Score         DG    S(hbond)    S(metal)    S(lipo)     H(rot)  DE(clash)    DE(int)     intcor
      9.72     -15.97       0.96        0.00      90.04       1.27       0.01       6.24       ----

> <Gold.Chemscore.Fitness>
9.7178

> <Gold.Chemscore.DG>
-15.9656

> <Gold.Chemscore.ZeroCoef>
-5.4800

> <Gold.Chemscore.Hbond>
0.9576

> <Gold.Chemscore.Metal>
0.0000

> <Gold.Chemscore.Lipo>
90.0354

> <Gold.Chemscore.Internal_Hbond>
0.0000

> <Gold.Chemscore.DEClash>
0.0089

> <Gold.Chemscore.DEInternal>
6.2389

> <Gold.Chemscore.Rot>
1.2684

> <Gold.Chemscore.Internal.Correction>
   9.000000E+99

> <Gold.Chemscore.Hbonds>
donor molecule, donor type, donor heavy atom, donor atom, acceptor molecule, acceptor atom, score
      L1  H    16    37       P1  7948  0.80

> <Gold.Chemscore.Hbond.Weighted>
-3.1985

> <Gold.Chemscore.Metal.Weighted>
-0.0000

> <Gold.Chemscore.Lipo.Weighted>
-10.5341

> <Gold.Chemscore.Internal_Hbond.Weighted>
0.0000

> <Gold.Chemscore.DEClash.Weighted>
0.0089

> <Gold.Chemscore.DEInternal.Weighted>
6.2389

> <Gold.Chemscore.Rot.Weighted>
3.2471

> <Gold.Chemscore.Internal.Correction.Weighted>
   9.000000E+99

> <Gold.Protein.RotatedTorsions>
[ 6907 6896 6895 6894 ] final  -54.22 input  -60.11 | X-H torsion
[ 7974 7965 7964 7962 ] final  123.27 input  175.53 | X-H torsion
[ 8008 7997 7996 7995 ] final  131.49 input   59.86 | X-H torsion
[ 10167 10162 10161 10158 ] final  165.32 input  -65.29 | X-H torsion
[ 10718 10713 10712 10709 ] final -120.53 input   66.30 | X-H torsion
[ 10763 10752 10751 10750 ] final   92.34 input  -60.55 | X-H torsion
[ 11005 11000 10999 10996 ] final   20.93 input  -57.11 | X-H torsion

> <Gold.Protein.ActiveResidues>
 VAL166  LYS551  ARG553  GLY616  TRP617  ASP618  TYR619  PRO620  LYS621  CYS622 
 ASP623  PHE694  ASN695  SER759  ASP760  ASP761  ALA762  ILE779  LEU786  VAL792 
 PHE793  MET794  SER795  GLU796  ALA797  LYS798  CYS799  TRP800  GLU811  SER814 

> <Gold.Protein.RotatedAtoms>
  150.8357  134.7629  159.6890 H   0  0  0  0  0  0  0  0  0  0  0  0  # atno 6907 bound_to 6896
  152.4454  134.5502  159.9874 H   0  0  0  0  0  0  0  0  0  0  0  0  # atno 6908 bound_to 6896
  151.5653  133.3360  159.3015 H   0  0  0  0  0  0  0  0  0  0  0  0  # atno 6909 bound_to 6896
  145.0979  139.3539  143.4827 H   0  0  0  0  0  0  0  0  0  0  0  0  # atno 7974 bound_to 7965
  156.2970  140.2570  156.2934 H   0  0  0  0  0  0  0  0  0  0  0  0  # atno 8008 bound_to 7997
  154.9487  140.0394  157.2152 H   0  0  0  0  0  0  0  0  0  0  0  0  # atno 8009 bound_to 7997
  154.8056  140.2835  155.5894 H   0  0  0  0  0  0  0  0  0  0  0  0  # atno 8010 bound_to 7997
  139.4904  144.4144  151.9261 H   0  0  0  0  0  0  0  0  0  0  0  0  # atno 10167 bound_to 10162
  156.1265  130.6363  150.9551 H   0  0  0  0  0  0  0  0  0  0  0  0  # atno 10718 bound_to 10713
  153.2181  135.4365  155.0457 H   0  0  0  0  0  0  0  0  0  0  0  0  # atno 10763 bound_to 10752
  154.8235  135.3349  154.6969 H   0  0  0  0  0  0  0  0  0  0  0  0  # atno 10764 bound_to 10752
  153.7402  135.7005  153.5024 H   0  0  0  0  0  0  0  0  0  0  0  0  # atno 10765 bound_to 10752
  140.3972  134.1757  155.7663 H   0  0  0  0  0  0  0  0  0  0  0  0  # atno 11005 bound_to 11000
  146.3530  140.0843  142.8616 LP  0  0  0  0  0  0  0  0  0  0  0  0  # atno 17320 bound_to 7965
  145.0989  140.9333  143.4724 LP  0  0  0  0  0  0  0  0  0  0  0  0  # atno 17321 bound_to 7965
  140.3586  144.3000  150.5937 LP  0  0  0  0  0  0  0  0  0  0  0  0  # atno 17342 bound_to 10162
  140.5422  143.2221  151.8066 LP  0  0  0  0  0  0  0  0  0  0  0  0  # atno 17343 bound_to 10162
  157.6446  131.0905  150.8179 LP  0  0  0  0  0  0  0  0  0  0  0  0  # atno 17370 bound_to 10713
  156.8269  130.5003  149.5336 LP  0  0  0  0  0  0  0  0  0  0  0  0  # atno 17371 bound_to 10713
  141.1870  133.8291  157.1048 LP  0  0  0  0  0  0  0  0  0  0  0  0  # atno 17394 bound_to 11000
  140.0363  134.9876  157.0877 LP  0  0  0  0  0  0  0  0  0  0  0  0  # atno 17395 bound_to 11000

$$$$
