#       Name:                AV-unprocessed.smi:653
#       Creating user name   scv26
#       Creation time:       Fri Mar 27 00:14:01 2020


#       File generated by GOLD software.
#

@<TRIPOS>MOLECULE
AV-unprocessed.smi:653
    49    50     1
SMALL
NO_CHARGES


@<TRIPOS>ATOM
      1 ****        -5.7263   3.7979  -1.3367 C.3            1 S1                 0.0000
      2 ****        -4.9230   2.6651  -0.7329 C.ar           1 S1                 0.0000
      3 ****        -4.3513   1.6684  -1.5515 C.ar           1 S1                 0.0000
      4 ****        -3.6195   0.6344  -0.9366 C.ar           1 S1                 0.0000
      5 ****        -3.4885   0.6355   0.4677 C.ar           1 S1                 0.0000
      6 ****        -2.7128  -0.4600   1.1810 C.3            1 S1                 0.0000
      7 ****        -1.2051  -0.1820   1.2119 C.2            1 S1                 0.0000
      8 ****        -0.7544   0.9284   0.9255 O.2            1 S1                 0.0000
      9 ****        -0.4297  -1.2176   1.5664 N.am           1 S1                 0.0000
     10 ****         1.0270  -1.1864   1.6392 C.3            1 S1                 0.0000
     11 ****         1.6742  -1.3478   0.2495 C.3            1 S1                 0.0000
     12 ****         1.3768  -2.6718  -0.4278 C.3            1 S1                 0.0000
     13 ****         2.4814  -2.7387  -1.4758 C.3            1 S1                 0.0000
     14 ****         3.6097  -2.1055  -0.8818 O.3            1 S1                 0.0000
     15 ****         3.2103  -1.3651   0.2708 C.3            1 S1                 0.0000
     16 ****         3.9060   0.0152   0.3168 C.3            1 S1                 0.0000
     17 ****         3.6740   0.8627  -0.9477 C.3            1 S1                 0.0000
     18 ****         5.4098  -0.1401   0.5924 C.3            1 S1                 0.0000
     19 ****        -4.0987   1.6803   1.1939 C.ar           1 S1                 0.0000
     20 ****        -4.8031   2.6751   0.6130 N.ar           1 S1                 0.0000
     21 ****        -5.5373   3.8864  -2.4069 H              1 S1                 0.0000
     22 ****        -5.4661   4.7474  -0.8674 H              1 S1                 0.0000
     23 ****        -6.7922   3.6224  -1.1905 H              1 S1                 0.0000
     24 ****        -4.4692   1.6929  -2.6249 H              1 S1                 0.0000
     25 ****        -3.1665  -0.1438  -1.5330 H              1 S1                 0.0000
     26 ****        -3.0771  -0.5627   2.2038 H              1 S1                 0.0000
     27 ****        -2.8981  -1.4120   0.6815 H              1 S1                 0.0000
     28 ****        -0.8796  -2.0934   1.7906 H              1 S1                 0.0000
     29 ****         1.3545  -0.2557   2.1053 H              1 S1                 0.0000
     30 ****         1.3501  -1.9901   2.3016 H              1 S1                 0.0000
     31 ****         1.3216  -0.5535  -0.4075 H              1 S1                 0.0000
     32 ****         1.4809  -3.4969   0.2785 H              1 S1                 0.0000
     33 ****         0.3783  -2.7168  -0.8637 H              1 S1                 0.0000
     34 ****         2.7093  -3.7603  -1.7803 H              1 S1                 0.0000
     35 ****         2.1957  -2.1743  -2.3644 H              1 S1                 0.0000
     36 ****         3.5271  -1.9513   1.1355 H              1 S1                 0.0000
     37 ****         3.4878   0.5666   1.1594 H              1 S1                 0.0000
     38 ****         4.0365   0.3542  -1.8415 H              1 S1                 0.0000
     39 ****         4.1990   1.8158  -0.8777 H              1 S1                 0.0000
     40 ****         2.6204   1.0937  -1.0988 H              1 S1                 0.0000
     41 ****         5.9057  -0.6874  -0.2098 H              1 S1                 0.0000
     42 ****         5.5867  -0.6805   1.5225 H              1 S1                 0.0000
     43 ****         5.8963   0.8315   0.6815 H              1 S1                 0.0000
     44 ****        -4.0210   1.7196   2.2705 H              1 S1                 0.0000
     45 ****        -1.3752   1.6685   0.6668 LP             1 S1                 0.0000
     46 ****         0.2322   1.0895   0.9517 LP             1 S1                 0.0000
     47 ****         4.0268  -1.4842  -1.5452 LP             1 S1                 0.0000
     48 ****         4.2753  -2.8016  -0.6128 LP             1 S1                 0.0000
     49 ****        -5.2233   3.3974   1.1622 LP             1 S1                 0.0000
@<TRIPOS>BOND
    1    1    2 1     
    2    1   21 1     
    3    1   22 1     
    4    1   23 1     
    5    2   20 ar    
    6    2    3 ar    
    7    3    4 ar    
    8    3   24 1     
    9    4    5 ar    
   10    4   25 1     
   11    5    6 1     
   12    5   19 ar    
   13    6    7 1     
   14    6   26 1     
   15    6   27 1     
   16    7    8 2     
   17    7    9 am    
   18    9   10 1     
   19    9   28 1     
   20   10   11 1     
   21   10   29 1     
   22   10   30 1     
   23   11   15 1     
   24   11   12 1     
   25   11   31 1     
   26   12   13 1     
   27   12   32 1     
   28   12   33 1     
   29   13   14 1     
   30   13   34 1     
   31   13   35 1     
   32   14   15 1     
   33   15   16 1     
   34   15   36 1     
   35   16   17 1     
   36   16   18 1     
   37   16   37 1     
   38   17   38 1     
   39   17   39 1     
   40   17   40 1     
   41   18   41 1     
   42   18   42 1     
   43   18   43 1     
   44   19   20 ar    
   45   19   44 1     
   46    8   45 1     
   47    8   46 1     
   48   14   47 1     
   49   14   48 1     
   50   20   49 1     
@<TRIPOS>SUBSTRUCTURE
      1 S1             1
@<TRIPOS>SET
LONE_PAIRS      STATIC     ATOMS    <user>   **** ""
5 45 46 47 48 49
DONOR_HYDROGENS      STATIC     ATOMS    <user>   **** ""
1 28
ATOM$BLUE        STATIC     ATOMS    COLORGROUP SYSTEM
5 45 46 47 48 49
ATOM$RED        STATIC     ATOMS    COLORGROUP SYSTEM
1 28
