AV-unprocessed.smi:2930|AV-procd|sdf|11240|dock5
  -GOLD-   2272016133D 1   1.00000     0.00000
 Structure written by MMmdl.
 40 41  0  0  0  0  0  0  0  0  1 V2000
  152.0475  145.6468  159.6369 C   0  0  0  0  0  0  0  0  0  0  0  0
  151.6882  144.5065  158.6745 C   0  0  2  0  0  0  0  0  0  0  0  0
  150.2357  144.4361  158.5354 N   0  0  0  0  0  0  0  0  0  0  0  0
  149.3647  144.2036  159.5281 C   0  0  0  0  0  0  0  0  0  0  0  0
  149.6984  144.0086  160.6965 O   0  0  0  0  0  0  0  0  0  0  0  0
  148.1012  144.1992  159.0710 N   0  0  0  0  0  0  0  0  0  0  0  0
  146.8974  144.0199  159.8037 C   0  0  0  0  0  0  0  0  0  0  0  0
  145.6577  143.6146  159.2539 C   0  0  0  0  0  0  0  0  0  0  0  0
  144.5617  143.4486  160.0245 N   0  0  0  0  0  0  0  0  0  0  0  0
  144.6811  143.6769  161.3390 C   0  0  0  0  0  0  0  0  0  0  0  0
  143.5408  143.5041  162.1288 N   0  0  0  0  0  0  0  0  0  0  0  0
  142.2850  143.0339  161.5512 C   0  0  0  0  0  0  0  0  0  0  0  0
  143.5597  143.7997  163.5585 C   0  0  0  0  0  0  0  0  0  0  0  0
  145.8085  144.0531  161.9571 N   0  0  0  0  0  0  0  0  0  0  0  0
  146.9117  144.2209  161.1982 C   0  0  0  0  0  0  0  0  0  0  0  0
  152.2370  143.1597  159.1496 C   0  0  0  0  0  0  0  0  0  0  0  0
  152.1857  142.7933  160.6411 C   0  0  0  0  0  0  0  0  0  0  0  0
  153.5115  142.0496  160.4575 C   0  0  0  0  0  0  0  0  0  0  0  0
  153.7538  142.9220  159.2233 C   0  0  0  0  0  0  0  0  0  0  0  0
  153.1282  145.7517  159.7366 H   0  0  0  0  0  0  0  0  0  0  0  0
  151.6378  145.4711  160.6323 H   0  0  0  0  0  0  0  0  0  0  0  0
  151.6579  146.6002  159.2787 H   0  0  0  0  0  0  0  0  0  0  0  0
  152.1302  144.7528  157.7073 H   0  0  0  0  0  0  0  0  0  0  0  0
  149.8654  144.5808  157.6077 H   0  0  0  0  0  0  0  0  0  0  0  0
  147.9896  144.3014  158.0729 H   0  0  0  0  0  0  0  0  0  0  0  0
  145.5238  143.3982  158.2057 H   0  0  0  0  0  0  0  0  0  0  0  0
  142.4168  142.0467  161.1075 H   0  0  0  0  0  0  0  0  0  0  0  0
  141.9445  143.7184  160.7737 H   0  0  0  0  0  0  0  0  0  0  0  0
  141.4943  142.9599  162.2978 H   0  0  0  0  0  0  0  0  0  0  0  0
  143.7968  144.8510  163.7245 H   0  0  0  0  0  0  0  0  0  0  0  0
  144.3125  143.1933  164.0630 H   0  0  0  0  0  0  0  0  0  0  0  0
  142.5986  143.5961  164.0307 H   0  0  0  0  0  0  0  0  0  0  0  0
  147.8136  144.5210  161.7116 H   0  0  0  0  0  0  0  0  0  0  0  0
  151.7879  142.3411  158.5826 H   0  0  0  0  0  0  0  0  0  0  0  0
  152.2781  143.6624  161.2947 H   0  0  0  0  0  0  0  0  0  0  0  0
  151.3432  142.1631  160.9276 H   0  0  0  0  0  0  0  0  0  0  0  0
  154.2311  142.1905  161.2644 H   0  0  0  0  0  0  0  0  0  0  0  0
  153.3760  140.9954  160.2112 H   0  0  0  0  0  0  0  0  0  0  0  0
  154.1745  142.3967  158.3653 H   0  0  0  0  0  0  0  0  0  0  0  0
  154.3155  143.8287  159.4543 H   0  0  0  0  0  0  0  0  0  0  0  0
  1  2  1  0  0  0  0
  1 20  1  0  0  0  0
  1 21  1  0  0  0  0
  1 22  1  0  0  0  0
  2  3  1  0  0  0  0
  2 16  1  0  0  0  0
  2 23  1  0  0  0  0
  3  4  1  0  0  0  0
  3 24  1  0  0  0  0
  4  5  2  0  0  0  0
  4  6  1  0  0  0  0
  6  7  1  0  0  0  0
  6 25  1  0  0  0  0
  7 15  1  0  0  0  0
  7  8  2  0  0  0  0
  8  9  1  0  0  0  0
  8 26  1  0  0  0  0
  9 10  2  0  0  0  0
 10 11  1  0  0  0  0
 10 14  1  0  0  0  0
 11 12  1  0  0  0  0
 11 13  1  0  0  0  0
 12 27  1  0  0  0  0
 12 28  1  0  0  0  0
 12 29  1  0  0  0  0
 13 30  1  0  0  0  0
 13 31  1  0  0  0  0
 13 32  1  0  0  0  0
 14 15  2  0  0  0  0
 15 33  1  0  0  0  0
 16 19  1  0  0  0  0
 16 17  1  0  0  0  0
 16 34  1  0  0  0  0
 17 18  1  0  0  0  0
 17 35  1  0  0  0  0
 17 36  1  0  0  0  0
 18 19  1  0  0  0  0
 18 37  1  0  0  0  0
 18 38  1  0  0  0  0
 19 39  1  0  0  0  0
 19 40  1  0  0  0  0
M  END
> <s_m_source_file>
AV-unprocessed.smi

> <i_m_source_file_index>
2930

> <i_lp_mmshare_version>
43012

> <i_f3d_flags>
0

> <s_epik_input>
W0NIMl0xW0NIMl1bQ0gyXVtDSF0xW0NASF0oW0NIM10pW05IXUMoPU8pW05IXWMyW2NIXW5jKE4oW0NIM10pW0NIM10pbltjSF0y

> <s_epik_cmdline>
J2VwaWtfcHl0aG9uJywgJy1waCcsICc3LjAnLCAnLXRuJywgJzgnLCAnLW1hJywgJzIwMCcsICctbWV0YWxfYmluZGluZycsICctaW1hZScsICc8aW5maWxlLm1hZT4nLCAnLW9tYWUnLCAnPG91dGZpbGUubWFlPic=

> <r_lp_tautomer_probability>
1

> <r_epik_Ionization_Penalty>
0.000323856

> <r_epik_Ionization_Penalty_Charging>
0

> <r_epik_Ionization_Penalty_Neutral>
0.000323856

> <r_epik_State_Penalty>
-0

> <r_epik_Charging_Adjusted_Penalty>
0

> <i_epik_Tot_Q>
0

> <i_epik_Tot_abs_Q>
0

> <r_epik_Metal_State_Penalty>
-0

> <b_epik_Metal_Only>
0

> <s_lp_Force_Field>
OPLS_2005

> <r_lp_Energy>
8.18879

> <b_lp_Chiralities_Consistent>
1

> <s_lp_Variant>
AV-unprocessed.smi:2930-1

> <Gold.Version>
5.8.1

> <Gold.Id.Protein>
6NUR|6NUR_protein|mol2

> <Gold.PLP.Fitness>
42.0536

> <Gold.PLP.PLP>
-38.9480

> <Gold.PLP.part.hbond>
-3.5853

> <Gold.PLP.part.metal>
0.0000

> <Gold.PLP.part.buried>
-3.7233

> <Gold.PLP.part.nonpolar>
-31.9437

> <Gold.PLP.part.repulsive>
0.5201

> <Gold.PLP.ligand.clash>
0.0000

> <Gold.PLP.ligand.torsion>
0.3097

> <Gold.PLP.Chemscore.Hbond>
1.2034

> <Gold.PLP.Chemscore.CHOScore>
0.0000

> <Gold.PLP.Chemscore.Metal>
0.0000

> <Gold.Chemscore.Hbonds>
donor molecule, donor type, donor heavy atom, donor atom, acceptor molecule, acceptor atom, score
      L1  H     3    24       P1  8028  0.54
      L1  H     6    25       P1  8029  0.45
      P1  H  6933  6944       L1     5  0.21

> <Gold.PLP.Chemscore.Internal.Correction>
0.1148

> <Gold.Rescore>
     Score         DG    S(hbond)    S(metal)    S(lipo)     H(rot)  DE(clash)    DE(int)     intcor
     13.45     -18.96       1.49        0.00      98.87       1.19       1.44       4.07       ----

> <Gold.Chemscore.Fitness>
13.4497

> <Gold.Chemscore.DG>
-18.9631

> <Gold.Chemscore.ZeroCoef>
-5.4800

> <Gold.Chemscore.Hbond>
1.4893

> <Gold.Chemscore.Metal>
0.0000

> <Gold.Chemscore.Lipo>
98.8694

> <Gold.Chemscore.Internal_Hbond>
0.0000

> <Gold.Chemscore.DEClash>
1.4431

> <Gold.Chemscore.DEInternal>
4.0703

> <Gold.Chemscore.Rot>
1.1949

> <Gold.Chemscore.Internal.Correction>
   9.000000E+99

> <Gold.Chemscore.Hbonds>
donor molecule, donor type, donor heavy atom, donor atom, acceptor molecule, acceptor atom, score
      L1  H     3    24       P1  8028  0.07
      L1  H     6    25       P1  8029  0.14
      P1  H  6933  6944       L1     5  0.14

> <Gold.Chemscore.Hbond.Weighted>
-4.9744

> <Gold.Chemscore.Metal.Weighted>
-0.0000

> <Gold.Chemscore.Lipo.Weighted>
-11.5677

> <Gold.Chemscore.Internal_Hbond.Weighted>
0.0000

> <Gold.Chemscore.DEClash.Weighted>
1.4431

> <Gold.Chemscore.DEInternal.Weighted>
4.0703

> <Gold.Chemscore.Rot.Weighted>
3.0590

> <Gold.Chemscore.Internal.Correction.Weighted>
   9.000000E+99

> <Gold.Protein.RotatedTorsions>
[ 6907 6896 6895 6894 ] final -166.69 input  -60.11 | X-H torsion
[ 7974 7965 7964 7962 ] final   70.80 input  175.53 | X-H torsion
[ 8008 7997 7996 7995 ] final -158.65 input   59.86 | X-H torsion
[ 10167 10162 10161 10158 ] final   76.58 input  -65.29 | X-H torsion
[ 10718 10713 10712 10709 ] final  -56.64 input   66.30 | X-H torsion
[ 10763 10752 10751 10750 ] final -176.42 input  -60.55 | X-H torsion
[ 11005 11000 10999 10996 ] final  -27.11 input  -57.11 | X-H torsion

> <Gold.Protein.ActiveResidues>
 VAL166  LYS551  ARG553  GLY616  TRP617  ASP618  TYR619  PRO620  LYS621  CYS622 
 ASP623  PHE694  ASN695  SER759  ASP760  ASP761  ALA762  ILE779  LEU786  VAL792 
 PHE793  MET794  SER795  GLU796  ALA797  LYS798  CYS799  TRP800  GLU811  SER814 

> <Gold.Protein.RotatedAtoms>
  151.4476  133.3626  159.2790 H   0  0  0  0  0  0  0  0  0  0  0  0  # atno 6907 bound_to 6896
  150.9114  134.8532  159.7438 H   0  0  0  0  0  0  0  0  0  0  0  0  # atno 6908 bound_to 6896
  152.4934  134.4405  159.9594 H   0  0  0  0  0  0  0  0  0  0  0  0  # atno 6909 bound_to 6896
  145.7737  139.2855  143.1306 H   0  0  0  0  0  0  0  0  0  0  0  0  # atno 7974 bound_to 7965
  155.7508  140.0826  157.2202 H   0  0  0  0  0  0  0  0  0  0  0  0  # atno 8008 bound_to 7997
  154.4012  140.1561  156.2777 H   0  0  0  0  0  0  0  0  0  0  0  0  # atno 8009 bound_to 7997
  155.8932  140.3414  155.5974 H   0  0  0  0  0  0  0  0  0  0  0  0  # atno 8010 bound_to 7997
  139.9907  144.5759  150.7820 H   0  0  0  0  0  0  0  0  0  0  0  0  # atno 10167 bound_to 10162
  156.1273  130.4162  150.0332 H   0  0  0  0  0  0  0  0  0  0  0  0  # atno 10718 bound_to 10713
  154.5725  135.2829  155.0813 H   0  0  0  0  0  0  0  0  0  0  0  0  # atno 10763 bound_to 10752
  154.2180  135.6396  153.5139 H   0  0  0  0  0  0  0  0  0  0  0  0  # atno 10764 bound_to 10752
  153.0062  135.5507  154.6353 H   0  0  0  0  0  0  0  0  0  0  0  0  # atno 10765 bound_to 10752
  140.9090  133.7473  156.0645 H   0  0  0  0  0  0  0  0  0  0  0  0  # atno 11005 bound_to 11000
  146.0144  140.8406  142.9954 LP  0  0  0  0  0  0  0  0  0  0  0  0  # atno 17320 bound_to 7965
  144.6808  140.2537  143.7328 LP  0  0  0  0  0  0  0  0  0  0  0  0  # atno 17321 bound_to 7965
  140.7456  143.2877  151.3416 LP  0  0  0  0  0  0  0  0  0  0  0  0  # atno 17342 bound_to 10162
  139.6342  144.0662  152.2502 LP  0  0  0  0  0  0  0  0  0  0  0  0  # atno 17343 bound_to 10162
  156.8255  130.9374  151.3639 LP  0  0  0  0  0  0  0  0  0  0  0  0  # atno 17370 bound_to 10713
  157.6453  130.8839  149.9527 LP  0  0  0  0  0  0  0  0  0  0  0  0  # atno 17371 bound_to 10713
  140.8134  134.3373  157.5404 LP  0  0  0  0  0  0  0  0  0  0  0  0  # atno 17394 bound_to 11000
  139.8754  134.9267  156.3407 LP  0  0  0  0  0  0  0  0  0  0  0  0  # atno 17395 bound_to 11000

$$$$
