AV-unprocessed.smi:2124|AV-procd|sdf|8660|dock10
  -GOLD-   2272011413D 1   1.00000     0.00000
 Structure written by MMmdl.
 47 49  0  0  0  0  0  0  0  0  1 V2000
  148.0170  141.4056  153.6585 C   0  0  0  0  0  0  0  0  0  0  0  0
  148.9143  140.6821  154.6392 C   0  0  0  0  0  0  0  0  0  0  0  0
  149.8871  139.9043  154.0333 N   0  0  0  0  0  0  0  0  0  0  0  0
  150.7466  139.1903  154.8493 C   0  0  0  0  0  0  0  0  0  0  0  0
  151.7739  138.3546  154.1059 C   0  0  0  0  0  0  0  0  0  0  0  0
  150.6503  139.2590  156.2013 C   0  0  0  0  0  0  0  0  0  0  0  0
  151.5790  138.4890  157.1397 C   0  0  0  0  0  0  0  0  0  0  0  0
  152.5814  139.3237  157.9414 C   0  0  0  0  0  0  0  0  0  0  0  0
  153.6924  138.8726  158.2221 O   0  0  0  0  0  0  0  0  0  0  0  0
  152.1672  140.5508  158.2937 N   0  0  0  0  0  0  0  0  0  0  0  0
  152.9432  141.5415  159.0385 C   0  0  2  0  0  0  0  0  0  0  0  0
  153.6951  140.8168  160.1676 C   0  0  0  0  0  0  0  0  0  0  0  0
  152.0120  142.6582  159.5733 C   0  0  1  0  0  0  0  0  0  0  0  0
  152.7748  143.8495  160.2037 C   0  0  0  0  0  0  0  0  0  0  0  0
  152.2149  145.0694  159.4511 C   0  0  2  0  0  0  0  0  0  0  0  0
  150.7517  145.3051  159.8664 C   0  0  0  0  0  0  0  0  0  0  0  0
  150.0150  144.1411  159.1785 C   0  0  0  0  0  0  0  0  0  0  0  0
  151.1596  143.3724  158.4911 C   0  0  1  0  0  0  0  0  0  0  0  0
  152.0626  144.5155  158.0408 C   0  0  0  0  0  0  0  0  0  0  0  0
  149.6038  140.1265  156.7918 C   0  0  0  0  0  0  0  0  0  0  0  0
  149.4837  140.2518  158.0100 O   0  0  0  0  0  0  0  0  0  0  0  0
  148.7448  140.8151  155.9198 N   0  0  0  0  0  0  0  0  0  0  0  0
  149.9959  139.8270  153.0323 H   0  0  0  0  0  0  0  0  0  0  0  0
  147.1763  141.8743  154.1717 H   0  0  0  0  0  0  0  0  0  0  0  0
  147.6181  140.7099  152.9193 H   0  0  0  0  0  0  0  0  0  0  0  0
  148.5765  142.1828  153.1373 H   0  0  0  0  0  0  0  0  0  0  0  0
  151.6391  137.2963  154.3298 H   0  0  0  0  0  0  0  0  0  0  0  0
  152.7839  138.6440  154.3977 H   0  0  0  0  0  0  0  0  0  0  0  0
  151.6890  138.4808  153.0257 H   0  0  0  0  0  0  0  0  0  0  0  0
  152.1468  137.7665  156.5534 H   0  0  0  0  0  0  0  0  0  0  0  0
  150.9938  137.8838  157.8332 H   0  0  0  0  0  0  0  0  0  0  0  0
  151.2381  140.8283  158.0117 H   0  0  0  0  0  0  0  0  0  0  0  0
  153.6904  141.9962  158.3862 H   0  0  0  0  0  0  0  0  0  0  0  0
  154.3255  141.5004  160.7360 H   0  0  0  0  0  0  0  0  0  0  0  0
  154.3439  140.0369  159.7675 H   0  0  0  0  0  0  0  0  0  0  0  0
  153.0036  140.3461  160.8673 H   0  0  0  0  0  0  0  0  0  0  0  0
  151.3479  142.2128  160.3162 H   0  0  0  0  0  0  0  0  0  0  0  0
  152.6202  143.9182  161.2810 H   0  0  0  0  0  0  0  0  0  0  0  0
  153.8490  143.7753  160.0303 H   0  0  0  0  0  0  0  0  0  0  0  0
  152.8413  145.9582  159.5323 H   0  0  0  0  0  0  0  0  0  0  0  0
  150.6242  145.2973  160.9494 H   0  0  0  0  0  0  0  0  0  0  0  0
  150.3896  146.2634  159.4921 H   0  0  0  0  0  0  0  0  0  0  0  0
  149.4587  143.5227  159.8839 H   0  0  0  0  0  0  0  0  0  0  0  0
  149.3076  144.5206  158.4399 H   0  0  0  0  0  0  0  0  0  0  0  0
  150.8061  142.7283  157.6863 H   0  0  0  0  0  0  0  0  0  0  0  0
  151.5732  145.2083  157.3542 H   0  0  0  0  0  0  0  0  0  0  0  0
  153.0033  144.1814  157.6000 H   0  0  0  0  0  0  0  0  0  0  0  0
  1 24  1  0  0  0  0
  1 25  1  0  0  0  0
  1 26  1  0  0  0  0
  1  2  1  0  0  0  0
  2  3  1  0  0  0  0
  2 22  2  0  0  0  0
  3  4  1  0  0  0  0
  3 23  1  0  0  0  0
  4  6  2  0  0  0  0
  4  5  1  0  0  0  0
  5 27  1  0  0  0  0
  5 28  1  0  0  0  0
  5 29  1  0  0  0  0
  6 20  1  0  0  0  0
  6  7  1  0  0  0  0
  7  8  1  0  0  0  0
  7 30  1  0  0  0  0
  7 31  1  0  0  0  0
  8  9  2  0  0  0  0
  8 10  1  0  0  0  0
 10 11  1  0  0  0  0
 10 32  1  0  0  0  0
 11 12  1  0  0  0  0
 11 13  1  0  0  0  0
 11 33  1  0  0  0  0
 12 34  1  0  0  0  0
 12 35  1  0  0  0  0
 12 36  1  0  0  0  0
 13 18  1  0  0  0  0
 13 14  1  0  0  0  0
 13 37  1  0  0  0  0
 14 15  1  0  0  0  0
 14 38  1  0  0  0  0
 14 39  1  0  0  0  0
 15 19  1  0  0  0  0
 15 16  1  0  0  0  0
 15 40  1  0  0  0  0
 16 17  1  0  0  0  0
 16 41  1  0  0  0  0
 16 42  1  0  0  0  0
 17 18  1  0  0  0  0
 17 43  1  0  0  0  0
 17 44  1  0  0  0  0
 18 19  1  0  0  0  0
 18 45  1  0  0  0  0
 19 46  1  0  0  0  0
 19 47  1  0  0  0  0
 20 21  2  0  0  0  0
 20 22  1  0  0  0  0
M  END
> <s_m_source_file>
AV-unprocessed.smi

> <i_m_source_file_index>
2124

> <i_lp_mmshare_version>
43012

> <i_f3d_flags>
0

> <s_epik_input>
W0NIM11jMW5jKFtDSDNdKWMoYyg9TylbbkhdMSlbQ0gyXUMoPU8pW05IXVtDQEhdKFtDSDNdKVtDQEhdKFtDSDJdW0NASF0yMylbQ0BIXShbQ0gyXTMpW0NIMl1bQ0gyXTI=

> <s_epik_cmdline>
J2VwaWtfcHl0aG9uJywgJy1waCcsICc3LjAnLCAnLXRuJywgJzgnLCAnLW1hJywgJzIwMCcsICctbWV0YWxfYmluZGluZycsICctaW1hZScsICc8aW5maWxlLm1hZT4nLCAnLW9tYWUnLCAnPG91dGZpbGUubWFlPic=

> <r_lp_tautomer_probability>
0.156392

> <r_epik_Ionization_Penalty>
0.0139374

> <r_epik_Ionization_Penalty_Charging>
0.0138122

> <r_epik_Ionization_Penalty_Neutral>
0.000125146

> <r_epik_State_Penalty>
1.15342

> <r_epik_Charging_Adjusted_Penalty>
1.16723

> <i_epik_Tot_Q>
0

> <i_epik_Tot_abs_Q>
0

> <r_epik_Metal_State_Penalty>
1.3173

> <b_epik_Metal_Only>
0

> <s_lp_Force_Field>
OPLS_2005

> <r_lp_Energy>
56.0933

> <b_lp_Chiralities_Consistent>
1

> <s_lp_Variant>
AV-unprocessed.smi:2124-11

> <Gold.Version>
5.8.1

> <Gold.Id.Protein>
6NUR|6NUR_protein|mol2

> <Gold.PLP.Fitness>
49.4115

> <Gold.PLP.PLP>
-44.8178

> <Gold.PLP.part.hbond>
-2.0000

> <Gold.PLP.part.metal>
0.0000

> <Gold.PLP.part.buried>
-7.6881

> <Gold.PLP.part.nonpolar>
-36.0251

> <Gold.PLP.part.repulsive>
0.8233

> <Gold.PLP.ligand.clash>
0.0000

> <Gold.PLP.ligand.torsion>
0.7107

> <Gold.PLP.Chemscore.Hbond>
2.0000

> <Gold.PLP.Chemscore.CHOScore>
0.0000

> <Gold.PLP.Chemscore.Metal>
0.0000

> <Gold.Chemscore.Hbonds>
donor molecule, donor type, donor heavy atom, donor atom, acceptor molecule, acceptor atom, score
      L1  H     3    23       P1  7957  1.00
      P1  H  7997  8009       L1     9  1.00

> <Gold.PLP.Chemscore.Internal.Correction>
0.0152

> <Gold.Rescore>
     Score         DG    S(hbond)    S(metal)    S(lipo)     H(rot)  DE(clash)    DE(int)     intcor
     17.63     -22.25       1.71        0.00     130.76       1.65       0.49       4.13       ----

> <Gold.Chemscore.Fitness>
17.6312

> <Gold.Chemscore.DG>
-22.2532

> <Gold.Chemscore.ZeroCoef>
-5.4800

> <Gold.Chemscore.Hbond>
1.7086

> <Gold.Chemscore.Metal>
0.0000

> <Gold.Chemscore.Lipo>
130.7606

> <Gold.Chemscore.Internal_Hbond>
0.0000

> <Gold.Chemscore.DEClash>
0.4898

> <Gold.Chemscore.DEInternal>
4.1322

> <Gold.Chemscore.Rot>
1.6534

> <Gold.Chemscore.Internal.Correction>
   9.000000E+99

> <Gold.Chemscore.Hbonds>
donor molecule, donor type, donor heavy atom, donor atom, acceptor molecule, acceptor atom, score
      L1  H     3    23       P1  7957  0.99
      P1  H  7997  8009       L1     9  0.48

> <Gold.Chemscore.Hbond.Weighted>
-5.7069

> <Gold.Chemscore.Metal.Weighted>
-0.0000

> <Gold.Chemscore.Lipo.Weighted>
-15.2990

> <Gold.Chemscore.Internal_Hbond.Weighted>
0.0000

> <Gold.Chemscore.DEClash.Weighted>
0.4898

> <Gold.Chemscore.DEInternal.Weighted>
4.1322

> <Gold.Chemscore.Rot.Weighted>
4.2326

> <Gold.Chemscore.Internal.Correction.Weighted>
   9.000000E+99

> <Gold.Protein.RotatedTorsions>
[ 6907 6896 6895 6894 ] final  -10.21 input  -60.11 | X-H torsion
[ 7974 7965 7964 7962 ] final  -13.44 input  175.53 | X-H torsion
[ 8008 7997 7996 7995 ] final  128.30 input   59.86 | X-H torsion
[ 10167 10162 10161 10158 ] final   89.78 input  -65.29 | X-H torsion
[ 10718 10713 10712 10709 ] final -141.58 input   66.30 | X-H torsion
[ 10763 10752 10751 10750 ] final   69.04 input  -60.55 | X-H torsion
[ 11005 11000 10999 10996 ] final  140.66 input  -57.11 | X-H torsion

> <Gold.Protein.ActiveResidues>
 VAL166  LYS551  ARG553  GLY616  TRP617  ASP618  TYR619  PRO620  LYS621  CYS622 
 ASP623  PHE694  ASN695  SER759  ASP760  ASP761  ALA762  ILE779  LEU786  VAL792 
 PHE793  MET794  SER795  GLU796  ALA797  LYS798  CYS799  TRP800  GLU811  SER814 

> <Gold.Protein.RotatedAtoms>
  151.4056  135.0977  159.9569 H   0  0  0  0  0  0  0  0  0  0  0  0  # atno 6907 bound_to 6896
  152.5036  133.8846  159.7374 H   0  0  0  0  0  0  0  0  0  0  0  0  # atno 6908 bound_to 6896
  150.9330  133.6688  159.2835 H   0  0  0  0  0  0  0  0  0  0  0  0  # atno 6909 bound_to 6896
  146.2114  140.3204  142.8390 H   0  0  0  0  0  0  0  0  0  0  0  0  # atno 7974 bound_to 7965
  156.2912  140.2648  156.2414 H   0  0  0  0  0  0  0  0  0  0  0  0  # atno 8008 bound_to 7997
  154.9974  140.0388  157.2364 H   0  0  0  0  0  0  0  0  0  0  0  0  # atno 8009 bound_to 7997
  154.7632  140.2764  155.6202 H   0  0  0  0  0  0  0  0  0  0  0  0  # atno 8010 bound_to 7997
  139.8539  144.6579  150.9138 H   0  0  0  0  0  0  0  0  0  0  0  0  # atno 10167 bound_to 10162
  156.3357  130.7610  151.1737 H   0  0  0  0  0  0  0  0  0  0  0  0  # atno 10718 bound_to 10713
  153.0266  135.5225  154.7227 H   0  0  0  0  0  0  0  0  0  0  0  0  # atno 10763 bound_to 10752
  154.6278  135.2896  155.0254 H   0  0  0  0  0  0  0  0  0  0  0  0  # atno 10764 bound_to 10752
  154.1217  135.6606  153.4957 H   0  0  0  0  0  0  0  0  0  0  0  0  # atno 10765 bound_to 10752
  140.0344  134.9336  157.0724 H   0  0  0  0  0  0  0  0  0  0  0  0  # atno 11005 bound_to 11000
  144.8924  140.7540  143.5918 LP  0  0  0  0  0  0  0  0  0  0  0  0  # atno 17320 bound_to 7965
  145.3127  139.1813  143.4630 LP  0  0  0  0  0  0  0  0  0  0  0  0  # atno 17321 bound_to 7965
  140.7784  143.3803  151.1488 LP  0  0  0  0  0  0  0  0  0  0  0  0  # atno 17342 bound_to 10162
  139.7439  143.8882  152.3058 LP  0  0  0  0  0  0  0  0  0  0  0  0  # atno 17343 bound_to 10162
  157.7438  131.0468  150.4915 LP  0  0  0  0  0  0  0  0  0  0  0  0  # atno 17370 bound_to 10713
  156.5087  130.4134  149.6313 LP  0  0  0  0  0  0  0  0  0  0  0  0  # atno 17371 bound_to 10713
  140.4172  134.1918  155.7164 LP  0  0  0  0  0  0  0  0  0  0  0  0  # atno 17394 bound_to 11000
  141.1849  133.8334  157.1124 LP  0  0  0  0  0  0  0  0  0  0  0  0  # atno 17395 bound_to 11000

$$$$
