AV-unprocessed.smi:2244|AV-procd|sdf|9072|dock8
  -GOLD-   2272012273D 1   1.00000     0.00000
 Structure written by MMmdl.
 49 51  0  0  0  0  0  0  0  0  1 V2000
  148.2347  128.5252  155.6636 C   0  0  0  0  0  0  0  0  0  0  0  0
  149.2541  129.0458  154.6254 C   0  0  0  0  0  0  0  0  0  0  0  0
  150.6598  128.6291  155.1055 C   0  0  0  0  0  0  0  0  0  0  0  0
  148.9348  128.3607  153.2801 C   0  0  0  0  0  0  0  0  0  0  0  0
  149.1938  130.5748  154.4584 C   0  0  0  0  0  0  0  0  0  0  0  0
  148.2353  131.2279  153.6512 C   0  0  0  0  0  0  0  0  0  0  0  0
  148.2871  132.6299  153.5787 C   0  0  0  0  0  0  0  0  0  0  0  0
  149.2829  133.3081  154.3104 C   0  0  0  0  0  0  0  0  0  0  0  0
  149.2679  134.7264  154.1676 N   0  0  0  0  0  0  0  0  0  0  0  0
  149.6747  135.7121  154.9955 C   0  0  0  0  0  0  0  0  0  0  0  0
  150.1671  135.4538  156.0928 O   0  0  0  0  0  0  0  0  0  0  0  0
  149.5172  136.9690  154.5485 N   0  0  0  0  0  0  0  0  0  0  0  0
  149.8745  138.1805  155.2792 C   0  0  2  0  0  0  0  0  0  0  0  0
  149.3974  139.4140  154.5008 C   0  0  0  0  0  0  0  0  0  0  0  0
  149.8617  140.7056  155.1910 C   0  0  0  0  0  0  0  0  0  0  0  0
  151.2798  140.7079  155.3422 O   0  0  0  0  0  0  0  0  0  0  0  0
  151.8130  139.6228  156.1032 C   0  0  1  0  0  0  0  0  0  0  0  0
  151.4668  139.7431  157.5814 C   0  0  0  0  0  0  0  0  0  0  0  0
  152.4552  140.3382  158.5558 C   0  0  0  0  0  0  0  0  0  0  0  0
  152.1393  138.8619  158.6078 C   0  0  0  0  0  0  0  0  0  0  0  0
  151.3972  138.2727  155.4864 C   0  0  0  0  0  0  0  0  0  0  0  0
  150.1711  132.6132  155.0661 N   0  0  0  0  0  0  0  0  0  0  0  0
  150.1283  131.2801  155.1410 N   0  0  0  0  0  0  0  0  0  0  0  0
  148.2901  127.4404  155.7624 H   0  0  0  0  0  0  0  0  0  0  0  0
  147.2100  128.7666  155.3786 H   0  0  0  0  0  0  0  0  0  0  0  0
  148.4176  128.9440  156.6538 H   0  0  0  0  0  0  0  0  0  0  0  0
  150.9087  129.1031  156.0557 H   0  0  0  0  0  0  0  0  0  0  0  0
  151.4329  128.9060  154.3881 H   0  0  0  0  0  0  0  0  0  0  0  0
  150.7269  127.5501  155.2493 H   0  0  0  0  0  0  0  0  0  0  0  0
  148.9526  127.2743  153.3732 H   0  0  0  0  0  0  0  0  0  0  0  0
  149.6565  128.6274  152.5072 H   0  0  0  0  0  0  0  0  0  0  0  0
  147.9455  128.6431  152.9178 H   0  0  0  0  0  0  0  0  0  0  0  0
  147.4777  130.6968  153.0959 H   0  0  0  0  0  0  0  0  0  0  0  0
  147.5750  133.1699  152.9715 H   0  0  0  0  0  0  0  0  0  0  0  0
  148.9245  135.0496  153.2751 H   0  0  0  0  0  0  0  0  0  0  0  0
  149.1058  137.0940  153.6341 H   0  0  0  0  0  0  0  0  0  0  0  0
  149.3730  138.1667  156.2482 H   0  0  0  0  0  0  0  0  0  0  0  0
  149.7939  139.3884  153.4846 H   0  0  0  0  0  0  0  0  0  0  0  0
  148.3104  139.4093  154.4120 H   0  0  0  0  0  0  0  0  0  0  0  0
  149.5775  141.5693  154.5896 H   0  0  0  0  0  0  0  0  0  0  0  0
  149.3709  140.8280  156.1566 H   0  0  0  0  0  0  0  0  0  0  0  0
  152.8977  139.7028  156.0209 H   0  0  0  0  0  0  0  0  0  0  0  0
  150.4224  139.9718  157.7808 H   0  0  0  0  0  0  0  0  0  0  0  0
  153.4308  140.6305  158.1726 H   0  0  0  0  0  0  0  0  0  0  0  0
  152.0585  140.9672  159.3501 H   0  0  0  0  0  0  0  0  0  0  0  0
  151.5318  138.5055  159.4371 H   0  0  0  0  0  0  0  0  0  0  0  0
  152.9051  138.1712  158.2608 H   0  0  0  0  0  0  0  0  0  0  0  0
  151.7527  137.4517  156.1104 H   0  0  0  0  0  0  0  0  0  0  0  0
  151.8966  138.1616  154.5226 H   0  0  0  0  0  0  0  0  0  0  0  0
  1  2  1  0  0  0  0
  1 24  1  0  0  0  0
  1 25  1  0  0  0  0
  1 26  1  0  0  0  0
  2  3  1  0  0  0  0
  2  4  1  0  0  0  0
  2  5  1  0  0  0  0
  3 27  1  0  0  0  0
  3 28  1  0  0  0  0
  3 29  1  0  0  0  0
  4 30  1  0  0  0  0
  4 31  1  0  0  0  0
  4 32  1  0  0  0  0
  5 23  1  0  0  0  0
  5  6  2  0  0  0  0
  6  7  1  0  0  0  0
  6 33  1  0  0  0  0
  7  8  2  0  0  0  0
  7 34  1  0  0  0  0
  8  9  1  0  0  0  0
  8 22  1  0  0  0  0
  9 10  1  0  0  0  0
  9 35  1  0  0  0  0
 10 11  2  0  0  0  0
 10 12  1  0  0  0  0
 12 13  1  0  0  0  0
 12 36  1  0  0  0  0
 13 21  1  0  0  0  0
 13 14  1  0  0  0  0
 13 37  1  0  0  0  0
 14 15  1  0  0  0  0
 14 38  1  0  0  0  0
 14 39  1  0  0  0  0
 15 16  1  0  0  0  0
 15 40  1  0  0  0  0
 15 41  1  0  0  0  0
 16 17  1  0  0  0  0
 17 18  1  0  0  0  0
 17 21  1  0  0  0  0
 17 42  1  0  0  0  0
 18 20  1  0  0  0  0
 18 19  1  0  0  0  0
 18 43  1  0  0  0  0
 19 20  1  0  0  0  0
 19 44  1  0  0  0  0
 19 45  1  0  0  0  0
 20 46  1  0  0  0  0
 20 47  1  0  0  0  0
 21 48  1  0  0  0  0
 21 49  1  0  0  0  0
 22 23  2  0  0  0  0
M  END
> <s_m_source_file>
AV-unprocessed.smi

> <i_m_source_file_index>
2244

> <i_lp_mmshare_version>
43012

> <i_f3d_flags>
0

> <s_epik_input>
W0NIM11DKFtDSDNdKShbQ0gzXSljMVtjSF1bY0hdYyhubjEpW05IXUMoPU8pW05IXVtDQEBIXTJbQ0gyXVtDSDJdT1tDQEhdKFtDSDJdMilbQ0hdM1tDSDJdW0NIMl0z

> <s_epik_cmdline>
J2VwaWtfcHl0aG9uJywgJy1waCcsICc3LjAnLCAnLXRuJywgJzgnLCAnLW1hJywgJzIwMCcsICctbWV0YWxfYmluZGluZycsICctaW1hZScsICc8aW5maWxlLm1hZT4nLCAnLW9tYWUnLCAnPG91dGZpbGUubWFlPic=

> <r_lp_tautomer_probability>
1

> <r_epik_Ionization_Penalty>
0.011369

> <r_epik_Ionization_Penalty_Charging>
0

> <r_epik_Ionization_Penalty_Neutral>
0.011369

> <r_epik_State_Penalty>
0.00456331

> <r_epik_Charging_Adjusted_Penalty>
0.00456331

> <i_epik_Tot_Q>
0

> <i_epik_Tot_abs_Q>
0

> <r_epik_Metal_State_Penalty>
-0

> <b_epik_Metal_Only>
0

> <s_lp_Force_Field>
OPLS_2005

> <r_lp_Energy>
29.5867

> <b_lp_Chiralities_Consistent>
1

> <s_lp_Variant>
AV-unprocessed.smi:2244-1

> <Gold.Version>
5.8.1

> <Gold.Id.Protein>
6NUR|6NUR_protein|mol2

> <Gold.PLP.Fitness>
40.0797

> <Gold.PLP.PLP>
-34.6596

> <Gold.PLP.part.hbond>
-3.0000

> <Gold.PLP.part.metal>
0.0000

> <Gold.PLP.part.buried>
-1.7717

> <Gold.PLP.part.nonpolar>
-29.6229

> <Gold.PLP.part.repulsive>
0.1432

> <Gold.PLP.ligand.clash>
0.0000

> <Gold.PLP.ligand.torsion>
1.7054

> <Gold.PLP.Chemscore.Hbond>
2.5840

> <Gold.PLP.Chemscore.CHOScore>
0.0000

> <Gold.PLP.Chemscore.Metal>
0.0000

> <Gold.Chemscore.Hbonds>
donor molecule, donor type, donor heavy atom, donor atom, acceptor molecule, acceptor atom, score
      L1  H     9    35       P1  7948  1.00
      L1  H    12    36       P1  7948  0.83
      P1  H  7989  7998       L1    16  0.60

> <Gold.PLP.Chemscore.Internal.Correction>
1.0789

> <Gold.Rescore>
     Score         DG    S(hbond)    S(metal)    S(lipo)     H(rot)  DE(clash)    DE(int)     intcor
     13.76     -15.99       1.60        0.00      72.52       1.30       0.10       2.13       ----

> <Gold.Chemscore.Fitness>
13.7589

> <Gold.Chemscore.DG>
-15.9897

> <Gold.Chemscore.ZeroCoef>
-5.4800

> <Gold.Chemscore.Hbond>
1.6027

> <Gold.Chemscore.Metal>
0.0000

> <Gold.Chemscore.Lipo>
72.5219

> <Gold.Chemscore.Internal_Hbond>
0.0000

> <Gold.Chemscore.DEClash>
0.0998

> <Gold.Chemscore.DEInternal>
2.1310

> <Gold.Chemscore.Rot>
1.3002

> <Gold.Chemscore.Internal.Correction>
   9.000000E+99

> <Gold.Chemscore.Hbonds>
donor molecule, donor type, donor heavy atom, donor atom, acceptor molecule, acceptor atom, score
      L1  H     9    35       P1  7948  0.33
      L1  H    12    36       P1  7948  0.82
      P1  H  7989  7998       L1    16  0.07

> <Gold.Chemscore.Hbond.Weighted>
-5.3530

> <Gold.Chemscore.Metal.Weighted>
-0.0000

> <Gold.Chemscore.Lipo.Weighted>
-8.4851

> <Gold.Chemscore.Internal_Hbond.Weighted>
0.0000

> <Gold.Chemscore.DEClash.Weighted>
0.0998

> <Gold.Chemscore.DEInternal.Weighted>
2.1310

> <Gold.Chemscore.Rot.Weighted>
3.3284

> <Gold.Chemscore.Internal.Correction.Weighted>
   9.000000E+99

> <Gold.Protein.RotatedTorsions>
[ 6907 6896 6895 6894 ] final  -36.94 input  -60.11 | X-H torsion
[ 7974 7965 7964 7962 ] final -156.80 input  175.53 | X-H torsion
[ 8008 7997 7996 7995 ] final -158.98 input   59.86 | X-H torsion
[ 10167 10162 10161 10158 ] final -149.89 input  -65.29 | X-H torsion
[ 10718 10713 10712 10709 ] final   95.52 input   66.30 | X-H torsion
[ 10763 10752 10751 10750 ] final   82.14 input  -60.55 | X-H torsion
[ 11005 11000 10999 10996 ] final -158.64 input  -57.11 | X-H torsion

> <Gold.Protein.ActiveResidues>
 VAL166  LYS551  ARG553  GLY616  TRP617  ASP618  TYR619  PRO620  LYS621  CYS622 
 ASP623  PHE694  ASN695  SER759  ASP760  ASP761  ALA762  ILE779  LEU786  VAL792 
 PHE793  MET794  SER795  GLU796  ALA797  LYS798  CYS799  TRP800  GLU811  SER814 

> <Gold.Protein.RotatedAtoms>
  151.0208  134.9468  159.8058 H   0  0  0  0  0  0  0  0  0  0  0  0  # atno 6907 bound_to 6896
  152.5324  134.2905  159.9051 H   0  0  0  0  0  0  0  0  0  0  0  0  # atno 6908 bound_to 6896
  151.2913  133.4122  159.2667 H   0  0  0  0  0  0  0  0  0  0  0  0  # atno 6909 bound_to 6896
  144.7577  140.4059  143.6000 H   0  0  0  0  0  0  0  0  0  0  0  0  # atno 7974 bound_to 7965
  155.7557  140.0832  157.2180 H   0  0  0  0  0  0  0  0  0  0  0  0  # atno 8008 bound_to 7997
  154.4008  140.1552  156.2831 H   0  0  0  0  0  0  0  0  0  0  0  0  # atno 8009 bound_to 7997
  155.8888  140.3416  155.5943 H   0  0  0  0  0  0  0  0  0  0  0  0  # atno 8010 bound_to 7997
  139.7402  143.8673  152.2560 H   0  0  0  0  0  0  0  0  0  0  0  0  # atno 10167 bound_to 10162
  157.6938  131.0548  150.4352 H   0  0  0  0  0  0  0  0  0  0  0  0  # atno 10718 bound_to 10713
  153.1177  135.4739  154.9143 H   0  0  0  0  0  0  0  0  0  0  0  0  # atno 10763 bound_to 10752
  154.7545  135.3114  154.8498 H   0  0  0  0  0  0  0  0  0  0  0  0  # atno 10764 bound_to 10752
  153.9071  135.6869  153.4806 H   0  0  0  0  0  0  0  0  0  0  0  0  # atno 10765 bound_to 10752
  140.6514  134.4446  157.5235 H   0  0  0  0  0  0  0  0  0  0  0  0  # atno 11005 bound_to 11000
  145.6724  139.1602  143.2747 LP  0  0  0  0  0  0  0  0  0  0  0  0  # atno 17320 bound_to 7965
  146.1605  140.6794  142.9279 LP  0  0  0  0  0  0  0  0  0  0  0  0  # atno 17321 bound_to 7965
  139.8622  144.7111  150.9086 LP  0  0  0  0  0  0  0  0  0  0  0  0  # atno 17342 bound_to 10162
  140.7785  143.3808  151.1480 LP  0  0  0  0  0  0  0  0  0  0  0  0  # atno 17343 bound_to 10162
  156.4715  130.4054  149.6515 LP  0  0  0  0  0  0  0  0  0  0  0  0  # atno 17370 bound_to 10713
  156.3594  130.7473  151.2443 LP  0  0  0  0  0  0  0  0  0  0  0  0  # atno 17371 bound_to 10713
  139.9044  134.8481  156.1763 LP  0  0  0  0  0  0  0  0  0  0  0  0  # atno 17394 bound_to 11000
  141.0534  133.6877  156.1814 LP  0  0  0  0  0  0  0  0  0  0  0  0  # atno 17395 bound_to 11000

$$$$
