AV-unprocessed.smi:289|AV-procd|sdf|2214|dock1
  -GOLD-   2262022 53D 1   1.00000     0.00000
 Structure written by MMmdl.
 51 54  0  0  0  0  0  0  0  0  1 V2000
  153.1467  137.1081  157.8453 O   0  0  0  0  0  0  0  0  0  0  0  0
  152.3874  137.2853  156.8905 C   0  0  0  0  0  0  0  0  0  0  0  0
  152.7186  138.3909  155.8657 C   0  0  0  0  0  0  0  0  0  0  0  0
  151.9546  139.6418  156.0730 N   0  0  0  0  0  0  0  0  0  0  0  0
  151.0348  140.0492  155.0759 C   0  0  0  0  0  0  0  0  0  0  0  0
  150.8855  139.3992  154.0401 O   0  0  0  0  0  0  0  0  0  0  0  0
  150.2808  141.2602  155.3747 C   0  0  0  0  0  0  0  0  0  0  0  0
  149.3541  141.6984  154.5057 F   0  0  0  0  0  0  0  0  0  0  0  0
  150.4852  141.9417  156.5207 C   0  0  0  0  0  0  0  0  0  0  0  0
  151.4191  141.5594  157.4700 N   0  0  0  0  0  0  0  0  0  0  0  0
  151.5895  142.2876  158.7951 C   0  0  1  0  0  0  0  0  0  0  0  0
  153.0198  142.7711  159.0719 C   0  0  0  0  0  0  0  0  0  0  0  0
  152.9866  144.2340  158.6372 C   0  0  0  0  0  0  0  0  0  0  0  0
  151.5507  144.4667  158.1550 C   0  0  0  0  0  0  0  0  0  0  0  0
  150.7985  143.4327  158.7749 O   0  0  0  0  0  0  0  0  0  0  0  0
  152.1411  140.3596  157.2790 C   0  0  0  0  0  0  0  0  0  0  0  0
  152.9151  139.9456  158.1452 O   0  0  0  0  0  0  0  0  0  0  0  0
  151.2709  136.5381  156.7124 N   0  0  0  0  0  0  0  0  0  0  0  0
  150.3384  136.6378  155.5806 C   0  0  0  0  0  0  0  0  0  0  0  0
  150.4044  135.3344  154.7581 C   0  0  0  0  0  0  0  0  0  0  0  0
  150.0869  134.1884  155.6307 N   0  0  0  0  0  0  0  0  0  0  0  0
  149.0043  133.3791  155.5136 C   0  0  0  0  0  0  0  0  0  0  0  0
  148.6196  132.6497  156.4280 O   0  0  0  0  0  0  0  0  0  0  0  0
  148.2562  133.3522  154.2384 C   0  0  0  0  0  0  0  0  0  0  0  0
  147.3893  134.2671  153.7041 C   0  0  0  0  0  0  0  0  0  0  0  0
  146.9124  133.7128  152.4843 C   0  0  0  0  0  0  0  0  0  0  0  0
  147.5026  132.4869  152.3728 C   0  0  0  0  0  0  0  0  0  0  0  0
  148.3126  132.2459  153.4392 O   0  0  0  0  0  0  0  0  0  0  0  0
  150.9958  134.1136  156.7866 C   0  0  0  0  0  0  0  0  0  0  0  0
  150.9095  135.4215  157.5958 C   0  0  0  0  0  0  0  0  0  0  0  0
  153.7896  138.5959  155.8994 H   0  0  0  0  0  0  0  0  0  0  0  0
  152.5465  137.9998  154.8617 H   0  0  0  0  0  0  0  0  0  0  0  0
  149.8709  142.8123  156.6868 H   0  0  0  0  0  0  0  0  0  0  0  0
  151.2560  141.5823  159.5580 H   0  0  0  0  0  0  0  0  0  0  0  0
  153.1955  142.7131  160.1468 H   0  0  0  0  0  0  0  0  0  0  0  0
  153.7764  142.1581  158.5830 H   0  0  0  0  0  0  0  0  0  0  0  0
  153.2134  144.8789  159.4870 H   0  0  0  0  0  0  0  0  0  0  0  0
  153.7115  144.4506  157.8522 H   0  0  0  0  0  0  0  0  0  0  0  0
  151.1718  145.4514  158.4292 H   0  0  0  0  0  0  0  0  0  0  0  0
  151.4829  144.3717  157.0703 H   0  0  0  0  0  0  0  0  0  0  0  0
  149.3279  136.7836  155.9654 H   0  0  0  0  0  0  0  0  0  0  0  0
  150.5232  137.4898  154.9291 H   0  0  0  0  0  0  0  0  0  0  0  0
  149.7263  135.4432  153.9143 H   0  0  0  0  0  0  0  0  0  0  0  0
  151.4010  135.1998  154.3351 H   0  0  0  0  0  0  0  0  0  0  0  0
  147.1319  135.2221  154.1385 H   0  0  0  0  0  0  0  0  0  0  0  0
  146.2182  134.1516  151.7828 H   0  0  0  0  0  0  0  0  0  0  0  0
  147.4548  131.6942  151.6407 H   0  0  0  0  0  0  0  0  0  0  0  0
  150.7836  133.2647  157.4379 H   0  0  0  0  0  0  0  0  0  0  0  0
  152.0148  133.9621  156.4270 H   0  0  0  0  0  0  0  0  0  0  0  0
  151.5505  135.3501  158.4751 H   0  0  0  0  0  0  0  0  0  0  0  0
  149.8970  135.5687  157.9749 H   0  0  0  0  0  0  0  0  0  0  0  0
  1  2  2  0  0  0  0
  2  3  1  0  0  0  0
  2 18  1  0  0  0  0
  3  4  1  0  0  0  0
  3 31  1  0  0  0  0
  3 32  1  0  0  0  0
  4 16  1  0  0  0  0
  4  5  1  0  0  0  0
  5  6  2  0  0  0  0
  5  7  1  0  0  0  0
  7  8  1  0  0  0  0
  7  9  2  0  0  0  0
  9 10  1  0  0  0  0
  9 33  1  0  0  0  0
 10 11  1  0  0  0  0
 10 16  1  0  0  0  0
 11 15  1  0  0  0  0
 11 12  1  0  0  0  0
 11 34  1  0  0  0  0
 12 13  1  0  0  0  0
 12 35  1  0  0  0  0
 12 36  1  0  0  0  0
 13 14  1  0  0  0  0
 13 37  1  0  0  0  0
 13 38  1  0  0  0  0
 14 15  1  0  0  0  0
 14 39  1  0  0  0  0
 14 40  1  0  0  0  0
 16 17  2  0  0  0  0
 18 30  1  0  0  0  0
 18 19  1  0  0  0  0
 19 20  1  0  0  0  0
 19 41  1  0  0  0  0
 19 42  1  0  0  0  0
 20 21  1  0  0  0  0
 20 43  1  0  0  0  0
 20 44  1  0  0  0  0
 21 22  1  0  0  0  0
 21 29  1  0  0  0  0
 22 23  2  0  0  0  0
 22 24  1  0  0  0  0
 24 28  1  0  0  0  0
 24 25  2  0  0  0  0
 25 26  1  0  0  0  0
 25 45  1  0  0  0  0
 26 27  2  0  0  0  0
 26 46  1  0  0  0  0
 27 28  1  0  0  0  0
 27 47  1  0  0  0  0
 29 30  1  0  0  0  0
 29 48  1  0  0  0  0
 29 49  1  0  0  0  0
 30 50  1  0  0  0  0
 30 51  1  0  0  0  0
M  END
> <s_m_source_file>
AV-unprocessed.smi

> <i_m_source_file_index>
289

> <i_lp_mmshare_version>
43012

> <i_f3d_flags>
0

> <s_epik_input>
bzFbY0hdW2NIXVtjSF1jMUMoPU8pTihbQ0gyXVtDSDJdMilbQ0gyXVtDSDJdTjJDKD1PKVtDSDJdbjNjKD1PKWMoRilbY0hdbihjMz1PKVtDQEBIXTRbQ0gyXVtDSDJdW0NIMl1PNA==

> <s_epik_cmdline>
J2VwaWtfcHl0aG9uJywgJy1waCcsICc3LjAnLCAnLXRuJywgJzgnLCAnLW1hJywgJzIwMCcsICctbWV0YWxfYmluZGluZycsICctaW1hZScsICc8aW5maWxlLm1hZT4nLCAnLW9tYWUnLCAnPG91dGZpbGUubWFlPic=

> <r_lp_tautomer_probability>
1

> <r_epik_Ionization_Penalty>
6.38128e-09

> <r_epik_Ionization_Penalty_Charging>
4.20153e-09

> <r_epik_Ionization_Penalty_Neutral>
2.17976e-09

> <r_epik_State_Penalty>
-0

> <r_epik_Charging_Adjusted_Penalty>
4.20153e-09

> <i_epik_Tot_Q>
0

> <i_epik_Tot_abs_Q>
0

> <r_epik_Metal_State_Penalty>
-0

> <b_epik_Metal_Only>
0

> <s_epik_Chemistry_Notes>
This compound contains an acetal/aminal-like group ( X-CH(R)-Y where X, Y are N, S, or O) that may be acid/base labile, releasing an aldehyde.

> <s_lp_Force_Field>
OPLS_2005

> <r_lp_Energy>
67.9556

> <b_lp_Chiralities_Consistent>
1

> <s_lp_Variant>
AV-unprocessed.smi:289-2

> <Gold.Version>
5.8.1

> <Gold.Id.Protein>
6NUR|6NUR_protein|mol2

> <Gold.PLP.Fitness>
52.8700

> <Gold.PLP.PLP>
-46.6726

> <Gold.PLP.part.hbond>
-2.0000

> <Gold.PLP.part.metal>
0.0000

> <Gold.PLP.part.buried>
3.3056

> <Gold.PLP.part.nonpolar>
-47.7135

> <Gold.PLP.part.repulsive>
0.4922

> <Gold.PLP.ligand.clash>
0.0000

> <Gold.PLP.ligand.torsion>
1.7937

> <Gold.PLP.Chemscore.Hbond>
1.0500

> <Gold.PLP.Chemscore.CHOScore>
1.9776

> <Gold.PLP.Chemscore.Metal>
0.0000

> <Gold.Chemscore.Hbonds>
donor molecule, donor type, donor heavy atom, donor atom, acceptor molecule, acceptor atom, score
      P1  H  7997  8010       L1    17  0.80
      L1  C     9    33       P1  8028  1.00
      L1  C    27    47       P1 10747  1.00

> <Gold.PLP.Chemscore.Internal.Correction>
0.7021

> <Gold.Rescore>
     Score         DG    S(hbond)    S(metal)    S(lipo)     H(rot)  DE(clash)    DE(int)     intcor
      8.57     -15.27       0.88        0.00      94.98       1.66       1.39       5.31       ----

> <Gold.Chemscore.Fitness>
8.5733

> <Gold.Chemscore.DG>
-15.2718

> <Gold.Chemscore.ZeroCoef>
-5.4800

> <Gold.Chemscore.Hbond>
0.8752

> <Gold.Chemscore.Metal>
0.0000

> <Gold.Chemscore.Lipo>
94.9834

> <Gold.Chemscore.Internal_Hbond>
0.0000

> <Gold.Chemscore.DEClash>
1.3922

> <Gold.Chemscore.DEInternal>
5.3063

> <Gold.Chemscore.Rot>
1.6580

> <Gold.Chemscore.Internal.Correction>
   9.000000E+99

> <Gold.Chemscore.Hbonds>
donor molecule, donor type, donor heavy atom, donor atom, acceptor molecule, acceptor atom, score
      P1  H  7997  8010       L1    17  0.11

> <Gold.Chemscore.Hbond.Weighted>
-2.9233

> <Gold.Chemscore.Metal.Weighted>
-0.0000

> <Gold.Chemscore.Lipo.Weighted>
-11.1131

> <Gold.Chemscore.Internal_Hbond.Weighted>
0.0000

> <Gold.Chemscore.DEClash.Weighted>
1.3922

> <Gold.Chemscore.DEInternal.Weighted>
5.3063

> <Gold.Chemscore.Rot.Weighted>
4.2446

> <Gold.Chemscore.Internal.Correction.Weighted>
   9.000000E+99

> <Gold.Protein.RotatedTorsions>
[ 6907 6896 6895 6894 ] final   73.61 input  -60.11 | X-H torsion
[ 7974 7965 7964 7962 ] final  -55.97 input  175.53 | X-H torsion
[ 8008 7997 7996 7995 ] final   36.16 input   59.86 | X-H torsion
[ 10167 10162 10161 10158 ] final  147.54 input  -65.29 | X-H torsion
[ 10718 10713 10712 10709 ] final  152.25 input   66.30 | X-H torsion
[ 10763 10752 10751 10750 ] final  179.75 input  -60.55 | X-H torsion
[ 11005 11000 10999 10996 ] final -137.61 input  -57.11 | X-H torsion

> <Gold.Protein.ActiveResidues>
 VAL166  LYS551  ARG553  GLY616  TRP617  ASP618  TYR619  PRO620  LYS621  CYS622 
 ASP623  PHE694  ASN695  SER759  ASP760  ASP761  ALA762  ILE779  LEU786  VAL792 
 PHE793  MET794  SER795  GLU796  ALA797  LYS798  CYS799  TRP800  GLU811  SER814 

> <Gold.Protein.RotatedAtoms>
  152.4932  134.4395  159.9538 H   0  0  0  0  0  0  0  0  0  0  0  0  # atno 6907 bound_to 6896
  151.4379  133.3645  159.2785 H   0  0  0  0  0  0  0  0  0  0  0  0  # atno 6908 bound_to 6896
  150.9108  134.8549  159.7484 H   0  0  0  0  0  0  0  0  0  0  0  0  # atno 6909 bound_to 6896
  145.8680  140.8237  142.9902 H   0  0  0  0  0  0  0  0  0  0  0  0  # atno 7974 bound_to 7965
  155.1828  140.3301  155.4372 H   0  0  0  0  0  0  0  0  0  0  0  0  # atno 8008 bound_to 7997
  156.2470  140.1924  156.6875 H   0  0  0  0  0  0  0  0  0  0  0  0  # atno 8009 bound_to 7997
  154.6259  140.0589  156.9659 H   0  0  0  0  0  0  0  0  0  0  0  0  # atno 8010 bound_to 7997
  139.4888  144.5747  151.6987 H   0  0  0  0  0  0  0  0  0  0  0  0  # atno 10167 bound_to 10162
  157.2602  131.0796  151.1671 H   0  0  0  0  0  0  0  0  0  0  0  0  # atno 10718 bound_to 10713
  154.5247  135.2796  155.1232 H   0  0  0  0  0  0  0  0  0  0  0  0  # atno 10763 bound_to 10752
  154.2775  135.6291  153.5338 H   0  0  0  0  0  0  0  0  0  0  0  0  # atno 10764 bound_to 10752
  152.9944  135.5643  154.5745 H   0  0  0  0  0  0  0  0  0  0  0  0  # atno 10765 bound_to 10752
  140.8695  134.2069  157.4659 H   0  0  0  0  0  0  0  0  0  0  0  0  # atno 11005 bound_to 11000
  144.6726  140.1196  143.7450 LP  0  0  0  0  0  0  0  0  0  0  0  0  # atno 17320 bound_to 7965
  145.9170  139.2522  143.1404 LP  0  0  0  0  0  0  0  0  0  0  0  0  # atno 17321 bound_to 7965
  140.5341  144.0683  150.6064 LP  0  0  0  0  0  0  0  0  0  0  0  0  # atno 17342 bound_to 10162
  140.3683  143.2869  152.0306 LP  0  0  0  0  0  0  0  0  0  0  0  0  # atno 17343 bound_to 10162
  157.3184  130.6925  149.6255 LP  0  0  0  0  0  0  0  0  0  0  0  0  # atno 17370 bound_to 10713
  155.9664  130.4343  150.5042 LP  0  0  0  0  0  0  0  0  0  0  0  0  # atno 17371 bound_to 10713
  139.8711  134.9767  156.4933 LP  0  0  0  0  0  0  0  0  0  0  0  0  # atno 17394 bound_to 11000
  140.8590  133.8074  155.9245 LP  0  0  0  0  0  0  0  0  0  0  0  0  # atno 17395 bound_to 11000

$$$$
