#       Name:                AV-unprocessed.smi:2183
#       Creating user name   scv26
#       Creation time:       Fri Mar 27 12:06:11 2020


#       File generated by GOLD software.
#

@<TRIPOS>MOLECULE
AV-unprocessed.smi:2183
    47    49     1
SMALL
NO_CHARGES


@<TRIPOS>ATOM
      1 ****        -1.2554   1.5857  -3.7537 O.3            1 S1                 0.0000
      2 ****        -2.3339   1.7407  -2.8572 C.3            1 S1                 0.0000
      3 ****        -1.9268   2.3664  -1.5577 C.2            1 S1                 0.0000
      4 ****        -2.2371   3.6299  -1.2645 N.2            1 S1                 0.0000
      5 ****        -1.7055   3.7898  -0.0003 C.ar           1 S1                 0.0000
      6 ****        -1.7068   4.9100   0.8614 C.ar           1 S1                 0.0000
      7 ****        -1.0978   4.8342   2.1313 C.ar           1 S1                 0.0000
      8 ****        -0.4811   3.6399   2.5568 C.ar           1 S1                 0.0000
      9 ****        -0.4673   2.5128   1.7128 C.ar           1 S1                 0.0000
     10 ****        -1.0739   2.5945   0.4448 C.ar           1 S1                 0.0000
     11 ****        -1.2289   1.6942  -0.6054 N.pl3          1 S1                 0.0000
     12 ****        -0.7453   0.3188  -0.6245 C.3            1 S1                 0.0000
     13 ****         0.7897   0.2268  -0.7452 C.3            1 S1                 0.0000
     14 ****         1.2167   0.8291  -1.9501 O.3            1 S1                 0.0000
     15 ****         1.2910  -1.2241  -0.7232 C.3            1 S1                 0.0000
     16 ****         1.0408  -1.7750   0.5629 O.3            1 S1                 0.0000
     17 ****         1.3914  -3.0879   0.7908 C.ar           1 S1                 0.0000
     18 ****         1.1148  -3.6092   2.0716 C.ar           1 S1                 0.0000
     19 ****         1.4400  -4.9407   2.3940 C.ar           1 S1                 0.0000
     20 ****         2.0482  -5.7683   1.4319 C.ar           1 S1                 0.0000
     21 ****         2.4476  -7.4003   1.8233 Cl             1 S1                 0.0000
     22 ****         2.3298  -5.2614   0.1496 C.ar           1 S1                 0.0000
     23 ****         2.0043  -3.9292  -0.1723 C.ar           1 S1                 0.0000
     24 ****        -1.5819   1.2018  -4.5528 H              1 S1                 0.0000
     25 ****        -3.0904   2.3645  -3.3347 H              1 S1                 0.0000
     26 ****        -2.8036   0.7746  -2.6729 H              1 S1                 0.0000
     27 ****        -2.1788   5.8284   0.5457 H              1 S1                 0.0000
     28 ****        -1.1052   5.6961   2.7823 H              1 S1                 0.0000
     29 ****        -0.0189   3.5894   3.5317 H              1 S1                 0.0000
     30 ****         0.0035   1.5966   2.0369 H              1 S1                 0.0000
     31 ****        -1.0749  -0.1594   0.2985 H              1 S1                 0.0000
     32 ****        -1.2188  -0.2339  -1.4347 H              1 S1                 0.0000
     33 ****         1.2594   0.7726   0.0735 H              1 S1                 0.0000
     34 ****         0.9010   1.7199  -1.9684 H              1 S1                 0.0000
     35 ****         0.7894  -1.8049  -1.4991 H              1 S1                 0.0000
     36 ****         2.3639  -1.2456  -0.9229 H              1 S1                 0.0000
     37 ****         0.6479  -2.9806   2.8158 H              1 S1                 0.0000
     38 ****         1.2219  -5.3244   3.3798 H              1 S1                 0.0000
     39 ****         2.7967  -5.8941  -0.5909 H              1 S1                 0.0000
     40 ****         2.2361  -3.5767  -1.1657 H              1 S1                 0.0000
     41 ****        -0.5645   0.9863  -3.3494 LP             1 S1                 0.0000
     42 ****        -0.8490   2.4780  -3.9498 LP             1 S1                 0.0000
     43 ****        -2.7321   4.2963  -1.8221 LP             1 S1                 0.0000
     44 ****         0.8462   0.3238  -2.7295 LP             1 S1                 0.0000
     45 ****         2.2157   0.8242  -1.9941 LP             1 S1                 0.0000
     46 ****         0.0583  -1.6974   0.7322 LP             1 S1                 0.0000
     47 ****         1.5385  -1.2163   1.2263 LP             1 S1                 0.0000
@<TRIPOS>BOND
    1    1    2 1     
    2    1   24 1     
    3    2    3 1     
    4    2   25 1     
    5    2   26 1     
    6    3   11 1     
    7    3    4 2     
    8    4    5 1     
    9    5   10 ar    
   10    5    6 ar    
   11    6    7 ar    
   12    6   27 1     
   13    7    8 ar    
   14    7   28 1     
   15    8    9 ar    
   16    8   29 1     
   17    9   10 ar    
   18    9   30 1     
   19   10   11 1     
   20   11   12 1     
   21   12   13 1     
   22   12   31 1     
   23   12   32 1     
   24   13   14 1     
   25   13   15 1     
   26   13   33 1     
   27   14   34 1     
   28   15   16 1     
   29   15   35 1     
   30   15   36 1     
   31   16   17 1     
   32   17   23 ar    
   33   17   18 ar    
   34   18   19 ar    
   35   18   37 1     
   36   19   20 ar    
   37   19   38 1     
   38   20   21 1     
   39   20   22 ar    
   40   22   23 ar    
   41   22   39 1     
   42   23   40 1     
   43    1   41 1     
   44    1   42 1     
   45    4   43 1     
   46   14   44 1     
   47   14   45 1     
   48   16   46 1     
   49   16   47 1     
@<TRIPOS>SUBSTRUCTURE
      1 S1             1
@<TRIPOS>SET
LONE_PAIRS      STATIC     ATOMS    <user>   **** ""
7 41 42 43 44 45 46 47
DONOR_HYDROGENS      STATIC     ATOMS    <user>   **** ""
2 24 34
ATOM$BLUE        STATIC     ATOMS    COLORGROUP SYSTEM
7 41 42 43 44 45 46 47
ATOM$RED        STATIC     ATOMS    COLORGROUP SYSTEM
2 24 34
