AV-unprocessed.smi:1004|AV-procd|sdf|4361|dock6
  -GOLD-   22720 2263D 1   1.00000     0.00000
 Structure written by MMmdl.
 42 43  0  0  0  0  0  0  0  0  1 V2000
  146.4398  129.3337  152.7488 C   0  0  0  0  0  0  0  0  0  0  0  0
  146.0056  130.6381  152.1128 C   0  0  0  0  0  0  0  0  0  0  0  0
  146.6122  131.8924  152.5074 C   0  0  0  0  0  0  0  0  0  0  0  0
  146.2027  133.0288  151.9230 C   0  0  0  0  0  0  0  0  0  0  0  0
  145.1995  133.0382  150.9368 N   0  0  0  0  0  0  0  0  0  0  0  0
  144.8232  134.3454  150.3731 C   0  0  0  0  0  0  0  0  0  0  0  0
  144.6841  135.4478  151.4332 C   0  0  0  0  0  0  0  0  0  0  0  0
  143.7470  135.4445  152.2327 O   0  0  0  0  0  0  0  0  0  0  0  0
  145.6440  136.3828  151.4367 N   0  0  0  0  0  0  0  0  0  0  0  0
  145.6921  137.5105  152.3593 C   0  0  0  0  0  0  0  0  0  0  0  0
  146.5076  138.6795  151.7808 C   0  0  0  0  0  0  0  0  0  0  0  0
  147.1754  139.5446  152.8396 C   0  0  0  0  0  0  0  0  0  0  0  0
  148.0421  139.0339  153.7361 C   0  0  0  0  0  0  0  0  0  0  0  0
  148.7505  139.8533  154.8004 C   0  0  0  0  0  0  0  0  0  0  0  0
  148.6504  141.3654  154.5387 C   0  0  0  0  0  0  0  0  0  0  0  0
  147.2323  141.7602  154.1089 C   0  0  0  0  0  0  0  0  0  0  0  0
  146.8108  141.0247  152.8240 C   0  0  0  0  0  0  0  0  0  0  0  0
  144.5846  131.8901  150.5217 C   0  0  0  0  0  0  0  0  0  0  0  0
  143.7023  131.8928  149.6625 O   0  0  0  0  0  0  0  0  0  0  0  0
  145.0415  130.6532  151.1662 C   0  0  0  0  0  0  0  0  0  0  0  0
  147.2080  129.4995  153.5048 H   0  0  0  0  0  0  0  0  0  0  0  0
  146.8448  128.6596  151.9936 H   0  0  0  0  0  0  0  0  0  0  0  0
  145.5913  128.8448  153.2282 H   0  0  0  0  0  0  0  0  0  0  0  0
  147.3816  131.9182  153.2650 H   0  0  0  0  0  0  0  0  0  0  0  0
  146.6082  133.9975  152.1768 H   0  0  0  0  0  0  0  0  0  0  0  0
  145.5624  134.6708  149.6398 H   0  0  0  0  0  0  0  0  0  0  0  0
  143.8882  134.2599  149.8164 H   0  0  0  0  0  0  0  0  0  0  0  0
  146.3822  136.3173  150.7507 H   0  0  0  0  0  0  0  0  0  0  0  0
  144.6745  137.8346  152.5825 H   0  0  0  0  0  0  0  0  0  0  0  0
  146.1339  137.1898  153.3040 H   0  0  0  0  0  0  0  0  0  0  0  0
  147.2768  138.2944  151.1108 H   0  0  0  0  0  0  0  0  0  0  0  0
  145.8551  139.3007  151.1656 H   0  0  0  0  0  0  0  0  0  0  0  0
  148.2627  137.9764  153.7284 H   0  0  0  0  0  0  0  0  0  0  0  0
  148.3058  139.6078  155.7652 H   0  0  0  0  0  0  0  0  0  0  0  0
  149.7978  139.5540  154.8482 H   0  0  0  0  0  0  0  0  0  0  0  0
  148.9459  141.9189  155.4305 H   0  0  0  0  0  0  0  0  0  0  0  0
  149.3532  141.6464  153.7532 H   0  0  0  0  0  0  0  0  0  0  0  0
  146.5349  141.5183  154.9119 H   0  0  0  0  0  0  0  0  0  0  0  0
  147.1672  142.8381  153.9587 H   0  0  0  0  0  0  0  0  0  0  0  0
  147.2951  141.4845  151.9620 H   0  0  0  0  0  0  0  0  0  0  0  0
  145.7357  141.1349  152.6783 H   0  0  0  0  0  0  0  0  0  0  0  0
  144.5842  129.7209  150.8681 H   0  0  0  0  0  0  0  0  0  0  0  0
  1  2  1  0  0  0  0
  1 21  1  0  0  0  0
  1 22  1  0  0  0  0
  1 23  1  0  0  0  0
  2 20  2  0  0  0  0
  2  3  1  0  0  0  0
  3  4  2  0  0  0  0
  3 24  1  0  0  0  0
  4  5  1  0  0  0  0
  4 25  1  0  0  0  0
  5  6  1  0  0  0  0
  5 18  1  0  0  0  0
  6  7  1  0  0  0  0
  6 26  1  0  0  0  0
  6 27  1  0  0  0  0
  7  8  2  0  0  0  0
  7  9  1  0  0  0  0
  9 10  1  0  0  0  0
  9 28  1  0  0  0  0
 10 11  1  0  0  0  0
 10 29  1  0  0  0  0
 10 30  1  0  0  0  0
 11 12  1  0  0  0  0
 11 31  1  0  0  0  0
 11 32  1  0  0  0  0
 12 17  1  0  0  0  0
 12 13  2  0  0  0  0
 13 14  1  0  0  0  0
 13 33  1  0  0  0  0
 14 15  1  0  0  0  0
 14 34  1  0  0  0  0
 14 35  1  0  0  0  0
 15 16  1  0  0  0  0
 15 36  1  0  0  0  0
 15 37  1  0  0  0  0
 16 17  1  0  0  0  0
 16 38  1  0  0  0  0
 16 39  1  0  0  0  0
 17 40  1  0  0  0  0
 17 41  1  0  0  0  0
 18 19  2  0  0  0  0
 18 20  1  0  0  0  0
 20 42  1  0  0  0  0
M  END
> <s_m_source_file>
AV-unprocessed.smi

> <i_m_source_file_index>
1004

> <i_lp_mmshare_version>
43012

> <i_f3d_flags>
0

> <s_epik_input>
W0NIM11jMVtjSF1bY0hdbihjKD1PKVtjSF0xKVtDSDJdQyg9TylbTkhdW0NIMl1bQ0gyXUMyPVtDSF1bQ0gyXVtDSDJdW0NIMl1bQ0gyXTI=

> <s_epik_cmdline>
J2VwaWtfcHl0aG9uJywgJy1waCcsICc3LjAnLCAnLXRuJywgJzgnLCAnLW1hJywgJzIwMCcsICctbWV0YWxfYmluZGluZycsICctaW1hZScsICc8aW5maWxlLm1hZT4nLCAnLW9tYWUnLCAnPG91dGZpbGUubWFlPic=

> <r_lp_tautomer_probability>
1

> <r_epik_Ionization_Penalty>
5.31482e-07

> <r_epik_Ionization_Penalty_Charging>
5.13379e-07

> <r_epik_Ionization_Penalty_Neutral>
1.81035e-08

> <r_epik_State_Penalty>
-0

> <r_epik_Charging_Adjusted_Penalty>
5.13379e-07

> <i_epik_Tot_Q>
0

> <i_epik_Tot_abs_Q>
0

> <r_epik_Metal_State_Penalty>
-0

> <b_epik_Metal_Only>
0

> <s_lp_Force_Field>
OPLS_2005

> <r_lp_Energy>
18.1417

> <b_lp_Chiralities_Consistent>
1

> <s_lp_Variant>
AV-unprocessed.smi:1004-1

> <Gold.Version>
5.8.1

> <Gold.Id.Protein>
6NUR|6NUR_protein|mol2

> <Gold.PLP.Fitness>
41.7758

> <Gold.PLP.PLP>
-40.4842

> <Gold.PLP.part.hbond>
-1.3948

> <Gold.PLP.part.metal>
0.0000

> <Gold.PLP.part.buried>
-3.5570

> <Gold.PLP.part.nonpolar>
-37.5053

> <Gold.PLP.part.repulsive>
0.3919

> <Gold.PLP.ligand.clash>
0.0000

> <Gold.PLP.ligand.torsion>
0.6773

> <Gold.PLP.Chemscore.Hbond>
0.8736

> <Gold.PLP.Chemscore.CHOScore>
0.0000

> <Gold.PLP.Chemscore.Metal>
0.0000

> <Gold.Chemscore.Hbonds>
donor molecule, donor type, donor heavy atom, donor atom, acceptor molecule, acceptor atom, score
      P1  H 10785 10796       L1    19  0.89

> <Gold.PLP.Chemscore.Internal.Correction>
0.0254

> <Gold.Rescore>
     Score         DG    S(hbond)    S(metal)    S(lipo)     H(rot)  DE(clash)    DE(int)     intcor
     14.32     -15.87       0.80        0.00     101.55       1.63       0.99       0.56       ----

> <Gold.Chemscore.Fitness>
14.3187

> <Gold.Chemscore.DG>
-15.8705

> <Gold.Chemscore.ZeroCoef>
-5.4800

> <Gold.Chemscore.Hbond>
0.8039

> <Gold.Chemscore.Metal>
0.0000

> <Gold.Chemscore.Lipo>
101.5499

> <Gold.Chemscore.Internal_Hbond>
0.0000

> <Gold.Chemscore.DEClash>
0.9906

> <Gold.Chemscore.DEInternal>
0.5612

> <Gold.Chemscore.Rot>
1.6311

> <Gold.Chemscore.Internal.Correction>
   9.000000E+99

> <Gold.Chemscore.Hbonds>
donor molecule, donor type, donor heavy atom, donor atom, acceptor molecule, acceptor atom, score
      P1  H 10785 10796       L1    19  0.80

> <Gold.Chemscore.Hbond.Weighted>
-2.6849

> <Gold.Chemscore.Metal.Weighted>
-0.0000

> <Gold.Chemscore.Lipo.Weighted>
-11.8813

> <Gold.Chemscore.Internal_Hbond.Weighted>
0.0000

> <Gold.Chemscore.DEClash.Weighted>
0.9906

> <Gold.Chemscore.DEInternal.Weighted>
0.5612

> <Gold.Chemscore.Rot.Weighted>
4.1757

> <Gold.Chemscore.Internal.Correction.Weighted>
   9.000000E+99

> <Gold.Protein.RotatedTorsions>
[ 6907 6896 6895 6894 ] final -109.96 input  -60.11 | X-H torsion
[ 7974 7965 7964 7962 ] final   -8.88 input  175.53 | X-H torsion
[ 8008 7997 7996 7995 ] final   35.76 input   59.86 | X-H torsion
[ 10167 10162 10161 10158 ] final -122.49 input  -65.29 | X-H torsion
[ 10718 10713 10712 10709 ] final -164.44 input   66.30 | X-H torsion
[ 10763 10752 10751 10750 ] final  -72.25 input  -60.55 | X-H torsion
[ 11005 11000 10999 10996 ] final -174.94 input  -57.11 | X-H torsion

> <Gold.Protein.ActiveResidues>
 VAL166  LYS551  ARG553  GLY616  TRP617  ASP618  TYR619  PRO620  LYS621  CYS622 
 ASP623  PHE694  ASN695  SER759  ASP760  ASP761  ALA762  ILE779  LEU786  VAL792 
 PHE793  MET794  SER795  GLU796  ALA797  LYS798  CYS799  TRP800  GLU811  SER814 

> <Gold.Protein.RotatedAtoms>
  150.7595  133.9451  159.3468 H   0  0  0  0  0  0  0  0  0  0  0  0  # atno 6907 bound_to 6896
  151.7363  135.0862  160.0318 H   0  0  0  0  0  0  0  0  0  0  0  0  # atno 6908 bound_to 6896
  152.3557  133.6197  159.6013 H   0  0  0  0  0  0  0  0  0  0  0  0  # atno 6909 bound_to 6896
  146.2268  140.2534  142.8348 H   0  0  0  0  0  0  0  0  0  0  0  0  # atno 7974 bound_to 7965
  155.1763  140.3296  155.4383 H   0  0  0  0  0  0  0  0  0  0  0  0  # atno 8008 bound_to 7997
  156.2492  140.1934  156.6814 H   0  0  0  0  0  0  0  0  0  0  0  0  # atno 8009 bound_to 7997
  154.6302  140.0583  156.9709 H   0  0  0  0  0  0  0  0  0  0  0  0  # atno 8010 bound_to 7997
  140.0137  143.5415  152.2252 H   0  0  0  0  0  0  0  0  0  0  0  0  # atno 10167 bound_to 10162
  156.6391  130.8961  151.2992 H   0  0  0  0  0  0  0  0  0  0  0  0  # atno 10718 bound_to 10713
  154.4431  135.5936  153.6142 H   0  0  0  0  0  0  0  0  0  0  0  0  # atno 10763 bound_to 10752
  152.9807  135.6003  154.3697 H   0  0  0  0  0  0  0  0  0  0  0  0  # atno 10764 bound_to 10752
  154.3550  135.2841  155.2330 H   0  0  0  0  0  0  0  0  0  0  0  0  # atno 10765 bound_to 10752
  140.4689  134.6184  157.4874 H   0  0  0  0  0  0  0  0  0  0  0  0  # atno 11005 bound_to 11000
  144.9394  140.8062  143.5639 LP  0  0  0  0  0  0  0  0  0  0  0  0  # atno 17320 bound_to 7965
  145.2484  139.2042  143.4955 LP  0  0  0  0  0  0  0  0  0  0  0  0  # atno 17321 bound_to 7965
  139.6187  144.7625  151.2788 LP  0  0  0  0  0  0  0  0  0  0  0  0  # atno 17342 bound_to 10162
  140.7371  143.6688  150.8100 LP  0  0  0  0  0  0  0  0  0  0  0  0  # atno 17343 bound_to 10162
  157.7177  130.9517  150.1316 LP  0  0  0  0  0  0  0  0  0  0  0  0  # atno 17370 bound_to 10713
  156.2173  130.3671  149.8597 LP  0  0  0  0  0  0  0  0  0  0  0  0  # atno 17371 bound_to 10713
  139.9898  134.7004  155.9710 LP  0  0  0  0  0  0  0  0  0  0  0  0  # atno 17394 bound_to 11000
  141.1586  133.6540  156.4244 LP  0  0  0  0  0  0  0  0  0  0  0  0  # atno 17395 bound_to 11000

$$$$
