AV-unprocessed.smi:53|AV-procd|sdf|513|dock3
  -GOLD-   2262016383D 1   1.00000     0.00000
 Structure written by MMmdl.
 30 31  0  0  0  0  0  0  0  0  1 V2000
  152.8642  140.9152  158.9382 N   0  0  0  0  0  0  0  0  0  0  0  0
  152.0155  140.9614  157.9015 C   0  0  0  0  0  0  0  0  0  0  0  0
  150.8741  141.8484  157.9303 C   0  0  0  0  0  0  0  0  0  0  0  0
  150.0674  141.8390  156.8462 C   0  0  0  0  0  0  0  0  0  0  0  0
  150.3155  141.0285  155.7477 N   0  0  0  0  0  0  0  0  0  0  0  0
  149.3874  141.0409  154.5516 C   0  0  2  0  0  0  0  0  0  0  0  0
  148.5067  142.1103  154.6879 O   0  0  0  0  0  0  0  0  0  0  0  0
  147.2852  141.7731  154.0494 C   0  0  2  0  0  0  0  0  0  0  0  0
  146.1538  142.6712  154.5731 C   0  0  0  0  0  0  0  0  0  0  0  0
  144.9335  141.9618  154.5784 O   0  0  0  0  0  0  0  0  0  0  0  0
  147.1126  140.2947  154.4161 C   0  0  1  0  0  0  0  0  0  0  0  0
  146.3253  139.6376  153.4423 O   0  0  0  0  0  0  0  0  0  0  0  0
  148.5407  139.7544  154.4150 C   0  0  2  0  0  0  0  0  0  0  0  0
  148.7207  138.8197  155.4644 O   0  0  0  0  0  0  0  0  0  0  0  0
  151.4298  140.1561  155.7561 C   0  0  0  0  0  0  0  0  0  0  0  0
  151.6652  139.3921  154.8208 O   0  0  0  0  0  0  0  0  0  0  0  0
  152.2383  140.1817  156.8609 N   0  0  0  0  0  0  0  0  0  0  0  0
  149.9975  141.2382  153.6682 H   0  0  0  0  0  0  0  0  0  0  0  0
  147.4075  141.8775  152.9689 H   0  0  0  0  0  0  0  0  0  0  0  0
  146.6602  140.2017  155.4050 H   0  0  0  0  0  0  0  0  0  0  0  0
  148.7978  139.2863  153.4636 H   0  0  0  0  0  0  0  0  0  0  0  0
  153.6585  140.2924  158.9169 H   0  0  0  0  0  0  0  0  0  0  0  0
  152.7055  141.5055  159.7423 H   0  0  0  0  0  0  0  0  0  0  0  0
  150.6465  142.4992  158.7624 H   0  0  0  0  0  0  0  0  0  0  0  0
  149.2013  142.4851  156.8516 H   0  0  0  0  0  0  0  0  0  0  0  0
  146.3594  142.9721  155.6008 H   0  0  0  0  0  0  0  0  0  0  0  0
  146.0635  143.5823  153.9809 H   0  0  0  0  0  0  0  0  0  0  0  0
  144.8515  141.4985  153.7588 H   0  0  0  0  0  0  0  0  0  0  0  0
  145.6767  140.2444  153.1198 H   0  0  0  0  0  0  0  0  0  0  0  0
  149.1380  138.0499  155.1085 H   0  0  0  0  0  0  0  0  0  0  0  0
  1  2  1  0  0  0  0
  1 22  1  0  0  0  0
  1 23  1  0  0  0  0
  2 17  2  0  0  0  0
  2  3  1  0  0  0  0
  3  4  2  0  0  0  0
  3 24  1  0  0  0  0
  4  5  1  0  0  0  0
  4 25  1  0  0  0  0
  5  6  1  0  0  0  0
  5 15  1  0  0  0  0
  6 18  1  0  0  0  0
  6 13  1  0  0  0  0
  6  7  1  0  0  0  0
  7  8  1  0  0  0  0
  8 19  1  0  0  0  0
  8  9  1  0  0  0  0
  8 11  1  0  0  0  0
  9 10  1  0  0  0  0
  9 26  1  0  0  0  0
  9 27  1  0  0  0  0
 10 28  1  0  0  0  0
 11 20  1  0  0  0  0
 11 12  1  0  0  0  0
 11 13  1  0  0  0  0
 12 29  1  0  0  0  0
 13 21  1  0  0  0  0
 13 14  1  0  0  0  0
 14 30  1  0  0  0  0
 15 16  2  0  0  0  0
 15 17  1  0  0  0  0
M  END
> <s_m_source_file>
AV-unprocessed.smi

> <i_m_source_file_index>
53

> <i_lp_mmshare_version>
43012

> <i_f3d_flags>
0

> <s_epik_input>
W05IMl1jMVtjSF1bY0hdbihjKD1PKW4xKVtDQEBIXTJPW0NASF0oW0NIMl1bT0hdKVtDQEBIXShbT0hdKVtDQEBIXTJbT0hd

> <s_epik_cmdline>
J2VwaWtfcHl0aG9uJywgJy1waCcsICc3LjAnLCAnLXRuJywgJzgnLCAnLW1hJywgJzIwMCcsICctbWV0YWxfYmluZGluZycsICctaW1hZScsICc8aW5maWxlLm1hZT4nLCAnLW9tYWUnLCAnPG91dGZpbGUubWFlPic=

> <r_lp_tautomer_probability>
0.99996

> <r_epik_Ionization_Penalty>
0.00069087

> <r_epik_Ionization_Penalty_Charging>
2.61959e-08

> <r_epik_Ionization_Penalty_Neutral>
0.000690844

> <r_epik_State_Penalty>
1.15523e-05

> <r_epik_Charging_Adjusted_Penalty>
1.15785e-05

> <i_epik_Tot_Q>
0

> <i_epik_Tot_abs_Q>
0

> <r_epik_Metal_State_Penalty>
-0

> <b_epik_Metal_Only>
0

> <s_epik_Chemistry_Notes>
This compound contains an acetal/aminal-like group ( X-CH(R)-Y where X, Y are N, S, or O) that may be acid/base labile, releasing an aldehyde.

> <s_lp_Force_Field>
OPLS_2005

> <r_lp_Energy>
35.6127

> <b_lp_Chiralities_Consistent>
1

> <s_lp_Variant>
AV-unprocessed.smi:53-1

> <Gold.Version>
5.8.1

> <Gold.Id.Protein>
6NUR|6NUR_protein|mol2

> <Gold.PLP.Fitness>
38.9042

> <Gold.PLP.PLP>
-26.8849

> <Gold.PLP.part.hbond>
-4.2683

> <Gold.PLP.part.metal>
0.0000

> <Gold.PLP.part.buried>
-2.7096

> <Gold.PLP.part.nonpolar>
-21.9033

> <Gold.PLP.part.repulsive>
2.3569

> <Gold.PLP.ligand.clash>
0.0549

> <Gold.PLP.ligand.torsion>
0.5633

> <Gold.PLP.Chemscore.Hbond>
3.3674

> <Gold.PLP.Chemscore.CHOScore>
0.9443

> <Gold.PLP.Chemscore.Metal>
0.0000

> <Gold.Chemscore.Hbonds>
donor molecule, donor type, donor heavy atom, donor atom, acceptor molecule, acceptor atom, score
      L1  H    10    28       P1 10175  0.86
      L1  H    12    29       P1 10175  0.75
      P1  H  7989  7998       L1    16  0.65
      P1  H  7997  8010       L1    17  0.71
      L1  C     4    25       P1  8028  0.93

> <Gold.PLP.Chemscore.Internal.Correction>
0.2659

> <Gold.Rescore>
     Score         DG    S(hbond)    S(metal)    S(lipo)     H(rot)  DE(clash)    DE(int)     intcor
      8.26      -9.45       3.12        0.00      26.15       3.71       0.17       1.02       ----

> <Gold.Chemscore.Fitness>
8.2628

> <Gold.Chemscore.DG>
-9.4495

> <Gold.Chemscore.ZeroCoef>
-5.4800

> <Gold.Chemscore.Hbond>
3.1156

> <Gold.Chemscore.Metal>
0.0000

> <Gold.Chemscore.Lipo>
26.1511

> <Gold.Chemscore.Internal_Hbond>
0.0000

> <Gold.Chemscore.DEClash>
0.1664

> <Gold.Chemscore.DEInternal>
1.0203

> <Gold.Chemscore.Rot>
3.7095

> <Gold.Chemscore.Internal.Correction>
   9.000000E+99

> <Gold.Chemscore.Hbonds>
donor molecule, donor type, donor heavy atom, donor atom, acceptor molecule, acceptor atom, score
      L1  H    10    28       P1 10175  0.16
      L1  H    12    29       P1 10175  0.70
      P1  H  7989  7998       L1    16  0.05
      P1  H  7997  8010       L1    17  0.46

> <Gold.Chemscore.Hbond.Weighted>
-10.4062

> <Gold.Chemscore.Metal.Weighted>
-0.0000

> <Gold.Chemscore.Lipo.Weighted>
-3.0597

> <Gold.Chemscore.Internal_Hbond.Weighted>
0.0000

> <Gold.Chemscore.DEClash.Weighted>
0.1664

> <Gold.Chemscore.DEInternal.Weighted>
1.0203

> <Gold.Chemscore.Rot.Weighted>
9.4964

> <Gold.Chemscore.Internal.Correction.Weighted>
   9.000000E+99

> <Gold.Protein.RotatedTorsions>
[ 6907 6896 6895 6894 ] final  -52.48 input  -60.11 | X-H torsion
[ 7974 7965 7964 7962 ] final -153.33 input  175.53 | X-H torsion
[ 8008 7997 7996 7995 ] final   73.40 input   59.86 | X-H torsion
[ 10167 10162 10161 10158 ] final -114.94 input  -65.29 | X-H torsion
[ 10718 10713 10712 10709 ] final  -66.77 input   66.30 | X-H torsion
[ 10763 10752 10751 10750 ] final  -51.11 input  -60.55 | X-H torsion
[ 11005 11000 10999 10996 ] final -130.06 input  -57.11 | X-H torsion

> <Gold.Protein.ActiveResidues>
 VAL166  LYS551  ARG553  GLY616  TRP617  ASP618  TYR619  PRO620  LYS621  CYS622 
 ASP623  PHE694  ASN695  SER759  ASP760  ASP761  ALA762  ILE779  LEU786  VAL792 
 PHE793  MET794  SER795  GLU796  ALA797  LYS798  CYS799  TRP800  GLU811  SER814 

> <Gold.Protein.RotatedAtoms>
  150.8514  134.7840  159.7011 H   0  0  0  0  0  0  0  0  0  0  0  0  # atno 6907 bound_to 6896
  152.4578  134.5249  159.9803 H   0  0  0  0  0  0  0  0  0  0  0  0  # atno 6908 bound_to 6896
  151.5370  133.3401  159.2964 H   0  0  0  0  0  0  0  0  0  0  0  0  # atno 6909 bound_to 6896
  144.7746  140.4540  143.5882 H   0  0  0  0  0  0  0  0  0  0  0  0  # atno 7974 bound_to 7965
  155.7831  140.3481  155.5308 H   0  0  0  0  0  0  0  0  0  0  0  0  # atno 8008 bound_to 7997
  155.8709  140.0986  157.1571 H   0  0  0  0  0  0  0  0  0  0  0  0  # atno 8009 bound_to 7997
  154.4017  140.1340  156.4064 H   0  0  0  0  0  0  0  0  0  0  0  0  # atno 8010 bound_to 7997
  140.0955  143.4661  152.1844 H   0  0  0  0  0  0  0  0  0  0  0  0  # atno 10167 bound_to 10162
  156.0594  130.4267  150.1757 H   0  0  0  0  0  0  0  0  0  0  0  0  # atno 10718 bound_to 10713
  154.1212  135.6534  153.4903 H   0  0  0  0  0  0  0  0  0  0  0  0  # atno 10763 bound_to 10752
  153.0225  135.5270  154.7095 H   0  0  0  0  0  0  0  0  0  0  0  0  # atno 10764 bound_to 10752
  154.6303  135.2975  155.0194 H   0  0  0  0  0  0  0  0  0  0  0  0  # atno 10765 bound_to 10752
  140.9378  134.1233  157.4178 H   0  0  0  0  0  0  0  0  0  0  0  0  # atno 11005 bound_to 11000
  145.6222  139.1525  143.3016 LP  0  0  0  0  0  0  0  0  0  0  0  0  # atno 17320 bound_to 7965
  146.1917  140.6332  142.9142 LP  0  0  0  0  0  0  0  0  0  0  0  0  # atno 17321 bound_to 7965
  139.5701  144.7457  151.3915 LP  0  0  0  0  0  0  0  0  0  0  0  0  # atno 17342 bound_to 10162
  140.7006  143.7641  150.7397 LP  0  0  0  0  0  0  0  0  0  0  0  0  # atno 17343 bound_to 10162
  156.9827  130.9869  151.3433 LP  0  0  0  0  0  0  0  0  0  0  0  0  # atno 17370 bound_to 10713
  157.5591  130.8233  149.8242 LP  0  0  0  0  0  0  0  0  0  0  0  0  # atno 17371 bound_to 10713
  139.8812  135.0027  156.6140 LP  0  0  0  0  0  0  0  0  0  0  0  0  # atno 17394 bound_to 11000
  140.7775  133.8687  155.8541 LP  0  0  0  0  0  0  0  0  0  0  0  0  # atno 17395 bound_to 11000

$$$$
