AV-unprocessed.smi:671|AV-procd|sdf|3275|dock7
  -GOLD-   22720 0233D 1   1.00000     0.00000
 Structure written by MMmdl.
 49 50  0  0  0  0  0  0  0  0  1 V2000
  149.4415  141.3658  155.5821 C   0  0  0  0  0  0  0  0  0  0  0  0
  150.2062  140.1231  155.2247 C   0  0  0  0  0  0  0  0  0  0  0  0
  151.4895  140.2271  154.9236 N   0  0  0  0  0  0  0  0  0  0  0  0
  151.8833  138.9666  154.6540 N   0  0  0  0  0  0  0  0  0  0  0  0
  153.2625  138.7165  154.2825 C   0  0  0  0  0  0  0  0  0  0  0  0
  150.8461  138.0638  154.7829 C   0  0  0  0  0  0  0  0  0  0  0  0
  151.0352  136.6010  154.5395 C   0  0  0  0  0  0  0  0  0  0  0  0
  149.7374  138.7775  155.1543 C   0  0  0  0  0  0  0  0  0  0  0  0
  148.3403  138.2809  155.4308 C   0  0  0  0  0  0  0  0  0  0  0  0
  147.3612  138.6024  154.2851 C   0  0  2  0  0  0  0  0  0  0  0  0
  146.0315  139.1969  154.7845 C   0  0  0  0  0  0  0  0  0  0  0  0
  147.1061  137.3788  153.5204 N   0  0  0  0  0  0  0  0  0  0  0  0
  146.1695  136.4377  153.7381 C   0  0  0  0  0  0  0  0  0  0  0  0
  145.3737  136.5208  154.6716 O   0  0  0  0  0  0  0  0  0  0  0  0
  146.1836  135.4227  152.8581 N   0  0  0  0  0  0  0  0  0  0  0  0
  145.3255  134.2387  152.8870 C   0  0  1  0  0  0  0  0  0  0  0  0
  144.0039  134.5206  152.1423 C   0  0  0  0  0  0  0  0  0  0  0  0
  143.9134  133.4950  151.0071 C   0  0  0  0  0  0  0  0  0  0  0  0
  145.3522  133.0507  150.7614 C   0  0  0  0  0  0  0  0  0  0  0  0
  145.9730  133.0374  152.1589 C   0  0  1  0  0  0  0  0  0  0  0  0
  147.5114  132.9783  152.1538 C   0  0  0  0  0  0  0  0  0  0  0  0
  148.4591  141.1301  155.9905 H   0  0  0  0  0  0  0  0  0  0  0  0
  149.2916  141.9967  154.7059 H   0  0  0  0  0  0  0  0  0  0  0  0
  149.9743  141.9540  156.3296 H   0  0  0  0  0  0  0  0  0  0  0  0
  153.7002  137.9878  154.9649 H   0  0  0  0  0  0  0  0  0  0  0  0
  153.8478  139.6359  154.3272 H   0  0  0  0  0  0  0  0  0  0  0  0
  153.3019  138.3228  153.2665 H   0  0  0  0  0  0  0  0  0  0  0  0
  150.1037  136.0512  154.6685 H   0  0  0  0  0  0  0  0  0  0  0  0
  151.7645  136.1853  155.2347 H   0  0  0  0  0  0  0  0  0  0  0  0
  151.3923  136.4203  153.5254 H   0  0  0  0  0  0  0  0  0  0  0  0
  148.3590  137.2015  155.5870 H   0  0  0  0  0  0  0  0  0  0  0  0
  147.9560  138.6940  156.3638 H   0  0  0  0  0  0  0  0  0  0  0  0
  147.8490  139.3353  153.6404 H   0  0  0  0  0  0  0  0  0  0  0  0
  146.1877  140.1412  155.3060 H   0  0  0  0  0  0  0  0  0  0  0  0
  145.5276  138.5165  155.4717 H   0  0  0  0  0  0  0  0  0  0  0  0
  145.3502  139.3972  153.9572 H   0  0  0  0  0  0  0  0  0  0  0  0
  147.6859  137.2480  152.7039 H   0  0  0  0  0  0  0  0  0  0  0  0
  146.8720  135.4568  152.1206 H   0  0  0  0  0  0  0  0  0  0  0  0
  145.1094  133.9516  153.9175 H   0  0  0  0  0  0  0  0  0  0  0  0
  143.1429  134.4472  152.8075 H   0  0  0  0  0  0  0  0  0  0  0  0
  143.9963  135.5292  151.7250 H   0  0  0  0  0  0  0  0  0  0  0  0
  143.3199  132.6399  151.3335 H   0  0  0  0  0  0  0  0  0  0  0  0
  143.4422  133.9013  150.1119 H   0  0  0  0  0  0  0  0  0  0  0  0
  145.4115  132.0807  150.2667 H   0  0  0  0  0  0  0  0  0  0  0  0
  145.8604  133.7810  150.1301 H   0  0  0  0  0  0  0  0  0  0  0  0
  145.6154  132.1348  152.6573 H   0  0  0  0  0  0  0  0  0  0  0  0
  147.9496  133.8140  151.6075 H   0  0  0  0  0  0  0  0  0  0  0  0
  147.8609  132.0607  151.6803 H   0  0  0  0  0  0  0  0  0  0  0  0
  147.9060  132.9965  153.1699 H   0  0  0  0  0  0  0  0  0  0  0  0
  1  2  1  0  0  0  0
  1 22  1  0  0  0  0
  1 23  1  0  0  0  0
  1 24  1  0  0  0  0
  2  8  1  0  0  0  0
  2  3  2  0  0  0  0
  3  4  1  0  0  0  0
  4  5  1  0  0  0  0
  4  6  1  0  0  0  0
  5 25  1  0  0  0  0
  5 26  1  0  0  0  0
  5 27  1  0  0  0  0
  6  7  1  0  0  0  0
  6  8  2  0  0  0  0
  7 28  1  0  0  0  0
  7 29  1  0  0  0  0
  7 30  1  0  0  0  0
  8  9  1  0  0  0  0
  9 10  1  0  0  0  0
  9 31  1  0  0  0  0
  9 32  1  0  0  0  0
 10 11  1  0  0  0  0
 10 12  1  0  0  0  0
 10 33  1  0  0  0  0
 11 34  1  0  0  0  0
 11 35  1  0  0  0  0
 11 36  1  0  0  0  0
 12 13  1  0  0  0  0
 12 37  1  0  0  0  0
 13 14  2  0  0  0  0
 13 15  1  0  0  0  0
 15 16  1  0  0  0  0
 15 38  1  0  0  0  0
 16 20  1  0  0  0  0
 16 17  1  0  0  0  0
 16 39  1  0  0  0  0
 17 18  1  0  0  0  0
 17 40  1  0  0  0  0
 17 41  1  0  0  0  0
 18 19  1  0  0  0  0
 18 42  1  0  0  0  0
 18 43  1  0  0  0  0
 19 20  1  0  0  0  0
 19 44  1  0  0  0  0
 19 45  1  0  0  0  0
 20 21  1  0  0  0  0
 20 46  1  0  0  0  0
 21 47  1  0  0  0  0
 21 48  1  0  0  0  0
 21 49  1  0  0  0  0
M  END
> <s_m_source_file>
AV-unprocessed.smi

> <i_m_source_file_index>
671

> <i_lp_mmshare_version>
43012

> <i_f3d_flags>
0

> <s_epik_input>
W0NIM11jMW5uKFtDSDNdKWMoW0NIM10pYzFbQ0gyXVtDQEhdKFtDSDNdKVtOSF1DKD1PKVtOSF1bQ0BASF0yW0NIMl1bQ0gyXVtDSDJdW0NASF0yW0NIM10=

> <s_epik_cmdline>
J2VwaWtfcHl0aG9uJywgJy1waCcsICc3LjAnLCAnLXRuJywgJzgnLCAnLW1hJywgJzIwMCcsICctbWV0YWxfYmluZGluZycsICctaW1hZScsICc8aW5maWxlLm1hZT4nLCAnLW9tYWUnLCAnPG91dGZpbGUubWFlPic=

> <r_lp_tautomer_probability>
1

> <r_epik_Ionization_Penalty>
0.0126855

> <r_epik_Ionization_Penalty_Charging>
0

> <r_epik_Ionization_Penalty_Neutral>
0.0126855

> <r_epik_State_Penalty>
0.00977547

> <r_epik_Charging_Adjusted_Penalty>
0.00977547

> <i_epik_Tot_Q>
0

> <i_epik_Tot_abs_Q>
0

> <r_epik_Metal_State_Penalty>
0.00957132

> <b_epik_Metal_Only>
0

> <s_lp_Force_Field>
OPLS_2005

> <r_lp_Energy>
23.5654

> <b_lp_Chiralities_Consistent>
1

> <s_lp_Variant>
AV-unprocessed.smi:671-3

> <Gold.Version>
5.8.1

> <Gold.Id.Protein>
6NUR|6NUR_protein|mol2

> <Gold.PLP.Fitness>
37.9008

> <Gold.PLP.PLP>
-33.1090

> <Gold.PLP.part.hbond>
-2.6918

> <Gold.PLP.part.metal>
0.0000

> <Gold.PLP.part.buried>
-1.7410

> <Gold.PLP.part.nonpolar>
-29.3122

> <Gold.PLP.part.repulsive>
0.1376

> <Gold.PLP.ligand.clash>
0.0000

> <Gold.PLP.ligand.torsion>
1.5555

> <Gold.PLP.Chemscore.Hbond>
2.6267

> <Gold.PLP.Chemscore.CHOScore>
0.0000

> <Gold.PLP.Chemscore.Metal>
0.0000

> <Gold.Chemscore.Hbonds>
donor molecule, donor type, donor heavy atom, donor atom, acceptor molecule, acceptor atom, score
      L1  H    12    37       P1  7948  0.96
      L1  H    15    38       P1  7948  0.42
      P1  H  7989  7998       L1     3  1.00

> <Gold.PLP.Chemscore.Internal.Correction>
0.0227

> <Gold.Rescore>
     Score         DG    S(hbond)    S(metal)    S(lipo)     H(rot)  DE(clash)    DE(int)     intcor
     15.14     -18.01       2.09        0.00      79.13       1.45       0.08       2.80       ----

> <Gold.Chemscore.Fitness>
15.1378

> <Gold.Chemscore.DG>
-18.0132

> <Gold.Chemscore.ZeroCoef>
-5.4800

> <Gold.Chemscore.Hbond>
2.0919

> <Gold.Chemscore.Metal>
0.0000

> <Gold.Chemscore.Lipo>
79.1299

> <Gold.Chemscore.Internal_Hbond>
0.0000

> <Gold.Chemscore.DEClash>
0.0757

> <Gold.Chemscore.DEInternal>
2.7997

> <Gold.Chemscore.Rot>
1.4499

> <Gold.Chemscore.Internal.Correction>
   9.000000E+99

> <Gold.Chemscore.Hbonds>
donor molecule, donor type, donor heavy atom, donor atom, acceptor molecule, acceptor atom, score
      L1  H    12    37       P1  7948  0.92
      L1  H    15    38       P1  7948  0.43
      P1  H  7989  7998       L1     3  0.18

> <Gold.Chemscore.Hbond.Weighted>
-6.9868

> <Gold.Chemscore.Metal.Weighted>
-0.0000

> <Gold.Chemscore.Lipo.Weighted>
-9.2582

> <Gold.Chemscore.Internal_Hbond.Weighted>
0.0000

> <Gold.Chemscore.DEClash.Weighted>
0.0757

> <Gold.Chemscore.DEInternal.Weighted>
2.7997

> <Gold.Chemscore.Rot.Weighted>
3.7118

> <Gold.Chemscore.Internal.Correction.Weighted>
   9.000000E+99

> <Gold.Protein.RotatedTorsions>
[ 6907 6896 6895 6894 ] final  151.37 input  -60.11 | X-H torsion
[ 7974 7965 7964 7962 ] final   79.87 input  175.53 | X-H torsion
[ 8008 7997 7996 7995 ] final  110.20 input   59.86 | X-H torsion
[ 10167 10162 10161 10158 ] final  -18.48 input  -65.29 | X-H torsion
[ 10718 10713 10712 10709 ] final  135.05 input   66.30 | X-H torsion
[ 10763 10752 10751 10750 ] final -162.73 input  -60.55 | X-H torsion
[ 11005 11000 10999 10996 ] final  118.72 input  -57.11 | X-H torsion

> <Gold.Protein.ActiveResidues>
 VAL166  LYS551  ARG553  GLY616  TRP617  ASP618  TYR619  PRO620  LYS621  CYS622 
 ASP623  PHE694  ASN695  SER759  ASP760  ASP761  ALA762  ILE779  LEU786  VAL792 
 PHE793  MET794  SER795  GLU796  ALA797  LYS798  CYS799  TRP800  GLU811  SER814 

> <Gold.Protein.RotatedAtoms>
  152.1016  133.4253  159.4589 H   0  0  0  0  0  0  0  0  0  0  0  0  # atno 6907 bound_to 6896
  150.6864  134.2754  159.4614 H   0  0  0  0  0  0  0  0  0  0  0  0  # atno 6908 bound_to 6896
  152.0614  134.9591  160.0625 H   0  0  0  0  0  0  0  0  0  0  0  0  # atno 6909 bound_to 6896
  145.6586  139.2465  143.1935 H   0  0  0  0  0  0  0  0  0  0  0  0  # atno 7974 bound_to 7965
  156.2036  140.3043  155.9578 H   0  0  0  0  0  0  0  0  0  0  0  0  # atno 8008 bound_to 7997
  155.2896  140.0441  157.3039 H   0  0  0  0  0  0  0  0  0  0  0  0  # atno 8009 bound_to 7997
  154.5603  140.2318  155.8355 H   0  0  0  0  0  0  0  0  0  0  0  0  # atno 8010 bound_to 7997
  140.7259  143.4913  150.9989 H   0  0  0  0  0  0  0  0  0  0  0  0  # atno 10167 bound_to 10162
  157.4610  131.1073  150.9920 H   0  0  0  0  0  0  0  0  0  0  0  0  # atno 10718 bound_to 10713
  154.7188  135.3021  154.9081 H   0  0  0  0  0  0  0  0  0  0  0  0  # atno 10763 bound_to 10752
  153.9960  135.6713  153.4760 H   0  0  0  0  0  0  0  0  0  0  0  0  # atno 10764 bound_to 10752
  153.0816  135.5006  154.8430 H   0  0  0  0  0  0  0  0  0  0  0  0  # atno 10765 bound_to 10752
  139.9120  134.9623  156.7546 H   0  0  0  0  0  0  0  0  0  0  0  0  # atno 11005 bound_to 11000
  146.1144  140.7388  142.9488 LP  0  0  0  0  0  0  0  0  0  0  0  0  # atno 17320 bound_to 7965
  144.7097  140.3991  143.7090 LP  0  0  0  0  0  0  0  0  0  0  0  0  # atno 17321 bound_to 7965
  139.8617  143.7306  152.3173 LP  0  0  0  0  0  0  0  0  0  0  0  0  # atno 17342 bound_to 10162
  139.7524  144.7530  151.0487 LP  0  0  0  0  0  0  0  0  0  0  0  0  # atno 17343 bound_to 10162
  157.0717  130.5867  149.5404 LP  0  0  0  0  0  0  0  0  0  0  0  0  # atno 17370 bound_to 10713
  156.0029  130.5111  150.7726 LP  0  0  0  0  0  0  0  0  0  0  0  0  # atno 17371 bound_to 10713
  140.6746  133.9529  155.7875 LP  0  0  0  0  0  0  0  0  0  0  0  0  # atno 17394 bound_to 11000
  141.0553  134.0425  157.3730 LP  0  0  0  0  0  0  0  0  0  0  0  0  # atno 17395 bound_to 11000

$$$$
