AV-unprocessed.smi:1410|AV-procd|sdf|5738|dock1
  -GOLD-   22720 5373D 1   1.00000     0.00000
 Structure written by MMmdl.
 40 41  0  0  0  0  0  0  0  0  4 V2000
  142.9015  133.9872  149.8334 N   0  5  0  0  0  0  0  0  0  0  0  0
  143.4915  132.9726  150.4971 C   0  0  0  0  0  0  0  0  0  0  0  0
  142.9663  131.9567  150.9466 O   0  0  0  0  0  0  0  0  0  0  0  0
  144.9978  133.1894  150.6761 C   0  0  0  0  0  0  0  0  0  0  0  0
  145.3360  133.3884  152.1089 N   0  3  2  0  0  0  0  0  0  0  0  0
  144.7658  134.6467  152.6524 C   0  0  0  0  0  0  0  0  0  0  0  0
  144.9979  134.7525  154.1699 C   0  0  0  0  0  0  0  0  0  0  0  0
  146.4904  134.6288  154.5369 C   0  0  2  0  0  0  0  0  0  0  0  0
  147.2548  135.8038  154.1182 N   0  0  0  0  0  0  0  0  0  0  0  0
  147.2408  136.9965  154.7313 C   0  0  0  0  0  0  0  0  0  0  0  0
  146.5616  137.2381  155.7286 O   0  0  0  0  0  0  0  0  0  0  0  0
  148.0376  137.8783  154.1028 N   0  0  0  0  0  0  0  0  0  0  0  0
  148.2854  139.2380  154.4360 C   0  0  0  0  0  0  0  0  0  0  0  0
  147.1892  140.0154  154.8714 C   0  0  0  0  0  0  0  0  0  0  0  0
  147.3850  141.3727  155.1984 C   0  0  0  0  0  0  0  0  0  0  0  0
  148.6133  141.9215  155.0836 N   0  3  0  0  0  0  0  0  0  0  0  0
  149.6878  141.2235  154.6577 C   0  0  0  0  0  0  0  0  0  0  0  0
  149.5534  139.8622  154.3164 C   0  0  0  0  0  0  0  0  0  0  0  0
  147.0733  133.3531  153.9046 C   0  0  0  0  0  0  0  0  0  0  0  0
  146.7921  133.2755  152.3926 C   0  0  0  0  0  0  0  0  0  0  0  0
  143.4800  134.7647  149.4940 H   0  0  0  0  0  0  0  0  0  0  0  0
  145.5594  132.3484  150.2660 H   0  0  0  0  0  0  0  0  0  0  0  0
  145.2830  134.0666  150.0924 H   0  0  0  0  0  0  0  0  0  0  0  0
  145.2078  135.5014  152.1380 H   0  0  0  0  0  0  0  0  0  0  0  0
  143.6936  134.6788  152.4546 H   0  0  0  0  0  0  0  0  0  0  0  0
  144.5824  135.6873  154.5476 H   0  0  0  0  0  0  0  0  0  0  0  0
  144.4425  133.9564  154.6677 H   0  0  0  0  0  0  0  0  0  0  0  0
  146.5802  134.5396  155.6212 H   0  0  0  0  0  0  0  0  0  0  0  0
  147.8454  135.6944  153.3066 H   0  0  0  0  0  0  0  0  0  0  0  0
  148.4680  137.5565  153.2482 H   0  0  0  0  0  0  0  0  0  0  0  0
  146.2053  139.5782  154.9620 H   0  0  0  0  0  0  0  0  0  0  0  0
  146.6012  142.0310  155.5436 H   0  0  0  0  0  0  0  0  0  0  0  0
  150.6163  141.7723  154.5964 H   0  0  0  0  0  0  0  0  0  0  0  0
  150.4213  139.3293  153.9590 H   0  0  0  0  0  0  0  0  0  0  0  0
  148.1464  133.2931  154.0905 H   0  0  0  0  0  0  0  0  0  0  0  0
  146.6337  132.4809  154.3907 H   0  0  0  0  0  0  0  0  0  0  0  0
  147.1781  132.3298  152.0114 H   0  0  0  0  0  0  0  0  0  0  0  0
  147.3290  134.0661  151.8664 H   0  0  0  0  0  0  0  0  0  0  0  0
  144.8799  132.6314  152.5991 H   0  0  0  0  0  0  0  0  0  0  0  0
  148.7340  142.9060  155.3238 H   0  0  0  0  0  0  0  0  0  0  0  0
  1  2  1  0  0  0  0
  1 21  1  0  0  0  0
  2  3  2  0  0  0  0
  2  4  1  0  0  0  0
  4  5  1  0  0  0  0
  4 22  1  0  0  0  0
  4 23  1  0  0  0  0
  5 20  1  0  0  0  0
  5  6  1  0  0  0  0
  5 39  1  0  0  0  0
  6  7  1  0  0  0  0
  6 24  1  0  0  0  0
  6 25  1  0  0  0  0
  7  8  1  0  0  0  0
  7 26  1  0  0  0  0
  7 27  1  0  0  0  0
  8  9  1  0  0  0  0
  8 19  1  0  0  0  0
  8 28  1  0  0  0  0
  9 10  1  0  0  0  0
  9 29  1  0  0  0  0
 10 11  2  0  0  0  0
 10 12  1  0  0  0  0
 12 13  1  0  0  0  0
 12 30  1  0  0  0  0
 13 18  1  0  0  0  0
 13 14  2  0  0  0  0
 14 15  1  0  0  0  0
 14 31  1  0  0  0  0
 15 16  2  0  0  0  0
 15 32  1  0  0  0  0
 16 17  1  0  0  0  0
 16 40  1  0  0  0  0
 17 18  2  0  0  0  0
 17 33  1  0  0  0  0
 18 34  1  0  0  0  0
 19 20  1  0  0  0  0
 19 35  1  0  0  0  0
 19 36  1  0  0  0  0
 20 37  1  0  0  0  0
 20 38  1  0  0  0  0
M  CHG  1   1  -1
M  CHG  1   5   1
M  CHG  1  16   1
M  END
> <s_m_source_file>
AV-unprocessed.smi

> <i_m_source_file_index>
1410

> <i_lp_mmshare_version>
43012

> <i_f3d_flags>
0

> <s_epik_input>
W05IMl1DKD1PKVtDSDJdTjFbQ0gyXVtDSDJdW0NIXShbQ0gyXVtDSDJdMSlbTkhdQyg9TylbTkhdYzJbY0hdW2NIXW5bY0hdW2NIXTI=

> <s_epik_cmdline>
J2VwaWtfcHl0aG9uJywgJy1waCcsICc3LjAnLCAnLXRuJywgJzgnLCAnLW1hJywgJzIwMCcsICctbWV0YWxfYmluZGluZycsICctaW1hZScsICc8aW5maWxlLm1hZT4nLCAnLW9tYWUnLCAnPG91dGZpbGUubWFlPic=

> <r_epik_Ionization_Penalty>
6.84067

> <r_epik_Ionization_Penalty_Charging>
6.84065

> <r_epik_Ionization_Penalty_Neutral>
1.84563e-05

> <r_epik_State_Penalty>
7.68217

> <r_epik_Charging_Adjusted_Penalty>
14.5228

> <i_epik_Tot_Q>
1

> <i_epik_Tot_abs_Q>
3

> <r_epik_Metal_State_Penalty>
3.74331

> <b_epik_Metal_Only>
1

> <s_lp_Force_Field>
OPLS_2005

> <r_lp_Energy>
20.5434

> <b_lp_Chiralities_Consistent>
1

> <s_lp_Variant>
AV-unprocessed.smi:1410-10

> <Gold.Version>
5.8.1

> <Gold.Id.Protein>
6NUR|6NUR_protein|mol2

> <Gold.PLP.Fitness>
46.6634

> <Gold.PLP.PLP>
-30.0707

> <Gold.PLP.part.hbond>
-5.0696

> <Gold.PLP.part.metal>
0.0000

> <Gold.PLP.part.buried>
-4.2843

> <Gold.PLP.part.nonpolar>
-20.8354

> <Gold.PLP.part.repulsive>
0.4624

> <Gold.PLP.ligand.clash>
0.0000

> <Gold.PLP.ligand.torsion>
0.6243

> <Gold.PLP.Chemscore.Hbond>
5.9280

> <Gold.PLP.Chemscore.CHOScore>
0.0000

> <Gold.PLP.Chemscore.Metal>
0.0000

> <Gold.Chemscore.Hbonds>
donor molecule, donor type, donor heavy atom, donor atom, acceptor molecule, acceptor atom, score
      L1  H     9    29       P1  7948  1.00
      L1  H    12    30       P1  7948  1.00
      L1  H    16    40       P1  8028  2.00

> <Gold.PLP.Chemscore.Internal.Correction>
0.0573

> <Gold.Rescore>
     Score         DG    S(hbond)    S(metal)    S(lipo)     H(rot)  DE(clash)    DE(int)     intcor
     20.88     -22.93       4.82        0.00      54.48       1.96       0.12       1.93       ----

> <Gold.Chemscore.Fitness>
20.8754

> <Gold.Chemscore.DG>
-22.9295

> <Gold.Chemscore.ZeroCoef>
-5.4800

> <Gold.Chemscore.Hbond>
4.8194

> <Gold.Chemscore.Metal>
0.0000

> <Gold.Chemscore.Lipo>
54.4755

> <Gold.Chemscore.Internal_Hbond>
0.0000

> <Gold.Chemscore.DEClash>
0.1238

> <Gold.Chemscore.DEInternal>
1.9303

> <Gold.Chemscore.Rot>
1.9612

> <Gold.Chemscore.Internal.Correction>
   9.000000E+99

> <Gold.Chemscore.Hbonds>
donor molecule, donor type, donor heavy atom, donor atom, acceptor molecule, acceptor atom, score
      L1  H     9    29       P1  7948  0.99
      L1  H    12    30       P1  7948  0.97
      L1  H    16    40       P1  8028  1.00

> <Gold.Chemscore.Hbond.Weighted>
-16.0967

> <Gold.Chemscore.Metal.Weighted>
-0.0000

> <Gold.Chemscore.Lipo.Weighted>
-6.3736

> <Gold.Chemscore.Internal_Hbond.Weighted>
0.0000

> <Gold.Chemscore.DEClash.Weighted>
0.1238

> <Gold.Chemscore.DEInternal.Weighted>
1.9303

> <Gold.Chemscore.Rot.Weighted>
5.0208

> <Gold.Chemscore.Internal.Correction.Weighted>
   9.000000E+99

> <Gold.Protein.RotatedTorsions>
[ 6907 6896 6895 6894 ] final -123.48 input  -60.11 | X-H torsion
[ 7974 7965 7964 7962 ] final  130.57 input  175.53 | X-H torsion
[ 8008 7997 7996 7995 ] final -101.46 input   59.86 | X-H torsion
[ 10167 10162 10161 10158 ] final   54.03 input  -65.29 | X-H torsion
[ 10718 10713 10712 10709 ] final -130.94 input   66.30 | X-H torsion
[ 10763 10752 10751 10750 ] final  147.23 input  -60.55 | X-H torsion
[ 11005 11000 10999 10996 ] final  105.08 input  -57.11 | X-H torsion

> <Gold.Protein.ActiveResidues>
 VAL166  LYS551  ARG553  GLY616  TRP617  ASP618  TYR619  PRO620  LYS621  CYS622 
 ASP623  PHE694  ASN695  SER759  ASP760  ASP761  ALA762  ILE779  LEU786  VAL792 
 PHE793  MET794  SER795  GLU796  ALA797  LYS798  CYS799  TRP800  GLU811  SER814 

> <Gold.Protein.RotatedAtoms>
  150.8675  133.7553  159.2971 H   0  0  0  0  0  0  0  0  0  0  0  0  # atno 6907 bound_to 6896
  151.5176  135.1065  159.9879 H   0  0  0  0  0  0  0  0  0  0  0  0  # atno 6908 bound_to 6896
  152.4671  133.7903  159.6954 H   0  0  0  0  0  0  0  0  0  0  0  0  # atno 6909 bound_to 6896
  145.0165  139.4171  143.5218 H   0  0  0  0  0  0  0  0  0  0  0  0  # atno 7974 bound_to 7965
  154.8429  140.0434  157.1553 H   0  0  0  0  0  0  0  0  0  0  0  0  # atno 8008 bound_to 7997
  154.9027  140.3002  155.5289 H   0  0  0  0  0  0  0  0  0  0  0  0  # atno 8009 bound_to 7997
  156.2993  140.2373  156.4056 H   0  0  0  0  0  0  0  0  0  0  0  0  # atno 8010 bound_to 7997
  140.2344  144.3651  150.6402 H   0  0  0  0  0  0  0  0  0  0  0  0  # atno 10167 bound_to 10162
  156.2194  130.6969  151.0739 H   0  0  0  0  0  0  0  0  0  0  0  0  # atno 10718 bound_to 10713
  154.0349  135.2894  155.3363 H   0  0  0  0  0  0  0  0  0  0  0  0  # atno 10763 bound_to 10752
  154.6965  135.5205  153.8469 H   0  0  0  0  0  0  0  0  0  0  0  0  # atno 10764 bound_to 10752
  153.0624  135.6618  154.0558 H   0  0  0  0  0  0  0  0  0  0  0  0  # atno 10765 bound_to 10752
  139.8798  134.9323  156.5460 H   0  0  0  0  0  0  0  0  0  0  0  0  # atno 11005 bound_to 11000
  146.3479  139.9639  142.8714 LP  0  0  0  0  0  0  0  0  0  0  0  0  # atno 17320 bound_to 7965
  145.1952  140.9830  143.4187 LP  0  0  0  0  0  0  0  0  0  0  0  0  # atno 17321 bound_to 7965
  140.6161  143.2172  151.6790 LP  0  0  0  0  0  0  0  0  0  0  0  0  # atno 17342 bound_to 10162
  139.5098  144.3562  152.0605 LP  0  0  0  0  0  0  0  0  0  0  0  0  # atno 17343 bound_to 10162
  157.7080  131.0747  150.6601 LP  0  0  0  0  0  0  0  0  0  0  0  0  # atno 17370 bound_to 10713
  156.6663  130.4527  149.5671 LP  0  0  0  0  0  0  0  0  0  0  0  0  # atno 17371 bound_to 10713
  140.8276  133.8305  155.8953 LP  0  0  0  0  0  0  0  0  0  0  0  0  # atno 17394 bound_to 11000
  140.9360  134.1962  157.4831 LP  0  0  0  0  0  0  0  0  0  0  0  0  # atno 17395 bound_to 11000

$$$$
