#       Name:                AV-unprocessed.smi:3354
#       Creating user name   scv26
#       Creation time:       Fri Mar 27 19:39:40 2020


#       File generated by GOLD software.
#

@<TRIPOS>MOLECULE
AV-unprocessed.smi:3354
    43    45     1
SMALL
NO_CHARGES


@<TRIPOS>ATOM
      1 ****        -2.6512  -3.6296   2.7901 C.3            1 S1                 0.0000
      2 ****        -3.6398  -2.4802   2.7567 C.3            1 S1                 0.0000
      3 ****        -4.1581  -1.9455   1.4421 C.3            1 S1                 0.0000
      4 ****        -3.2465  -1.0888   2.2997 C.3            1 S1                 0.0000
      5 ****        -1.8908  -0.8296   1.9075 N.am           1 S1                 0.0000
      6 ****        -1.4573  -0.9055   0.5187 C.3            1 S1                 0.0000
      7 ****         0.0333  -0.5231   0.5278 C.3            1 S1                 0.0000
      8 ****         0.3340   0.4381  -0.5301 N.am           1 S1                 0.0000
      9 ****         1.5627   0.7018  -0.9959 C.2            1 S1                 0.0000
     10 ****         2.5792   0.1509  -0.5737 O.2            1 S1                 0.0000
     11 ****         1.5287   1.6469  -1.9511 N.am           1 S1                 0.0000
     12 ****         2.6106   2.1943  -2.6925 C.ar           1 S1                 0.0000
     13 ****         3.8571   1.5485  -2.8790 C.ar           1 S1                 0.0000
     14 ****         4.8449   2.1887  -3.6515 C.ar           1 S1                 0.0000
     15 ****         4.5497   3.4454  -4.2145 C.ar           1 S1                 0.0000
     16 ****         3.3617   4.0660  -4.0567 N.ar           1 S1                 0.0000
     17 ****         2.4189   3.4458  -3.3155 C.ar           1 S1                 0.0000
     18 ****         0.3059   0.0420   1.9304 C.3            1 S1                 0.0000
     19 ****        -0.9739  -0.2528   2.6926 C.2            1 S1                 0.0000
     20 ****        -1.1157   0.0275   3.8821 O.2            1 S1                 0.0000
     21 ****        -1.9975  -3.6141   1.9178 H              1 S1                 0.0000
     22 ****        -3.1853  -4.5799   2.8027 H              1 S1                 0.0000
     23 ****        -2.0357  -3.5653   3.6877 H              1 S1                 0.0000
     24 ****        -4.3578  -2.5124   3.5741 H              1 S1                 0.0000
     25 ****        -3.7692  -2.3997   0.5337 H              1 S1                 0.0000
     26 ****        -5.2093  -1.6680   1.3994 H              1 S1                 0.0000
     27 ****        -3.7420  -0.2665   2.8137 H              1 S1                 0.0000
     28 ****        -1.5905  -1.9080   0.1120 H              1 S1                 0.0000
     29 ****        -2.0558  -0.2155  -0.0788 H              1 S1                 0.0000
     30 ****         0.6274  -1.4280   0.3840 H              1 S1                 0.0000
     31 ****        -0.4464   0.9402  -0.9277 H              1 S1                 0.0000
     32 ****         0.6273   2.0646  -2.1306 H              1 S1                 0.0000
     33 ****         4.0702   0.5769  -2.4617 H              1 S1                 0.0000
     34 ****         5.8065   1.7242  -3.8123 H              1 S1                 0.0000
     35 ****         5.2850   3.9625  -4.8129 H              1 S1                 0.0000
     36 ****         1.4801   3.9708  -3.2136 H              1 S1                 0.0000
     37 ****         1.1617  -0.4405   2.4035 H              1 S1                 0.0000
     38 ****         0.4777   1.1192   1.9204 H              1 S1                 0.0000
     39 ****         2.5124  -0.5321   0.1537 LP             1 S1                 0.0000
     40 ****         3.4719   0.3862  -0.9581 LP             1 S1                 0.0000
     41 ****         3.1853   4.9568  -4.4754 LP             1 S1                 0.0000
     42 ****        -1.9785  -0.1767   4.3445 LP             1 S1                 0.0000
     43 ****        -0.3681   0.4595   4.3866 LP             1 S1                 0.0000
@<TRIPOS>BOND
    1    1    2 1     
    2    1   21 1     
    3    1   22 1     
    4    1   23 1     
    5    2    4 1     
    6    2    3 1     
    7    2   24 1     
    8    3    4 1     
    9    3   25 1     
   10    3   26 1     
   11    4    5 1     
   12    4   27 1     
   13    5   19 am    
   14    5    6 1     
   15    6    7 1     
   16    6   28 1     
   17    6   29 1     
   18    7    8 1     
   19    7   18 1     
   20    7   30 1     
   21    8    9 am    
   22    8   31 1     
   23    9   10 2     
   24    9   11 am    
   25   11   12 1     
   26   11   32 1     
   27   12   17 ar    
   28   12   13 ar    
   29   13   14 ar    
   30   13   33 1     
   31   14   15 ar    
   32   14   34 1     
   33   15   16 ar    
   34   15   35 1     
   35   16   17 ar    
   36   17   36 1     
   37   18   19 1     
   38   18   37 1     
   39   18   38 1     
   40   19   20 2     
   41   10   39 1     
   42   10   40 1     
   43   16   41 1     
   44   20   42 1     
   45   20   43 1     
@<TRIPOS>SUBSTRUCTURE
      1 S1             1
@<TRIPOS>SET
LONE_PAIRS      STATIC     ATOMS    <user>   **** ""
5 39 40 41 42 43
DONOR_HYDROGENS      STATIC     ATOMS    <user>   **** ""
2 31 32
ATOM$BLUE        STATIC     ATOMS    COLORGROUP SYSTEM
5 39 40 41 42 43
ATOM$RED        STATIC     ATOMS    COLORGROUP SYSTEM
2 31 32
