AV-unprocessed.smi:1056|AV-procd|sdf|4632|dock2
  -GOLD-   22720 3133D 1   1.00000     0.00000
 Structure written by MMmdl.
 45 47  0  0  0  0  0  0  0  0  2 V2000
  153.4682  142.3287  161.6653 C   0  0  0  0  0  0  0  0  0  0  0  0
  152.7692  142.0912  160.3381 C   0  0  0  0  0  0  0  0  0  0  0  0
  152.7816  140.7942  159.7777 C   0  0  0  0  0  0  0  0  0  0  0  0
  152.1402  140.5302  158.5479 C   0  0  0  0  0  0  0  0  0  0  0  0
  152.0268  139.3533  157.8278 N   0  0  0  0  0  0  0  0  0  0  0  0
  151.3169  139.7499  156.7761 C   0  0  0  0  0  0  0  0  0  0  0  0
  150.9592  141.0475  156.7270 N   0  0  0  0  0  0  0  0  0  0  0  0
  150.1927  141.7034  155.6825 C   0  0  0  0  0  0  0  0  0  0  0  0
  149.4034  140.7051  154.8137 C   0  0  2  0  0  0  0  0  0  0  0  0
  150.2945  140.0118  153.9600 O   0  0  0  0  0  0  0  0  0  0  0  0
  148.3430  141.4133  153.9490 C   0  0  0  0  0  0  0  0  0  0  0  0
  147.3997  142.2208  154.7630 N   0  3  1  0  0  0  0  0  0  0  0  0
  146.1622  142.5963  154.0381 C   0  0  0  0  0  0  0  0  0  0  0  0
  145.3456  143.6026  154.8676 C   0  0  0  0  0  0  0  0  0  0  0  0
  145.2703  143.2473  156.2827 N   0  0  0  0  0  0  0  0  0  0  0  0
  146.0479  142.3438  156.9016 C   0  0  0  0  0  0  0  0  0  0  0  0
  145.9326  142.1047  158.1006 O   0  0  0  0  0  0  0  0  0  0  0  0
  147.1031  141.5922  156.0756 C   0  0  0  0  0  0  0  0  0  0  0  0
  151.4821  141.6087  157.8874 C   0  0  0  0  0  0  0  0  0  0  0  0
  151.4648  142.9043  158.4338 C   0  0  0  0  0  0  0  0  0  0  0  0
  152.1078  143.1497  159.6652 C   0  0  0  0  0  0  0  0  0  0  0  0
  152.0776  144.5506  160.2507 C   0  0  0  0  0  0  0  0  0  0  0  0
  153.9780  141.4299  162.0135 H   0  0  0  0  0  0  0  0  0  0  0  0
  152.7462  142.6216  162.4279 H   0  0  0  0  0  0  0  0  0  0  0  0
  154.2134  143.1189  161.5712 H   0  0  0  0  0  0  0  0  0  0  0  0
  153.2848  139.9874  160.2903 H   0  0  0  0  0  0  0  0  0  0  0  0
  151.0430  139.0574  155.9935 H   0  0  0  0  0  0  0  0  0  0  0  0
  149.5116  142.4124  156.1552 H   0  0  0  0  0  0  0  0  0  0  0  0
  150.8736  142.2922  155.0664 H   0  0  0  0  0  0  0  0  0  0  0  0
  148.9306  139.9746  155.4699 H   0  0  0  0  0  0  0  0  0  0  0  0
  149.8563  139.8342  153.1413 H   0  0  0  0  0  0  0  0  0  0  0  0
  148.8176  142.0574  153.2071 H   0  0  0  0  0  0  0  0  0  0  0  0
  147.7935  140.6574  153.3850 H   0  0  0  0  0  0  0  0  0  0  0  0
  146.3895  143.0304  153.0651 H   0  0  0  0  0  0  0  0  0  0  0  0
  145.5713  141.6980  153.8519 H   0  0  0  0  0  0  0  0  0  0  0  0
  145.8047  144.5894  154.8001 H   0  0  0  0  0  0  0  0  0  0  0  0
  144.3373  143.6979  154.4638 H   0  0  0  0  0  0  0  0  0  0  0  0
  144.5770  143.7292  156.8379 H   0  0  0  0  0  0  0  0  0  0  0  0
  146.7455  140.5736  155.9180 H   0  0  0  0  0  0  0  0  0  0  0  0
  148.0226  141.5232  156.6585 H   0  0  0  0  0  0  0  0  0  0  0  0
  150.9592  143.7030  157.9118 H   0  0  0  0  0  0  0  0  0  0  0  0
  151.5025  145.2321  159.6233 H   0  0  0  0  0  0  0  0  0  0  0  0
  153.0885  144.9495  160.3394 H   0  0  0  0  0  0  0  0  0  0  0  0
  151.6203  144.5415  161.2404 H   0  0  0  0  0  0  0  0  0  0  0  0
  147.8803  143.0840  154.9747 H   0  0  0  0  0  0  0  0  0  0  0  0
  1  2  1  0  0  0  0
  1 23  1  0  0  0  0
  1 24  1  0  0  0  0
  1 25  1  0  0  0  0
  2 21  1  0  0  0  0
  2  3  2  0  0  0  0
  3  4  1  0  0  0  0
  3 26  1  0  0  0  0
  4 19  2  0  0  0  0
  4  5  1  0  0  0  0
  5  6  2  0  0  0  0
  6  7  1  0  0  0  0
  6 27  1  0  0  0  0
  7  8  1  0  0  0  0
  7 19  1  0  0  0  0
  8  9  1  0  0  0  0
  8 28  1  0  0  0  0
  8 29  1  0  0  0  0
  9 10  1  0  0  0  0
  9 11  1  0  0  0  0
  9 30  1  0  0  0  0
 10 31  1  0  0  0  0
 11 12  1  0  0  0  0
 11 32  1  0  0  0  0
 11 33  1  0  0  0  0
 12 18  1  0  0  0  0
 12 13  1  0  0  0  0
 12 45  1  0  0  0  0
 13 14  1  0  0  0  0
 13 34  1  0  0  0  0
 13 35  1  0  0  0  0
 14 15  1  0  0  0  0
 14 36  1  0  0  0  0
 14 37  1  0  0  0  0
 15 16  1  0  0  0  0
 15 38  1  0  0  0  0
 16 17  2  0  0  0  0
 16 18  1  0  0  0  0
 18 39  1  0  0  0  0
 18 40  1  0  0  0  0
 19 20  1  0  0  0  0
 20 21  2  0  0  0  0
 20 41  1  0  0  0  0
 21 22  1  0  0  0  0
 22 42  1  0  0  0  0
 22 43  1  0  0  0  0
 22 44  1  0  0  0  0
M  CHG  1  12   1
M  END
> <s_m_source_file>
AV-unprocessed.smi

> <i_m_source_file_index>
1056

> <i_lp_mmshare_version>
43012

> <i_f3d_flags>
0

> <s_epik_input>
W0NIM11jKFtjSF0xKWMoW0NIM10pW2NIXWMoYzEyKW4oW2NIXW4yKVtDSDJdW0NASF0oW09IXSlbQ0gyXU4zW0NIMl1bQ0gyXVtOSF1DKD1PKVtDSDJdMw==

> <s_epik_cmdline>
J2VwaWtfcHl0aG9uJywgJy1waCcsICc3LjAnLCAnLXRuJywgJzgnLCAnLW1hJywgJzIwMCcsICctbWV0YWxfYmluZGluZycsICctaW1hZScsICc8aW5maWxlLm1hZT4nLCAnLW9tYWUnLCAnPG91dGZpbGUubWFlPic=

> <r_epik_Ionization_Penalty>
0.153633

> <r_epik_Ionization_Penalty_Charging>
0.0674887

> <r_epik_Ionization_Penalty_Neutral>
0.0861443

> <r_epik_State_Penalty>
0.135155

> <r_epik_Charging_Adjusted_Penalty>
0.202644

> <i_epik_Tot_Q>
1

> <i_epik_Tot_abs_Q>
1

> <r_epik_Metal_State_Penalty>
0.190685

> <b_epik_Metal_Only>
0

> <s_lp_Force_Field>
OPLS_2005

> <r_lp_Energy>
24.2633

> <b_lp_Chiralities_Consistent>
1

> <s_lp_Variant>
AV-unprocessed.smi:1056-3

> <Gold.Version>
5.8.1

> <Gold.Id.Protein>
6NUR|6NUR_protein|mol2

> <Gold.PLP.Fitness>
58.3221

> <Gold.PLP.PLP>
-47.3641

> <Gold.PLP.part.hbond>
-3.0000

> <Gold.PLP.part.metal>
0.0000

> <Gold.PLP.part.buried>
-6.5067

> <Gold.PLP.part.nonpolar>
-38.9110

> <Gold.PLP.part.repulsive>
0.1652

> <Gold.PLP.ligand.clash>
0.0000

> <Gold.PLP.ligand.torsion>
0.5606

> <Gold.PLP.Chemscore.Hbond>
3.9920

> <Gold.PLP.Chemscore.CHOScore>
0.0000

> <Gold.PLP.Chemscore.Metal>
0.0000

> <Gold.Chemscore.Hbonds>
donor molecule, donor type, donor heavy atom, donor atom, acceptor molecule, acceptor atom, score
      L1  H    10    31       P1  7957  1.00
      L1  H    12    45       P1  8028  2.00
      P1  H  7989  7998       L1    10  0.98

> <Gold.PLP.Chemscore.Internal.Correction>
0.1032

> <Gold.Rescore>
     Score         DG    S(hbond)    S(metal)    S(lipo)     H(rot)  DE(clash)    DE(int)     intcor
     19.91     -20.56       2.27        0.00     115.95       2.38       0.08       0.56       ----

> <Gold.Chemscore.Fitness>
19.9079

> <Gold.Chemscore.DG>
-20.5558

> <Gold.Chemscore.ZeroCoef>
-5.4800

> <Gold.Chemscore.Hbond>
2.2747

> <Gold.Chemscore.Metal>
0.0000

> <Gold.Chemscore.Lipo>
115.9544

> <Gold.Chemscore.Internal_Hbond>
0.0000

> <Gold.Chemscore.DEClash>
0.0845

> <Gold.Chemscore.DEInternal>
0.5634

> <Gold.Chemscore.Rot>
2.3783

> <Gold.Chemscore.Internal.Correction>
   9.000000E+99

> <Gold.Chemscore.Hbonds>
donor molecule, donor type, donor heavy atom, donor atom, acceptor molecule, acceptor atom, score
      L1  H    10    31       P1  7957  0.93
      L1  H    12    45       P1  8028  0.79
      P1  H  7989  7998       L1    10  0.29

> <Gold.Chemscore.Hbond.Weighted>
-7.5975

> <Gold.Chemscore.Metal.Weighted>
-0.0000

> <Gold.Chemscore.Lipo.Weighted>
-13.5667

> <Gold.Chemscore.Internal_Hbond.Weighted>
0.0000

> <Gold.Chemscore.DEClash.Weighted>
0.0845

> <Gold.Chemscore.DEInternal.Weighted>
0.5634

> <Gold.Chemscore.Rot.Weighted>
6.0884

> <Gold.Chemscore.Internal.Correction.Weighted>
   9.000000E+99

> <Gold.Protein.RotatedTorsions>
[ 6907 6896 6895 6894 ] final   86.68 input  -60.11 | X-H torsion
[ 7974 7965 7964 7962 ] final  -19.07 input  175.53 | X-H torsion
[ 8008 7997 7996 7995 ] final  -78.82 input   59.86 | X-H torsion
[ 10167 10162 10161 10158 ] final -154.36 input  -65.29 | X-H torsion
[ 10718 10713 10712 10709 ] final   -0.76 input   66.30 | X-H torsion
[ 10763 10752 10751 10750 ] final  115.22 input  -60.55 | X-H torsion
[ 11005 11000 10999 10996 ] final   30.88 input  -57.11 | X-H torsion

> <Gold.Protein.ActiveResidues>
 VAL166  LYS551  ARG553  GLY616  TRP617  ASP618  TYR619  PRO620  LYS621  CYS622 
 ASP623  PHE694  ASN695  SER759  ASP760  ASP761  ALA762  ILE779  LEU786  VAL792 
 PHE793  MET794  SER795  GLU796  ALA797  LYS798  CYS799  TRP800  GLU811  SER814 

> <Gold.Protein.RotatedAtoms>
  152.5398  134.2394  159.8855 H   0  0  0  0  0  0  0  0  0  0  0  0  # atno 6907 bound_to 6896
  151.2362  133.4417  159.2613 H   0  0  0  0  0  0  0  0  0  0  0  0  # atno 6908 bound_to 6896
  151.0669  134.9786  159.8345 H   0  0  0  0  0  0  0  0  0  0  0  0  # atno 6909 bound_to 6896
  146.1860  140.4010  142.8476 H   0  0  0  0  0  0  0  0  0  0  0  0  # atno 7974 bound_to 7965
  154.5725  140.0688  156.8986 H   0  0  0  0  0  0  0  0  0  0  0  0  # atno 8008 bound_to 7997
  155.2608  140.3358  155.4255 H   0  0  0  0  0  0  0  0  0  0  0  0  # atno 8009 bound_to 7997
  156.2129  140.1766  156.7639 H   0  0  0  0  0  0  0  0  0  0  0  0  # atno 8010 bound_to 7997
  139.7020  143.9248  152.2432 H   0  0  0  0  0  0  0  0  0  0  0  0  # atno 10167 bound_to 10162
  156.8156  130.5439  149.5703 H   0  0  0  0  0  0  0  0  0  0  0  0  # atno 10718 bound_to 10713
  153.5189  135.3602  155.2622 H   0  0  0  0  0  0  0  0  0  0  0  0  # atno 10763 bound_to 10752
  154.8736  135.4041  154.3282 H   0  0  0  0  0  0  0  0  0  0  0  0  # atno 10764 bound_to 10752
  153.3949  135.7073  153.6535 H   0  0  0  0  0  0  0  0  0  0  0  0  # atno 10765 bound_to 10752
  140.2897  134.2878  155.7779 H   0  0  0  0  0  0  0  0  0  0  0  0  # atno 11005 bound_to 11000
  144.8399  140.6840  143.6236 LP  0  0  0  0  0  0  0  0  0  0  0  0  # atno 17320 bound_to 7965
  145.3936  139.1611  143.4215 LP  0  0  0  0  0  0  0  0  0  0  0  0  # atno 17321 bound_to 7965
  139.9093  144.6866  150.8580 LP  0  0  0  0  0  0  0  0  0  0  0  0  # atno 17342 bound_to 10162
  140.7712  143.3455  151.2119 LP  0  0  0  0  0  0  0  0  0  0  0  0  # atno 17343 bound_to 10162
  156.1019  130.5975  150.9907 LP  0  0  0  0  0  0  0  0  0  0  0  0  # atno 17370 bound_to 10713
  157.6483  131.0901  150.8105 LP  0  0  0  0  0  0  0  0  0  0  0  0  # atno 17371 bound_to 10713
  141.2148  133.7577  156.9606 LP  0  0  0  0  0  0  0  0  0  0  0  0  # atno 17394 bound_to 11000
  140.1207  134.9419  157.2198 LP  0  0  0  0  0  0  0  0  0  0  0  0  # atno 17395 bound_to 11000

$$$$
