AV-unprocessed.smi:1284|AV-procd|sdf|5363|dock2
  -GOLD-   22720 4503D 1   1.00000     0.00000
 Structure written by MMmdl.
 39 41  0  0  0  0  0  0  0  0  1 V2000
  151.6704  137.9940  153.4040 N   0  0  0  0  0  0  0  0  0  0  0  0
  152.2066  138.1245  154.6208 C   0  0  0  0  0  0  0  0  0  0  0  0
  152.6730  137.1691  155.2374 O   0  0  0  0  0  0  0  0  0  0  0  0
  152.2369  139.5306  155.2276 C   0  0  0  0  0  0  0  0  0  0  0  0
  150.8543  140.1178  155.1608 C   0  0  0  0  0  0  0  0  0  0  0  0
  150.1925  140.2187  154.0058 N   0  0  0  0  0  0  0  0  0  0  0  0
  149.0027  140.8082  154.3849 C   0  0  0  0  0  0  0  0  0  0  0  0
  147.8752  141.1774  153.6172 C   0  0  0  0  0  0  0  0  0  0  0  0
  146.7585  141.7796  154.2330 C   0  0  0  0  0  0  0  0  0  0  0  0
  146.7530  142.0206  155.6223 C   0  0  0  0  0  0  0  0  0  0  0  0
  147.8657  141.6583  156.4058 C   0  0  0  0  0  0  0  0  0  0  0  0
  148.9775  141.0571  155.7858 C   0  0  0  0  0  0  0  0  0  0  0  0
  150.2024  140.5937  156.2542 N   0  0  0  0  0  0  0  0  0  0  0  0
  150.6507  140.6316  157.6402 C   0  0  0  0  0  0  0  0  0  0  0  0
  152.0179  141.3249  157.8045 C   0  0  2  0  0  0  0  0  0  0  0  0
  153.0330  140.3607  158.0071 O   0  0  0  0  0  0  0  0  0  0  0  0
  151.9803  142.3582  158.9191 C   0  0  0  0  0  0  0  0  0  0  0  0
  151.2352  143.5463  158.7575 C   0  0  0  0  0  0  0  0  0  0  0  0
  151.1919  144.5029  159.7904 C   0  0  0  0  0  0  0  0  0  0  0  0
  151.8915  144.2763  160.9912 C   0  0  0  0  0  0  0  0  0  0  0  0
  152.6324  143.0910  161.1600 C   0  0  0  0  0  0  0  0  0  0  0  0
  152.6759  142.1341  160.1276 C   0  0  0  0  0  0  0  0  0  0  0  0
  151.6224  137.0827  152.9721 H   0  0  0  0  0  0  0  0  0  0  0  0
  151.3066  138.8050  152.9245 H   0  0  0  0  0  0  0  0  0  0  0  0
  152.5975  139.5002  156.2556 H   0  0  0  0  0  0  0  0  0  0  0  0
  152.9299  140.1618  154.6697 H   0  0  0  0  0  0  0  0  0  0  0  0
  147.8701  140.9980  152.5522 H   0  0  0  0  0  0  0  0  0  0  0  0
  145.9027  142.0591  153.6364 H   0  0  0  0  0  0  0  0  0  0  0  0
  145.8943  142.4837  156.0860 H   0  0  0  0  0  0  0  0  0  0  0  0
  147.8654  141.8413  157.4700 H   0  0  0  0  0  0  0  0  0  0  0  0
  149.8966  141.1638  158.2211 H   0  0  0  0  0  0  0  0  0  0  0  0
  150.6793  139.6216  158.0464 H   0  0  0  0  0  0  0  0  0  0  0  0
  152.2628  141.8370  156.8731 H   0  0  0  0  0  0  0  0  0  0  0  0
  152.7929  139.8256  158.7480 H   0  0  0  0  0  0  0  0  0  0  0  0
  150.6927  143.7284  157.8415 H   0  0  0  0  0  0  0  0  0  0  0  0
  150.6207  145.4106  159.6619 H   0  0  0  0  0  0  0  0  0  0  0  0
  151.8580  145.0103  161.7830 H   0  0  0  0  0  0  0  0  0  0  0  0
  153.1669  142.9144  162.0817 H   0  0  0  0  0  0  0  0  0  0  0  0
  153.2429  141.2250  160.2671 H   0  0  0  0  0  0  0  0  0  0  0  0
  1  2  1  0  0  0  0
  1 23  1  0  0  0  0
  1 24  1  0  0  0  0
  2  3  2  0  0  0  0
  2  4  1  0  0  0  0
  4  5  1  0  0  0  0
  4 25  1  0  0  0  0
  4 26  1  0  0  0  0
  5 13  1  0  0  0  0
  5  6  2  0  0  0  0
  6  7  1  0  0  0  0
  7 12  2  0  0  0  0
  7  8  1  0  0  0  0
  8  9  2  0  0  0  0
  8 27  1  0  0  0  0
  9 10  1  0  0  0  0
  9 28  1  0  0  0  0
 10 11  2  0  0  0  0
 10 29  1  0  0  0  0
 11 12  1  0  0  0  0
 11 30  1  0  0  0  0
 12 13  1  0  0  0  0
 13 14  1  0  0  0  0
 14 15  1  0  0  0  0
 14 31  1  0  0  0  0
 14 32  1  0  0  0  0
 15 16  1  0  0  0  0
 15 17  1  0  0  0  0
 15 33  1  0  0  0  0
 16 34  1  0  0  0  0
 17 22  1  0  0  0  0
 17 18  2  0  0  0  0
 18 19  1  0  0  0  0
 18 35  1  0  0  0  0
 19 20  2  0  0  0  0
 19 36  1  0  0  0  0
 20 21  1  0  0  0  0
 20 37  1  0  0  0  0
 21 22  2  0  0  0  0
 21 38  1  0  0  0  0
 22 39  1  0  0  0  0
M  END
> <s_m_source_file>
AV-unprocessed.smi

> <i_m_source_file_index>
1284

> <i_lp_mmshare_version>
43012

> <i_f3d_flags>
0

> <s_epik_input>
W2NIXTFbY0hdW2NIXVtjSF1jKGMxMiluKGMobjIpW0NIMl1DKD1PKVtOSDJdKVtDSDJdW0NASF0oW09IXSljM1tjSF1bY0hdW2NIXVtjSF1bY0hdMw==

> <s_epik_cmdline>
J2VwaWtfcHl0aG9uJywgJy1waCcsICc3LjAnLCAnLXRuJywgJzgnLCAnLW1hJywgJzIwMCcsICctbWV0YWxfYmluZGluZycsICctaW1hZScsICc8aW5maWxlLm1hZT4nLCAnLW9tYWUnLCAnPG91dGZpbGUubWFlPic=

> <r_epik_Ionization_Penalty>
0.0366899

> <r_epik_Ionization_Penalty_Charging>
0

> <r_epik_Ionization_Penalty_Neutral>
0.0366899

> <r_epik_State_Penalty>
0.0306642

> <r_epik_Charging_Adjusted_Penalty>
0.0306642

> <i_epik_Tot_Q>
0

> <i_epik_Tot_abs_Q>
0

> <r_epik_Metal_State_Penalty>
0.028853

> <b_epik_Metal_Only>
0

> <s_lp_Force_Field>
OPLS_2005

> <r_lp_Energy>
12.351

> <b_lp_Chiralities_Consistent>
1

> <s_lp_Variant>
AV-unprocessed.smi:1284-1

> <Gold.Version>
5.8.1

> <Gold.Id.Protein>
6NUR|6NUR_protein|mol2

> <Gold.PLP.Fitness>
56.3513

> <Gold.PLP.PLP>
-49.1373

> <Gold.PLP.part.hbond>
-4.0000

> <Gold.PLP.part.metal>
0.0000

> <Gold.PLP.part.buried>
-1.9674

> <Gold.PLP.part.nonpolar>
-42.0397

> <Gold.PLP.part.repulsive>
0.8924

> <Gold.PLP.ligand.clash>
0.0000

> <Gold.PLP.ligand.torsion>
1.0347

> <Gold.PLP.Chemscore.Hbond>
3.0760

> <Gold.PLP.Chemscore.CHOScore>
0.0000

> <Gold.PLP.Chemscore.Metal>
0.0000

> <Gold.Chemscore.Hbonds>
donor molecule, donor type, donor heavy atom, donor atom, acceptor molecule, acceptor atom, score
      L1  H     1    23       P1  7949  0.99
      P1  H  7989  7998       L1     6  0.18
      P1  H  7997  8008       L1    16  0.88
      P1  H 10752 10764       L1     3  0.51

> <Gold.PLP.Chemscore.Internal.Correction>
0.0553

> <Gold.Rescore>
     Score         DG    S(hbond)    S(metal)    S(lipo)     H(rot)  DE(clash)    DE(int)     intcor
     16.53     -20.87       2.65        0.00     118.58       2.86       1.87       2.46       ----

> <Gold.Chemscore.Fitness>
16.5316

> <Gold.Chemscore.DG>
-20.8654

> <Gold.Chemscore.ZeroCoef>
-5.4800

> <Gold.Chemscore.Hbond>
2.6452

> <Gold.Chemscore.Metal>
0.0000

> <Gold.Chemscore.Lipo>
118.5768

> <Gold.Chemscore.Internal_Hbond>
0.0000

> <Gold.Chemscore.DEClash>
1.8711

> <Gold.Chemscore.DEInternal>
2.4627

> <Gold.Chemscore.Rot>
2.8606

> <Gold.Chemscore.Internal.Correction>
   9.000000E+99

> <Gold.Chemscore.Hbonds>
donor molecule, donor type, donor heavy atom, donor atom, acceptor molecule, acceptor atom, score
      L1  H     1    23       P1  7949  0.91
      P1  H  7997  8008       L1    16  0.86
      P1  H 10752 10764       L1     3  0.52

> <Gold.Chemscore.Hbond.Weighted>
-8.8350

> <Gold.Chemscore.Metal.Weighted>
-0.0000

> <Gold.Chemscore.Lipo.Weighted>
-13.8735

> <Gold.Chemscore.Internal_Hbond.Weighted>
0.0000

> <Gold.Chemscore.DEClash.Weighted>
1.8711

> <Gold.Chemscore.DEInternal.Weighted>
2.4627

> <Gold.Chemscore.Rot.Weighted>
7.3231

> <Gold.Chemscore.Internal.Correction.Weighted>
   9.000000E+99

> <Gold.Protein.RotatedTorsions>
[ 6907 6896 6895 6894 ] final  169.05 input  -60.11 | X-H torsion
[ 7974 7965 7964 7962 ] final   59.85 input  175.53 | X-H torsion
[ 8008 7997 7996 7995 ] final  -78.05 input   59.86 | X-H torsion
[ 10167 10162 10161 10158 ] final    6.97 input  -65.29 | X-H torsion
[ 10718 10713 10712 10709 ] final  104.55 input   66.30 | X-H torsion
[ 10763 10752 10751 10750 ] final  -35.88 input  -60.55 | X-H torsion
[ 11005 11000 10999 10996 ] final  129.35 input  -57.11 | X-H torsion

> <Gold.Protein.ActiveResidues>
 VAL166  LYS551  ARG553  GLY616  TRP617  ASP618  TYR619  PRO620  LYS621  CYS622 
 ASP623  PHE694  ASN695  SER759  ASP760  ASP761  ALA762  ILE779  LEU786  VAL792 
 PHE793  MET794  SER795  GLU796  ALA797  LYS798  CYS799  TRP800  GLU811  SER814 

> <Gold.Protein.RotatedAtoms>
  151.8381  133.3419  159.3634 H   0  0  0  0  0  0  0  0  0  0  0  0  # atno 6907 bound_to 6896
  150.7243  134.5418  159.5760 H   0  0  0  0  0  0  0  0  0  0  0  0  # atno 6908 bound_to 6896
  152.2886  134.7748  160.0433 H   0  0  0  0  0  0  0  0  0  0  0  0  # atno 6909 bound_to 6896
  145.9026  139.3592  143.0583 H   0  0  0  0  0  0  0  0  0  0  0  0  # atno 7974 bound_to 7965
  154.5653  140.0700  156.8882 H   0  0  0  0  0  0  0  0  0  0  0  0  # atno 8008 bound_to 7997
  155.2735  140.3367  155.4245 H   0  0  0  0  0  0  0  0  0  0  0  0  # atno 8009 bound_to 7997
  156.2075  140.1746  156.7753 H   0  0  0  0  0  0  0  0  0  0  0  0  # atno 8010 bound_to 7997
  140.6398  143.7800  150.7412 H   0  0  0  0  0  0  0  0  0  0  0  0  # atno 10167 bound_to 10162
  157.6736  131.0806  150.5723 H   0  0  0  0  0  0  0  0  0  0  0  0  # atno 10718 bound_to 10713
  153.8705  135.6831  153.4775 H   0  0  0  0  0  0  0  0  0  0  0  0  # atno 10763 bound_to 10752
  153.1290  135.4706  154.9316 H   0  0  0  0  0  0  0  0  0  0  0  0  # atno 10764 bound_to 10752
  154.7716  135.3240  154.8128 H   0  0  0  0  0  0  0  0  0  0  0  0  # atno 10765 bound_to 10752
  139.9610  134.9602  156.9135 H   0  0  0  0  0  0  0  0  0  0  0  0  # atno 11005 bound_to 11000
  145.8772  140.9384  143.0620 LP  0  0  0  0  0  0  0  0  0  0  0  0  # atno 17320 bound_to 7965
  144.6737  140.0732  143.7472 LP  0  0  0  0  0  0  0  0  0  0  0  0  # atno 17321 bound_to 7965
  140.1429  143.4425  152.2181 LP  0  0  0  0  0  0  0  0  0  0  0  0  # atno 17342 bound_to 10162
  139.5607  144.7404  151.4162 LP  0  0  0  0  0  0  0  0  0  0  0  0  # atno 17343 bound_to 10162
  156.6024  130.4358  149.5892 LP  0  0  0  0  0  0  0  0  0  0  0  0  # atno 17370 bound_to 10713
  156.2495  130.6899  151.1632 LP  0  0  0  0  0  0  0  0  0  0  0  0  # atno 17371 bound_to 10713
  140.5499  134.0637  155.7366 LP  0  0  0  0  0  0  0  0  0  0  0  0  # atno 17394 bound_to 11000
  141.1287  133.9338  157.2580 LP  0  0  0  0  0  0  0  0  0  0  0  0  # atno 17395 bound_to 11000

$$$$
