AV-unprocessed.smi:1180|AV-procd|sdf|4962|dock5
  -GOLD-   22720 3553D 1   1.00000     0.00000
 Structure written by MMmdl.
 38 39  0  0  0  0  0  0  0  0  1 V2000
  146.9345  139.0041  152.6256 C   0  0  0  0  0  0  0  0  0  0  0  0
  148.0844  139.3950  153.5283 C   0  0  0  0  0  0  0  0  0  0  0  0
  149.1953  138.5775  153.4008 N   0  0  0  0  0  0  0  0  0  0  0  0
  150.2981  138.8557  154.1889 C   0  0  0  0  0  0  0  0  0  0  0  0
  151.4707  137.9115  153.9891 C   0  0  0  0  0  0  0  0  0  0  0  0
  150.2963  139.9001  155.0557 C   0  0  0  0  0  0  0  0  0  0  0  0
  151.4947  140.2490  155.9379 C   0  0  0  0  0  0  0  0  0  0  0  0
  151.1789  140.6613  157.3786 C   0  0  0  0  0  0  0  0  0  0  0  0
  150.1519  140.2710  157.9350 O   0  0  0  0  0  0  0  0  0  0  0  0
  152.0817  141.4547  157.9737 N   0  0  0  0  0  0  0  0  0  0  0  0
  151.9904  141.9505  159.3428 C   0  0  0  0  0  0  0  0  0  0  0  0
  152.3486  143.4458  159.4441 C   0  0  2  0  0  0  0  0  0  0  0  0
  151.9367  144.0939  160.7607 C   0  0  0  0  0  0  0  0  0  0  0  0
  151.4622  145.4962  160.3635 C   0  0  0  0  0  0  0  0  0  0  0  0
  151.7701  145.6256  158.9825 O   0  0  0  0  0  0  0  0  0  0  0  0
  151.6703  144.3360  158.4042 C   0  0  0  0  0  0  0  0  0  0  0  0
  149.0824  140.7461  155.1398 C   0  0  0  0  0  0  0  0  0  0  0  0
  149.0260  141.7171  155.8934 O   0  0  0  0  0  0  0  0  0  0  0  0
  147.9866  140.4146  154.3263 N   0  0  0  0  0  0  0  0  0  0  0  0
  149.2404  137.7932  152.7663 H   0  0  0  0  0  0  0  0  0  0  0  0
  146.0279  139.5492  152.8913 H   0  0  0  0  0  0  0  0  0  0  0  0
  146.7263  137.9369  152.7093 H   0  0  0  0  0  0  0  0  0  0  0  0
  147.1771  139.2306  151.5870 H   0  0  0  0  0  0  0  0  0  0  0  0
  151.6830  137.3678  154.9098 H   0  0  0  0  0  0  0  0  0  0  0  0
  152.3639  138.4670  153.7022 H   0  0  0  0  0  0  0  0  0  0  0  0
  151.2675  137.1786  153.2071 H   0  0  0  0  0  0  0  0  0  0  0  0
  152.0434  141.0688  155.4743 H   0  0  0  0  0  0  0  0  0  0  0  0
  152.2016  139.4184  155.9567 H   0  0  0  0  0  0  0  0  0  0  0  0
  152.8959  141.7285  157.4429 H   0  0  0  0  0  0  0  0  0  0  0  0
  150.9702  141.7859  159.6909 H   0  0  0  0  0  0  0  0  0  0  0  0
  152.6368  141.3614  159.9954 H   0  0  0  0  0  0  0  0  0  0  0  0
  153.4277  143.5689  159.3362 H   0  0  0  0  0  0  0  0  0  0  0  0
  151.1264  143.5495  161.2474 H   0  0  0  0  0  0  0  0  0  0  0  0
  152.7755  144.1311  161.4568 H   0  0  0  0  0  0  0  0  0  0  0  0
  150.3838  145.5876  160.5005 H   0  0  0  0  0  0  0  0  0  0  0  0
  151.9455  146.2816  160.9450 H   0  0  0  0  0  0  0  0  0  0  0  0
  152.1586  144.2944  157.4302 H   0  0  0  0  0  0  0  0  0  0  0  0
  150.6194  144.0707  158.2771 H   0  0  0  0  0  0  0  0  0  0  0  0
  1 21  1  0  0  0  0
  1 22  1  0  0  0  0
  1 23  1  0  0  0  0
  1  2  1  0  0  0  0
  2  3  1  0  0  0  0
  2 19  2  0  0  0  0
  3  4  1  0  0  0  0
  3 20  1  0  0  0  0
  4  6  2  0  0  0  0
  4  5  1  0  0  0  0
  5 24  1  0  0  0  0
  5 25  1  0  0  0  0
  5 26  1  0  0  0  0
  6 17  1  0  0  0  0
  6  7  1  0  0  0  0
  7  8  1  0  0  0  0
  7 27  1  0  0  0  0
  7 28  1  0  0  0  0
  8  9  2  0  0  0  0
  8 10  1  0  0  0  0
 10 11  1  0  0  0  0
 10 29  1  0  0  0  0
 11 12  1  0  0  0  0
 11 30  1  0  0  0  0
 11 31  1  0  0  0  0
 12 16  1  0  0  0  0
 12 13  1  0  0  0  0
 12 32  1  0  0  0  0
 13 14  1  0  0  0  0
 13 33  1  0  0  0  0
 13 34  1  0  0  0  0
 14 15  1  0  0  0  0
 14 35  1  0  0  0  0
 14 36  1  0  0  0  0
 15 16  1  0  0  0  0
 16 37  1  0  0  0  0
 16 38  1  0  0  0  0
 17 18  2  0  0  0  0
 17 19  1  0  0  0  0
M  END
> <s_m_source_file>
AV-unprocessed.smi

> <i_m_source_file_index>
1180

> <i_lp_mmshare_version>
43012

> <i_f3d_flags>
0

> <s_epik_input>
W0NIM11jMW5jKFtDSDNdKWMoYyg9TylbbkhdMSlbQ0gyXUMoPU8pW05IXVtDSDJdW0NAQEhdMltDSDJdW0NIMl1PW0NIMl0y

> <s_epik_cmdline>
J2VwaWtfcHl0aG9uJywgJy1waCcsICc3LjAnLCAnLXRuJywgJzgnLCAnLW1hJywgJzIwMCcsICctbWV0YWxfYmluZGluZycsICctaW1hZScsICc8aW5maWxlLm1hZT4nLCAnLW9tYWUnLCAnPG91dGZpbGUubWFlPic=

> <r_lp_tautomer_probability>
0.156392

> <r_epik_Ionization_Penalty>
0.014237

> <r_epik_Ionization_Penalty_Charging>
0.0141173

> <r_epik_Ionization_Penalty_Neutral>
0.000119724

> <r_epik_State_Penalty>
1.52876

> <r_epik_Charging_Adjusted_Penalty>
1.54288

> <i_epik_Tot_Q>
0

> <i_epik_Tot_abs_Q>
0

> <r_epik_Metal_State_Penalty>
1.70686

> <b_epik_Metal_Only>
0

> <s_lp_Force_Field>
OPLS_2005

> <r_lp_Energy>
24.076

> <b_lp_Chiralities_Consistent>
1

> <s_lp_Variant>
AV-unprocessed.smi:1180-3

> <Gold.Version>
5.8.1

> <Gold.Id.Protein>
6NUR|6NUR_protein|mol2

> <Gold.PLP.Fitness>
42.4226

> <Gold.PLP.PLP>
-41.0374

> <Gold.PLP.part.hbond>
-2.9468

> <Gold.PLP.part.metal>
0.0000

> <Gold.PLP.part.buried>
-1.4820

> <Gold.PLP.part.nonpolar>
-37.0313

> <Gold.PLP.part.repulsive>
1.0758

> <Gold.PLP.ligand.clash>
0.0000

> <Gold.PLP.ligand.torsion>
0.8105

> <Gold.PLP.Chemscore.Hbond>
1.0000

> <Gold.PLP.Chemscore.CHOScore>
0.0000

> <Gold.PLP.Chemscore.Metal>
0.0000

> <Gold.Chemscore.Hbonds>
donor molecule, donor type, donor heavy atom, donor atom, acceptor molecule, acceptor atom, score
      L1  H     3    20       P1  7948  1.00

> <Gold.PLP.Chemscore.Internal.Correction>
0.0062

> <Gold.Rescore>
     Score         DG    S(hbond)    S(metal)    S(lipo)     H(rot)  DE(clash)    DE(int)     intcor
     12.07     -15.35       1.00        0.00      95.32       1.81       0.15       3.12       ----

> <Gold.Chemscore.Fitness>
12.0691

> <Gold.Chemscore.DG>
-15.3455

> <Gold.Chemscore.ZeroCoef>
-5.4800

> <Gold.Chemscore.Hbond>
0.9992

> <Gold.Chemscore.Metal>
0.0000

> <Gold.Chemscore.Lipo>
95.3237

> <Gold.Chemscore.Internal_Hbond>
0.0000

> <Gold.Chemscore.DEClash>
0.1538

> <Gold.Chemscore.DEInternal>
3.1226

> <Gold.Chemscore.Rot>
1.8065

> <Gold.Chemscore.Internal.Correction>
   9.000000E+99

> <Gold.Chemscore.Hbonds>
donor molecule, donor type, donor heavy atom, donor atom, acceptor molecule, acceptor atom, score
      L1  H     3    20       P1  7948  0.96

> <Gold.Chemscore.Hbond.Weighted>
-3.3372

> <Gold.Chemscore.Metal.Weighted>
-0.0000

> <Gold.Chemscore.Lipo.Weighted>
-11.1529

> <Gold.Chemscore.Internal_Hbond.Weighted>
0.0000

> <Gold.Chemscore.DEClash.Weighted>
0.1538

> <Gold.Chemscore.DEInternal.Weighted>
3.1226

> <Gold.Chemscore.Rot.Weighted>
4.6246

> <Gold.Chemscore.Internal.Correction.Weighted>
   9.000000E+99

> <Gold.Protein.RotatedTorsions>
[ 6907 6896 6895 6894 ] final   33.31 input  -60.11 | X-H torsion
[ 7974 7965 7964 7962 ] final  -50.08 input  175.53 | X-H torsion
[ 8008 7997 7996 7995 ] final   91.55 input   59.86 | X-H torsion
[ 10167 10162 10161 10158 ] final  -24.57 input  -65.29 | X-H torsion
[ 10718 10713 10712 10709 ] final   27.88 input   66.30 | X-H torsion
[ 10763 10752 10751 10750 ] final   -7.72 input  -60.55 | X-H torsion
[ 11005 11000 10999 10996 ] final  -75.82 input  -57.11 | X-H torsion

> <Gold.Protein.ActiveResidues>
 VAL166  LYS551  ARG553  GLY616  TRP617  ASP618  TYR619  PRO620  LYS621  CYS622 
 ASP623  PHE694  ASN695  SER759  ASP760  ASP761  ALA762  ILE779  LEU786  VAL792 
 PHE793  MET794  SER795  GLU796  ALA797  LYS798  CYS799  TRP800  GLU811  SER814 

> <Gold.Protein.RotatedAtoms>
  152.0867  134.9434  160.0572 H   0  0  0  0  0  0  0  0  0  0  0  0  # atno 6907 bound_to 6896
  152.0702  133.4098  159.4464 H   0  0  0  0  0  0  0  0  0  0  0  0  # atno 6908 bound_to 6896
  150.6836  134.3021  159.4754 H   0  0  0  0  0  0  0  0  0  0  0  0  # atno 6909 bound_to 6896
  145.9337  140.7726  142.9587 H   0  0  0  0  0  0  0  0  0  0  0  0  # atno 7974 bound_to 7965
  156.0251  140.3336  155.7080 H   0  0  0  0  0  0  0  0  0  0  0  0  # atno 8008 bound_to 7997
  155.5966  140.0651  157.2762 H   0  0  0  0  0  0  0  0  0  0  0  0  # atno 8009 bound_to 7997
  154.4331  140.1817  156.1118 H   0  0  0  0  0  0  0  0  0  0  0  0  # atno 8010 bound_to 7997
  140.7288  143.4341  151.0756 H   0  0  0  0  0  0  0  0  0  0  0  0  # atno 10167 bound_to 10162
  157.2260  130.7001  149.6291 H   0  0  0  0  0  0  0  0  0  0  0  0  # atno 10718 bound_to 10713
  153.4303  135.7012  153.6235 H   0  0  0  0  0  0  0  0  0  0  0  0  # atno 10763 bound_to 10752
  153.4652  135.3727  155.2361 H   0  0  0  0  0  0  0  0  0  0  0  0  # atno 10764 bound_to 10752
  154.8725  135.4029  154.3686 H   0  0  0  0  0  0  0  0  0  0  0  0  # atno 10765 bound_to 10752
  141.1649  133.6961  156.7576 H   0  0  0  0  0  0  0  0  0  0  0  0  # atno 11005 bound_to 11000
  144.6768  140.2168  143.7371 LP  0  0  0  0  0  0  0  0  0  0  0  0  # atno 17320 bound_to 7965
  145.8392  139.2122  143.1837 LP  0  0  0  0  0  0  0  0  0  0  0  0  # atno 17321 bound_to 7965
  139.8001  143.8095  152.3162 LP  0  0  0  0  0  0  0  0  0  0  0  0  # atno 17342 bound_to 10162
  139.8109  144.7336  150.9698 LP  0  0  0  0  0  0  0  0  0  0  0  0  # atno 17343 bound_to 10162
  155.9679  130.4504  150.5697 LP  0  0  0  0  0  0  0  0  0  0  0  0  # atno 17370 bound_to 10713
  157.3527  131.0736  151.1700 LP  0  0  0  0  0  0  0  0  0  0  0  0  # atno 17371 bound_to 10713
  140.2558  134.8505  157.3711 LP  0  0  0  0  0  0  0  0  0  0  0  0  # atno 17394 bound_to 11000
  140.1658  134.4670  155.7864 LP  0  0  0  0  0  0  0  0  0  0  0  0  # atno 17395 bound_to 11000

$$$$
