#       Name:                AV-unprocessed.smi:1543
#       Creating user name   scv26
#       Creation time:       Fri Mar 27 06:38:06 2020


#       File generated by GOLD software.
#

@<TRIPOS>MOLECULE
AV-unprocessed.smi:1543
    54    55     1
SMALL
NO_CHARGES


@<TRIPOS>ATOM
      1 ****        -3.7070  -1.8627  -1.9822 C.3            1 S1                 0.0000
      2 ****        -3.1145  -1.0275  -0.8420 C.3            1 S1                 0.0000
      3 ****        -2.7110   0.3822  -1.3078 C.3            1 S1                 0.0000
      4 ****        -2.1799   1.2100  -0.1867 N.4            1 S1                 1.0000
      5 ****        -0.7036   1.1652   0.1478 C.3            1 S1                 0.0000
      6 ****        -0.3069   2.5708   0.6598 C.3            1 S1                 0.0000
      7 ****        -0.3782   0.1376   1.2607 C.3            1 S1                 0.0000
      8 ****         0.1614   0.8517  -1.1140 C.3            1 S1                 0.0000
      9 ****         1.6066   0.9327  -0.8937 N.am           1 S1                 0.0000
     10 ****         2.4335  -0.1098  -0.7245 C.2            1 S1                 0.0000
     11 ****         2.0549  -1.2809  -0.7150 O.2            1 S1                 0.0000
     12 ****         3.7057   0.2989  -0.5813 N.am           1 S1                 0.0000
     13 ****         4.8716  -0.4872  -0.3744 C.ar           1 S1                 0.0000
     14 ****         4.8660  -1.8068   0.1394 C.ar           1 S1                 0.0000
     15 ****         6.0940  -2.4733   0.3144 C.ar           1 S1                 0.0000
     16 ****         7.2817  -1.7959  -0.0228 C.ar           1 S1                 0.0000
     17 ****         7.3031  -0.5343  -0.5012 N.ar           1 S1                 0.0000
     18 ****         6.1220   0.0985  -0.6660 C.ar           1 S1                 0.0000
     19 ****        -3.1442   1.2050   0.9513 C.3            1 S1                 0.0000
     20 ****        -3.6336  -0.2176   1.3223 C.3            1 S1                 0.0000
     21 ****        -4.7721  -0.1781   2.3476 C.3            1 S1                 0.0000
     22 ****        -4.1111  -0.8885   0.1629 O.3            1 S1                 0.0000
     23 ****        -2.9811  -2.0034  -2.7835 H              1 S1                 0.0000
     24 ****        -4.5882  -1.3827  -2.4088 H              1 S1                 0.0000
     25 ****        -4.0046  -2.8499  -1.6280 H              1 S1                 0.0000
     26 ****        -2.2524  -1.5609  -0.4420 H              1 S1                 0.0000
     27 ****        -2.0627   0.3476  -2.1801 H              1 S1                 0.0000
     28 ****        -3.6088   0.8860  -1.6690 H              1 S1                 0.0000
     29 ****         0.7467   2.6242   0.9355 H              1 S1                 0.0000
     30 ****        -0.8680   2.8639   1.5462 H              1 S1                 0.0000
     31 ****        -0.4829   3.3316  -0.1015 H              1 S1                 0.0000
     32 ****         0.6777   0.1589   1.5287 H              1 S1                 0.0000
     33 ****        -0.6023  -0.8822   0.9517 H              1 S1                 0.0000
     34 ****        -0.9121   0.3412   2.1880 H              1 S1                 0.0000
     35 ****        -0.0729  -0.1401  -1.5029 H              1 S1                 0.0000
     36 ****        -0.0748   1.5588  -1.9103 H              1 S1                 0.0000
     37 ****         2.0104   1.8583  -0.8871 H              1 S1                 0.0000
     38 ****         3.8690   1.2895  -0.6885 H              1 S1                 0.0000
     39 ****         3.9549  -2.3144   0.4141 H              1 S1                 0.0000
     40 ****         6.1245  -3.4803   0.7029 H              1 S1                 0.0000
     41 ****         8.2402  -2.2781   0.1002 H              1 S1                 0.0000
     42 ****         6.1783   1.1072  -1.0486 H              1 S1                 0.0000
     43 ****        -2.7456   1.7165   1.8262 H              1 S1                 0.0000
     44 ****        -4.0058   1.7955   0.6366 H              1 S1                 0.0000
     45 ****        -2.8275  -0.8103   1.7512 H              1 S1                 0.0000
     46 ****        -4.4530   0.3091   3.2692 H              1 S1                 0.0000
     47 ****        -5.1022  -1.1853   2.6023 H              1 S1                 0.0000
     48 ****        -5.6344   0.3665   1.9620 H              1 S1                 0.0000
     49 ****        -2.2609   2.1452  -0.5598 H              1 S1                 0.0000
     50 ****         1.0856  -1.4941  -0.8376 LP             1 S1                 0.0000
     51 ****         2.7166  -2.0193  -0.5846 LP             1 S1                 0.0000
     52 ****         8.1663  -0.0826  -0.7265 LP             1 S1                 0.0000
     53 ****        -4.4269  -1.7996   0.4281 LP             1 S1                 0.0000
     54 ****        -4.8762  -0.3676  -0.2155 LP             1 S1                 0.0000
@<TRIPOS>BOND
    1    1    2 1     
    2    1   23 1     
    3    1   24 1     
    4    1   25 1     
    5    2   22 1     
    6    2    3 1     
    7    2   26 1     
    8    3    4 1     
    9    3   27 1     
   10    3   28 1     
   11    4    5 1     
   12    4   19 1     
   13    4   49 1     
   14    5    6 1     
   15    5    7 1     
   16    5    8 1     
   17    6   29 1     
   18    6   30 1     
   19    6   31 1     
   20    7   32 1     
   21    7   33 1     
   22    7   34 1     
   23    8    9 1     
   24    8   35 1     
   25    8   36 1     
   26    9   10 am    
   27    9   37 1     
   28   10   11 2     
   29   10   12 am    
   30   12   13 1     
   31   12   38 1     
   32   13   18 ar    
   33   13   14 ar    
   34   14   15 ar    
   35   14   39 1     
   36   15   16 ar    
   37   15   40 1     
   38   16   17 ar    
   39   16   41 1     
   40   17   18 ar    
   41   18   42 1     
   42   19   20 1     
   43   19   43 1     
   44   19   44 1     
   45   20   21 1     
   46   20   22 1     
   47   20   45 1     
   48   21   46 1     
   49   21   47 1     
   50   21   48 1     
   51   11   50 1     
   52   11   51 1     
   53   17   52 1     
   54   22   53 1     
   55   22   54 1     
@<TRIPOS>SUBSTRUCTURE
      1 S1             1
@<TRIPOS>SET
LONE_PAIRS      STATIC     ATOMS    <user>   **** ""
5 50 51 52 53 54
DONOR_HYDROGENS      STATIC     ATOMS    <user>   **** ""
3 49 37 38
ATOM$BLUE        STATIC     ATOMS    COLORGROUP SYSTEM
5 50 51 52 53 54
ATOM$RED        STATIC     ATOMS    COLORGROUP SYSTEM
3 49 37 38
