#       Name:                AV-unprocessed.smi:2981
#       Creating user name   scv26
#       Creation time:       Fri Mar 27 16:29:33 2020


#       File generated by GOLD software.
#

@<TRIPOS>MOLECULE
AV-unprocessed.smi:2981
    36    37     1
SMALL
NO_CHARGES


@<TRIPOS>ATOM
      1 ****        -0.3449   1.1336  -0.9234 O.2            1 S1                 0.0000
      2 ****         0.3687   0.1489  -0.7267 C.2            1 S1                 0.0000
      3 ****         1.8990   0.2678  -0.7702 C.3            1 S1                 0.0000
      4 ****         2.3852   1.6111  -0.4215 N.am           1 S1                 0.0000
      5 ****         2.7456   2.3825  -1.5126 N.2            1 S1                 0.0000
      6 ****         3.1690   3.5851  -1.3269 C.2            1 S1                 0.0000
      7 ****         3.2880   4.1651  -0.0074 C.2            1 S1                 0.0000
      8 ****         3.8622   5.7846   0.1794 Cl             1 S1                 0.0000
      9 ****         2.9384   3.3982   1.0559 C.2            1 S1                 0.0000
     10 ****         3.0545   4.0219   2.6659 Cl             1 S1                 0.0000
     11 ****         2.4519   2.0224   0.8824 C.2            1 S1                 0.0000
     12 ****         2.1274   1.2934   1.8208 O.2            1 S1                 0.0000
     13 ****        -0.1214  -1.0756  -0.4820 N.am           1 S1                 0.0000
     14 ****        -1.5396  -1.4063  -0.3904 C.3            1 S1                 0.0000
     15 ****        -1.7701  -2.9204  -0.5508 C.3            1 S1                 0.0000
     16 ****        -3.1976  -3.2505  -0.0976 C.3            1 S1                 0.0000
     17 ****        -3.6093  -2.0358   1.2124 S.o2           1 S1                 0.0000
     18 ****        -4.8172  -1.2973   0.8140 O.2            1 S1                 0.0000
     19 ****        -3.5165  -2.6814   2.5306 O.2            1 S1                 0.0000
     20 ****        -2.1356  -0.9776   0.9600 C.3            1 S1                 0.0000
     21 ****         2.3454  -0.4724  -0.1031 H              1 S1                 0.0000
     22 ****         2.2294  -0.0065  -1.7738 H              1 S1                 0.0000
     23 ****         3.4607   4.2304  -2.1556 H              1 S1                 0.0000
     24 ****         0.5344  -1.8301  -0.3393 H              1 S1                 0.0000
     25 ****        -2.0852  -0.9003  -1.1893 H              1 S1                 0.0000
     26 ****        -1.5886  -3.2530  -1.5733 H              1 S1                 0.0000
     27 ****        -1.0694  -3.4599   0.0883 H              1 S1                 0.0000
     28 ****        -3.9042  -3.1127  -0.9164 H              1 S1                 0.0000
     29 ****        -3.2999  -4.2668   0.2834 H              1 S1                 0.0000
     30 ****        -1.4422  -1.1726   1.7790 H              1 S1                 0.0000
     31 ****        -2.4188   0.0749   0.9876 H              1 S1                 0.0000
     32 ****         0.0713   2.0227  -1.1139 LP             1 S1                 0.0000
     33 ****        -1.3404   1.0438  -0.8925 LP             1 S1                 0.0000
     34 ****         2.6779   2.0094  -2.4379 LP             1 S1                 0.0000
     35 ****         1.8013   0.3649   1.6431 LP             1 S1                 0.0000
     36 ****         2.1901   1.6300   2.7604 LP             1 S1                 0.0000
@<TRIPOS>BOND
    1    1    2 2     
    2    2    3 1     
    3    2   13 am    
    4    3    4 1     
    5    3   21 1     
    6    3   22 1     
    7    4   11 am    
    8    4    5 1     
    9    5    6 2     
   10    6    7 1     
   11    6   23 1     
   12    7    8 1     
   13    7    9 2     
   14    9   10 1     
   15    9   11 1     
   16   11   12 2     
   17   13   14 1     
   18   13   24 1     
   19   14   20 1     
   20   14   15 1     
   21   14   25 1     
   22   15   16 1     
   23   15   26 1     
   24   15   27 1     
   25   16   17 1     
   26   16   28 1     
   27   16   29 1     
   28   17   18 2     
   29   17   19 2     
   30   17   20 1     
   31   20   30 1     
   32   20   31 1     
   33    1   32 1     
   34    1   33 1     
   35    5   34 1     
   36   12   35 1     
   37   12   36 1     
@<TRIPOS>SUBSTRUCTURE
      1 S1             1
@<TRIPOS>SET
LONE_PAIRS      STATIC     ATOMS    <user>   **** ""
7 32 33 34 35 36 18 19
DONOR_HYDROGENS      STATIC     ATOMS    <user>   **** ""
1 24
ATOM$BLUE        STATIC     ATOMS    COLORGROUP SYSTEM
7 32 33 34 35 36 18 19
ATOM$RED        STATIC     ATOMS    COLORGROUP SYSTEM
1 24
