AV-unprocessed.smi:2021|AV-procd|sdf|8177|dock6
  -GOLD-   2272010423D 1   1.00000     0.00000
 Structure written by MMmdl.
 42 43  0  0  0  0  0  0  0  0  2 V2000
  144.6182  132.9396  149.3211 C   0  0  0  0  0  0  0  0  0  0  0  0
  144.8795  132.5244  150.7787 C   0  0  0  0  0  0  0  0  0  0  0  0
  143.7995  133.1065  151.7029 C   0  0  0  0  0  0  0  0  0  0  0  0
  146.2862  132.9461  151.2574 C   0  0  0  0  0  0  0  0  0  0  0  0
  146.5403  132.6287  152.6896 N   0  3  1  0  0  0  0  0  0  0  0  0
  146.3435  131.1968  153.0219 C   0  0  0  0  0  0  0  0  0  0  0  0
  147.5470  130.3518  152.5680 C   0  0  0  0  0  0  0  0  0  0  0  0
  148.7322  130.8642  153.1625 O   0  0  0  0  0  0  0  0  0  0  0  0
  149.0145  132.2032  152.7664 C   0  0  2  0  0  0  0  0  0  0  0  0
  150.3448  132.6403  153.4059 C   0  0  0  0  0  0  0  0  0  0  0  0
  150.5328  134.0856  153.3364 N   0  0  0  0  0  0  0  0  0  0  0  0
  151.5134  134.7680  153.9452 C   0  0  0  0  0  0  0  0  0  0  0  0
  152.3830  134.2355  154.6352 O   0  0  0  0  0  0  0  0  0  0  0  0
  151.4126  136.0859  153.6991 N   0  0  0  0  0  0  0  0  0  0  0  0
  152.2453  137.1359  154.1686 C   0  0  0  0  0  0  0  0  0  0  0  0
  153.5675  137.0087  154.3615 N   0  0  0  0  0  0  0  0  0  0  0  0
  154.1399  138.1856  154.8265 N   0  0  0  0  0  0  0  0  0  0  0  0
  153.2283  139.1525  154.9652 C   0  0  0  0  0  0  0  0  0  0  0  0
  151.5814  138.7207  154.5394 S   0  0  0  0  0  0  0  0  0  0  0  0
  147.8447  133.1057  153.2186 C   0  0  0  0  0  0  0  0  0  0  0  0
  144.6857  134.0210  149.1980 H   0  0  0  0  0  0  0  0  0  0  0  0
  143.6230  132.6315  148.9991 H   0  0  0  0  0  0  0  0  0  0  0  0
  145.3344  132.4806  148.6393 H   0  0  0  0  0  0  0  0  0  0  0  0
  144.7879  131.4405  150.8391 H   0  0  0  0  0  0  0  0  0  0  0  0
  143.8133  134.1969  151.6933 H   0  0  0  0  0  0  0  0  0  0  0  0
  143.9456  132.7805  152.7331 H   0  0  0  0  0  0  0  0  0  0  0  0
  142.8037  132.7844  151.3966 H   0  0  0  0  0  0  0  0  0  0  0  0
  147.0212  132.4277  150.6396 H   0  0  0  0  0  0  0  0  0  0  0  0
  146.4449  134.0092  151.0767 H   0  0  0  0  0  0  0  0  0  0  0  0
  146.2299  131.1081  154.1033 H   0  0  0  0  0  0  0  0  0  0  0  0
  145.4169  130.8212  152.5863 H   0  0  0  0  0  0  0  0  0  0  0  0
  147.4168  129.3163  152.8823 H   0  0  0  0  0  0  0  0  0  0  0  0
  147.6407  130.3437  151.4812 H   0  0  0  0  0  0  0  0  0  0  0  0
  149.1220  132.2460  151.6816 H   0  0  0  0  0  0  0  0  0  0  0  0
  150.3504  132.3667  154.4612 H   0  0  0  0  0  0  0  0  0  0  0  0
  151.1856  132.1152  152.9491 H   0  0  0  0  0  0  0  0  0  0  0  0
  149.8607  134.6054  152.7913 H   0  0  0  0  0  0  0  0  0  0  0  0
  150.6428  136.3752  153.1140 H   0  0  0  0  0  0  0  0  0  0  0  0
  153.5277  140.1272  155.3208 H   0  0  0  0  0  0  0  0  0  0  0  0
  148.0280  134.1419  152.9383 H   0  0  0  0  0  0  0  0  0  0  0  0
  147.7860  133.0965  154.3079 H   0  0  0  0  0  0  0  0  0  0  0  0
  145.8238  133.1284  153.1971 H   0  0  0  0  0  0  0  0  0  0  0  0
  1  2  1  0  0  0  0
  1 21  1  0  0  0  0
  1 22  1  0  0  0  0
  1 23  1  0  0  0  0
  2  3  1  0  0  0  0
  2  4  1  0  0  0  0
  2 24  1  0  0  0  0
  3 25  1  0  0  0  0
  3 26  1  0  0  0  0
  3 27  1  0  0  0  0
  4  5  1  0  0  0  0
  4 28  1  0  0  0  0
  4 29  1  0  0  0  0
  5 20  1  0  0  0  0
  5  6  1  0  0  0  0
  5 42  1  0  0  0  0
  6  7  1  0  0  0  0
  6 30  1  0  0  0  0
  6 31  1  0  0  0  0
  7  8  1  0  0  0  0
  7 32  1  0  0  0  0
  7 33  1  0  0  0  0
  8  9  1  0  0  0  0
  9 10  1  0  0  0  0
  9 20  1  0  0  0  0
  9 34  1  0  0  0  0
 10 11  1  0  0  0  0
 10 35  1  0  0  0  0
 10 36  1  0  0  0  0
 11 12  1  0  0  0  0
 11 37  1  0  0  0  0
 12 13  2  0  0  0  0
 12 14  1  0  0  0  0
 14 15  1  0  0  0  0
 14 38  1  0  0  0  0
 15 19  1  0  0  0  0
 15 16  2  0  0  0  0
 16 17  1  0  0  0  0
 17 18  2  0  0  0  0
 18 19  1  0  0  0  0
 18 39  1  0  0  0  0
 20 40  1  0  0  0  0
 20 41  1  0  0  0  0
M  CHG  1   5   1
M  END
> <s_m_source_file>
AV-unprocessed.smi

> <i_m_source_file_index>
2021

> <i_lp_mmshare_version>
43012

> <i_f3d_flags>
0

> <s_epik_input>
W0NIM11bQ0hdKFtDSDNdKVtDSDJdTjFbQ0gyXVtDSDJdT1tDQEhdKFtDSDJdMSlbQ0gyXVtOSF1DKD1PKVtOSF1jMm5uW2NIXXMy

> <s_epik_cmdline>
J2VwaWtfcHl0aG9uJywgJy1waCcsICc3LjAnLCAnLXRuJywgJzgnLCAnLW1hJywgJzIwMCcsICctbWV0YWxfYmluZGluZycsICctaW1hZScsICc8aW5maWxlLm1hZT4nLCAnLW9tYWUnLCAnPG91dGZpbGUubWFlPic=

> <r_lp_tautomer_probability>
1

> <r_epik_Ionization_Penalty>
0.102019

> <r_epik_Ionization_Penalty_Charging>
0.098413

> <r_epik_Ionization_Penalty_Neutral>
0.00360555

> <r_epik_State_Penalty>
0.0884988

> <r_epik_Charging_Adjusted_Penalty>
0.186912

> <i_epik_Tot_Q>
1

> <i_epik_Tot_abs_Q>
1

> <r_epik_Metal_State_Penalty>
0.454709

> <b_epik_Metal_Only>
0

> <s_lp_Force_Field>
OPLS_2005

> <r_lp_Energy>
19.4379

> <b_lp_Chiralities_Consistent>
1

> <s_lp_Variant>
AV-unprocessed.smi:2021-3

> <Gold.Version>
5.8.1

> <Gold.Id.Protein>
6NUR|6NUR_protein|mol2

> <Gold.PLP.Fitness>
46.2116

> <Gold.PLP.PLP>
-35.5491

> <Gold.PLP.part.hbond>
-5.0965

> <Gold.PLP.part.metal>
0.0000

> <Gold.PLP.part.buried>
-2.9254

> <Gold.PLP.part.nonpolar>
-27.5018

> <Gold.PLP.part.repulsive>
0.2498

> <Gold.PLP.ligand.clash>
0.0000

> <Gold.PLP.ligand.torsion>
0.4002

> <Gold.PLP.Chemscore.Hbond>
3.7920

> <Gold.PLP.Chemscore.CHOScore>
0.0000

> <Gold.PLP.Chemscore.Metal>
0.0000

> <Gold.Chemscore.Hbonds>
donor molecule, donor type, donor heavy atom, donor atom, acceptor molecule, acceptor atom, score
      L1  H    14    38       P1  7949  0.03

> <Gold.PLP.Chemscore.Internal.Correction>
0.0868

> <Gold.Rescore>
     Score         DG    S(hbond)    S(metal)    S(lipo)     H(rot)  DE(clash)    DE(int)     intcor
     14.79     -17.23       2.50        0.00      70.17       1.88       0.82       1.63       ----

> <Gold.Chemscore.Fitness>
14.7881

> <Gold.Chemscore.DG>
-17.2295

> <Gold.Chemscore.ZeroCoef>
-5.4800

> <Gold.Chemscore.Hbond>
2.5016

> <Gold.Chemscore.Metal>
0.0000

> <Gold.Chemscore.Lipo>
70.1726

> <Gold.Chemscore.Internal_Hbond>
0.0000

> <Gold.Chemscore.DEClash>
0.8161

> <Gold.Chemscore.DEInternal>
1.6254

> <Gold.Chemscore.Rot>
1.8812

> <Gold.Chemscore.Internal.Correction>
   9.000000E+99

> <Gold.Chemscore.Hbond.Weighted>
-8.3552

> <Gold.Chemscore.Metal.Weighted>
-0.0000

> <Gold.Chemscore.Lipo.Weighted>
-8.2102

> <Gold.Chemscore.Internal_Hbond.Weighted>
0.0000

> <Gold.Chemscore.DEClash.Weighted>
0.8161

> <Gold.Chemscore.DEInternal.Weighted>
1.6254

> <Gold.Chemscore.Rot.Weighted>
4.8159

> <Gold.Chemscore.Internal.Correction.Weighted>
   9.000000E+99

> <Gold.Protein.RotatedTorsions>
[ 6907 6896 6895 6894 ] final   94.05 input  -60.11 | X-H torsion
[ 7974 7965 7964 7962 ] final  -66.61 input  175.53 | X-H torsion
[ 8008 7997 7996 7995 ] final -166.69 input   59.86 | X-H torsion
[ 10167 10162 10161 10158 ] final   31.64 input  -65.29 | X-H torsion
[ 10718 10713 10712 10709 ] final   47.31 input   66.30 | X-H torsion
[ 10763 10752 10751 10750 ] final   83.50 input  -60.55 | X-H torsion
[ 11005 11000 10999 10996 ] final  127.04 input  -57.11 | X-H torsion

> <Gold.Protein.ActiveResidues>
 VAL166  LYS551  ARG553  GLY616  TRP617  ASP618  TYR619  PRO620  LYS621  CYS622 
 ASP623  PHE694  ASN695  SER759  ASP760  ASP761  ALA762  ILE779  LEU786  VAL792 
 PHE793  MET794  SER795  GLU796  ALA797  LYS798  CYS799  TRP800  GLU811  SER814 

> <Gold.Protein.RotatedAtoms>
  152.5451  134.1253  159.8415 H   0  0  0  0  0  0  0  0  0  0  0  0  # atno 6907 bound_to 6896
  151.1305  133.5033  159.2607 H   0  0  0  0  0  0  0  0  0  0  0  0  # atno 6908 bound_to 6896
  151.1681  135.0315  159.8794 H   0  0  0  0  0  0  0  0  0  0  0  0  # atno 6909 bound_to 6896
  145.7396  140.8959  143.0537 H   0  0  0  0  0  0  0  0  0  0  0  0  # atno 7974 bound_to 7965
  155.8674  140.0988  157.1573 H   0  0  0  0  0  0  0  0  0  0  0  0  # atno 8008 bound_to 7997
  154.3994  140.1353  156.4098 H   0  0  0  0  0  0  0  0  0  0  0  0  # atno 8009 bound_to 7997
  155.7789  140.3459  155.5289 H   0  0  0  0  0  0  0  0  0  0  0  0  # atno 8010 bound_to 7997
  140.4571  144.0963  150.6204 H   0  0  0  0  0  0  0  0  0  0  0  0  # atno 10167 bound_to 10162
  157.4572  130.8174  149.7848 H   0  0  0  0  0  0  0  0  0  0  0  0  # atno 10718 bound_to 10713
  153.1297  135.4689  154.9329 H   0  0  0  0  0  0  0  0  0  0  0  0  # atno 10763 bound_to 10752
  154.7653  135.3143  154.8301 H   0  0  0  0  0  0  0  0  0  0  0  0  # atno 10764 bound_to 10752
  153.8847  135.6891  153.4818 H   0  0  0  0  0  0  0  0  0  0  0  0  # atno 10765 bound_to 10752
  139.9487  134.9625  156.8796 H   0  0  0  0  0  0  0  0  0  0  0  0  # atno 11005 bound_to 11000
  144.6873  139.9442  143.7476 LP  0  0  0  0  0  0  0  0  0  0  0  0  # atno 17320 bound_to 7965
  146.0460  139.3466  143.0668 LP  0  0  0  0  0  0  0  0  0  0  0  0  # atno 17321 bound_to 7965
  140.4138  143.2644  151.9799 LP  0  0  0  0  0  0  0  0  0  0  0  0  # atno 17342 bound_to 10162
  139.4802  144.5891  151.7802 LP  0  0  0  0  0  0  0  0  0  0  0  0  # atno 17343 bound_to 10162
  156.0012  130.3879  150.2598 LP  0  0  0  0  0  0  0  0  0  0  0  0  # atno 17370 bound_to 10713
  157.0773  131.0133  151.3169 LP  0  0  0  0  0  0  0  0  0  0  0  0  # atno 17371 bound_to 10713
  140.5772  134.0387  155.7451 LP  0  0  0  0  0  0  0  0  0  0  0  0  # atno 17394 bound_to 11000
  141.1144  133.9564  157.2850 LP  0  0  0  0  0  0  0  0  0  0  0  0  # atno 17395 bound_to 11000

$$$$
