AV-unprocessed.smi:1973|AV-procd|sdf|7979|dock1
  -GOLD-   2272010153D 1   1.00000     0.00000
 Structure written by MMmdl.
 48 50  0  0  0  0  0  0  0  0  2 V2000
  153.2180  141.3367  159.4872 C   0  0  0  0  0  0  0  0  0  0  0  0
  151.8069  141.2079  159.4917 O   0  0  0  0  0  0  0  0  0  0  0  0
  151.3165  140.5717  158.3238 C   0  0  0  0  0  0  0  0  0  0  0  0
  151.9349  139.1690  158.2231 C   0  0  0  0  0  0  0  0  0  0  0  0
  151.5302  138.4890  156.9885 N   0  0  0  0  0  0  0  0  0  0  0  0
  151.0046  137.2225  157.1860 N   0  0  0  0  0  0  0  0  0  0  0  0
  150.6124  136.5168  156.1746 C   0  0  0  0  0  0  0  0  0  0  0  0
  150.0414  135.1512  156.3430 C   0  0  0  0  0  0  0  0  0  0  0  0
  149.8594  134.6545  157.4558 O   0  0  0  0  0  0  0  0  0  0  0  0
  149.7426  134.5051  155.2015 N   0  0  0  0  0  0  0  0  0  0  0  0
  149.1642  133.1678  155.1197 C   0  0  0  0  0  0  0  0  0  0  0  0
  147.8883  133.1390  154.2571 C   0  0  1  0  0  0  0  0  0  0  0  0
  146.9414  134.3089  154.5080 C   0  0  0  0  0  0  0  0  0  0  0  0
  146.0752  134.3069  153.2518 C   0  0  0  0  0  0  0  0  0  0  0  0
  146.9840  133.9245  152.1501 N   0  3  2  0  0  0  0  0  0  0  0  0
  146.3176  133.1991  151.0478 C   0  0  0  0  0  0  0  0  0  0  0  0
  144.9286  133.7082  150.7442 C   0  0  0  0  0  0  0  0  0  0  0  0
  145.1126  132.4042  151.4902 C   0  0  0  0  0  0  0  0  0  0  0  0
  148.1354  133.2034  152.7420 C   0  0  0  0  0  0  0  0  0  0  0  0
  150.7151  137.0352  154.8207 C   0  0  0  0  0  0  0  0  0  0  0  0
  151.2367  138.2688  154.6438 C   0  0  0  0  0  0  0  0  0  0  0  0
  151.6920  139.0860  155.7691 C   0  0  0  0  0  0  0  0  0  0  0  0
  152.1802  140.2073  155.6323 O   0  0  0  0  0  0  0  0  0  0  0  0
  153.5450  141.8230  160.4063 H   0  0  0  0  0  0  0  0  0  0  0  0
  153.5554  141.9449  158.6470 H   0  0  0  0  0  0  0  0  0  0  0  0
  153.7037  140.3616  159.4311 H   0  0  0  0  0  0  0  0  0  0  0  0
  150.2282  140.5045  158.3666 H   0  0  0  0  0  0  0  0  0  0  0  0
  151.5763  141.1609  157.4429 H   0  0  0  0  0  0  0  0  0  0  0  0
  153.0227  139.2486  158.2647 H   0  0  0  0  0  0  0  0  0  0  0  0
  151.6549  138.5742  159.0944 H   0  0  0  0  0  0  0  0  0  0  0  0
  149.9157  134.9845  154.3294 H   0  0  0  0  0  0  0  0  0  0  0  0
  149.9030  132.4684  154.7251 H   0  0  0  0  0  0  0  0  0  0  0  0
  148.9386  132.8357  156.1336 H   0  0  0  0  0  0  0  0  0  0  0  0
  147.3351  132.2221  154.4689 H   0  0  0  0  0  0  0  0  0  0  0  0
  146.3586  134.1947  155.4224 H   0  0  0  0  0  0  0  0  0  0  0  0
  147.4991  135.2442  154.5750 H   0  0  0  0  0  0  0  0  0  0  0  0
  145.2858  133.5606  153.3579 H   0  0  0  0  0  0  0  0  0  0  0  0
  145.6024  135.2715  153.0650 H   0  0  0  0  0  0  0  0  0  0  0  0
  146.9596  132.8345  150.2477 H   0  0  0  0  0  0  0  0  0  0  0  0
  144.5583  134.5628  151.3078 H   0  0  0  0  0  0  0  0  0  0  0  0
  144.5851  133.6476  149.7135 H   0  0  0  0  0  0  0  0  0  0  0  0
  144.8911  131.4859  150.9500 H   0  0  0  0  0  0  0  0  0  0  0  0
  144.8635  132.3919  152.5498 H   0  0  0  0  0  0  0  0  0  0  0  0
  149.0373  133.7734  152.5163 H   0  0  0  0  0  0  0  0  0  0  0  0
  148.2658  132.2051  152.3207 H   0  0  0  0  0  0  0  0  0  0  0  0
  150.3877  136.4540  153.9708 H   0  0  0  0  0  0  0  0  0  0  0  0
  151.3213  138.6658  153.6428 H   0  0  0  0  0  0  0  0  0  0  0  0
  147.3544  134.7826  151.7671 H   0  0  0  0  0  0  0  0  0  0  0  0
  1  2  1  0  0  0  0
  1 24  1  0  0  0  0
  1 25  1  0  0  0  0
  1 26  1  0  0  0  0
  2  3  1  0  0  0  0
  3  4  1  0  0  0  0
  3 27  1  0  0  0  0
  3 28  1  0  0  0  0
  4  5  1  0  0  0  0
  4 29  1  0  0  0  0
  4 30  1  0  0  0  0
  5 22  1  0  0  0  0
  5  6  1  0  0  0  0
  6  7  2  0  0  0  0
  7  8  1  0  0  0  0
  7 20  1  0  0  0  0
  8  9  2  0  0  0  0
  8 10  1  0  0  0  0
 10 11  1  0  0  0  0
 10 31  1  0  0  0  0
 11 12  1  0  0  0  0
 11 32  1  0  0  0  0
 11 33  1  0  0  0  0
 12 19  1  0  0  0  0
 12 13  1  0  0  0  0
 12 34  1  0  0  0  0
 13 14  1  0  0  0  0
 13 35  1  0  0  0  0
 13 36  1  0  0  0  0
 14 15  1  0  0  0  0
 14 37  1  0  0  0  0
 14 38  1  0  0  0  0
 15 16  1  0  0  0  0
 15 19  1  0  0  0  0
 15 48  1  0  0  0  0
 16 18  1  0  0  0  0
 16 17  1  0  0  0  0
 16 39  1  0  0  0  0
 17 18  1  0  0  0  0
 17 40  1  0  0  0  0
 17 41  1  0  0  0  0
 18 42  1  0  0  0  0
 18 43  1  0  0  0  0
 19 44  1  0  0  0  0
 19 45  1  0  0  0  0
 20 21  2  0  0  0  0
 20 46  1  0  0  0  0
 21 22  1  0  0  0  0
 21 47  1  0  0  0  0
 22 23  2  0  0  0  0
M  CHG  1  15   1
M  END
> <s_m_source_file>
AV-unprocessed.smi

> <i_m_source_file_index>
1973

> <i_lp_mmshare_version>
43012

> <i_f3d_flags>
0

> <s_epik_input>
W0NIM11PW0NIMl1bQ0gyXW4xbmMoW2NIXVtjSF1jMT1PKUMoPU8pW05IXVtDSDJdW0NAQEhdMltDSDJdW0NIMl1OKFtDSDJdMilbQ0hdM1tDSDJdW0NIMl0z

> <s_epik_cmdline>
J2VwaWtfcHl0aG9uJywgJy1waCcsICc3LjAnLCAnLXRuJywgJzgnLCAnLW1hJywgJzIwMCcsICctbWV0YWxfYmluZGluZycsICctaW1hZScsICc8aW5maWxlLm1hZT4nLCAnLW9tYWUnLCAnPG91dGZpbGUubWFlPic=

> <r_lp_tautomer_probability>
1

> <r_epik_Ionization_Penalty>
0.000225706

> <r_epik_Ionization_Penalty_Charging>
0.000223776

> <r_epik_Ionization_Penalty_Neutral>
1.93004e-06

> <r_epik_State_Penalty>
-0

> <r_epik_Charging_Adjusted_Penalty>
0.000223776

> <i_epik_Tot_Q>
1

> <i_epik_Tot_abs_Q>
1

> <r_epik_Metal_State_Penalty>
-0

> <b_epik_Metal_Only>
0

> <s_lp_Force_Field>
OPLS_2005

> <r_lp_Energy>
57.1885

> <b_lp_Chiralities_Consistent>
1

> <s_lp_Variant>
AV-unprocessed.smi:1973-4

> <Gold.Version>
5.8.1

> <Gold.Id.Protein>
6NUR|6NUR_protein|mol2

> <Gold.PLP.Fitness>
45.8147

> <Gold.PLP.PLP>
-35.0641

> <Gold.PLP.part.hbond>
-3.2393

> <Gold.PLP.part.metal>
0.0000

> <Gold.PLP.part.buried>
-4.4709

> <Gold.PLP.part.nonpolar>
-28.5057

> <Gold.PLP.part.repulsive>
0.0854

> <Gold.PLP.ligand.clash>
0.4658

> <Gold.PLP.ligand.torsion>
0.8513

> <Gold.PLP.Chemscore.Hbond>
3.7992

> <Gold.PLP.Chemscore.CHOScore>
0.0000

> <Gold.PLP.Chemscore.Metal>
0.0000

> <Gold.Chemscore.Hbonds>
donor molecule, donor type, donor heavy atom, donor atom, acceptor molecule, acceptor atom, score
      L1  H    15    48       P1  7948  1.45
      P1  H  6896  6909       L1     9  0.65
      P1  H  7989  7998       L1    23  0.25
      P1  H  7997  8008       L1    23  0.46

> <Gold.PLP.Chemscore.Internal.Correction>
1.5214

> <Gold.Rescore>
     Score         DG    S(hbond)    S(metal)    S(lipo)     H(rot)  DE(clash)    DE(int)     intcor
     16.08     -18.22       2.74        0.00      73.80       1.97       0.06       2.09       ----

> <Gold.Chemscore.Fitness>
16.0773

> <Gold.Chemscore.DG>
-18.2226

> <Gold.Chemscore.ZeroCoef>
-5.4800

> <Gold.Chemscore.Hbond>
2.7408

> <Gold.Chemscore.Metal>
0.0000

> <Gold.Chemscore.Lipo>
73.7989

> <Gold.Chemscore.Internal_Hbond>
0.0000

> <Gold.Chemscore.DEClash>
0.0564

> <Gold.Chemscore.DEInternal>
2.0889

> <Gold.Chemscore.Rot>
1.9711

> <Gold.Chemscore.Internal.Correction>
   9.000000E+99

> <Gold.Chemscore.Hbonds>
donor molecule, donor type, donor heavy atom, donor atom, acceptor molecule, acceptor atom, score
      L1  H    15    48       P1  7948  0.49
      P1  H  6896  6909       L1     9  0.65
      P1  H  7989  7998       L1    23  0.15
      P1  H  7997  8008       L1    23  0.31

> <Gold.Chemscore.Hbond.Weighted>
-9.1541

> <Gold.Chemscore.Metal.Weighted>
-0.0000

> <Gold.Chemscore.Lipo.Weighted>
-8.6345

> <Gold.Chemscore.Internal_Hbond.Weighted>
0.0000

> <Gold.Chemscore.DEClash.Weighted>
0.0564

> <Gold.Chemscore.DEInternal.Weighted>
2.0889

> <Gold.Chemscore.Rot.Weighted>
5.0460

> <Gold.Chemscore.Internal.Correction.Weighted>
   9.000000E+99

> <Gold.Protein.RotatedTorsions>
[ 6907 6896 6895 6894 ] final   13.96 input  -60.11 | X-H torsion
[ 7974 7965 7964 7962 ] final    9.03 input  175.53 | X-H torsion
[ 8008 7997 7996 7995 ] final  -40.44 input   59.86 | X-H torsion
[ 10167 10162 10161 10158 ] final  -63.18 input  -65.29 | X-H torsion
[ 10718 10713 10712 10709 ] final  -38.86 input   66.30 | X-H torsion
[ 10763 10752 10751 10750 ] final   51.25 input  -60.55 | X-H torsion
[ 11005 11000 10999 10996 ] final  153.48 input  -57.11 | X-H torsion

> <Gold.Protein.ActiveResidues>
 VAL166  LYS551  ARG553  GLY616  TRP617  ASP618  TYR619  PRO620  LYS621  CYS622 
 ASP623  PHE694  ASN695  SER759  ASP760  ASP761  ALA762  ILE779  LEU786  VAL792 
 PHE793  MET794  SER795  GLU796  ALA797  LYS798  CYS799  TRP800  GLU811  SER814 

> <Gold.Protein.RotatedAtoms>
  151.7946  135.0726  160.0391 H   0  0  0  0  0  0  0  0  0  0  0  0  # atno 6907 bound_to 6896
  152.3132  133.5771  159.5703 H   0  0  0  0  0  0  0  0  0  0  0  0  # atno 6908 bound_to 6896
  150.7331  134.0037  159.3688 H   0  0  0  0  0  0  0  0  0  0  0  0  # atno 6909 bound_to 6896
  146.2409  139.9844  142.8432 H   0  0  0  0  0  0  0  0  0  0  0  0  # atno 7974 bound_to 7965
  154.4012  140.1525  156.3027 H   0  0  0  0  0  0  0  0  0  0  0  0  # atno 8008 bound_to 7997
  155.8686  140.3450  155.5784 H   0  0  0  0  0  0  0  0  0  0  0  0  # atno 8009 bound_to 7997
  155.7799  140.0842  157.2055 H   0  0  0  0  0  0  0  0  0  0  0  0  # atno 8010 bound_to 7997
  140.5888  143.2338  151.6184 H   0  0  0  0  0  0  0  0  0  0  0  0  # atno 10167 bound_to 10162
  156.2990  130.4237  149.8162 H   0  0  0  0  0  0  0  0  0  0  0  0  # atno 10718 bound_to 10713
  152.9785  135.5852  154.4384 H   0  0  0  0  0  0  0  0  0  0  0  0  # atno 10763 bound_to 10752
  154.3989  135.2768  155.2111 H   0  0  0  0  0  0  0  0  0  0  0  0  # atno 10764 bound_to 10752
  154.3951  135.6116  153.5919 H   0  0  0  0  0  0  0  0  0  0  0  0  # atno 10765 bound_to 10752
  140.1402  134.8744  157.2320 H   0  0  0  0  0  0  0  0  0  0  0  0  # atno 11005 bound_to 11000
  145.1562  140.9649  143.4404 LP  0  0  0  0  0  0  0  0  0  0  0  0  # atno 17320 bound_to 7965
  145.0159  139.3468  143.6097 LP  0  0  0  0  0  0  0  0  0  0  0  0  # atno 17321 bound_to 7965
  139.5214  144.3192  152.0925 LP  0  0  0  0  0  0  0  0  0  0  0  0  # atno 17342 bound_to 10162
  140.2354  144.4325  150.6282 LP  0  0  0  0  0  0  0  0  0  0  0  0  # atno 17343 bound_to 10162
  156.5548  130.8357  151.3310 LP  0  0  0  0  0  0  0  0  0  0  0  0  # atno 17370 bound_to 10713
  157.7363  130.9776  150.2128 LP  0  0  0  0  0  0  0  0  0  0  0  0  # atno 17371 bound_to 10713
  140.2732  134.3436  155.7367 LP  0  0  0  0  0  0  0  0  0  0  0  0  # atno 17394 bound_to 11000
  141.2184  133.7435  156.9254 LP  0  0  0  0  0  0  0  0  0  0  0  0  # atno 17395 bound_to 11000

$$$$
