AV-unprocessed.smi:1602|AV-procd|sdf|6441|dock6
  -GOLD-   22720 7 93D 1   1.00000     0.00000
 Structure written by MMmdl.
 35 36  0  0  0  0  0  0  0  0  2 V2000
  153.2479  142.5740  161.7001 C   0  0  0  0  0  0  0  0  0  0  0  0
  153.7186  141.9189  160.3921 C   0  0  2  0  0  0  0  0  0  0  0  0
  152.7561  142.1820  159.1996 C   0  0  0  0  0  0  0  0  0  0  0  0
  152.1192  143.4978  159.1838 N   0  0  0  0  0  0  0  0  0  0  0  0
  152.7110  144.7449  159.1139 C   0  0  0  0  0  0  0  0  0  0  0  0
  151.7114  145.6752  159.1055 C   0  0  0  0  0  0  0  0  0  0  0  0
  150.5236  144.8943  159.1560 C   0  0  0  0  0  0  0  0  0  0  0  0
  150.7683  143.5953  159.1890 N   0  0  0  0  0  0  0  0  0  0  0  0
  153.8824  140.4897  160.6178 N   0  5  0  0  0  0  0  0  0  0  0  0
  155.3078  139.7748  160.3223 S   0  0  0  0  0  0  0  0  0  0  0  0
  155.3203  138.9176  159.1255 O   0  0  0  0  0  0  0  0  0  0  0  0
  156.4479  140.6834  160.5262 O   0  0  0  0  0  0  0  0  0  0  0  0
  155.2915  138.6875  161.6764 N   0  0  0  0  0  0  0  0  0  0  0  0
  154.2731  137.6237  161.6597 C   0  0  0  0  0  0  0  0  0  0  0  0
  154.5112  136.6052  162.7864 C   0  0  0  0  0  0  0  0  0  0  0  0
  154.5867  137.2662  164.0396 O   0  0  0  0  0  0  0  0  0  0  0  0
  155.6810  138.1686  164.0790 C   0  0  0  0  0  0  0  0  0  0  0  0
  155.5002  139.2669  163.0197 C   0  0  0  0  0  0  0  0  0  0  0  0
  153.0896  143.6440  161.5647 H   0  0  0  0  0  0  0  0  0  0  0  0
  153.9909  142.4507  162.4889 H   0  0  0  0  0  0  0  0  0  0  0  0
  152.3137  142.1411  162.0592 H   0  0  0  0  0  0  0  0  0  0  0  0
  154.6751  142.3786  160.1402 H   0  0  0  0  0  0  0  0  0  0  0  0
  153.3109  142.0768  158.2667 H   0  0  0  0  0  0  0  0  0  0  0  0
  151.9786  141.4184  159.1605 H   0  0  0  0  0  0  0  0  0  0  0  0
  153.7840  144.8630  159.0834 H   0  0  0  0  0  0  0  0  0  0  0  0
  151.8131  146.7491  159.0660 H   0  0  0  0  0  0  0  0  0  0  0  0
  149.4970  145.2295  159.1638 H   0  0  0  0  0  0  0  0  0  0  0  0
  153.2878  138.0793  161.7652 H   0  0  0  0  0  0  0  0  0  0  0  0
  154.2881  137.1110  160.6981 H   0  0  0  0  0  0  0  0  0  0  0  0
  153.6930  135.8857  162.8167 H   0  0  0  0  0  0  0  0  0  0  0  0
  155.4248  136.0363  162.6064 H   0  0  0  0  0  0  0  0  0  0  0  0
  155.7347  138.6148  165.0721 H   0  0  0  0  0  0  0  0  0  0  0  0
  156.6183  137.6318  163.9234 H   0  0  0  0  0  0  0  0  0  0  0  0
  156.3731  139.9184  163.0248 H   0  0  0  0  0  0  0  0  0  0  0  0
  154.6410  139.8894  163.2714 H   0  0  0  0  0  0  0  0  0  0  0  0
  1  2  1  0  0  0  0
  1 19  1  0  0  0  0
  1 20  1  0  0  0  0
  1 21  1  0  0  0  0
  2  3  1  0  0  0  0
  2  9  1  0  0  0  0
  2 22  1  0  0  0  0
  3  4  1  0  0  0  0
  3 23  1  0  0  0  0
  3 24  1  0  0  0  0
  4  8  1  0  0  0  0
  4  5  1  0  0  0  0
  5  6  2  0  0  0  0
  5 25  1  0  0  0  0
  6  7  1  0  0  0  0
  6 26  1  0  0  0  0
  7  8  2  0  0  0  0
  7 27  1  0  0  0  0
  9 10  1  0  0  0  0
 10 11  2  0  0  0  0
 10 12  2  0  0  0  0
 10 13  1  0  0  0  0
 13 18  1  0  0  0  0
 13 14  1  0  0  0  0
 14 15  1  0  0  0  0
 14 28  1  0  0  0  0
 14 29  1  0  0  0  0
 15 16  1  0  0  0  0
 15 30  1  0  0  0  0
 15 31  1  0  0  0  0
 16 17  1  0  0  0  0
 17 18  1  0  0  0  0
 17 32  1  0  0  0  0
 17 33  1  0  0  0  0
 18 34  1  0  0  0  0
 18 35  1  0  0  0  0
M  CHG  1   9  -1
M  END
> <s_m_source_file>
AV-unprocessed.smi

> <i_m_source_file_index>
1602

> <i_lp_mmshare_version>
43012

> <i_f3d_flags>
0

> <s_epik_input>
bjFbY0hdW2NIXVtjSF1uMVtDSDJdW0NAQEhdKFtDSDNdKVtOSF1TKD1PKSg9TylOMltDSDJdW0NIMl1PW0NIMl1bQ0gyXTI=

> <s_epik_cmdline>
J2VwaWtfcHl0aG9uJywgJy1waCcsICc3LjAnLCAnLXRuJywgJzgnLCAnLW1hJywgJzIwMCcsICctbWV0YWxfYmluZGluZycsICctaW1hZScsICc8aW5maWxlLm1hZT4nLCAnLW9tYWUnLCAnPG91dGZpbGUubWFlPic=

> <r_lp_tautomer_probability>
1

> <r_epik_Ionization_Penalty>
1.03144

> <r_epik_Ionization_Penalty_Charging>
1.03142

> <r_epik_Ionization_Penalty_Neutral>
2.21579e-05

> <r_epik_State_Penalty>
1.0826

> <r_epik_Charging_Adjusted_Penalty>
2.11402

> <i_epik_Tot_Q>
-1

> <i_epik_Tot_abs_Q>
1

> <r_epik_Metal_State_Penalty>
0.386234

> <b_epik_Metal_Only>
0

> <s_lp_Force_Field>
OPLS_2005

> <r_lp_Energy>
6.71123

> <b_lp_Chiralities_Consistent>
1

> <s_lp_Variant>
AV-unprocessed.smi:1602-3

> <Gold.Version>
5.8.1

> <Gold.Id.Protein>
6NUR|6NUR_protein|mol2

> <Gold.PLP.Fitness>
43.5045

> <Gold.PLP.PLP>
-38.2429

> <Gold.PLP.part.hbond>
-1.9787

> <Gold.PLP.part.metal>
0.0000

> <Gold.PLP.part.buried>
-4.7928

> <Gold.PLP.part.nonpolar>
-31.2595

> <Gold.PLP.part.repulsive>
0.1395

> <Gold.PLP.ligand.clash>
0.0000

> <Gold.PLP.ligand.torsion>
1.1506

> <Gold.PLP.Chemscore.Hbond>
1.0000

> <Gold.PLP.Chemscore.CHOScore>
1.0000

> <Gold.PLP.Chemscore.Metal>
0.0000

> <Gold.Chemscore.Hbonds>
donor molecule, donor type, donor heavy atom, donor atom, acceptor molecule, acceptor atom, score
      P1  H  7997  8008       L1    11  0.89
      L1  C     7    27       P1  8029  0.90

> <Gold.PLP.Chemscore.Internal.Correction>
1.5629

> <Gold.Rescore>
     Score         DG    S(hbond)    S(metal)    S(lipo)     H(rot)  DE(clash)    DE(int)     intcor
     13.25     -15.03       0.98        0.00      90.23       1.67       0.70       1.07       ----

> <Gold.Chemscore.Fitness>
13.2506

> <Gold.Chemscore.DG>
-15.0293

> <Gold.Chemscore.ZeroCoef>
-5.4800

> <Gold.Chemscore.Hbond>
0.9774

> <Gold.Chemscore.Metal>
0.0000

> <Gold.Chemscore.Lipo>
90.2299

> <Gold.Chemscore.Internal_Hbond>
0.0000

> <Gold.Chemscore.DEClash>
0.7046

> <Gold.Chemscore.DEInternal>
1.0741

> <Gold.Chemscore.Rot>
1.6688

> <Gold.Chemscore.Internal.Correction>
   9.000000E+99

> <Gold.Chemscore.Hbonds>
donor molecule, donor type, donor heavy atom, donor atom, acceptor molecule, acceptor atom, score
      P1  H  7997  8008       L1    11  0.73

> <Gold.Chemscore.Hbond.Weighted>
-3.2646

> <Gold.Chemscore.Metal.Weighted>
-0.0000

> <Gold.Chemscore.Lipo.Weighted>
-10.5569

> <Gold.Chemscore.Internal_Hbond.Weighted>
0.0000

> <Gold.Chemscore.DEClash.Weighted>
0.7046

> <Gold.Chemscore.DEInternal.Weighted>
1.0741

> <Gold.Chemscore.Rot.Weighted>
4.2722

> <Gold.Chemscore.Internal.Correction.Weighted>
   9.000000E+99

> <Gold.Protein.RotatedTorsions>
[ 6907 6896 6895 6894 ] final  152.80 input  -60.11 | X-H torsion
[ 7974 7965 7964 7962 ] final -153.12 input  175.53 | X-H torsion
[ 8008 7997 7996 7995 ] final -130.66 input   59.86 | X-H torsion
[ 10167 10162 10161 10158 ] final  130.88 input  -65.29 | X-H torsion
[ 10718 10713 10712 10709 ] final   59.79 input   66.30 | X-H torsion
[ 10763 10752 10751 10750 ] final   14.76 input  -60.55 | X-H torsion
[ 11005 11000 10999 10996 ] final -100.11 input  -57.11 | X-H torsion

> <Gold.Protein.ActiveResidues>
 VAL166  LYS551  ARG553  GLY616  TRP617  ASP618  TYR619  PRO620  LYS621  CYS622 
 ASP623  PHE694  ASN695  SER759  ASP760  ASP761  ALA762  ILE779  LEU786  VAL792 
 PHE793  MET794  SER795  GLU796  ALA797  LYS798  CYS799  TRP800  GLU811  SER814 

> <Gold.Protein.RotatedAtoms>
  152.0816  133.4155  159.4503 H   0  0  0  0  0  0  0  0  0  0  0  0  # atno 6907 bound_to 6896
  150.6862  134.2976  159.4702 H   0  0  0  0  0  0  0  0  0  0  0  0  # atno 6908 bound_to 6896
  152.0818  134.9466  160.0624 H   0  0  0  0  0  0  0  0  0  0  0  0  # atno 6909 bound_to 6896
  144.7757  140.4569  143.5875 H   0  0  0  0  0  0  0  0  0  0  0  0  # atno 7974 bound_to 7965
  155.2994  140.0452  157.3028 H   0  0  0  0  0  0  0  0  0  0  0  0  # atno 8008 bound_to 7997
  154.5495  140.2313  155.8475 H   0  0  0  0  0  0  0  0  0  0  0  0  # atno 8009 bound_to 7997
  156.1954  140.3040  155.9423 H   0  0  0  0  0  0  0  0  0  0  0  0  # atno 8010 bound_to 7997
  139.5409  144.6730  151.4627 H   0  0  0  0  0  0  0  0  0  0  0  0  # atno 10167 bound_to 10162
  157.5703  130.8902  149.9256 H   0  0  0  0  0  0  0  0  0  0  0  0  # atno 10718 bound_to 10713
  153.1591  135.6792  153.8769 H   0  0  0  0  0  0  0  0  0  0  0  0  # atno 10763 bound_to 10752
  153.8171  135.3135  155.3408 H   0  0  0  0  0  0  0  0  0  0  0  0  # atno 10764 bound_to 10752
  154.7919  135.4830  154.0161 H   0  0  0  0  0  0  0  0  0  0  0  0  # atno 10765 bound_to 10752
  141.1283  133.8373  157.1060 H   0  0  0  0  0  0  0  0  0  0  0  0  # atno 11005 bound_to 11000
  145.6192  139.1522  143.3032 LP  0  0  0  0  0  0  0  0  0  0  0  0  # atno 17320 bound_to 7965
  146.1935  140.6304  142.9135 LP  0  0  0  0  0  0  0  0  0  0  0  0  # atno 17321 bound_to 7965
  140.6639  143.8440  150.6919 LP  0  0  0  0  0  0  0  0  0  0  0  0  # atno 17342 bound_to 10162
  140.1843  143.4088  152.1910 LP  0  0  0  0  0  0  0  0  0  0  0  0  # atno 17343 bound_to 10162
  156.0749  130.3680  150.0698 LP  0  0  0  0  0  0  0  0  0  0  0  0  # atno 17370 bound_to 10713
  156.8852  130.9570  151.3595 LP  0  0  0  0  0  0  0  0  0  0  0  0  # atno 17371 bound_to 10713
  140.0304  134.9904  157.0769 LP  0  0  0  0  0  0  0  0  0  0  0  0  # atno 17394 bound_to 11000
  140.4294  134.1797  155.7167 LP  0  0  0  0  0  0  0  0  0  0  0  0  # atno 17395 bound_to 11000

$$$$
