AV-unprocessed.smi:3293|AV-procd|sdf|12630|dock5
  -GOLD-   2272018563D 1   1.00000     0.00000
 Structure written by MMmdl.
 44 45  0  0  0  0  0  0  0  0  2 V2000
  147.6252  141.3126  153.4315 C   0  0  0  0  0  0  0  0  0  0  0  0
  148.7499  140.6888  154.2414 C   0  0  0  0  0  0  0  0  0  0  0  0
  149.5183  141.4675  155.0270 C   0  0  0  0  0  0  0  0  0  0  0  0
  150.7078  140.9721  155.8166 C   0  0  0  0  0  0  0  0  0  0  0  0
  151.2328  139.6519  155.2482 C   0  0  0  0  0  0  0  0  0  0  0  0
  150.0972  138.6344  155.0511 C   0  0  2  0  0  0  0  0  0  0  0  0
  150.6889  137.2956  154.5688 C   0  0  0  0  0  0  0  0  0  0  0  0
  148.9782  139.1691  154.1042 C   0  0  1  0  0  0  0  0  0  0  0  0
  147.6774  138.3456  154.2993 C   0  0  0  0  0  0  0  0  0  0  0  0
  147.1311  137.8213  153.0305 N   0  3  0  0  0  0  0  0  0  0  0  0
  146.0877  136.7927  153.2032 C   0  0  0  0  0  0  0  0  0  0  0  0
  145.4266  136.4474  151.8626 C   0  0  0  0  0  0  0  0  0  0  0  0
  145.3192  134.9609  151.6697 C   0  0  0  0  0  0  0  0  0  0  0  0
  146.3391  133.9815  151.8397 C   0  0  0  0  0  0  0  0  0  0  0  0
  145.9202  132.7531  151.5845 N   0  0  0  0  0  0  0  0  0  0  0  0
  144.6230  132.9030  151.2472 N   0  0  0  0  0  0  0  0  0  0  0  0
  143.8368  131.7383  150.9010 C   0  0  0  0  0  0  0  0  0  0  0  0
  144.2323  134.2241  151.2901 C   0  0  0  0  0  0  0  0  0  0  0  0
  147.6971  141.0158  152.3848 H   0  0  0  0  0  0  0  0  0  0  0  0
  147.6681  142.4018  153.4679 H   0  0  0  0  0  0  0  0  0  0  0  0
  146.6521  141.0140  153.8211 H   0  0  0  0  0  0  0  0  0  0  0  0
  149.3078  142.5240  155.1102 H   0  0  0  0  0  0  0  0  0  0  0  0
  151.4958  141.7252  155.7871 H   0  0  0  0  0  0  0  0  0  0  0  0
  150.4123  140.8568  156.8600 H   0  0  0  0  0  0  0  0  0  0  0  0
  151.7263  139.8374  154.2930 H   0  0  0  0  0  0  0  0  0  0  0  0
  151.9957  139.2497  155.9160 H   0  0  0  0  0  0  0  0  0  0  0  0
  149.6545  138.4643  156.0340 H   0  0  0  0  0  0  0  0  0  0  0  0
  151.1390  137.3957  153.5807 H   0  0  0  0  0  0  0  0  0  0  0  0
  149.9429  136.5046  154.5134 H   0  0  0  0  0  0  0  0  0  0  0  0
  151.4670  136.9470  155.2486 H   0  0  0  0  0  0  0  0  0  0  0  0
  149.3260  139.0207  153.0805 H   0  0  0  0  0  0  0  0  0  0  0  0
  147.8509  137.4875  154.9468 H   0  0  0  0  0  0  0  0  0  0  0  0
  146.9244  138.9572  154.7986 H   0  0  0  0  0  0  0  0  0  0  0  0
  146.7374  138.5931  152.5109 H   0  0  0  0  0  0  0  0  0  0  0  0
  146.5344  135.8986  153.6405 H   0  0  0  0  0  0  0  0  0  0  0  0
  145.3380  137.1577  153.9067 H   0  0  0  0  0  0  0  0  0  0  0  0
  144.4392  136.9086  151.8176 H   0  0  0  0  0  0  0  0  0  0  0  0
  146.0007  136.8958  151.0508 H   0  0  0  0  0  0  0  0  0  0  0  0
  147.3673  134.1266  152.1374 H   0  0  0  0  0  0  0  0  0  0  0  0
  142.8258  132.0377  150.6234 H   0  0  0  0  0  0  0  0  0  0  0  0
  143.7843  131.0617  151.7545 H   0  0  0  0  0  0  0  0  0  0  0  0
  144.2957  131.2189  150.0594 H   0  0  0  0  0  0  0  0  0  0  0  0
  143.2240  134.5278  151.0489 H   0  0  0  0  0  0  0  0  0  0  0  0
  147.8894  137.4243  152.4940 H   0  0  0  0  0  0  0  0  0  0  0  0
  1  2  1  0  0  0  0
  1 19  1  0  0  0  0
  1 20  1  0  0  0  0
  1 21  1  0  0  0  0
  2  8  1  0  0  0  0
  2  3  2  0  0  0  0
  3  4  1  0  0  0  0
  3 22  1  0  0  0  0
  4  5  1  0  0  0  0
  4 23  1  0  0  0  0
  4 24  1  0  0  0  0
  5  6  1  0  0  0  0
  5 25  1  0  0  0  0
  5 26  1  0  0  0  0
  6  7  1  0  0  0  0
  6  8  1  0  0  0  0
  6 27  1  0  0  0  0
  7 28  1  0  0  0  0
  7 29  1  0  0  0  0
  7 30  1  0  0  0  0
  8  9  1  0  0  0  0
  8 31  1  0  0  0  0
  9 10  1  0  0  0  0
  9 32  1  0  0  0  0
  9 33  1  0  0  0  0
 10 11  1  0  0  0  0
 10 34  1  0  0  0  0
 10 44  1  0  0  0  0
 11 12  1  0  0  0  0
 11 35  1  0  0  0  0
 11 36  1  0  0  0  0
 12 13  1  0  0  0  0
 12 37  1  0  0  0  0
 12 38  1  0  0  0  0
 13 18  2  0  0  0  0
 13 14  1  0  0  0  0
 14 15  2  0  0  0  0
 14 39  1  0  0  0  0
 15 16  1  0  0  0  0
 16 17  1  0  0  0  0
 16 18  1  0  0  0  0
 17 40  1  0  0  0  0
 17 41  1  0  0  0  0
 17 42  1  0  0  0  0
 18 43  1  0  0  0  0
M  CHG  1  10   1
M  END
> <s_m_source_file>
AV-unprocessed.smi

> <i_m_source_file_index>
3293

> <i_lp_mmshare_version>
43012

> <i_f3d_flags>
0

> <s_epik_input>
W0NIM11DMT1bQ0hdW0NIMl1bQ0gyXVtDQEBIXShbQ0gzXSlbQ0BIXTFbQ0gyXVtOSF1bQ0gyXVtDSDJdYzJbY0hdbm4oW0NIM10pW2NIXTI=

> <s_epik_cmdline>
J2VwaWtfcHl0aG9uJywgJy1waCcsICc3LjAnLCAnLXRuJywgJzgnLCAnLW1hJywgJzIwMCcsICctbWV0YWxfYmluZGluZycsICctaW1hZScsICc8aW5maWxlLm1hZT4nLCAnLW9tYWUnLCAnPG91dGZpbGUubWFlPic=

> <r_lp_tautomer_probability>
1

> <r_epik_Ionization_Penalty>
0.000598621

> <r_epik_Ionization_Penalty_Charging>
0.000582095

> <r_epik_Ionization_Penalty_Neutral>
1.65262e-05

> <r_epik_State_Penalty>
-0

> <r_epik_Charging_Adjusted_Penalty>
0.000582095

> <i_epik_Tot_Q>
1

> <i_epik_Tot_abs_Q>
1

> <r_epik_Metal_State_Penalty>
-0

> <b_epik_Metal_Only>
0

> <s_lp_Force_Field>
OPLS_2005

> <r_lp_Energy>
11.6167

> <b_lp_Chiralities_Consistent>
1

> <s_lp_Variant>
AV-unprocessed.smi:3293-2

> <Gold.Version>
5.8.1

> <Gold.Id.Protein>
6NUR|6NUR_protein|mol2

> <Gold.PLP.Fitness>
46.3940

> <Gold.PLP.PLP>
-36.7481

> <Gold.PLP.part.hbond>
-1.0000

> <Gold.PLP.part.metal>
0.0000

> <Gold.PLP.part.buried>
-2.7044

> <Gold.PLP.part.nonpolar>
-34.0410

> <Gold.PLP.part.repulsive>
0.1754

> <Gold.PLP.ligand.clash>
0.0000

> <Gold.PLP.ligand.torsion>
1.1862

> <Gold.PLP.Chemscore.Hbond>
2.0000

> <Gold.PLP.Chemscore.CHOScore>
1.9770

> <Gold.PLP.Chemscore.Metal>
0.0000

> <Gold.Chemscore.Hbonds>
donor molecule, donor type, donor heavy atom, donor atom, acceptor molecule, acceptor atom, score
      L1  H    10    44       P1  7948  2.00
      L1  C    14    39       P1  7948  0.83
      L1  C    18    43       P1 10186  0.66

> <Gold.PLP.Chemscore.Internal.Correction>
0.0873

> <Gold.Rescore>
     Score         DG    S(hbond)    S(metal)    S(lipo)     H(rot)  DE(clash)    DE(int)     intcor
     14.74     -15.83       0.99        0.00      92.81       1.48       0.06       1.03       ----

> <Gold.Chemscore.Fitness>
14.7377

> <Gold.Chemscore.DG>
-15.8279

> <Gold.Chemscore.ZeroCoef>
-5.4800

> <Gold.Chemscore.Hbond>
0.9850

> <Gold.Chemscore.Metal>
0.0000

> <Gold.Chemscore.Lipo>
92.8093

> <Gold.Chemscore.Internal_Hbond>
0.0000

> <Gold.Chemscore.DEClash>
0.0649

> <Gold.Chemscore.DEInternal>
1.0253

> <Gold.Chemscore.Rot>
1.4847

> <Gold.Chemscore.Internal.Correction>
   9.000000E+99

> <Gold.Chemscore.Hbonds>
donor molecule, donor type, donor heavy atom, donor atom, acceptor molecule, acceptor atom, score
      L1  H    10    44       P1  7948  1.00

> <Gold.Chemscore.Hbond.Weighted>
-3.2901

> <Gold.Chemscore.Metal.Weighted>
-0.0000

> <Gold.Chemscore.Lipo.Weighted>
-10.8587

> <Gold.Chemscore.Internal_Hbond.Weighted>
0.0000

> <Gold.Chemscore.DEClash.Weighted>
0.0649

> <Gold.Chemscore.DEInternal.Weighted>
1.0253

> <Gold.Chemscore.Rot.Weighted>
3.8008

> <Gold.Chemscore.Internal.Correction.Weighted>
   9.000000E+99

> <Gold.Protein.RotatedTorsions>
[ 6907 6896 6895 6894 ] final   -5.84 input  -60.11 | X-H torsion
[ 7974 7965 7964 7962 ] final  132.64 input  175.53 | X-H torsion
[ 8008 7997 7996 7995 ] final   42.27 input   59.86 | X-H torsion
[ 10167 10162 10161 10158 ] final -168.72 input  -65.29 | X-H torsion
[ 10718 10713 10712 10709 ] final   77.28 input   66.30 | X-H torsion
[ 10763 10752 10751 10750 ] final  117.51 input  -60.55 | X-H torsion
[ 11005 11000 10999 10996 ] final  -81.71 input  -57.11 | X-H torsion

> <Gold.Protein.ActiveResidues>
 VAL166  LYS551  ARG553  GLY616  TRP617  ASP618  TYR619  PRO620  LYS621  CYS622 
 ASP623  PHE694  ASN695  SER759  ASP760  ASP761  ALA762  ILE779  LEU786  VAL792 
 PHE793  MET794  SER795  GLU796  ALA797  LYS798  CYS799  TRP800  GLU811  SER814 

> <Gold.Protein.RotatedAtoms>
  151.4751  135.1048  159.9761 H   0  0  0  0  0  0  0  0  0  0  0  0  # atno 6907 bound_to 6896
  152.4801  133.8230  159.7074 H   0  0  0  0  0  0  0  0  0  0  0  0  # atno 6908 bound_to 6896
  150.8867  133.7237  159.2943 H   0  0  0  0  0  0  0  0  0  0  0  0  # atno 6909 bound_to 6896
  144.9947  139.4371  143.5321 H   0  0  0  0  0  0  0  0  0  0  0  0  # atno 7974 bound_to 7965
  155.2834  140.3374  155.4257 H   0  0  0  0  0  0  0  0  0  0  0  0  # atno 8008 bound_to 7997
  156.2079  140.1758  156.7800 H   0  0  0  0  0  0  0  0  0  0  0  0  # atno 8009 bound_to 7997
  154.5646  140.0681  156.8856 H   0  0  0  0  0  0  0  0  0  0  0  0  # atno 8010 bound_to 7997
  139.5967  144.1097  152.1697 H   0  0  0  0  0  0  0  0  0  0  0  0  # atno 10167 bound_to 10162
  157.6705  130.9814  150.1619 H   0  0  0  0  0  0  0  0  0  0  0  0  # atno 10718 bound_to 10713
  153.5535  135.3535  155.2769 H   0  0  0  0  0  0  0  0  0  0  0  0  # atno 10763 bound_to 10752
  154.8704  135.4119  154.2910 H   0  0  0  0  0  0  0  0  0  0  0  0  # atno 10764 bound_to 10752
  153.3641  135.7061  153.6757 H   0  0  0  0  0  0  0  0  0  0  0  0  # atno 10765 bound_to 10752
  141.1665  133.7209  156.8463 H   0  0  0  0  0  0  0  0  0  0  0  0  # atno 11005 bound_to 11000
  146.3439  139.9300  142.8755 LP  0  0  0  0  0  0  0  0  0  0  0  0  # atno 17320 bound_to 7965
  145.2236  140.9945  143.4031 LP  0  0  0  0  0  0  0  0  0  0  0  0  # atno 17321 bound_to 7965
  140.0684  144.5800  150.7210 LP  0  0  0  0  0  0  0  0  0  0  0  0  # atno 17342 bound_to 10162
  140.7217  143.2596  151.4255 LP  0  0  0  0  0  0  0  0  0  0  0  0  # atno 17343 bound_to 10162
  156.2393  130.3689  149.8355 LP  0  0  0  0  0  0  0  0  0  0  0  0  # atno 17370 bound_to 10713
  156.6160  130.8606  151.3465 LP  0  0  0  0  0  0  0  0  0  0  0  0  # atno 17371 bound_to 10713
  140.1947  134.8940  157.3101 LP  0  0  0  0  0  0  0  0  0  0  0  0  # atno 17394 bound_to 11000
  140.2251  134.3976  155.7547 LP  0  0  0  0  0  0  0  0  0  0  0  0  # atno 17395 bound_to 11000

$$$$
