#       Name:                AV-unprocessed.smi:712
#       Creating user name   scv26
#       Creation time:       Fri Mar 27 00:45:51 2020


#       File generated by GOLD software.
#

@<TRIPOS>MOLECULE
AV-unprocessed.smi:712
    57    58     1
SMALL
NO_CHARGES


@<TRIPOS>ATOM
      1 ****        -3.4180   5.5036   4.0086 C.3            1 S1                 0.0000
      2 ****        -3.3887   4.6053   2.7894 C.2            1 S1                 0.0000
      3 ****        -4.5813   3.9086   2.3543 C.2            1 S1                 0.0000
      4 ****        -4.5197   3.1226   1.2684 C.2            1 S1                 0.0000
      5 ****        -3.3283   2.9543   0.5395 N.am           1 S1                 0.0000
      6 ****        -3.3738   2.0658  -0.6335 C.3            1 S1                 0.0000
      7 ****        -2.7624   0.6862  -0.3555 C.2            1 S1                 0.0000
      8 ****        -2.8937   0.1546   0.7476 O.2            1 S1                 0.0000
      9 ****        -2.0986   0.1171  -1.3729 N.am           1 S1                 0.0000
     10 ****        -1.3855  -1.1536  -1.3036 C.3            1 S1                 0.0000
     11 ****         0.0636  -0.9587  -0.8208 C.3            1 S1                 0.0000
     12 ****         0.8874  -2.2569  -0.9283 C.3            1 S1                 0.0000
     13 ****         2.2619  -2.0450  -0.4095 N.4            1 S1                 1.0000
     14 ****         3.1398  -3.2373  -0.5309 C.3            1 S1                 0.0000
     15 ****         3.6235  -3.4943  -1.9750 C.3            1 S1                 0.0000
     16 ****         4.4299  -4.7993  -2.0486 C.3            1 S1                 0.0000
     17 ****         4.4531  -2.3200  -2.5215 C.3            1 S1                 0.0000
     18 ****         2.2156  -1.5169   0.9744 C.3            1 S1                 0.0000
     19 ****         1.3442  -0.2527   1.0380 C.3            1 S1                 0.0000
     20 ****         0.0461  -0.5512   0.5439 O.3            1 S1                 0.0000
     21 ****        -2.1662   3.5779   0.9011 C.2            1 S1                 0.0000
     22 ****        -1.1178   3.4262   0.2722 O.2            1 S1                 0.0000
     23 ****        -2.2461   4.4371   2.0878 C.2            1 S1                 0.0000
     24 ****        -4.4265   5.5844   4.4148 H              1 S1                 0.0000
     25 ****        -3.0745   6.5059   3.7513 H              1 S1                 0.0000
     26 ****        -2.7674   5.1056   4.7878 H              1 S1                 0.0000
     27 ****        -5.5098   4.0146   2.8959 H              1 S1                 0.0000
     28 ****        -5.3708   2.5714   0.8959 H              1 S1                 0.0000
     29 ****        -4.4002   1.9192  -0.9725 H              1 S1                 0.0000
     30 ****        -2.8585   2.5384  -1.4721 H              1 S1                 0.0000
     31 ****        -2.0543   0.6186  -2.2483 H              1 S1                 0.0000
     32 ****        -1.9153  -1.8649  -0.6675 H              1 S1                 0.0000
     33 ****        -1.3843  -1.5798  -2.3071 H              1 S1                 0.0000
     34 ****         0.5343  -0.1812  -1.4263 H              1 S1                 0.0000
     35 ****         0.4034  -3.0582  -0.3675 H              1 S1                 0.0000
     36 ****         0.9214  -2.5726  -1.9702 H              1 S1                 0.0000
     37 ****         4.0178  -3.1027   0.1031 H              1 S1                 0.0000
     38 ****         2.6145  -4.1101  -0.1400 H              1 S1                 0.0000
     39 ****         2.7592  -3.6254  -2.6254 H              1 S1                 0.0000
     40 ****         5.3219  -4.7505  -1.4232 H              1 S1                 0.0000
     41 ****         4.7512  -5.0066  -3.0698 H              1 S1                 0.0000
     42 ****         3.8347  -5.6495  -1.7143 H              1 S1                 0.0000
     43 ****         5.3335  -2.1352  -1.9053 H              1 S1                 0.0000
     44 ****         3.8699  -1.3996  -2.5542 H              1 S1                 0.0000
     45 ****         4.7959  -2.5210  -3.5369 H              1 S1                 0.0000
     46 ****         1.8164  -2.2805   1.6439 H              1 S1                 0.0000
     47 ****         3.2240  -1.2829   1.3178 H              1 S1                 0.0000
     48 ****         1.2586   0.0950   2.0677 H              1 S1                 0.0000
     49 ****         1.7898   0.5606   0.4629 H              1 S1                 0.0000
     50 ****        -1.3527   4.9535   2.4082 H              1 S1                 0.0000
     51 ****         2.6827  -1.3201  -0.9734 H              1 S1                 0.0000
     52 ****        -3.4020   0.6223   1.4707 LP             1 S1                 0.0000
     53 ****        -2.4920  -0.7447   0.9202 LP             1 S1                 0.0000
     54 ****        -0.3449  -1.2890   1.0941 LP             1 S1                 0.0000
     55 ****        -0.5248   0.2655   0.6276 LP             1 S1                 0.0000
     56 ****        -1.0984   2.8312  -0.5313 LP             1 S1                 0.0000
     57 ****        -0.2862   3.8981   0.5652 LP             1 S1                 0.0000
@<TRIPOS>BOND
    1    1    2 1     
    2    1   24 1     
    3    1   25 1     
    4    1   26 1     
    5    2   23 2     
    6    2    3 1     
    7    3    4 2     
    8    3   27 1     
    9    4    5 1     
   10    4   28 1     
   11    5    6 1     
   12    5   21 am    
   13    6    7 1     
   14    6   29 1     
   15    6   30 1     
   16    7    8 2     
   17    7    9 am    
   18    9   10 1     
   19    9   31 1     
   20   10   11 1     
   21   10   32 1     
   22   10   33 1     
   23   11   20 1     
   24   11   12 1     
   25   11   34 1     
   26   12   13 1     
   27   12   35 1     
   28   12   36 1     
   29   13   14 1     
   30   13   18 1     
   31   13   51 1     
   32   14   15 1     
   33   14   37 1     
   34   14   38 1     
   35   15   16 1     
   36   15   17 1     
   37   15   39 1     
   38   16   40 1     
   39   16   41 1     
   40   16   42 1     
   41   17   43 1     
   42   17   44 1     
   43   17   45 1     
   44   18   19 1     
   45   18   46 1     
   46   18   47 1     
   47   19   20 1     
   48   19   48 1     
   49   19   49 1     
   50   21   22 2     
   51   21   23 1     
   52   23   50 1     
   53    8   52 1     
   54    8   53 1     
   55   20   54 1     
   56   20   55 1     
   57   22   56 1     
   58   22   57 1     
@<TRIPOS>SUBSTRUCTURE
      1 S1             1
@<TRIPOS>SET
LONE_PAIRS      STATIC     ATOMS    <user>   **** ""
6 52 53 54 55 56 57
DONOR_HYDROGENS      STATIC     ATOMS    <user>   **** ""
2 31 51
ATOM$BLUE        STATIC     ATOMS    COLORGROUP SYSTEM
6 52 53 54 55 56 57
ATOM$RED        STATIC     ATOMS    COLORGROUP SYSTEM
2 31 51
