AV-unprocessed.smi:2270|AV-procd|sdf|9158|dock4
  -GOLD-   2272012363D 1   1.00000     0.00000
 Structure written by MMmdl.
 52 53  0  0  0  0  0  0  0  0  1 V2000
  146.6388  132.6174  160.1667 C   0  0  0  0  0  0  0  0  0  0  0  0
  146.7739  133.9579  160.8576 C   0  0  0  0  0  0  0  0  0  0  0  0
  146.0619  134.2360  162.0408 C   0  0  0  0  0  0  0  0  0  0  0  0
  146.2268  135.5011  162.6320 C   0  0  0  0  0  0  0  0  0  0  0  0
  147.0903  136.4297  162.0195 C   0  0  0  0  0  0  0  0  0  0  0  0
  147.7679  136.0714  160.8322 C   0  0  0  0  0  0  0  0  0  0  0  0
  148.6158  137.0764  160.2959 N   0  0  0  0  0  0  0  0  0  0  0  0
  149.4843  136.9735  159.2746 C   0  0  0  0  0  0  0  0  0  0  0  0
  149.6851  135.9579  158.6078 O   0  0  0  0  0  0  0  0  0  0  0  0
  150.1252  138.1322  159.0656 N   0  0  0  0  0  0  0  0  0  0  0  0
  151.1488  138.3518  158.0482 C   0  0  0  0  0  0  0  0  0  0  0  0
  150.8227  139.5474  157.1081 C   0  0  2  0  0  0  0  0  0  0  0  0
  150.9914  139.2217  155.5898 C   0  0  0  0  0  0  0  0  0  0  0  0
  152.4346  139.1350  155.0542 C   0  0  0  0  0  0  0  0  0  0  0  0
  150.1226  140.1248  154.6978 C   0  0  0  0  0  0  0  0  0  0  0  0
  151.3940  140.8401  157.5338 N   0  0  0  0  0  0  0  0  0  0  0  0
  150.6738  141.9928  156.9833 C   0  0  0  0  0  0  0  0  0  0  0  0
  151.3877  143.3147  157.3194 C   0  0  0  0  0  0  0  0  0  0  0  0
  151.5227  143.4938  158.7634 N   0  0  0  0  0  0  0  0  0  0  0  0
  152.1861  144.7472  159.0873 C   0  0  0  0  0  0  0  0  0  0  0  0
  152.2391  142.3475  159.3182 C   0  0  0  0  0  0  0  0  0  0  0  0
  151.5301  141.0220  158.9830 C   0  0  0  0  0  0  0  0  0  0  0  0
  147.6011  134.8487  160.2696 N   0  0  0  0  0  0  0  0  0  0  0  0
  146.2553  131.8610  160.8520 H   0  0  0  0  0  0  0  0  0  0  0  0
  147.6046  132.2756  159.7926 H   0  0  0  0  0  0  0  0  0  0  0  0
  145.9518  132.6965  159.3242 H   0  0  0  0  0  0  0  0  0  0  0  0
  145.4059  133.5017  162.4847 H   0  0  0  0  0  0  0  0  0  0  0  0
  145.7002  135.7561  163.5397 H   0  0  0  0  0  0  0  0  0  0  0  0
  147.2285  137.4060  162.4610 H   0  0  0  0  0  0  0  0  0  0  0  0
  148.5604  137.9767  160.7482 H   0  0  0  0  0  0  0  0  0  0  0  0
  149.8987  138.9170  159.6586 H   0  0  0  0  0  0  0  0  0  0  0  0
  152.1068  138.4944  158.5485 H   0  0  0  0  0  0  0  0  0  0  0  0
  151.2465  137.4282  157.4785 H   0  0  0  0  0  0  0  0  0  0  0  0
  149.7434  139.6790  157.1990 H   0  0  0  0  0  0  0  0  0  0  0  0
  150.5831  138.2191  155.4586 H   0  0  0  0  0  0  0  0  0  0  0  0
  152.9012  140.1111  154.9455 H   0  0  0  0  0  0  0  0  0  0  0  0
  152.4393  138.6821  154.0625 H   0  0  0  0  0  0  0  0  0  0  0  0
  153.0742  138.5176  155.6829 H   0  0  0  0  0  0  0  0  0  0  0  0
  150.4782  141.1555  154.7047 H   0  0  0  0  0  0  0  0  0  0  0  0
  149.0851  140.1274  155.0335 H   0  0  0  0  0  0  0  0  0  0  0  0
  150.1322  139.7810  153.6633 H   0  0  0  0  0  0  0  0  0  0  0  0
  150.5939  141.8984  155.8999 H   0  0  0  0  0  0  0  0  0  0  0  0
  149.6555  142.0296  157.3706 H   0  0  0  0  0  0  0  0  0  0  0  0
  152.3709  143.3309  156.8461 H   0  0  0  0  0  0  0  0  0  0  0  0
  150.8237  144.1465  156.8962 H   0  0  0  0  0  0  0  0  0  0  0  0
  152.2591  144.8773  160.1675 H   0  0  0  0  0  0  0  0  0  0  0  0
  151.6269  145.5939  158.6884 H   0  0  0  0  0  0  0  0  0  0  0  0
  153.1941  144.7790  158.6716 H   0  0  0  0  0  0  0  0  0  0  0  0
  153.2604  142.3225  158.9346 H   0  0  0  0  0  0  0  0  0  0  0  0
  152.3156  142.4505  160.4011 H   0  0  0  0  0  0  0  0  0  0  0  0
  150.5501  141.0098  159.4610 H   0  0  0  0  0  0  0  0  0  0  0  0
  152.1032  140.2119  159.4212 H   0  0  0  0  0  0  0  0  0  0  0  0
  1  2  1  0  0  0  0
  1 24  1  0  0  0  0
  1 25  1  0  0  0  0
  1 26  1  0  0  0  0
  2 23  1  0  0  0  0
  2  3  2  0  0  0  0
  3  4  1  0  0  0  0
  3 27  1  0  0  0  0
  4  5  2  0  0  0  0
  4 28  1  0  0  0  0
  5  6  1  0  0  0  0
  5 29  1  0  0  0  0
  6  7  1  0  0  0  0
  6 23  2  0  0  0  0
  7  8  1  0  0  0  0
  7 30  1  0  0  0  0
  8  9  2  0  0  0  0
  8 10  1  0  0  0  0
 10 11  1  0  0  0  0
 10 31  1  0  0  0  0
 11 12  1  0  0  0  0
 11 32  1  0  0  0  0
 11 33  1  0  0  0  0
 12 13  1  0  0  0  0
 12 16  1  0  0  0  0
 12 34  1  0  0  0  0
 13 14  1  0  0  0  0
 13 15  1  0  0  0  0
 13 35  1  0  0  0  0
 14 36  1  0  0  0  0
 14 37  1  0  0  0  0
 14 38  1  0  0  0  0
 15 39  1  0  0  0  0
 15 40  1  0  0  0  0
 15 41  1  0  0  0  0
 16 22  1  0  0  0  0
 16 17  1  0  0  0  0
 17 18  1  0  0  0  0
 17 42  1  0  0  0  0
 17 43  1  0  0  0  0
 18 19  1  0  0  0  0
 18 44  1  0  0  0  0
 18 45  1  0  0  0  0
 19 20  1  0  0  0  0
 19 21  1  0  0  0  0
 20 46  1  0  0  0  0
 20 47  1  0  0  0  0
 20 48  1  0  0  0  0
 21 22  1  0  0  0  0
 21 49  1  0  0  0  0
 21 50  1  0  0  0  0
 22 51  1  0  0  0  0
 22 52  1  0  0  0  0
M  END
> <s_m_source_file>
AV-unprocessed.smi

> <i_m_source_file_index>
2270

> <i_lp_mmshare_version>
43012

> <i_f3d_flags>
0

> <s_epik_input>
W0NIM11jMVtjSF1bY0hdW2NIXWMobjEpW05IXUMoPU8pW05IXVtDSDJdW0NASF0oW0NIXShbQ0gzXSlbQ0gzXSlOMltDSDJdW0NIMl1OKFtDSDNdKVtDSDJdW0NIMl0y

> <s_epik_cmdline>
J2VwaWtfcHl0aG9uJywgJy1waCcsICc3LjAnLCAnLXRuJywgJzgnLCAnLW1hJywgJzIwMCcsICctbWV0YWxfYmluZGluZycsICctaW1hZScsICc8aW5maWxlLm1hZT4nLCAnLW9tYWUnLCAnPG91dGZpbGUubWFlPic=

> <r_epik_Ionization_Penalty>
2.57754

> <r_epik_Ionization_Penalty_Charging>
0

> <r_epik_Ionization_Penalty_Neutral>
2.57754

> <r_epik_State_Penalty>
2.00874

> <r_epik_Charging_Adjusted_Penalty>
2.00874

> <i_epik_Tot_Q>
0

> <i_epik_Tot_abs_Q>
0

> <r_epik_Metal_State_Penalty>
2.00874

> <b_epik_Metal_Only>
0

> <s_lp_Force_Field>
OPLS_2005

> <r_lp_Energy>
48.2009

> <b_lp_Chiralities_Consistent>
1

> <s_lp_Variant>
AV-unprocessed.smi:2270-5

> <Gold.Version>
5.8.1

> <Gold.Id.Protein>
6NUR|6NUR_protein|mol2

> <Gold.PLP.Fitness>
43.9457

> <Gold.PLP.PLP>
-42.7330

> <Gold.PLP.part.hbond>
-1.0000

> <Gold.PLP.part.metal>
0.0000

> <Gold.PLP.part.buried>
-4.7850

> <Gold.PLP.part.nonpolar>
-40.1176

> <Gold.PLP.part.repulsive>
2.3620

> <Gold.PLP.ligand.clash>
0.0000

> <Gold.PLP.ligand.torsion>
1.1544

> <Gold.PLP.Chemscore.Hbond>
1.0000

> <Gold.PLP.Chemscore.CHOScore>
0.0000

> <Gold.PLP.Chemscore.Metal>
0.0000

> <Gold.Chemscore.Hbonds>
donor molecule, donor type, donor heavy atom, donor atom, acceptor molecule, acceptor atom, score
      P1  H  6896  6908       L1     9  1.00

> <Gold.PLP.Chemscore.Internal.Correction>
0.5216

> <Gold.Rescore>
     Score         DG    S(hbond)    S(metal)    S(lipo)     H(rot)  DE(clash)    DE(int)     intcor
     14.36     -18.65       0.93        0.00     120.05       1.56       1.64       2.66       ----

> <Gold.Chemscore.Fitness>
14.3565

> <Gold.Chemscore.DG>
-18.6515

> <Gold.Chemscore.ZeroCoef>
-5.4800

> <Gold.Chemscore.Hbond>
0.9349

> <Gold.Chemscore.Metal>
0.0000

> <Gold.Chemscore.Lipo>
120.0479

> <Gold.Chemscore.Internal_Hbond>
0.0000

> <Gold.Chemscore.DEClash>
1.6363

> <Gold.Chemscore.DEInternal>
2.6587

> <Gold.Chemscore.Rot>
1.5612

> <Gold.Chemscore.Internal.Correction>
   9.000000E+99

> <Gold.Chemscore.Hbonds>
donor molecule, donor type, donor heavy atom, donor atom, acceptor molecule, acceptor atom, score
      P1  H  6896  6908       L1     9  0.84

> <Gold.Chemscore.Hbond.Weighted>
-3.1225

> <Gold.Chemscore.Metal.Weighted>
-0.0000

> <Gold.Chemscore.Lipo.Weighted>
-14.0456

> <Gold.Chemscore.Internal_Hbond.Weighted>
0.0000

> <Gold.Chemscore.DEClash.Weighted>
1.6363

> <Gold.Chemscore.DEInternal.Weighted>
2.6587

> <Gold.Chemscore.Rot.Weighted>
3.9966

> <Gold.Chemscore.Internal.Correction.Weighted>
   9.000000E+99

> <Gold.Protein.RotatedTorsions>
[ 6907 6896 6895 6894 ] final  171.80 input  -60.11 | X-H torsion
[ 7974 7965 7964 7962 ] final -159.27 input  175.53 | X-H torsion
[ 8008 7997 7996 7995 ] final  139.39 input   59.86 | X-H torsion
[ 10167 10162 10161 10158 ] final  175.19 input  -65.29 | X-H torsion
[ 10718 10713 10712 10709 ] final  -40.71 input   66.30 | X-H torsion
[ 10763 10752 10751 10750 ] final   17.22 input  -60.55 | X-H torsion
[ 11005 11000 10999 10996 ] final  -48.74 input  -57.11 | X-H torsion

> <Gold.Protein.ActiveResidues>
 VAL166  LYS551  ARG553  GLY616  TRP617  ASP618  TYR619  PRO620  LYS621  CYS622 
 ASP623  PHE694  ASN695  SER759  ASP760  ASP761  ALA762  ILE779  LEU786  VAL792 
 PHE793  MET794  SER795  GLU796  ALA797  LYS798  CYS799  TRP800  GLU811  SER814 

> <Gold.Protein.RotatedAtoms>
  151.7945  133.3363  159.3508 H   0  0  0  0  0  0  0  0  0  0  0  0  # atno 6907 bound_to 6896
  150.7380  134.5811  159.5949 H   0  0  0  0  0  0  0  0  0  0  0  0  # atno 6908 bound_to 6896
  152.3187  134.7409  160.0370 H   0  0  0  0  0  0  0  0  0  0  0  0  # atno 6909 bound_to 6896
  144.7472  140.3708  143.6076 H   0  0  0  0  0  0  0  0  0  0  0  0  # atno 7974 bound_to 7965
  156.2990  140.2369  156.4229 H   0  0  0  0  0  0  0  0  0  0  0  0  # atno 8008 bound_to 7997
  154.8339  140.0431  157.1516 H   0  0  0  0  0  0  0  0  0  0  0  0  # atno 8009 bound_to 7997
  154.9177  140.2999  155.5236 H   0  0  0  0  0  0  0  0  0  0  0  0  # atno 8010 bound_to 7997
  139.5168  144.3060  152.0335 H   0  0  0  0  0  0  0  0  0  0  0  0  # atno 10167 bound_to 10162
  156.2783  130.4214  149.8364 H   0  0  0  0  0  0  0  0  0  0  0  0  # atno 10718 bound_to 10713
  153.1358  135.6750  153.9104 H   0  0  0  0  0  0  0  0  0  0  0  0  # atno 10763 bound_to 10752
  153.8576  135.3085  155.3437 H   0  0  0  0  0  0  0  0  0  0  0  0  # atno 10764 bound_to 10752
  154.7747  135.4921  153.9802 H   0  0  0  0  0  0  0  0  0  0  0  0  # atno 10765 bound_to 10752
  141.0718  133.6677  156.3484 H   0  0  0  0  0  0  0  0  0  0  0  0  # atno 11005 bound_to 11000
  145.7079  139.1677  143.2555 LP  0  0  0  0  0  0  0  0  0  0  0  0  # atno 17320 bound_to 7965
  146.1368  140.7112  142.9386 LP  0  0  0  0  0  0  0  0  0  0  0  0  # atno 17321 bound_to 7965
  140.2506  144.4173  150.6223 LP  0  0  0  0  0  0  0  0  0  0  0  0  # atno 17342 bound_to 10162
  140.6227  143.2178  151.6661 LP  0  0  0  0  0  0  0  0  0  0  0  0  # atno 17343 bound_to 10162
  156.5820  130.8470  151.3385 LP  0  0  0  0  0  0  0  0  0  0  0  0  # atno 17370 bound_to 10713
  157.7306  130.9688  150.1842 LP  0  0  0  0  0  0  0  0  0  0  0  0  # atno 17371 bound_to 10713
  140.5657  134.5890  157.5445 LP  0  0  0  0  0  0  0  0  0  0  0  0  # atno 17394 bound_to 11000
  139.9531  134.7581  156.0402 LP  0  0  0  0  0  0  0  0  0  0  0  0  # atno 17395 bound_to 11000

$$$$
