AV-unprocessed.smi:1401|AV-procd|sdf|5692|dock6
  -GOLD-   22720 5323D 1   1.00000     0.00000
 Structure written by MMmdl.
 48 50  0  0  0  0  0  0  0  0  1 V2000
  151.2388  142.4981  157.7131 C   0  0  0  0  0  0  0  0  0  0  0  0
  151.9871  141.4850  158.5374 C   0  0  0  0  0  0  0  0  0  0  0  0
  151.8706  140.2483  158.1806 N   0  0  0  0  0  0  0  0  0  0  0  0
  152.5166  139.2375  158.8657 N   0  0  0  0  0  0  0  0  0  0  0  0
  152.2548  137.8918  158.3337 C   0  0  0  0  0  0  0  0  0  0  0  0
  150.7615  137.5813  158.1511 C   0  0  0  0  0  0  0  0  0  0  0  0
  150.2395  136.6212  158.7200 O   0  0  0  0  0  0  0  0  0  0  0  0
  150.0847  138.4235  157.3550 N   0  0  0  0  0  0  0  0  0  0  0  0
  148.6618  138.3341  157.0299 C   0  0  2  0  0  0  0  0  0  0  0  0
  148.4140  137.0163  156.2744 C   0  0  0  0  0  0  0  0  0  0  0  0
  148.2343  139.5837  156.2203 C   0  0  2  0  0  0  0  0  0  0  0  0
  146.7955  139.4938  155.6506 C   0  0  0  0  0  0  0  0  0  0  0  0
  146.9866  139.7806  154.1512 C   0  0  1  0  0  0  0  0  0  0  0  0
  147.3780  141.2560  153.9529 C   0  0  0  0  0  0  0  0  0  0  0  0
  148.8279  141.2924  154.4706 C   0  0  0  0  0  0  0  0  0  0  0  0
  149.0608  139.8412  154.9340 C   0  0  2  0  0  0  0  0  0  0  0  0
  148.2973  139.0600  153.8690 C   0  0  0  0  0  0  0  0  0  0  0  0
  153.3307  139.4273  159.9441 C   0  0  0  0  0  0  0  0  0  0  0  0
  153.8987  138.4965  160.5175 O   0  0  0  0  0  0  0  0  0  0  0  0
  153.4554  140.8304  160.3449 C   0  0  0  0  0  0  0  0  0  0  0  0
  154.2975  141.0743  161.4713 C   0  0  0  0  0  0  0  0  0  0  0  0
  154.9642  141.2688  162.3977 N   0  0  0  0  0  0  0  0  0  0  0  0
  152.8151  141.8302  159.6887 C   0  0  0  0  0  0  0  0  0  0  0  0
  152.9157  143.3015  160.0670 C   0  0  0  0  0  0  0  0  0  0  0  0
  151.9032  143.2953  157.3786 H   0  0  0  0  0  0  0  0  0  0  0  0
  150.4337  142.9489  158.2940 H   0  0  0  0  0  0  0  0  0  0  0  0
  150.7933  142.0492  156.8239 H   0  0  0  0  0  0  0  0  0  0  0  0
  152.7462  137.7672  157.3669 H   0  0  0  0  0  0  0  0  0  0  0  0
  152.7020  137.1397  158.9863 H   0  0  0  0  0  0  0  0  0  0  0  0
  150.5961  139.1864  156.9355 H   0  0  0  0  0  0  0  0  0  0  0  0
  148.0804  138.3105  157.9530 H   0  0  0  0  0  0  0  0  0  0  0  0
  147.3551  136.8513  156.0799 H   0  0  0  0  0  0  0  0  0  0  0  0
  148.7671  136.1620  156.8531 H   0  0  0  0  0  0  0  0  0  0  0  0
  148.9347  137.0041  155.3164 H   0  0  0  0  0  0  0  0  0  0  0  0
  148.3090  140.4510  156.8786 H   0  0  0  0  0  0  0  0  0  0  0  0
  146.3737  138.4962  155.7813 H   0  0  0  0  0  0  0  0  0  0  0  0
  146.1164  140.2024  156.1260 H   0  0  0  0  0  0  0  0  0  0  0  0
  146.1449  139.4641  153.5347 H   0  0  0  0  0  0  0  0  0  0  0  0
  147.3407  141.5317  152.8983 H   0  0  0  0  0  0  0  0  0  0  0  0
  146.7222  141.9337  154.5006 H   0  0  0  0  0  0  0  0  0  0  0  0
  149.5144  141.5541  153.6644 H   0  0  0  0  0  0  0  0  0  0  0  0
  148.9675  142.0167  155.2738 H   0  0  0  0  0  0  0  0  0  0  0  0
  150.1178  139.5901  155.0102 H   0  0  0  0  0  0  0  0  0  0  0  0
  148.2524  137.9867  154.0601 H   0  0  0  0  0  0  0  0  0  0  0  0
  148.6725  139.2264  152.8577 H   0  0  0  0  0  0  0  0  0  0  0  0
  153.3887  143.4426  161.0384 H   0  0  0  0  0  0  0  0  0  0  0  0
  151.9281  143.7603  160.1222 H   0  0  0  0  0  0  0  0  0  0  0  0
  153.5067  143.8419  159.3269 H   0  0  0  0  0  0  0  0  0  0  0  0
  1  2  1  0  0  0  0
  1 25  1  0  0  0  0
  1 26  1  0  0  0  0
  1 27  1  0  0  0  0
  2 23  1  0  0  0  0
  2  3  2  0  0  0  0
  3  4  1  0  0  0  0
  4  5  1  0  0  0  0
  4 18  1  0  0  0  0
  5  6  1  0  0  0  0
  5 28  1  0  0  0  0
  5 29  1  0  0  0  0
  6  7  2  0  0  0  0
  6  8  1  0  0  0  0
  8  9  1  0  0  0  0
  8 30  1  0  0  0  0
  9 10  1  0  0  0  0
  9 11  1  0  0  0  0
  9 31  1  0  0  0  0
 10 32  1  0  0  0  0
 10 33  1  0  0  0  0
 10 34  1  0  0  0  0
 11 16  1  0  0  0  0
 11 12  1  0  0  0  0
 11 35  1  0  0  0  0
 12 13  1  0  0  0  0
 12 36  1  0  0  0  0
 12 37  1  0  0  0  0
 13 17  1  0  0  0  0
 13 14  1  0  0  0  0
 13 38  1  0  0  0  0
 14 15  1  0  0  0  0
 14 39  1  0  0  0  0
 14 40  1  0  0  0  0
 15 16  1  0  0  0  0
 15 41  1  0  0  0  0
 15 42  1  0  0  0  0
 16 17  1  0  0  0  0
 16 43  1  0  0  0  0
 17 44  1  0  0  0  0
 17 45  1  0  0  0  0
 18 19  2  0  0  0  0
 18 20  1  0  0  0  0
 20 21  1  0  0  0  0
 20 23  2  0  0  0  0
 21 22  3  0  0  0  0
 23 24  1  0  0  0  0
 24 46  1  0  0  0  0
 24 47  1  0  0  0  0
 24 48  1  0  0  0  0
M  END
> <s_m_source_file>
AV-unprocessed.smi

> <i_m_source_file_index>
1401

> <i_lp_mmshare_version>
43012

> <i_f3d_flags>
0

> <s_epik_input>
TiNDYyhjMVtDSDNdKWMoPU8pbihuYzFbQ0gzXSlbQ0gyXUMoPU8pW05IXVtDQEhdKFtDSDNdKVtDQEhdKFtDSDJdW0NASF0yMylbQ0BIXShbQ0gyXTMpW0NIMl1bQ0gyXTI=

> <s_epik_cmdline>
J2VwaWtfcHl0aG9uJywgJy1waCcsICc3LjAnLCAnLXRuJywgJzgnLCAnLW1hJywgJzIwMCcsICctbWV0YWxfYmluZGluZycsICctaW1hZScsICc8aW5maWxlLm1hZT4nLCAnLW9tYWUnLCAnPG91dGZpbGUubWFlPic=

> <r_lp_tautomer_probability>
1

> <r_epik_Ionization_Penalty>
2.16501e-08

> <r_epik_Ionization_Penalty_Charging>
2.29436e-11

> <r_epik_Ionization_Penalty_Neutral>
2.16271e-08

> <r_epik_State_Penalty>
-0

> <r_epik_Charging_Adjusted_Penalty>
2.29436e-11

> <i_epik_Tot_Q>
0

> <i_epik_Tot_abs_Q>
0

> <r_epik_Metal_State_Penalty>
-0

> <b_epik_Metal_Only>
0

> <s_lp_Force_Field>
OPLS_2005

> <r_lp_Energy>
66.5869

> <b_lp_Chiralities_Consistent>
1

> <s_lp_Variant>
AV-unprocessed.smi:1401-5

> <Gold.Version>
5.8.1

> <Gold.Id.Protein>
6NUR|6NUR_protein|mol2

> <Gold.PLP.Fitness>
40.0926

> <Gold.PLP.PLP>
-37.3964

> <Gold.PLP.part.hbond>
-2.0000

> <Gold.PLP.part.metal>
0.0000

> <Gold.PLP.part.buried>
-4.5429

> <Gold.PLP.part.nonpolar>
-31.0487

> <Gold.PLP.part.repulsive>
0.0206

> <Gold.PLP.ligand.clash>
0.0000

> <Gold.PLP.ligand.torsion>
0.1651

> <Gold.PLP.Chemscore.Hbond>
1.0000

> <Gold.PLP.Chemscore.CHOScore>
0.0000

> <Gold.PLP.Chemscore.Metal>
0.0000

> <Gold.Chemscore.Hbonds>
donor molecule, donor type, donor heavy atom, donor atom, acceptor molecule, acceptor atom, score
      P1  H  6896  6907       L1     7  0.89

> <Gold.PLP.Chemscore.Internal.Correction>
0.0265

> <Gold.Rescore>
     Score         DG    S(hbond)    S(metal)    S(lipo)     H(rot)  DE(clash)    DE(int)     intcor
     14.34     -14.47       0.98        0.00      84.51       1.63       0.01       0.12       ----

> <Gold.Chemscore.Fitness>
14.3389

> <Gold.Chemscore.DG>
-14.4667

> <Gold.Chemscore.ZeroCoef>
-5.4800

> <Gold.Chemscore.Hbond>
0.9780

> <Gold.Chemscore.Metal>
0.0000

> <Gold.Chemscore.Lipo>
84.5116

> <Gold.Chemscore.Internal_Hbond>
0.0000

> <Gold.Chemscore.DEClash>
0.0077

> <Gold.Chemscore.DEInternal>
0.1201

> <Gold.Chemscore.Rot>
1.6281

> <Gold.Chemscore.Internal.Correction>
   9.000000E+99

> <Gold.Chemscore.Hbonds>
donor molecule, donor type, donor heavy atom, donor atom, acceptor molecule, acceptor atom, score
      P1  H  6896  6907       L1     7  0.85

> <Gold.Chemscore.Hbond.Weighted>
-3.2667

> <Gold.Chemscore.Metal.Weighted>
-0.0000

> <Gold.Chemscore.Lipo.Weighted>
-9.8879

> <Gold.Chemscore.Internal_Hbond.Weighted>
0.0000

> <Gold.Chemscore.DEClash.Weighted>
0.0077

> <Gold.Chemscore.DEInternal.Weighted>
0.1201

> <Gold.Chemscore.Rot.Weighted>
4.1678

> <Gold.Chemscore.Internal.Correction.Weighted>
   9.000000E+99

> <Gold.Protein.RotatedTorsions>
[ 6907 6896 6895 6894 ] final  -42.29 input  -60.11 | X-H torsion
[ 7974 7965 7964 7962 ] final -176.27 input  175.53 | X-H torsion
[ 8008 7997 7996 7995 ] final  169.70 input   59.86 | X-H torsion
[ 10167 10162 10161 10158 ] final -137.69 input  -65.29 | X-H torsion
[ 10718 10713 10712 10709 ] final  -21.92 input   66.30 | X-H torsion
[ 10763 10752 10751 10750 ] final  -99.33 input  -60.55 | X-H torsion
[ 11005 11000 10999 10996 ] final   10.39 input  -57.11 | X-H torsion

> <Gold.Protein.ActiveResidues>
 VAL166  LYS551  ARG553  GLY616  TRP617  ASP618  TYR619  PRO620  LYS621  CYS622 
 ASP623  PHE694  ASN695  SER759  ASP760  ASP761  ALA762  ILE779  LEU786  VAL792 
 PHE793  MET794  SER795  GLU796  ALA797  LYS798  CYS799  TRP800  GLU811  SER814 

> <Gold.Protein.RotatedAtoms>
  150.9569  134.8962  159.7706 H   0  0  0  0  0  0  0  0  0  0  0  0  # atno 6907 bound_to 6896
  152.5141  134.3727  159.9334 H   0  0  0  0  0  0  0  0  0  0  0  0  # atno 6908 bound_to 6896
  151.3741  133.3804  159.2737 H   0  0  0  0  0  0  0  0  0  0  0  0  # atno 6909 bound_to 6896
  144.7127  140.1195  143.6406 H   0  0  0  0  0  0  0  0  0  0  0  0  # atno 7974 bound_to 7965
  156.1434  140.1557  156.8885 H   0  0  0  0  0  0  0  0  0  0  0  0  # atno 8008 bound_to 7997
  154.5007  140.0826  156.7829 H   0  0  0  0  0  0  0  0  0  0  0  0  # atno 8009 bound_to 7997
  155.4036  140.3415  155.4261 H   0  0  0  0  0  0  0  0  0  0  0  0  # atno 8010 bound_to 7997
  139.8552  143.7147  152.2655 H   0  0  0  0  0  0  0  0  0  0  0  0  # atno 10167 bound_to 10162
  156.5116  130.4611  149.6645 H   0  0  0  0  0  0  0  0  0  0  0  0  # atno 10718 bound_to 10713
  154.7489  135.4976  153.9254 H   0  0  0  0  0  0  0  0  0  0  0  0  # atno 10763 bound_to 10752
  153.1122  135.6712  153.9489 H   0  0  0  0  0  0  0  0  0  0  0  0  # atno 10764 bound_to 10752
  153.9245  135.3084  155.3426 H   0  0  0  0  0  0  0  0  0  0  0  0  # atno 10765 bound_to 10752
  140.5150  134.0615  155.7828 H   0  0  0  0  0  0  0  0  0  0  0  0  # atno 11005 bound_to 11000
  145.9383  139.2652  143.1284 LP  0  0  0  0  0  0  0  0  0  0  0  0  # atno 17320 bound_to 7965
  145.9450  140.8951  143.0288 LP  0  0  0  0  0  0  0  0  0  0  0  0  # atno 17321 bound_to 7965
  139.7426  144.7555  151.0629 LP  0  0  0  0  0  0  0  0  0  0  0  0  # atno 17342 bound_to 10162
  140.7782  143.4954  150.9839 LP  0  0  0  0  0  0  0  0  0  0  0  0  # atno 17343 bound_to 10162
  156.3235  130.7293  151.2210 LP  0  0  0  0  0  0  0  0  0  0  0  0  # atno 17370 bound_to 10713
  157.7450  131.0449  150.4817 LP  0  0  0  0  0  0  0  0  0  0  0  0  # atno 17371 bound_to 10713
  141.1365  133.9212  157.2422 LP  0  0  0  0  0  0  0  0  0  0  0  0  # atno 17394 bound_to 11000
  139.9638  135.0147  156.9331 LP  0  0  0  0  0  0  0  0  0  0  0  0  # atno 17395 bound_to 11000

$$$$
