AV-unprocessed.smi:1830|AV-procd|sdf|7437|dock9
  -GOLD-   22720 9123D 1   1.00000     0.00000
 Structure written by MMmdl.
 53 56  0  0  0  0  0  0  0  0  2 V2000
  149.2095  132.9398  155.3113 O   0  0  0  0  0  0  0  0  0  0  0  0
  148.9650  133.8055  154.4708 C   0  0  0  0  0  0  0  0  0  0  0  0
  149.4965  135.0354  154.5043 N   0  0  0  0  0  0  0  0  0  0  0  0
  150.4317  135.5123  155.5178 C   0  0  0  0  0  0  0  0  0  0  0  0
  150.2840  137.0228  155.7745 C   0  0  1  0  0  0  0  0  0  0  0  0
  151.0900  137.8573  154.7610 C   0  0  0  0  0  0  0  0  0  0  0  0
  150.8481  139.3098  154.9256 N   0  3  2  0  0  0  0  0  0  0  0  0
  151.5937  139.9837  156.0117 C   0  0  0  0  0  0  0  0  0  0  0  0
  150.6983  141.1326  156.5020 C   0  0  0  0  0  0  0  0  0  0  0  0
  149.4704  141.1131  155.5857 C   0  0  0  0  0  0  0  0  0  0  0  0
  149.4234  139.6801  155.0526 C   0  0  2  0  0  0  0  0  0  0  0  0
  148.6741  138.7247  156.0091 C   0  0  0  0  0  0  0  0  0  0  0  0
  148.9107  137.3722  155.6441 O   0  0  0  0  0  0  0  0  0  0  0  0
  148.1601  133.6511  153.4064 N   0  0  0  0  0  0  0  0  0  0  0  0
  147.4301  132.4940  153.0093 C   0  0  0  0  0  0  0  0  0  0  0  0
  147.7597  131.2032  153.4919 C   0  0  0  0  0  0  0  0  0  0  0  0
  147.0202  130.0916  153.0534 C   0  0  0  0  0  0  0  0  0  0  0  0
  145.9699  130.3086  152.1468 C   0  0  0  0  0  0  0  0  0  0  0  0
  145.6299  131.5315  151.6937 N   0  0  0  0  0  0  0  0  0  0  0  0
  146.3237  132.6161  152.1192 C   0  0  0  0  0  0  0  0  0  0  0  0
  145.9052  133.8732  151.6246 N   0  0  0  0  0  0  0  0  0  0  0  0
  145.5627  134.9151  152.5882 C   0  0  0  0  0  0  0  0  0  0  0  0
  144.3914  135.6977  151.9845 C   0  0  0  0  0  0  0  0  0  0  0  0
  144.4815  135.3909  150.4929 C   0  0  0  0  0  0  0  0  0  0  0  0
  144.9941  133.9539  150.4875 C   0  0  0  0  0  0  0  0  0  0  0  0
  149.2448  135.6851  153.7736 H   0  0  0  0  0  0  0  0  0  0  0  0
  150.2763  134.9540  156.4426 H   0  0  0  0  0  0  0  0  0  0  0  0
  151.4452  135.2843  155.1866 H   0  0  0  0  0  0  0  0  0  0  0  0
  150.6259  137.2479  156.7859 H   0  0  0  0  0  0  0  0  0  0  0  0
  152.1575  137.6477  154.8404 H   0  0  0  0  0  0  0  0  0  0  0  0
  150.7917  137.5828  153.7485 H   0  0  0  0  0  0  0  0  0  0  0  0
  151.8044  139.2979  156.8331 H   0  0  0  0  0  0  0  0  0  0  0  0
  152.5486  140.3473  155.6316 H   0  0  0  0  0  0  0  0  0  0  0  0
  150.3982  140.9513  157.5350 H   0  0  0  0  0  0  0  0  0  0  0  0
  151.2094  142.0954  156.4741 H   0  0  0  0  0  0  0  0  0  0  0  0
  148.5541  141.4135  156.0954 H   0  0  0  0  0  0  0  0  0  0  0  0
  149.6268  141.8042  154.7561 H   0  0  0  0  0  0  0  0  0  0  0  0
  148.9529  139.6430  154.0692 H   0  0  0  0  0  0  0  0  0  0  0  0
  148.9740  138.8792  157.0470 H   0  0  0  0  0  0  0  0  0  0  0  0
  147.6023  138.9192  155.9643 H   0  0  0  0  0  0  0  0  0  0  0  0
  148.1395  134.4180  152.7504 H   0  0  0  0  0  0  0  0  0  0  0  0
  148.5619  131.0467  154.1965 H   0  0  0  0  0  0  0  0  0  0  0  0
  147.2547  129.0968  153.4022 H   0  0  0  0  0  0  0  0  0  0  0  0
  145.3812  129.4804  151.7812 H   0  0  0  0  0  0  0  0  0  0  0  0
  145.3053  134.5041  153.5655 H   0  0  0  0  0  0  0  0  0  0  0  0
  146.4221  135.5741  152.7126 H   0  0  0  0  0  0  0  0  0  0  0  0
  143.4507  135.3129  152.3805 H   0  0  0  0  0  0  0  0  0  0  0  0
  144.4368  136.7647  152.2038 H   0  0  0  0  0  0  0  0  0  0  0  0
  143.5298  135.5051  149.9734 H   0  0  0  0  0  0  0  0  0  0  0  0
  145.2104  136.0500  150.0192 H   0  0  0  0  0  0  0  0  0  0  0  0
  145.4999  133.7072  149.5537 H   0  0  0  0  0  0  0  0  0  0  0  0
  144.1539  133.2703  150.6144 H   0  0  0  0  0  0  0  0  0  0  0  0
  151.1714  139.7539  154.0778 H   0  0  0  0  0  0  0  0  0  0  0  0
  1  2  2  0  0  0  0
  2  3  1  0  0  0  0
  2 14  1  0  0  0  0
  3  4  1  0  0  0  0
  3 26  1  0  0  0  0
  4  5  1  0  0  0  0
  4 27  1  0  0  0  0
  4 28  1  0  0  0  0
  5 13  1  0  0  0  0
  5  6  1  0  0  0  0
  5 29  1  0  0  0  0
  6  7  1  0  0  0  0
  6 30  1  0  0  0  0
  6 31  1  0  0  0  0
  7 11  1  0  0  0  0
  7  8  1  0  0  0  0
  7 53  1  0  0  0  0
  8  9  1  0  0  0  0
  8 32  1  0  0  0  0
  8 33  1  0  0  0  0
  9 10  1  0  0  0  0
  9 34  1  0  0  0  0
  9 35  1  0  0  0  0
 10 11  1  0  0  0  0
 10 36  1  0  0  0  0
 10 37  1  0  0  0  0
 11 12  1  0  0  0  0
 11 38  1  0  0  0  0
 12 13  1  0  0  0  0
 12 39  1  0  0  0  0
 12 40  1  0  0  0  0
 14 15  1  0  0  0  0
 14 41  1  0  0  0  0
 15 20  1  0  0  0  0
 15 16  2  0  0  0  0
 16 17  1  0  0  0  0
 16 42  1  0  0  0  0
 17 18  2  0  0  0  0
 17 43  1  0  0  0  0
 18 19  1  0  0  0  0
 18 44  1  0  0  0  0
 19 20  2  0  0  0  0
 20 21  1  0  0  0  0
 21 25  1  0  0  0  0
 21 22  1  0  0  0  0
 22 23  1  0  0  0  0
 22 45  1  0  0  0  0
 22 46  1  0  0  0  0
 23 24  1  0  0  0  0
 23 47  1  0  0  0  0
 23 48  1  0  0  0  0
 24 25  1  0  0  0  0
 24 49  1  0  0  0  0
 24 50  1  0  0  0  0
 25 51  1  0  0  0  0
 25 52  1  0  0  0  0
M  CHG  1   7   1
M  END
> <s_m_source_file>
AV-unprocessed.smi

> <i_m_source_file_index>
1830

> <i_lp_mmshare_version>
43012

> <i_f3d_flags>
0

> <s_epik_input>
W0NIMl0xW0NIMl1bQ0gyXVtDQEhdKE4xMilbQ0gyXU9bQ0BASF0oW0NIMl0yKVtDSDJdW05IXUMoPU8pW05IXWMzW2NIXVtjSF1bY0hdbmMzTjRbQ0gyXVtDSDJdW0NIMl1bQ0gyXTQ=

> <s_epik_cmdline>
J2VwaWtfcHl0aG9uJywgJy1waCcsICc3LjAnLCAnLXRuJywgJzgnLCAnLW1hJywgJzIwMCcsICctbWV0YWxfYmluZGluZycsICctaW1hZScsICc8aW5maWxlLm1hZT4nLCAnLW9tYWUnLCAnPG91dGZpbGUubWFlPic=

> <r_lp_tautomer_probability>
1

> <r_epik_Ionization_Penalty>
0.193547

> <r_epik_Ionization_Penalty_Charging>
0.10673

> <r_epik_Ionization_Penalty_Neutral>
0.0868166

> <r_epik_State_Penalty>
0.173595

> <r_epik_Charging_Adjusted_Penalty>
0.280326

> <i_epik_Tot_Q>
1

> <i_epik_Tot_abs_Q>
1

> <r_epik_Metal_State_Penalty>
0.164683

> <b_epik_Metal_Only>
0

> <s_lp_Force_Field>
OPLS_2005

> <r_lp_Energy>
64.4771

> <b_lp_Chiralities_Consistent>
1

> <s_lp_Variant>
AV-unprocessed.smi:1830-6

> <Gold.Version>
5.8.1

> <Gold.Id.Protein>
6NUR|6NUR_protein|mol2

> <Gold.PLP.Fitness>
46.2526

> <Gold.PLP.PLP>
-41.3925

> <Gold.PLP.part.hbond>
-2.1993

> <Gold.PLP.part.metal>
0.0000

> <Gold.PLP.part.buried>
-5.4770

> <Gold.PLP.part.nonpolar>
-34.8624

> <Gold.PLP.part.repulsive>
1.6228

> <Gold.PLP.ligand.clash>
0.0000

> <Gold.PLP.ligand.torsion>
0.7335

> <Gold.PLP.Chemscore.Hbond>
2.0000

> <Gold.PLP.Chemscore.CHOScore>
0.0000

> <Gold.PLP.Chemscore.Metal>
0.0000

> <Gold.Chemscore.Hbonds>
donor molecule, donor type, donor heavy atom, donor atom, acceptor molecule, acceptor atom, score
      L1  H     3    26       P1  7948  1.00
      L1  H    14    41       P1  7948  0.75

> <Gold.PLP.Chemscore.Internal.Correction>
0.3271

> <Gold.Rescore>
     Score         DG    S(hbond)    S(metal)    S(lipo)     H(rot)  DE(clash)    DE(int)     intcor
     14.34     -16.44       1.49        0.00      81.92       1.41       0.01       2.09       ----

> <Gold.Chemscore.Fitness>
14.3381

> <Gold.Chemscore.DG>
-16.4352

> <Gold.Chemscore.ZeroCoef>
-5.4800

> <Gold.Chemscore.Hbond>
1.4884

> <Gold.Chemscore.Metal>
0.0000

> <Gold.Chemscore.Lipo>
81.9244

> <Gold.Chemscore.Internal_Hbond>
0.0000

> <Gold.Chemscore.DEClash>
0.0103

> <Gold.Chemscore.DEInternal>
2.0868

> <Gold.Chemscore.Rot>
1.4067

> <Gold.Chemscore.Internal.Correction>
   9.000000E+99

> <Gold.Chemscore.Hbonds>
donor molecule, donor type, donor heavy atom, donor atom, acceptor molecule, acceptor atom, score
      L1  H     3    26       P1  7948  0.62
      L1  H    14    41       P1  7948  0.28

> <Gold.Chemscore.Hbond.Weighted>
-4.9711

> <Gold.Chemscore.Metal.Weighted>
-0.0000

> <Gold.Chemscore.Lipo.Weighted>
-9.5852

> <Gold.Chemscore.Internal_Hbond.Weighted>
0.0000

> <Gold.Chemscore.DEClash.Weighted>
0.0103

> <Gold.Chemscore.DEInternal.Weighted>
2.0868

> <Gold.Chemscore.Rot.Weighted>
3.6011

> <Gold.Chemscore.Internal.Correction.Weighted>
   9.000000E+99

> <Gold.Protein.RotatedTorsions>
[ 6907 6896 6895 6894 ] final -108.86 input  -60.11 | X-H torsion
[ 7974 7965 7964 7962 ] final   66.09 input  175.53 | X-H torsion
[ 8008 7997 7996 7995 ] final  114.73 input   59.86 | X-H torsion
[ 10167 10162 10161 10158 ] final -117.73 input  -65.29 | X-H torsion
[ 10718 10713 10712 10709 ] final  162.76 input   66.30 | X-H torsion
[ 10763 10752 10751 10750 ] final   81.31 input  -60.55 | X-H torsion
[ 11005 11000 10999 10996 ] final -119.41 input  -57.11 | X-H torsion

> <Gold.Protein.ActiveResidues>
 VAL166  LYS551  ARG553  GLY616  TRP617  ASP618  TYR619  PRO620  LYS621  CYS622 
 ASP623  PHE694  ASN695  SER759  ASP760  ASP761  ALA762  ILE779  LEU786  VAL792 
 PHE793  MET794  SER795  GLU796  ALA797  LYS798  CYS799  TRP800  GLU811  SER814 

> <Gold.Protein.RotatedAtoms>
  150.7527  133.9614  159.3516 H   0  0  0  0  0  0  0  0  0  0  0  0  # atno 6907 bound_to 6896
  151.7541  135.0824  160.0345 H   0  0  0  0  0  0  0  0  0  0  0  0  # atno 6908 bound_to 6896
  152.3447  133.6071  159.5937 H   0  0  0  0  0  0  0  0  0  0  0  0  # atno 6909 bound_to 6896
  145.8307  139.3137  143.0989 H   0  0  0  0  0  0  0  0  0  0  0  0  # atno 7974 bound_to 7965
  156.2339  140.2953  156.0260 H   0  0  0  0  0  0  0  0  0  0  0  0  # atno 8008 bound_to 7997
  155.2147  140.0413  157.2956 H   0  0  0  0  0  0  0  0  0  0  0  0  # atno 8009 bound_to 7997
  154.6044  140.2435  155.7758 H   0  0  0  0  0  0  0  0  0  0  0  0  # atno 8010 bound_to 7997
  140.0652  143.4930  152.2010 H   0  0  0  0  0  0  0  0  0  0  0  0  # atno 10167 bound_to 10162
  157.1180  131.0485  151.2428 H   0  0  0  0  0  0  0  0  0  0  0  0  # atno 10718 bound_to 10713
  153.1106  135.4770  154.9028 H   0  0  0  0  0  0  0  0  0  0  0  0  # atno 10763 bound_to 10752
  154.7476  135.3098  154.8618 H   0  0  0  0  0  0  0  0  0  0  0  0  # atno 10764 bound_to 10752
  153.9208  135.6855  153.4801 H   0  0  0  0  0  0  0  0  0  0  0  0  # atno 10765 bound_to 10752
  141.0218  134.0113  157.3272 H   0  0  0  0  0  0  0  0  0  0  0  0  # atno 11005 bound_to 11000
  145.9574  140.8862  143.0228 LP  0  0  0  0  0  0  0  0  0  0  0  0  # atno 17320 bound_to 7965
  144.6740  140.1765  143.7409 LP  0  0  0  0  0  0  0  0  0  0  0  0  # atno 17321 bound_to 7965
  139.5869  144.7535  151.3497 LP  0  0  0  0  0  0  0  0  0  0  0  0  # atno 17342 bound_to 10162
  140.7153  143.7284  150.7642 LP  0  0  0  0  0  0  0  0  0  0  0  0  # atno 17343 bound_to 10162
  157.4501  130.7593  149.7144 LP  0  0  0  0  0  0  0  0  0  0  0  0  # atno 17370 bound_to 10713
  155.9835  130.4000  150.3361 LP  0  0  0  0  0  0  0  0  0  0  0  0  # atno 17371 bound_to 10713
  139.9150  135.0195  156.7847 LP  0  0  0  0  0  0  0  0  0  0  0  0  # atno 17394 bound_to 11000
  140.6560  133.9688  155.7780 LP  0  0  0  0  0  0  0  0  0  0  0  0  # atno 17395 bound_to 11000

$$$$
