AV-unprocessed.smi:2068|AV-procd|sdf|8428|dock9
  -GOLD-   2272011123D 1   1.00000     0.00000
 Structure written by MMmdl.
 33 34  0  0  0  0  0  0  0  0  1 V2000
  145.0028  137.9637  152.2184 N   0  0  0  0  0  0  0  0  0  0  0  0
  146.2820  138.3415  152.1437 C   0  0  0  0  0  0  0  0  0  0  0  0
  146.8355  138.5828  151.0728 O   0  0  0  0  0  0  0  0  0  0  0  0
  147.0504  138.4696  153.4603 C   0  0  0  0  0  0  0  0  0  0  0  0
  147.2998  139.9151  153.7786 C   0  0  0  0  0  0  0  0  0  0  0  0
  146.5821  140.9955  153.3245 C   0  0  0  0  0  0  0  0  0  0  0  0
  147.2094  142.5026  153.9363 S   0  0  0  0  0  0  0  0  0  0  0  0
  148.4414  141.5948  154.7987 C   0  0  0  0  0  0  0  0  0  0  0  0
  149.4261  142.2337  155.5965 N   0  0  0  0  0  0  0  0  0  0  0  0
  150.6508  141.7838  155.9286 C   0  0  0  0  0  0  0  0  0  0  0  0
  151.1106  140.6921  155.5917 O   0  0  0  0  0  0  0  0  0  0  0  0
  151.4978  142.7273  156.7902 C   0  0  0  0  0  0  0  0  0  0  0  0
  151.1572  142.6624  158.2951 C   0  0  1  0  0  0  0  0  0  0  0  0
  151.7938  141.4938  159.0086 C   0  0  0  0  0  0  0  0  0  0  0  0
  152.5098  141.8649  160.0671 C   0  0  0  0  0  0  0  0  0  0  0  0
  152.5000  143.3536  160.2762 C   0  0  0  0  0  0  0  0  0  0  0  0
  151.6708  143.8916  159.0884 C   0  0  0  0  0  0  0  0  0  0  0  0
  148.3550  140.2714  154.6251 N   0  0  0  0  0  0  0  0  0  0  0  0
  144.4613  137.8547  151.3733 H   0  0  0  0  0  0  0  0  0  0  0  0
  144.5851  137.7766  153.1186 H   0  0  0  0  0  0  0  0  0  0  0  0
  146.4760  137.9954  154.2573 H   0  0  0  0  0  0  0  0  0  0  0  0
  147.9890  137.9178  153.3893 H   0  0  0  0  0  0  0  0  0  0  0  0
  145.7265  140.9949  152.6656 H   0  0  0  0  0  0  0  0  0  0  0  0
  149.1784  143.1501  155.9403 H   0  0  0  0  0  0  0  0  0  0  0  0
  152.5566  142.5059  156.6444 H   0  0  0  0  0  0  0  0  0  0  0  0
  151.3444  143.7433  156.4248 H   0  0  0  0  0  0  0  0  0  0  0  0
  150.0772  142.5766  158.4258 H   0  0  0  0  0  0  0  0  0  0  0  0
  151.6548  140.4729  158.6839 H   0  0  0  0  0  0  0  0  0  0  0  0
  153.0407  141.1940  160.7262 H   0  0  0  0  0  0  0  0  0  0  0  0
  152.0373  143.5931  161.2340 H   0  0  0  0  0  0  0  0  0  0  0  0
  153.5171  143.7467  160.2714 H   0  0  0  0  0  0  0  0  0  0  0  0
  152.2944  144.5309  158.4622 H   0  0  0  0  0  0  0  0  0  0  0  0
  150.8395  144.5051  159.4378 H   0  0  0  0  0  0  0  0  0  0  0  0
  1  2  1  0  0  0  0
  1 19  1  0  0  0  0
  1 20  1  0  0  0  0
  2  3  2  0  0  0  0
  2  4  1  0  0  0  0
  4  5  1  0  0  0  0
  4 21  1  0  0  0  0
  4 22  1  0  0  0  0
  5 18  1  0  0  0  0
  5  6  2  0  0  0  0
  6  7  1  0  0  0  0
  6 23  1  0  0  0  0
  7  8  1  0  0  0  0
  8  9  1  0  0  0  0
  8 18  2  0  0  0  0
  9 10  1  0  0  0  0
  9 24  1  0  0  0  0
 10 11  2  0  0  0  0
 10 12  1  0  0  0  0
 12 13  1  0  0  0  0
 12 25  1  0  0  0  0
 12 26  1  0  0  0  0
 13 17  1  0  0  0  0
 13 14  1  0  0  0  0
 13 27  1  0  0  0  0
 14 15  2  0  0  0  0
 14 28  1  0  0  0  0
 15 16  1  0  0  0  0
 15 29  1  0  0  0  0
 16 17  1  0  0  0  0
 16 30  1  0  0  0  0
 16 31  1  0  0  0  0
 17 32  1  0  0  0  0
 17 33  1  0  0  0  0
M  END
> <s_m_source_file>
AV-unprocessed.smi

> <i_m_source_file_index>
2068

> <i_lp_mmshare_version>
43012

> <i_f3d_flags>
0

> <s_epik_input>
W05IMl1DKD1PKVtDSDJdYzFbY0hdc2MobjEpW05IXUMoPU8pW0NIMl1bQ0BASF0yW0NIXT1bQ0hdW0NIMl1bQ0gyXTI=

> <s_epik_cmdline>
J2VwaWtfcHl0aG9uJywgJy1waCcsICc3LjAnLCAnLXRuJywgJzgnLCAnLW1hJywgJzIwMCcsICctbWV0YWxfYmluZGluZycsICctaW1hZScsICc8aW5maWxlLm1hZT4nLCAnLW9tYWUnLCAnPG91dGZpbGUubWFlPic=

> <r_lp_tautomer_probability>
1

> <r_epik_Ionization_Penalty>
0.000253249

> <r_epik_Ionization_Penalty_Charging>
0

> <r_epik_Ionization_Penalty_Neutral>
0.000253249

> <r_epik_State_Penalty>
-0

> <r_epik_Charging_Adjusted_Penalty>
0

> <i_epik_Tot_Q>
0

> <i_epik_Tot_abs_Q>
0

> <r_epik_Metal_State_Penalty>
0.148671

> <b_epik_Metal_Only>
0

> <s_lp_Force_Field>
OPLS_2005

> <r_lp_Energy>
16.4011

> <b_lp_Chiralities_Consistent>
1

> <s_lp_Variant>
AV-unprocessed.smi:2068-2

> <Gold.Version>
5.8.1

> <Gold.Id.Protein>
6NUR|6NUR_protein|mol2

> <Gold.PLP.Fitness>
47.9988

> <Gold.PLP.PLP>
-36.2423

> <Gold.PLP.part.hbond>
-5.0000

> <Gold.PLP.part.metal>
0.0000

> <Gold.PLP.part.buried>
-4.8715

> <Gold.PLP.part.nonpolar>
-28.0118

> <Gold.PLP.part.repulsive>
0.9806

> <Gold.PLP.ligand.clash>
0.0000

> <Gold.PLP.ligand.torsion>
1.0695

> <Gold.PLP.Chemscore.Hbond>
3.6249

> <Gold.PLP.Chemscore.CHOScore>
1.0000

> <Gold.PLP.Chemscore.Metal>
0.0000

> <Gold.Chemscore.Hbonds>
donor molecule, donor type, donor heavy atom, donor atom, acceptor molecule, acceptor atom, score
      L1  H     1    19       P1 10171  0.96
      L1  H     9    24       P1  8028  0.99
      P1  H  7954  7966       L1     3  1.00
      P1  H  7989  7998       L1    11  0.56
      L1  C     6    23       P1 10175  0.83

> <Gold.PLP.Chemscore.Internal.Correction>
0.0208

> <Gold.Rescore>
     Score         DG    S(hbond)    S(metal)    S(lipo)     H(rot)  DE(clash)    DE(int)     intcor
     17.06     -20.71       3.40        0.00      81.43       2.21       1.54       2.11       ----

> <Gold.Chemscore.Fitness>
17.0628

> <Gold.Chemscore.DG>
-20.7118

> <Gold.Chemscore.ZeroCoef>
-5.4800

> <Gold.Chemscore.Hbond>
3.3984

> <Gold.Chemscore.Metal>
0.0000

> <Gold.Chemscore.Lipo>
81.4260

> <Gold.Chemscore.Internal_Hbond>
0.0000

> <Gold.Chemscore.DEClash>
1.5412

> <Gold.Chemscore.DEInternal>
2.1078

> <Gold.Chemscore.Rot>
2.2053

> <Gold.Chemscore.Internal.Correction>
   9.000000E+99

> <Gold.Chemscore.Hbonds>
donor molecule, donor type, donor heavy atom, donor atom, acceptor molecule, acceptor atom, score
      L1  H     1    19       P1 10171  0.92
      L1  H     9    24       P1  8028  0.94
      P1  H  7954  7966       L1     3  0.95
      P1  H  7989  7998       L1    11  0.31

> <Gold.Chemscore.Hbond.Weighted>
-11.3505

> <Gold.Chemscore.Metal.Weighted>
-0.0000

> <Gold.Chemscore.Lipo.Weighted>
-9.5268

> <Gold.Chemscore.Internal_Hbond.Weighted>
0.0000

> <Gold.Chemscore.DEClash.Weighted>
1.5412

> <Gold.Chemscore.DEInternal.Weighted>
2.1078

> <Gold.Chemscore.Rot.Weighted>
5.6456

> <Gold.Chemscore.Internal.Correction.Weighted>
   9.000000E+99

> <Gold.Protein.RotatedTorsions>
[ 6907 6896 6895 6894 ] final  108.77 input  -60.11 | X-H torsion
[ 7974 7965 7964 7962 ] final   19.59 input  175.53 | X-H torsion
[ 8008 7997 7996 7995 ] final   43.66 input   59.86 | X-H torsion
[ 10167 10162 10161 10158 ] final -169.49 input  -65.29 | X-H torsion
[ 10718 10713 10712 10709 ] final -168.83 input   66.30 | X-H torsion
[ 10763 10752 10751 10750 ] final  137.51 input  -60.55 | X-H torsion
[ 11005 11000 10999 10996 ] final -102.60 input  -57.11 | X-H torsion

> <Gold.Protein.ActiveResidues>
 VAL166  LYS551  ARG553  GLY616  TRP617  ASP618  TYR619  PRO620  LYS621  CYS622 
 ASP623  PHE694  ASN695  SER759  ASP760  ASP761  ALA762  ILE779  LEU786  VAL792 
 PHE793  MET794  SER795  GLU796  ALA797  LYS798  CYS799  TRP800  GLU811  SER814 

> <Gold.Protein.RotatedAtoms>
  152.5097  133.9040  159.7454 H   0  0  0  0  0  0  0  0  0  0  0  0  # atno 6907 bound_to 6896
  150.9449  133.6606  159.2790 H   0  0  0  0  0  0  0  0  0  0  0  0  # atno 6908 bound_to 6896
  151.3904  135.0960  159.9577 H   0  0  0  0  0  0  0  0  0  0  0  0  # atno 6909 bound_to 6896
  146.2143  139.8291  142.8664 H   0  0  0  0  0  0  0  0  0  0  0  0  # atno 7974 bound_to 7965
  155.3065  140.3388  155.4245 H   0  0  0  0  0  0  0  0  0  0  0  0  # atno 8008 bound_to 7997
  156.1976  140.1721  156.8004 H   0  0  0  0  0  0  0  0  0  0  0  0  # atno 8009 bound_to 7997
  154.5518  140.0704  156.8664 H   0  0  0  0  0  0  0  0  0  0  0  0  # atno 8010 bound_to 7997
  139.5920  144.1194  152.1645 H   0  0  0  0  0  0  0  0  0  0  0  0  # atno 10167 bound_to 10162
  156.7027  130.9203  151.3081 H   0  0  0  0  0  0  0  0  0  0  0  0  # atno 10718 bound_to 10713
  153.8743  135.3052  155.3443 H   0  0  0  0  0  0  0  0  0  0  0  0  # atno 10763 bound_to 10752
  154.7791  135.4845  153.9810 H   0  0  0  0  0  0  0  0  0  0  0  0  # atno 10764 bound_to 10752
  153.1388  135.6819  153.9156 H   0  0  0  0  0  0  0  0  0  0  0  0  # atno 10765 bound_to 10752
  141.1182  133.8572  157.1380 H   0  0  0  0  0  0  0  0  0  0  0  0  # atno 11005 bound_to 11000
  145.3016  141.0196  143.3605 LP  0  0  0  0  0  0  0  0  0  0  0  0  # atno 17320 bound_to 7965
  144.9002  139.4660  143.6636 LP  0  0  0  0  0  0  0  0  0  0  0  0  # atno 17321 bound_to 7965
  140.0770  144.5732  150.7150 LP  0  0  0  0  0  0  0  0  0  0  0  0  # atno 17342 bound_to 10162
  140.7180  143.2562  151.4370 LP  0  0  0  0  0  0  0  0  0  0  0  0  # atno 17343 bound_to 10162
  157.6967  130.9289  150.0665 LP  0  0  0  0  0  0  0  0  0  0  0  0  # atno 17370 bound_to 10713
  156.1717  130.3646  149.9156 LP  0  0  0  0  0  0  0  0  0  0  0  0  # atno 17371 bound_to 10713
  140.0119  134.9984  157.0413 LP  0  0  0  0  0  0  0  0  0  0  0  0  # atno 17394 bound_to 11000
  140.4585  134.1509  155.7188 LP  0  0  0  0  0  0  0  0  0  0  0  0  # atno 17395 bound_to 11000

$$$$
