AV-unprocessed.smi:1265|AV-procd|sdf|5315|dock1
  -GOLD-   22720 4443D 1   1.00000     0.00000
 Structure written by MMmdl.
 44 46  0  0  0  0  0  0  0  0  1 V2000
  144.7881  136.3663  152.9404 O   0  0  0  0  0  0  0  0  0  0  0  0
  145.9917  136.2766  152.7001 C   0  0  0  0  0  0  0  0  0  0  0  0
  146.9058  137.1307  153.1821 N   0  0  0  0  0  0  0  0  0  0  0  0
  146.6330  138.2882  154.0338 C   0  0  0  0  0  0  0  0  0  0  0  0
  147.9257  139.0993  154.3812 C   0  0  1  0  0  0  0  0  0  0  0  0
  149.1146  138.1924  154.4150 N   0  0  0  0  0  0  0  0  0  0  0  0
  150.4165  138.8394  154.6349 C   0  0  0  0  0  0  0  0  0  0  0  0
  151.5855  137.8415  154.5708 C   0  0  0  0  0  0  0  0  0  0  0  0
  151.3830  136.7998  155.5159 O   0  0  0  0  0  0  0  0  0  0  0  0
  150.1689  136.0982  155.2866 C   0  0  0  0  0  0  0  0  0  0  0  0
  148.9847  137.0759  155.3615 C   0  0  0  0  0  0  0  0  0  0  0  0
  148.0587  140.2549  153.3471 C   0  0  0  0  0  0  0  0  0  0  0  0
  146.9654  141.2961  153.6100 C   0  0  0  0  0  0  0  0  0  0  0  0
  146.6580  141.3157  155.3917 S   0  0  0  0  0  0  0  0  0  0  0  0
  147.6804  139.8519  155.7143 C   0  0  0  0  0  0  0  0  0  0  0  0
  146.5721  135.3339  151.9365 N   0  0  0  0  0  0  0  0  0  0  0  0
  145.9863  134.2383  151.2426 C   0  0  0  0  0  0  0  0  0  0  0  0
  144.5848  134.2508  151.0825 C   0  0  0  0  0  0  0  0  0  0  0  0
  143.9655  133.1804  150.4073 C   0  0  0  0  0  0  0  0  0  0  0  0
  144.6451  132.1301  149.9021 N   0  0  0  0  0  0  0  0  0  0  0  0
  145.9852  132.1150  150.0606 C   0  0  0  0  0  0  0  0  0  0  0  0
  146.7025  133.1338  150.7195 C   0  0  0  0  0  0  0  0  0  0  0  0
  147.8712  136.9822  152.9270 H   0  0  0  0  0  0  0  0  0  0  0  0
  145.8699  138.9195  153.5795 H   0  0  0  0  0  0  0  0  0  0  0  0
  146.1464  137.9230  154.9370 H   0  0  0  0  0  0  0  0  0  0  0  0
  150.6136  139.5922  153.8757 H   0  0  0  0  0  0  0  0  0  0  0  0
  150.4381  139.3415  155.6014 H   0  0  0  0  0  0  0  0  0  0  0  0
  151.6792  137.4208  153.5685 H   0  0  0  0  0  0  0  0  0  0  0  0
  152.5258  138.3456  154.7941 H   0  0  0  0  0  0  0  0  0  0  0  0
  150.2012  135.6046  154.3141 H   0  0  0  0  0  0  0  0  0  0  0  0
  150.0627  135.3165  156.0389 H   0  0  0  0  0  0  0  0  0  0  0  0
  148.9040  137.4580  156.3796 H   0  0  0  0  0  0  0  0  0  0  0  0
  148.0817  136.5009  155.1700 H   0  0  0  0  0  0  0  0  0  0  0  0
  148.9961  140.7916  153.4735 H   0  0  0  0  0  0  0  0  0  0  0  0
  148.0443  139.9062  152.3147 H   0  0  0  0  0  0  0  0  0  0  0  0
  147.2562  142.2863  153.2585 H   0  0  0  0  0  0  0  0  0  0  0  0
  146.0423  141.0284  153.0957 H   0  0  0  0  0  0  0  0  0  0  0  0
  147.2097  139.2228  156.4705 H   0  0  0  0  0  0  0  0  0  0  0  0
  148.6109  140.2195  156.1436 H   0  0  0  0  0  0  0  0  0  0  0  0
  147.5771  135.3935  151.8621 H   0  0  0  0  0  0  0  0  0  0  0  0
  143.9890  135.0658  151.4672 H   0  0  0  0  0  0  0  0  0  0  0  0
  142.8943  133.1681  150.2704 H   0  0  0  0  0  0  0  0  0  0  0  0
  146.5042  131.2609  149.6513 H   0  0  0  0  0  0  0  0  0  0  0  0
  147.7725  133.0356  150.8088 H   0  0  0  0  0  0  0  0  0  0  0  0
  1  2  2  0  0  0  0
  2  3  1  0  0  0  0
  2 16  1  0  0  0  0
  3  4  1  0  0  0  0
  3 23  1  0  0  0  0
  4  5  1  0  0  0  0
  4 24  1  0  0  0  0
  4 25  1  0  0  0  0
  5 15  1  0  0  0  0
  5  6  1  0  0  0  0
  5 12  1  0  0  0  0
  6 11  1  0  0  0  0
  6  7  1  0  0  0  0
  7  8  1  0  0  0  0
  7 26  1  0  0  0  0
  7 27  1  0  0  0  0
  8  9  1  0  0  0  0
  8 28  1  0  0  0  0
  8 29  1  0  0  0  0
  9 10  1  0  0  0  0
 10 11  1  0  0  0  0
 10 30  1  0  0  0  0
 10 31  1  0  0  0  0
 11 32  1  0  0  0  0
 11 33  1  0  0  0  0
 12 13  1  0  0  0  0
 12 34  1  0  0  0  0
 12 35  1  0  0  0  0
 13 14  1  0  0  0  0
 13 36  1  0  0  0  0
 13 37  1  0  0  0  0
 14 15  1  0  0  0  0
 15 38  1  0  0  0  0
 15 39  1  0  0  0  0
 16 17  1  0  0  0  0
 16 40  1  0  0  0  0
 17 22  1  0  0  0  0
 17 18  2  0  0  0  0
 18 19  1  0  0  0  0
 18 41  1  0  0  0  0
 19 20  2  0  0  0  0
 19 42  1  0  0  0  0
 20 21  1  0  0  0  0
 21 22  2  0  0  0  0
 21 43  1  0  0  0  0
 22 44  1  0  0  0  0
M  END
> <s_m_source_file>
AV-unprocessed.smi

> <i_m_source_file_index>
1265

> <i_lp_mmshare_version>
43012

> <i_f3d_flags>
0

> <s_epik_input>
W2NIXTFbY0hdbltjSF1bY0hdYzFbTkhdQyg9TylbTkhdW0NIMl1bQ0BdMihbQ0gyXVtDSDJdU1tDSDJdMilOM1tDSDJdW0NIMl1PW0NIMl1bQ0gyXTM=

> <s_epik_cmdline>
J2VwaWtfcHl0aG9uJywgJy1waCcsICc3LjAnLCAnLXRuJywgJzgnLCAnLW1hJywgJzIwMCcsICctbWV0YWxfYmluZGluZycsICctaW1hZScsICc8aW5maWxlLm1hZT4nLCAnLW9tYWUnLCAnPG91dGZpbGUubWFlPic=

> <r_epik_Ionization_Penalty>
0.131531

> <r_epik_Ionization_Penalty_Charging>
0

> <r_epik_Ionization_Penalty_Neutral>
0.131531

> <r_epik_State_Penalty>
0.114508

> <r_epik_Charging_Adjusted_Penalty>
0.114508

> <i_epik_Tot_Q>
0

> <i_epik_Tot_abs_Q>
0

> <r_epik_Metal_State_Penalty>
0.0964753

> <b_epik_Metal_Only>
0

> <s_lp_Force_Field>
OPLS_2005

> <r_lp_Energy>
59.4994

> <b_lp_Chiralities_Consistent>
1

> <s_lp_Variant>
AV-unprocessed.smi:1265-1

> <Gold.Version>
5.8.1

> <Gold.Id.Protein>
6NUR|6NUR_protein|mol2

> <Gold.PLP.Fitness>
43.8612

> <Gold.PLP.PLP>
-30.8039

> <Gold.PLP.part.hbond>
-2.8952

> <Gold.PLP.part.metal>
0.0000

> <Gold.PLP.part.buried>
-1.7048

> <Gold.PLP.part.nonpolar>
-27.6567

> <Gold.PLP.part.repulsive>
0.6542

> <Gold.PLP.ligand.clash>
0.0000

> <Gold.PLP.ligand.torsion>
0.6288

> <Gold.PLP.Chemscore.Hbond>
2.9600

> <Gold.PLP.Chemscore.CHOScore>
1.7744

> <Gold.PLP.Chemscore.Metal>
0.0000

> <Gold.Chemscore.Hbonds>
donor molecule, donor type, donor heavy atom, donor atom, acceptor molecule, acceptor atom, score
      L1  H     3    23       P1  7948  0.93
      L1  H    16    40       P1  7948  1.00
      P1  H 10752 10763       L1     9  0.36
      L1  C    19    42       P1 10186  1.00
      L1  C    21    43       P1 10747  0.75

> <Gold.PLP.Chemscore.Internal.Correction>
0.1117

> <Gold.Rescore>
     Score         DG    S(hbond)    S(metal)    S(lipo)     H(rot)  DE(clash)    DE(int)     intcor
     15.88     -19.64       2.18        0.00      90.50       1.44       1.84       1.92       ----

> <Gold.Chemscore.Fitness>
15.8753

> <Gold.Chemscore.DG>
-19.6376

> <Gold.Chemscore.ZeroCoef>
-5.4800

> <Gold.Chemscore.Hbond>
2.1758

> <Gold.Chemscore.Metal>
0.0000

> <Gold.Chemscore.Lipo>
90.4996

> <Gold.Chemscore.Internal_Hbond>
0.0000

> <Gold.Chemscore.DEClash>
1.8434

> <Gold.Chemscore.DEInternal>
1.9189

> <Gold.Chemscore.Rot>
1.4445

> <Gold.Chemscore.Internal.Correction>
   9.000000E+99

> <Gold.Chemscore.Hbonds>
donor molecule, donor type, donor heavy atom, donor atom, acceptor molecule, acceptor atom, score
      L1  H     3    23       P1  7948  0.91
      L1  H    16    40       P1  7948  0.92
      P1  H 10752 10763       L1     9  0.01

> <Gold.Chemscore.Hbond.Weighted>
-7.2671

> <Gold.Chemscore.Metal.Weighted>
-0.0000

> <Gold.Chemscore.Lipo.Weighted>
-10.5885

> <Gold.Chemscore.Internal_Hbond.Weighted>
0.0000

> <Gold.Chemscore.DEClash.Weighted>
1.8434

> <Gold.Chemscore.DEInternal.Weighted>
1.9189

> <Gold.Chemscore.Rot.Weighted>
3.6980

> <Gold.Chemscore.Internal.Correction.Weighted>
   9.000000E+99

> <Gold.Protein.RotatedTorsions>
[ 6907 6896 6895 6894 ] final   64.39 input  -60.11 | X-H torsion
[ 7974 7965 7964 7962 ] final  -33.45 input  175.53 | X-H torsion
[ 8008 7997 7996 7995 ] final   56.63 input   59.86 | X-H torsion
[ 10167 10162 10161 10158 ] final   35.28 input  -65.29 | X-H torsion
[ 10718 10713 10712 10709 ] final  169.27 input   66.30 | X-H torsion
[ 10763 10752 10751 10750 ] final   59.43 input  -60.55 | X-H torsion
[ 11005 11000 10999 10996 ] final   98.72 input  -57.11 | X-H torsion

> <Gold.Protein.ActiveResidues>
 VAL166  LYS551  ARG553  GLY616  TRP617  ASP618  TYR619  PRO620  LYS621  CYS622 
 ASP623  PHE694  ASN695  SER759  ASP760  ASP761  ALA762  ILE779  LEU786  VAL792 
 PHE793  MET794  SER795  GLU796  ALA797  LYS798  CYS799  TRP800  GLU811  SER814 

> <Gold.Protein.RotatedAtoms>
  152.4328  134.5745  159.9930 H   0  0  0  0  0  0  0  0  0  0  0  0  # atno 6907 bound_to 6896
  151.5863  133.3366  159.3026 H   0  0  0  0  0  0  0  0  0  0  0  0  # atno 6908 bound_to 6896
  150.8223  134.7472  159.6847 H   0  0  0  0  0  0  0  0  0  0  0  0  # atno 6909 bound_to 6896
  146.0909  140.5918  142.8865 H   0  0  0  0  0  0  0  0  0  0  0  0  # atno 7974 bound_to 7965
  155.5205  140.3479  155.4406 H   0  0  0  0  0  0  0  0  0  0  0  0  # atno 8008 bound_to 7997
  156.0787  140.1381  156.9766 H   0  0  0  0  0  0  0  0  0  0  0  0  # atno 8009 bound_to 7997
  154.4568  140.0950  156.6755 H   0  0  0  0  0  0  0  0  0  0  0  0  # atno 8010 bound_to 7997
  140.4237  144.1424  150.6151 H   0  0  0  0  0  0  0  0  0  0  0  0  # atno 10167 bound_to 10162
  157.0250  131.0243  151.2762 H   0  0  0  0  0  0  0  0  0  0  0  0  # atno 10718 bound_to 10713
  152.9894  135.5571  154.5713 H   0  0  0  0  0  0  0  0  0  0  0  0  # atno 10763 bound_to 10752
  154.5112  135.2802  155.1343 H   0  0  0  0  0  0  0  0  0  0  0  0  # atno 10764 bound_to 10752
  154.2733  135.6359  153.5371 H   0  0  0  0  0  0  0  0  0  0  0  0  # atno 10765 bound_to 10752
  139.8772  134.9062  156.4498 H   0  0  0  0  0  0  0  0  0  0  0  0  # atno 11005 bound_to 11000
  144.7360  140.4808  143.6904 LP  0  0  0  0  0  0  0  0  0  0  0  0  # atno 17320 bound_to 7965
  145.6040  139.1506  143.3113 LP  0  0  0  0  0  0  0  0  0  0  0  0  # atno 17321 bound_to 7965
  140.4505  143.2488  151.9354 LP  0  0  0  0  0  0  0  0  0  0  0  0  # atno 17342 bound_to 10162
  139.4783  144.5566  151.8303 LP  0  0  0  0  0  0  0  0  0  0  0  0  # atno 17343 bound_to 10162
  157.5221  130.8004  149.7820 LP  0  0  0  0  0  0  0  0  0  0  0  0  # atno 17370 bound_to 10713
  156.0089  130.3842  150.2333 LP  0  0  0  0  0  0  0  0  0  0  0  0  # atno 17371 bound_to 10713
  140.8940  133.7827  155.9604 LP  0  0  0  0  0  0  0  0  0  0  0  0  # atno 17394 bound_to 11000
  140.8723  134.2712  157.5185 LP  0  0  0  0  0  0  0  0  0  0  0  0  # atno 17395 bound_to 11000

$$$$
