AV-unprocessed.smi:2189|AV-procd|sdf|8887|dock10
  -GOLD-   2272012 93D 1   1.00000     0.00000
 Structure written by MMmdl.
 39 41  0  0  0  0  0  0  0  0  3 V2000
  155.1656  139.4852  158.9293 O   0  0  0  0  0  0  0  0  0  0  0  0
  154.8220  140.0537  159.9739 C   0  0  0  0  0  0  0  0  0  0  0  0
  155.3319  139.7982  161.2180 N   0  5  0  0  0  0  0  0  0  0  0  0
  155.5961  138.4705  161.7769 C   0  0  0  0  0  0  0  0  0  0  0  0
  154.3203  137.9177  162.4497 C   0  0  0  0  0  0  0  0  0  0  0  0
  154.4272  136.4727  162.9287 C   0  0  0  0  0  0  0  0  0  0  0  0
  154.1120  136.1008  164.2556 C   0  0  0  0  0  0  0  0  0  0  0  0
  154.2242  134.7495  164.6417 C   0  0  0  0  0  0  0  0  0  0  0  0
  154.6570  133.7957  163.6977 C   0  0  0  0  0  0  0  0  0  0  0  0
  154.9656  134.2187  162.3889 C   0  0  0  0  0  0  0  0  0  0  0  0
  154.8444  135.5226  162.0569 N   0  3  0  0  0  0  0  0  0  0  0  0
  153.7592  141.0731  159.9133 C   0  0  0  0  0  0  0  0  0  0  0  0
  153.7222  142.0260  160.8812 C   0  0  0  0  0  0  0  0  0  0  0  0
  152.7252  143.0672  160.8846 C   0  0  0  0  0  0  0  0  0  0  0  0
  151.8045  143.0579  159.9147 C   0  0  0  0  0  0  0  0  0  0  0  0
  151.7642  142.0940  158.9083 N   0  0  0  0  0  0  0  0  0  0  0  0
  150.6464  142.1603  157.9733 C   0  0  0  0  0  0  0  0  0  0  0  0
  151.1202  141.8711  156.5606 C   0  0  0  0  0  0  0  0  0  0  0  0
  151.7306  140.1474  156.5829 S   0  0  0  0  0  0  0  0  0  0  0  0
  150.6151  139.2737  156.9796 O   0  0  0  0  0  0  0  0  0  0  0  0
  152.4283  139.8945  155.3131 O   0  0  0  0  0  0  0  0  0  0  0  0
  152.8381  140.2337  157.8362 N   0  0  0  0  0  0  0  0  0  0  0  0
  152.7628  141.0827  158.8223 C   0  0  0  0  0  0  0  0  0  0  0  0
  155.9301  137.7517  161.0274 H   0  0  0  0  0  0  0  0  0  0  0  0
  156.3931  138.5107  162.5195 H   0  0  0  0  0  0  0  0  0  0  0  0
  154.0684  138.5438  163.3063 H   0  0  0  0  0  0  0  0  0  0  0  0
  153.4768  138.0017  161.7631 H   0  0  0  0  0  0  0  0  0  0  0  0
  153.7756  136.8430  164.9648 H   0  0  0  0  0  0  0  0  0  0  0  0
  153.9793  134.4488  165.6496 H   0  0  0  0  0  0  0  0  0  0  0  0
  154.7484  132.7552  163.9727 H   0  0  0  0  0  0  0  0  0  0  0  0
  155.3004  133.5587  161.6022 H   0  0  0  0  0  0  0  0  0  0  0  0
  154.4411  142.0252  161.6880 H   0  0  0  0  0  0  0  0  0  0  0  0
  152.7230  143.8319  161.6472 H   0  0  0  0  0  0  0  0  0  0  0  0
  151.0317  143.8109  159.8642 H   0  0  0  0  0  0  0  0  0  0  0  0
  149.8765  141.4512  158.2792 H   0  0  0  0  0  0  0  0  0  0  0  0
  150.1857  143.1485  157.9932 H   0  0  0  0  0  0  0  0  0  0  0  0
  150.3098  141.9473  155.8362 H   0  0  0  0  0  0  0  0  0  0  0  0
  151.9268  142.5375  156.2530 H   0  0  0  0  0  0  0  0  0  0  0  0
  155.0655  135.8056  161.1020 H   0  0  0  0  0  0  0  0  0  0  0  0
  1  2  2  0  0  0  0
  2  3  1  0  0  0  0
  2 12  1  0  0  0  0
  3  4  1  0  0  0  0
  4  5  1  0  0  0  0
  4 24  1  0  0  0  0
  4 25  1  0  0  0  0
  5  6  1  0  0  0  0
  5 26  1  0  0  0  0
  5 27  1  0  0  0  0
  6 11  1  0  0  0  0
  6  7  2  0  0  0  0
  7  8  1  0  0  0  0
  7 28  1  0  0  0  0
  8  9  2  0  0  0  0
  8 29  1  0  0  0  0
  9 10  1  0  0  0  0
  9 30  1  0  0  0  0
 10 11  2  0  0  0  0
 10 31  1  0  0  0  0
 11 39  1  0  0  0  0
 12 23  1  0  0  0  0
 12 13  2  0  0  0  0
 13 14  1  0  0  0  0
 13 32  1  0  0  0  0
 14 15  2  0  0  0  0
 14 33  1  0  0  0  0
 15 16  1  0  0  0  0
 15 34  1  0  0  0  0
 16 23  1  0  0  0  0
 16 17  1  0  0  0  0
 17 18  1  0  0  0  0
 17 35  1  0  0  0  0
 17 36  1  0  0  0  0
 18 19  1  0  0  0  0
 18 37  1  0  0  0  0
 18 38  1  0  0  0  0
 19 20  2  0  0  0  0
 19 21  2  0  0  0  0
 19 22  1  0  0  0  0
 22 23  2  0  0  0  0
M  CHG  1   3  -1
M  CHG  1  11   1
M  END
> <s_m_source_file>
AV-unprocessed.smi

> <i_m_source_file_index>
2189

> <i_lp_mmshare_version>
43012

> <i_f3d_flags>
0

> <s_epik_input>
W0NIMl0xW0NIMl1TKD1PKSg9TylOPUMoTjEyKUMoPVtDSF1bQ0hdPVtDSF0yKUMoPU8pW05IXVtDSDJdW0NIMl1jM1tjSF1bY0hdW2NIXVtjSF1uMw==

> <s_epik_cmdline>
J2VwaWtfcHl0aG9uJywgJy1waCcsICc3LjAnLCAnLXRuJywgJzgnLCAnLW1hJywgJzIwMCcsICctbWV0YWxfYmluZGluZycsICctaW1hZScsICc8aW5maWxlLm1hZT4nLCAnLW9tYWUnLCAnPG91dGZpbGUubWFlPic=

> <r_epik_Ionization_Penalty>
6.52844

> <r_epik_Ionization_Penalty_Charging>
6.52844

> <r_epik_Ionization_Penalty_Neutral>
1.18271e-13

> <r_epik_State_Penalty>
7.49351

> <r_epik_Charging_Adjusted_Penalty>
14.0219

> <i_epik_Tot_Q>
0

> <i_epik_Tot_abs_Q>
2

> <r_epik_Metal_State_Penalty>
3.53414

> <b_epik_Metal_Only>
1

> <s_lp_Force_Field>
OPLS_2005

> <r_lp_Energy>
35.7172

> <b_lp_Chiralities_Consistent>
1

> <s_lp_Variant>
AV-unprocessed.smi:2189-4

> <Gold.Version>
5.8.1

> <Gold.Id.Protein>
6NUR|6NUR_protein|mol2

> <Gold.PLP.Fitness>
51.7308

> <Gold.PLP.PLP>
-46.0479

> <Gold.PLP.part.hbond>
-3.9561

> <Gold.PLP.part.metal>
0.0000

> <Gold.PLP.part.buried>
-3.3348

> <Gold.PLP.part.nonpolar>
-37.6881

> <Gold.PLP.part.repulsive>
0.0543

> <Gold.PLP.ligand.clash>
0.0000

> <Gold.PLP.ligand.torsion>
0.8713

> <Gold.PLP.Chemscore.Hbond>
2.3481

> <Gold.PLP.Chemscore.CHOScore>
0.0000

> <Gold.PLP.Chemscore.Metal>
0.0000

> <Gold.Chemscore.Hbonds>
donor molecule, donor type, donor heavy atom, donor atom, acceptor molecule, acceptor atom, score
      P1  H  7989  7998       L1    21  0.41
      P1  H  7997  8008       L1    21  0.80
      P1  H  7997  8010       L1     1  1.00

> <Gold.PLP.Chemscore.Internal.Correction>
0.3811

> <Gold.Rescore>
     Score         DG    S(hbond)    S(metal)    S(lipo)     H(rot)  DE(clash)    DE(int)     intcor
     17.27     -19.92       1.66        0.00     109.17       1.51       0.20       2.45       ----

> <Gold.Chemscore.Fitness>
17.2658

> <Gold.Chemscore.DG>
-19.9156

> <Gold.Chemscore.ZeroCoef>
-5.4800

> <Gold.Chemscore.Hbond>
1.6559

> <Gold.Chemscore.Metal>
0.0000

> <Gold.Chemscore.Lipo>
109.1715

> <Gold.Chemscore.Internal_Hbond>
0.0000

> <Gold.Chemscore.DEClash>
0.2032

> <Gold.Chemscore.DEInternal>
2.4466

> <Gold.Chemscore.Rot>
1.5109

> <Gold.Chemscore.Internal.Correction>
   9.000000E+99

> <Gold.Chemscore.Hbonds>
donor molecule, donor type, donor heavy atom, donor atom, acceptor molecule, acceptor atom, score
      P1  H  7989  7998       L1    21  0.38
      P1  H  7997  8008       L1    21  0.20
      P1  H  7997  8010       L1     1  1.00

> <Gold.Chemscore.Hbond.Weighted>
-5.5306

> <Gold.Chemscore.Metal.Weighted>
-0.0000

> <Gold.Chemscore.Lipo.Weighted>
-12.7731

> <Gold.Chemscore.Internal_Hbond.Weighted>
0.0000

> <Gold.Chemscore.DEClash.Weighted>
0.2032

> <Gold.Chemscore.DEInternal.Weighted>
2.4466

> <Gold.Chemscore.Rot.Weighted>
3.8680

> <Gold.Chemscore.Internal.Correction.Weighted>
   9.000000E+99

> <Gold.Protein.RotatedTorsions>
[ 6907 6896 6895 6894 ] final  153.24 input  -60.11 | X-H torsion
[ 7974 7965 7964 7962 ] final  130.87 input  175.53 | X-H torsion
[ 8008 7997 7996 7995 ] final  -19.00 input   59.86 | X-H torsion
[ 10167 10162 10161 10158 ] final   65.58 input  -65.29 | X-H torsion
[ 10718 10713 10712 10709 ] final   70.08 input   66.30 | X-H torsion
[ 10763 10752 10751 10750 ] final -172.01 input  -60.55 | X-H torsion
[ 11005 11000 10999 10996 ] final -144.12 input  -57.11 | X-H torsion

> <Gold.Protein.ActiveResidues>
 VAL166  LYS551  ARG553  GLY616  TRP617  ASP618  TYR619  PRO620  LYS621  CYS622 
 ASP623  PHE694  ASN695  SER759  ASP760  ASP761  ALA762  ILE779  LEU786  VAL792 
 PHE793  MET794  SER795  GLU796  ALA797  LYS798  CYS799  TRP800  GLU811  SER814 

> <Gold.Protein.RotatedAtoms>
  152.0755  133.4127  159.4477 H   0  0  0  0  0  0  0  0  0  0  0  0  # atno 6907 bound_to 6896
  150.6863  134.3043  159.4728 H   0  0  0  0  0  0  0  0  0  0  0  0  # atno 6908 bound_to 6896
  152.0879  134.9427  160.0623 H   0  0  0  0  0  0  0  0  0  0  0  0  # atno 6909 bound_to 6896
  145.0133  139.4199  143.5234 H   0  0  0  0  0  0  0  0  0  0  0  0  # atno 7974 bound_to 7965
  154.4867  140.2100  155.9640 H   0  0  0  0  0  0  0  0  0  0  0  0  # atno 8008 bound_to 7997
  156.1246  140.3207  155.8227 H   0  0  0  0  0  0  0  0  0  0  0  0  # atno 8009 bound_to 7997
  155.4407  140.0510  157.3001 H   0  0  0  0  0  0  0  0  0  0  0  0  # atno 8010 bound_to 7997
  140.1098  144.4829  150.6985 H   0  0  0  0  0  0  0  0  0  0  0  0  # atno 10167 bound_to 10162
  157.6381  130.9459  150.0601 H   0  0  0  0  0  0  0  0  0  0  0  0  # atno 10718 bound_to 10713
  154.6241  135.2878  155.0292 H   0  0  0  0  0  0  0  0  0  0  0  0  # atno 10763 bound_to 10752
  154.1477  135.6508  153.4960 H   0  0  0  0  0  0  0  0  0  0  0  0  # atno 10764 bound_to 10752
  153.0249  135.5348  154.7042 H   0  0  0  0  0  0  0  0  0  0  0  0  # atno 10765 bound_to 10752
  140.8057  134.2804  157.4961 H   0  0  0  0  0  0  0  0  0  0  0  0  # atno 11005 bound_to 11000
  146.3473  139.9590  142.8719 LP  0  0  0  0  0  0  0  0  0  0  0  0  # atno 17320 bound_to 7965
  145.1993  140.9847  143.4165 LP  0  0  0  0  0  0  0  0  0  0  0  0  # atno 17321 bound_to 7965
  140.6932  143.2388  151.5073 LP  0  0  0  0  0  0  0  0  0  0  0  0  # atno 17342 bound_to 10162
  139.5626  144.2121  152.1714 LP  0  0  0  0  0  0  0  0  0  0  0  0  # atno 17343 bound_to 10162
  156.1637  130.3644  149.9263 LP  0  0  0  0  0  0  0  0  0  0  0  0  # atno 17370 bound_to 10713
  156.7255  130.9023  151.3621 LP  0  0  0  0  0  0  0  0  0  0  0  0  # atno 17371 bound_to 10713
  139.8718  134.9454  156.3910 LP  0  0  0  0  0  0  0  0  0  0  0  0  # atno 17394 bound_to 11000
  140.9250  133.7619  155.9953 LP  0  0  0  0  0  0  0  0  0  0  0  0  # atno 17395 bound_to 11000

$$$$
