AV-unprocessed.smi:1891|AV-procd|sdf|7666|dock5
  -GOLD-   22720 9403D 1   1.00000     0.00000
 Structure written by MMmdl.
 36 38  0  0  0  0  0  0  0  0  1 V2000
  152.9829  139.3256  155.6766 O   0  0  0  0  0  0  0  0  0  0  0  0
  152.1323  140.1446  156.4532 C   0  0  0  0  0  0  0  0  0  0  0  0
  150.8277  140.4795  155.7867 C   0  0  0  0  0  0  0  0  0  0  0  0
  150.4547  139.9556  154.6166 N   0  0  0  0  0  0  0  0  0  0  0  0
  149.2182  140.5305  154.4017 C   0  0  0  0  0  0  0  0  0  0  0  0
  148.3095  140.3816  153.3299 C   0  0  0  0  0  0  0  0  0  0  0  0
  147.0854  141.0821  153.3295 C   0  0  0  0  0  0  0  0  0  0  0  0
  146.7525  141.9378  154.3996 C   0  0  0  0  0  0  0  0  0  0  0  0
  147.6444  142.1004  155.4771 C   0  0  0  0  0  0  0  0  0  0  0  0
  148.8662  141.4011  155.4707 C   0  0  0  0  0  0  0  0  0  0  0  0
  149.9450  141.3454  156.3477 N   0  0  0  0  0  0  0  0  0  0  0  0
  150.0655  142.0811  157.6000 C   0  0  0  0  0  0  0  0  0  0  0  0
  151.3927  142.8616  157.6982 C   0  0  1  0  0  0  0  0  0  0  0  0
  151.1861  144.1550  157.1659 O   0  0  0  0  0  0  0  0  0  0  0  0
  151.9481  142.8963  159.1179 C   0  0  0  0  0  0  0  0  0  0  0  0
  152.7025  141.8110  159.6186 C   0  0  0  0  0  0  0  0  0  0  0  0
  153.2341  141.8539  160.9218 C   0  0  0  0  0  0  0  0  0  0  0  0
  153.0171  142.9826  161.7342 C   0  0  0  0  0  0  0  0  0  0  0  0
  153.5295  143.0245  162.9868 F   0  0  0  0  0  0  0  0  0  0  0  0
  152.2686  144.0683  161.2424 C   0  0  0  0  0  0  0  0  0  0  0  0
  151.7352  144.0275  159.9396 C   0  0  0  0  0  0  0  0  0  0  0  0
  151.0259  145.0864  159.4803 F   0  0  0  0  0  0  0  0  0  0  0  0
  152.6182  139.2509  154.8083 H   0  0  0  0  0  0  0  0  0  0  0  0
  151.9298  139.6382  157.3970 H   0  0  0  0  0  0  0  0  0  0  0  0
  152.6675  141.0649  156.6822 H   0  0  0  0  0  0  0  0  0  0  0  0
  148.5553  139.7280  152.5062 H   0  0  0  0  0  0  0  0  0  0  0  0
  146.3989  140.9622  152.5044 H   0  0  0  0  0  0  0  0  0  0  0  0
  145.8127  142.4703  154.3918 H   0  0  0  0  0  0  0  0  0  0  0  0
  147.3937  142.7571  156.2969 H   0  0  0  0  0  0  0  0  0  0  0  0
  149.2247  142.7744  157.6524 H   0  0  0  0  0  0  0  0  0  0  0  0
  149.9507  141.4038  158.4460 H   0  0  0  0  0  0  0  0  0  0  0  0
  152.1315  142.3926  157.0478 H   0  0  0  0  0  0  0  0  0  0  0  0
  150.3815  144.1522  156.6707 H   0  0  0  0  0  0  0  0  0  0  0  0
  152.8854  140.9429  159.0028 H   0  0  0  0  0  0  0  0  0  0  0  0
  153.8113  141.0216  161.2970 H   0  0  0  0  0  0  0  0  0  0  0  0
  152.1056  144.9362  161.8640 H   0  0  0  0  0  0  0  0  0  0  0  0
  1  2  1  0  0  0  0
  1 23  1  0  0  0  0
  2  3  1  0  0  0  0
  2 24  1  0  0  0  0
  2 25  1  0  0  0  0
  3 11  1  0  0  0  0
  3  4  2  0  0  0  0
  4  5  1  0  0  0  0
  5 10  2  0  0  0  0
  5  6  1  0  0  0  0
  6  7  2  0  0  0  0
  6 26  1  0  0  0  0
  7  8  1  0  0  0  0
  7 27  1  0  0  0  0
  8  9  2  0  0  0  0
  8 28  1  0  0  0  0
  9 10  1  0  0  0  0
  9 29  1  0  0  0  0
 10 11  1  0  0  0  0
 11 12  1  0  0  0  0
 12 13  1  0  0  0  0
 12 30  1  0  0  0  0
 12 31  1  0  0  0  0
 13 14  1  0  0  0  0
 13 15  1  0  0  0  0
 13 32  1  0  0  0  0
 14 33  1  0  0  0  0
 15 21  1  0  0  0  0
 15 16  2  0  0  0  0
 16 17  1  0  0  0  0
 16 34  1  0  0  0  0
 17 18  2  0  0  0  0
 17 35  1  0  0  0  0
 18 19  1  0  0  0  0
 18 20  1  0  0  0  0
 20 21  2  0  0  0  0
 20 36  1  0  0  0  0
 21 22  1  0  0  0  0
M  END
> <s_m_source_file>
AV-unprocessed.smi

> <i_m_source_file_index>
1891

> <i_lp_mmshare_version>
43012

> <i_f3d_flags>
0

> <s_epik_input>
W2NIXTFbY0hdW2NIXVtjSF1jKGMxMiluKGMobjIpW0NIMl1bT0hdKVtDSDJdW0NASF0oW09IXSljM1tjSF1bY0hdYyhGKVtjSF1jM0Y=

> <s_epik_cmdline>
J2VwaWtfcHl0aG9uJywgJy1waCcsICc3LjAnLCAnLXRuJywgJzgnLCAnLW1hJywgJzIwMCcsICctbWV0YWxfYmluZGluZycsICctaW1hZScsICc8aW5maWxlLm1hZT4nLCAnLW9tYWUnLCAnPG91dGZpbGUubWFlPic=

> <r_epik_Ionization_Penalty>
0.0634724

> <r_epik_Ionization_Penalty_Charging>
0

> <r_epik_Ionization_Penalty_Neutral>
0.0634724

> <r_epik_State_Penalty>
0.0551572

> <r_epik_Charging_Adjusted_Penalty>
0.0551572

> <i_epik_Tot_Q>
0

> <i_epik_Tot_abs_Q>
0

> <r_epik_Metal_State_Penalty>
5.78034e-05

> <b_epik_Metal_Only>
0

> <s_lp_Force_Field>
OPLS_2005

> <r_lp_Energy>
13.0815

> <b_lp_Chiralities_Consistent>
1

> <s_lp_Variant>
AV-unprocessed.smi:1891-2

> <Gold.Version>
5.8.1

> <Gold.Id.Protein>
6NUR|6NUR_protein|mol2

> <Gold.PLP.Fitness>
61.8101

> <Gold.PLP.PLP>
-55.1722

> <Gold.PLP.part.hbond>
-3.0000

> <Gold.PLP.part.metal>
0.0000

> <Gold.PLP.part.buried>
-2.1060

> <Gold.PLP.part.nonpolar>
-50.1042

> <Gold.PLP.part.repulsive>
0.0819

> <Gold.PLP.ligand.clash>
0.0041

> <Gold.PLP.ligand.torsion>
1.1887

> <Gold.PLP.Chemscore.Hbond>
3.0000

> <Gold.PLP.Chemscore.CHOScore>
0.0000

> <Gold.PLP.Chemscore.Metal>
0.0000

> <Gold.Chemscore.Hbonds>
donor molecule, donor type, donor heavy atom, donor atom, acceptor molecule, acceptor atom, score
      L1  H    14    33       P1  8028  1.00
      P1  H  7989  7998       L1     4  0.95
      P1  H  7997  8009       L1     1  0.90

> <Gold.PLP.Chemscore.Internal.Correction>
0.0194

> <Gold.Rescore>
     Score         DG    S(hbond)    S(metal)    S(lipo)     H(rot)  DE(clash)    DE(int)     intcor
     15.33     -19.23       1.88        0.00     126.91       2.88       1.75       2.15       ----

> <Gold.Chemscore.Fitness>
15.3319

> <Gold.Chemscore.DG>
-19.2324

> <Gold.Chemscore.ZeroCoef>
-5.4800

> <Gold.Chemscore.Hbond>
1.8766

> <Gold.Chemscore.Metal>
0.0000

> <Gold.Chemscore.Lipo>
126.9136

> <Gold.Chemscore.Internal_Hbond>
0.0000

> <Gold.Chemscore.DEClash>
1.7479

> <Gold.Chemscore.DEInternal>
2.1525

> <Gold.Chemscore.Rot>
2.8767

> <Gold.Chemscore.Internal.Correction>
   9.000000E+99

> <Gold.Chemscore.Hbonds>
donor molecule, donor type, donor heavy atom, donor atom, acceptor molecule, acceptor atom, score
      L1  H    14    33       P1  8028  0.99
      P1  H  7989  7998       L1     4  0.11
      P1  H  7997  8009       L1     1  0.17

> <Gold.Chemscore.Hbond.Weighted>
-6.2679

> <Gold.Chemscore.Metal.Weighted>
-0.0000

> <Gold.Chemscore.Lipo.Weighted>
-14.8489

> <Gold.Chemscore.Internal_Hbond.Weighted>
0.0000

> <Gold.Chemscore.DEClash.Weighted>
1.7479

> <Gold.Chemscore.DEInternal.Weighted>
2.1525

> <Gold.Chemscore.Rot.Weighted>
7.3644

> <Gold.Chemscore.Internal.Correction.Weighted>
   9.000000E+99

> <Gold.Protein.RotatedTorsions>
[ 6907 6896 6895 6894 ] final   -5.87 input  -60.11 | X-H torsion
[ 7974 7965 7964 7962 ] final   75.25 input  175.53 | X-H torsion
[ 8008 7997 7996 7995 ] final -136.43 input   59.86 | X-H torsion
[ 10167 10162 10161 10158 ] final  -16.25 input  -65.29 | X-H torsion
[ 10718 10713 10712 10709 ] final  -72.86 input   66.30 | X-H torsion
[ 10763 10752 10751 10750 ] final   39.61 input  -60.55 | X-H torsion
[ 11005 11000 10999 10996 ] final  164.27 input  -57.11 | X-H torsion

> <Gold.Protein.ActiveResidues>
 VAL166  LYS551  ARG553  GLY616  TRP617  ASP618  TYR619  PRO620  LYS621  CYS622 
 ASP623  PHE694  ASN695  SER759  ASP760  ASP761  ALA762  ILE779  LEU786  VAL792 
 PHE793  MET794  SER795  GLU796  ALA797  LYS798  CYS799  TRP800  GLU811  SER814 

> <Gold.Protein.RotatedAtoms>
  151.4747  135.1048  159.9760 H   0  0  0  0  0  0  0  0  0  0  0  0  # atno 6907 bound_to 6896
  152.4803  133.8233  159.7075 H   0  0  0  0  0  0  0  0  0  0  0  0  # atno 6908 bound_to 6896
  150.8869  133.7234  159.2942 H   0  0  0  0  0  0  0  0  0  0  0  0  # atno 6909 bound_to 6896
  145.7180  139.2638  143.1612 H   0  0  0  0  0  0  0  0  0  0  0  0  # atno 7974 bound_to 7965
  155.3951  140.0502  157.3039 H   0  0  0  0  0  0  0  0  0  0  0  0  # atno 8008 bound_to 7997
  154.5017  140.2159  155.9293 H   0  0  0  0  0  0  0  0  0  0  0  0  # atno 8009 bound_to 7997
  156.1476  140.3142  155.8601 H   0  0  0  0  0  0  0  0  0  0  0  0  # atno 8010 bound_to 7997
  140.7231  143.5135  150.9721 H   0  0  0  0  0  0  0  0  0  0  0  0  # atno 10167 bound_to 10162
  156.0303  130.4381  150.2656 H   0  0  0  0  0  0  0  0  0  0  0  0  # atno 10718 bound_to 10713
  152.9961  135.6215  154.2494 H   0  0  0  0  0  0  0  0  0  0  0  0  # atno 10763 bound_to 10752
  154.2232  135.2795  155.2919 H   0  0  0  0  0  0  0  0  0  0  0  0  # atno 10764 bound_to 10752
  154.5511  135.5733  153.6981 H   0  0  0  0  0  0  0  0  0  0  0  0  # atno 10765 bound_to 10752
  140.2442  134.8027  157.3440 H   0  0  0  0  0  0  0  0  0  0  0  0  # atno 11005 bound_to 11000
  146.0652  140.7929  142.9715 LP  0  0  0  0  0  0  0  0  0  0  0  0  # atno 17320 bound_to 7965
  144.6924  140.3257  143.7225 LP  0  0  0  0  0  0  0  0  0  0  0  0  # atno 17321 bound_to 7965
  139.8849  143.7025  152.3152 LP  0  0  0  0  0  0  0  0  0  0  0  0  # atno 17342 bound_to 10162
  139.7320  144.7580  151.0786 LP  0  0  0  0  0  0  0  0  0  0  0  0  # atno 17343 bound_to 10162
  157.0759  131.0130  151.3174 LP  0  0  0  0  0  0  0  0  0  0  0  0  # atno 17370 bound_to 10713
  157.4964  130.7853  149.7560 LP  0  0  0  0  0  0  0  0  0  0  0  0  # atno 17371 bound_to 10713
  140.1622  134.4714  155.7887 LP  0  0  0  0  0  0  0  0  0  0  0  0  # atno 17394 bound_to 11000
  141.2208  133.6906  156.7564 LP  0  0  0  0  0  0  0  0  0  0  0  0  # atno 17395 bound_to 11000

$$$$
