AV-unprocessed.smi:3208|AV-procd|sdf|12263|dock3
  -GOLD-   2272018 93D 1   1.00000     0.00000
 Structure written by MMmdl.
 30 30  0  0  0  0  0  0  0  0  3 V2000
  145.9424  142.9565  154.5234 C   0  0  0  0  0  0  0  0  0  0  0  0
  146.7990  141.9408  154.7078 C   0  0  0  0  0  0  0  0  0  0  0  0
  147.7708  141.4368  153.6637 C   0  0  0  0  0  0  0  0  0  0  0  0
  149.0897  141.4049  154.1957 O   0  0  0  0  0  0  0  0  0  0  0  0
  149.3263  140.4125  155.1911 C   0  0  1  0  0  0  0  0  0  0  0  0
  149.4589  139.0613  154.4727 C   0  0  0  0  0  0  0  0  0  0  0  0
  150.5960  140.7455  155.9912 C   0  0  0  0  0  0  0  0  0  0  0  0
  151.6993  140.6605  155.4496 O   0  0  0  0  0  0  0  0  0  0  0  0
  150.3973  141.1338  157.2647 N   0  0  0  0  0  0  0  0  0  0  0  0
  151.3605  141.4956  158.2469 C   0  0  0  0  0  0  0  0  0  0  0  0
  151.1726  142.5390  159.0934 N   0  3  0  0  0  0  0  0  0  0  0  0
  152.0688  142.9097  160.0332 C   0  0  0  0  0  0  0  0  0  0  0  0
  153.2752  142.1970  160.1700 C   0  0  0  0  0  0  0  0  0  0  0  0
  153.5220  141.1033  159.3164 C   0  0  0  0  0  0  0  0  0  0  0  0
  152.5590  140.7481  158.3479 C   0  0  0  0  0  0  0  0  0  0  0  0
  152.7987  139.6868  157.5204 O   0  5  0  0  0  0  0  0  0  0  0  0
  145.8968  143.4902  153.5853 H   0  0  0  0  0  0  0  0  0  0  0  0
  145.2732  143.2671  155.3122 H   0  0  0  0  0  0  0  0  0  0  0  0
  146.8151  141.4308  155.6601 H   0  0  0  0  0  0  0  0  0  0  0  0
  147.4603  140.4476  153.3245 H   0  0  0  0  0  0  0  0  0  0  0  0
  147.7286  142.1080  152.8050 H   0  0  0  0  0  0  0  0  0  0  0  0
  148.4662  140.3599  155.8619 H   0  0  0  0  0  0  0  0  0  0  0  0
  149.6567  138.2543  155.1790 H   0  0  0  0  0  0  0  0  0  0  0  0
  150.2671  139.0726  153.7405 H   0  0  0  0  0  0  0  0  0  0  0  0
  148.5391  138.8146  153.9420 H   0  0  0  0  0  0  0  0  0  0  0  0
  149.4378  141.1716  157.5786 H   0  0  0  0  0  0  0  0  0  0  0  0
  151.7948  143.7591  160.6417 H   0  0  0  0  0  0  0  0  0  0  0  0
  154.0006  142.4832  160.9172 H   0  0  0  0  0  0  0  0  0  0  0  0
  154.4415  140.5433  159.4047 H   0  0  0  0  0  0  0  0  0  0  0  0
  150.3058  143.0721  159.0138 H   0  0  0  0  0  0  0  0  0  0  0  0
  1  2  2  0  0  0  0
  1 17  1  0  0  0  0
  1 18  1  0  0  0  0
  2  3  1  0  0  0  0
  2 19  1  0  0  0  0
  3  4  1  0  0  0  0
  3 20  1  0  0  0  0
  3 21  1  0  0  0  0
  4  5  1  0  0  0  0
  5  6  1  0  0  0  0
  5  7  1  0  0  0  0
  5 22  1  0  0  0  0
  6 23  1  0  0  0  0
  6 24  1  0  0  0  0
  6 25  1  0  0  0  0
  7  8  2  0  0  0  0
  7  9  1  0  0  0  0
  9 26  1  0  0  0  0
  9 10  1  0  0  0  0
 10 15  2  0  0  0  0
 10 11  1  0  0  0  0
 11 30  1  0  0  0  0
 11 12  2  0  0  0  0
 12 27  1  0  0  0  0
 12 13  1  0  0  0  0
 13 28  1  0  0  0  0
 13 14  2  0  0  0  0
 14 15  1  0  0  0  0
 14 29  1  0  0  0  0
 15 16  1  0  0  0  0
M  CHG  1  11   1
M  CHG  1  16  -1
M  END
> <s_m_source_file>
AV-unprocessed.smi

> <i_m_source_file_index>
3208

> <i_lp_mmshare_version>
43012

> <i_f3d_flags>
0

> <s_epik_input>
W0NIMl09W0NIXVtDSDJdT1tDQEhdKFtDSDNdKUMoPU8pW05IXWMxbltjSF1bY0hdW2NIXWMxW09IXQ==

> <s_epik_cmdline>
J2VwaWtfcHl0aG9uJywgJy1waCcsICc3LjAnLCAnLXRuJywgJzgnLCAnLW1hJywgJzIwMCcsICctbWV0YWxfYmluZGluZycsICctaW1hZScsICc8aW5maWxlLm1hZT4nLCAnLW9tYWUnLCAnPG91dGZpbGUubWFlPic=

> <r_lp_tautomer_probability>
0.56342

> <r_epik_Ionization_Penalty>
0.29395

> <r_epik_Ionization_Penalty_Charging>
0.0267837

> <r_epik_Ionization_Penalty_Neutral>
0.267166

> <r_epik_State_Penalty>
0.587031

> <r_epik_Charging_Adjusted_Penalty>
0.613815

> <i_epik_Tot_Q>
0

> <i_epik_Tot_abs_Q>
2

> <r_epik_Metal_State_Penalty>
2.67911

> <b_epik_Metal_Only>
0

> <s_lp_Force_Field>
OPLS_2005

> <r_lp_Energy>
5.73852

> <b_lp_Chiralities_Consistent>
1

> <s_lp_Variant>
AV-unprocessed.smi:3208-4

> <Gold.Version>
5.8.1

> <Gold.Id.Protein>
6NUR|6NUR_protein|mol2

> <Gold.PLP.Fitness>
41.0892

> <Gold.PLP.PLP>
-32.9743

> <Gold.PLP.part.hbond>
-3.6174

> <Gold.PLP.part.metal>
0.0000

> <Gold.PLP.part.buried>
-4.1502

> <Gold.PLP.part.nonpolar>
-24.8924

> <Gold.PLP.part.repulsive>
0.2756

> <Gold.PLP.ligand.clash>
0.0000

> <Gold.PLP.ligand.torsion>
0.7109

> <Gold.PLP.Chemscore.Hbond>
3.0124

> <Gold.PLP.Chemscore.CHOScore>
0.0000

> <Gold.PLP.Chemscore.Metal>
0.0000

> <Gold.Chemscore.Hbonds>
donor molecule, donor type, donor heavy atom, donor atom, acceptor molecule, acceptor atom, score
      P1  H  7989  7998       L1     8  0.69
      P1  H  7997  8008       L1    16  2.00
      P1  H  8011  8017       L1     4  0.14

> <Gold.PLP.Chemscore.Internal.Correction>
0.4995

> <Gold.Rescore>
     Score         DG    S(hbond)    S(metal)    S(lipo)     H(rot)  DE(clash)    DE(int)     intcor
      9.70     -14.40       1.52        0.00      69.98       1.70       0.05       4.65       ----

> <Gold.Chemscore.Fitness>
9.7048

> <Gold.Chemscore.DG>
-14.4050

> <Gold.Chemscore.ZeroCoef>
-5.4800

> <Gold.Chemscore.Hbond>
1.5220

> <Gold.Chemscore.Metal>
0.0000

> <Gold.Chemscore.Lipo>
69.9845

> <Gold.Chemscore.Internal_Hbond>
0.0000

> <Gold.Chemscore.DEClash>
0.0519

> <Gold.Chemscore.DEInternal>
4.6482

> <Gold.Chemscore.Rot>
1.6979

> <Gold.Chemscore.Internal.Correction>
   9.000000E+99

> <Gold.Chemscore.Hbonds>
donor molecule, donor type, donor heavy atom, donor atom, acceptor molecule, acceptor atom, score
      P1  H  7989  7998       L1     8  0.59
      P1  H  7997  8008       L1    16  0.50

> <Gold.Chemscore.Hbond.Weighted>
-5.0835

> <Gold.Chemscore.Metal.Weighted>
-0.0000

> <Gold.Chemscore.Lipo.Weighted>
-8.1882

> <Gold.Chemscore.Internal_Hbond.Weighted>
0.0000

> <Gold.Chemscore.DEClash.Weighted>
0.0519

> <Gold.Chemscore.DEInternal.Weighted>
4.6482

> <Gold.Chemscore.Rot.Weighted>
4.3467

> <Gold.Chemscore.Internal.Correction.Weighted>
   9.000000E+99

> <Gold.Protein.RotatedTorsions>
[ 6907 6896 6895 6894 ] final -121.06 input  -60.11 | X-H torsion
[ 7974 7965 7964 7962 ] final   58.22 input  175.53 | X-H torsion
[ 8008 7997 7996 7995 ] final  -61.97 input   59.86 | X-H torsion
[ 10167 10162 10161 10158 ] final -109.30 input  -65.29 | X-H torsion
[ 10718 10713 10712 10709 ] final   31.61 input   66.30 | X-H torsion
[ 10763 10752 10751 10750 ] final  153.38 input  -60.55 | X-H torsion
[ 11005 11000 10999 10996 ] final  -19.12 input  -57.11 | X-H torsion

> <Gold.Protein.ActiveResidues>
 VAL166  LYS551  ARG553  GLY616  TRP617  ASP618  TYR619  PRO620  LYS621  CYS622 
 ASP623  PHE694  ASN695  SER759  ASP760  ASP761  ALA762  ILE779  LEU786  VAL792 
 PHE793  MET794  SER795  GLU796  ALA797  LYS798  CYS799  TRP800  GLU811  SER814 

> <Gold.Protein.RotatedAtoms>
  150.8449  133.7877  159.3046 H   0  0  0  0  0  0  0  0  0  0  0  0  # atno 6907 bound_to 6896
  151.5566  135.1065  159.9972 H   0  0  0  0  0  0  0  0  0  0  0  0  # atno 6908 bound_to 6896
  152.4505  133.7578  159.6786 H   0  0  0  0  0  0  0  0  0  0  0  0  # atno 6909 bound_to 6896
  145.9205  139.3726  143.0481 H   0  0  0  0  0  0  0  0  0  0  0  0  # atno 7974 bound_to 7965
  154.4475  140.1006  156.6513 H   0  0  0  0  0  0  0  0  0  0  0  0  # atno 8008 bound_to 7997
  155.5394  140.3483  155.4425 H   0  0  0  0  0  0  0  0  0  0  0  0  # atno 8009 bound_to 7997
  156.0608  140.1326  156.9933 H   0  0  0  0  0  0  0  0  0  0  0  0  # atno 8010 bound_to 7997
  140.1568  143.4153  152.1455 H   0  0  0  0  0  0  0  0  0  0  0  0  # atno 10167 bound_to 10162
  157.2746  130.7225  149.6523 H   0  0  0  0  0  0  0  0  0  0  0  0  # atno 10718 bound_to 10713
  154.1352  135.2824  155.3175 H   0  0  0  0  0  0  0  0  0  0  0  0  # atno 10763 bound_to 10752
  154.6326  135.5430  153.7701 H   0  0  0  0  0  0  0  0  0  0  0  0  # atno 10764 bound_to 10752
  153.0268  135.6466  154.1501 H   0  0  0  0  0  0  0  0  0  0  0  0  # atno 10765 bound_to 10752
  140.8335  133.7979  155.9784 H   0  0  0  0  0  0  0  0  0  0  0  0  # atno 11005 bound_to 11000
  145.8556  140.9504  143.0727 LP  0  0  0  0  0  0  0  0  0  0  0  0  # atno 17320 bound_to 7965
  144.6752  140.0463  143.7480 LP  0  0  0  0  0  0  0  0  0  0  0  0  # atno 17321 bound_to 7965
  139.5400  144.7247  151.4766 LP  0  0  0  0  0  0  0  0  0  0  0  0  # atno 17342 bound_to 10162
  140.6668  143.8380  150.6952 LP  0  0  0  0  0  0  0  0  0  0  0  0  # atno 17343 bound_to 10162
  155.9663  130.4357  150.5102 LP  0  0  0  0  0  0  0  0  0  0  0  0  # atno 17370 bound_to 10713
  157.3033  131.0649  151.2053 LP  0  0  0  0  0  0  0  0  0  0  0  0  # atno 17371 bound_to 10713
  140.8972  134.2423  157.5062 LP  0  0  0  0  0  0  0  0  0  0  0  0  # atno 17394 bound_to 11000
  139.8704  134.9689  156.4649 LP  0  0  0  0  0  0  0  0  0  0  0  0  # atno 17395 bound_to 11000

$$$$
