AV-unprocessed.smi:1661|AV-procd|sdf|6656|dock7
  -GOLD-   22720 7363D 1   1.00000     0.00000
 Structure written by MMmdl.
 37 38  0  0  0  0  0  0  0  0  3 V2000
  143.8573  133.1882  150.8760 C   0  0  0  0  0  0  0  0  0  0  0  0
  145.1009  134.0176  150.5109 C   0  0  2  0  0  0  0  0  0  0  0  0
  146.3879  133.1742  150.4663 C   0  0  0  0  0  0  0  0  0  0  0  0
  146.8845  132.7931  151.8726 C   0  0  0  0  0  0  0  0  0  0  0  0
  147.0797  133.9969  152.7215 N   0  3  2  0  0  0  0  0  0  0  0  0
  147.6815  133.6620  154.0362 C   0  0  0  0  0  0  0  0  0  0  0  0
  147.9570  134.9137  154.8905 C   0  0  0  0  0  0  0  0  0  0  0  0
  149.2593  135.4907  154.5797 N   0  0  0  0  0  0  0  0  0  0  0  0
  150.2324  135.7470  155.4654 C   0  0  0  0  0  0  0  0  0  0  0  0
  150.0621  135.4840  156.6581 O   0  0  0  0  0  0  0  0  0  0  0  0
  151.3375  136.2970  154.9148 N   0  5  0  0  0  0  0  0  0  0  0  0
  151.6944  137.5515  155.2363 C   0  0  0  0  0  0  0  0  0  0  0  0
  152.9774  137.9154  155.3923 N   0  0  0  0  0  0  0  0  0  0  0  0
  153.1289  139.2564  155.7186 N   0  0  0  0  0  0  0  0  0  0  0  0
  151.9504  139.8744  155.7928 C   0  0  0  0  0  0  0  0  0  0  0  0
  150.5493  138.8754  155.4684 S   0  0  0  0  0  0  0  0  0  0  0  0
  145.8302  134.7952  152.8349 C   0  0  0  0  0  0  0  0  0  0  0  0
  145.3108  135.2195  151.4493 C   0  0  0  0  0  0  0  0  0  0  0  0
  143.9320  132.7489  151.8703 H   0  0  0  0  0  0  0  0  0  0  0  0
  143.7099  132.3735  150.1665 H   0  0  0  0  0  0  0  0  0  0  0  0
  142.9581  133.8045  150.8552 H   0  0  0  0  0  0  0  0  0  0  0  0
  144.9271  134.4082  149.5075 H   0  0  0  0  0  0  0  0  0  0  0  0
  146.2311  132.2760  149.8680 H   0  0  0  0  0  0  0  0  0  0  0  0
  147.1690  133.7417  149.9588 H   0  0  0  0  0  0  0  0  0  0  0  0
  146.1832  132.1123  152.3570 H   0  0  0  0  0  0  0  0  0  0  0  0
  147.8282  132.2549  151.7779 H   0  0  0  0  0  0  0  0  0  0  0  0
  147.0402  132.9598  154.5711 H   0  0  0  0  0  0  0  0  0  0  0  0
  148.6279  133.1455  153.8698 H   0  0  0  0  0  0  0  0  0  0  0  0
  147.1737  135.6596  154.7450 H   0  0  0  0  0  0  0  0  0  0  0  0
  147.9594  134.6695  155.9517 H   0  0  0  0  0  0  0  0  0  0  0  0
  149.4428  135.7160  153.6127 H   0  0  0  0  0  0  0  0  0  0  0  0
  151.9056  140.9252  156.0364 H   0  0  0  0  0  0  0  0  0  0  0  0
  145.0728  134.2168  153.3654 H   0  0  0  0  0  0  0  0  0  0  0  0
  146.0074  135.6914  153.4280 H   0  0  0  0  0  0  0  0  0  0  0  0
  146.0299  135.9043  150.9975 H   0  0  0  0  0  0  0  0  0  0  0  0
  144.3829  135.7830  151.5542 H   0  0  0  0  0  0  0  0  0  0  0  0
  147.7559  134.5717  152.2395 H   0  0  0  0  0  0  0  0  0  0  0  0
  1  2  1  0  0  0  0
  1 19  1  0  0  0  0
  1 20  1  0  0  0  0
  1 21  1  0  0  0  0
  2 18  1  0  0  0  0
  2  3  1  0  0  0  0
  2 22  1  0  0  0  0
  3  4  1  0  0  0  0
  3 23  1  0  0  0  0
  3 24  1  0  0  0  0
  4  5  1  0  0  0  0
  4 25  1  0  0  0  0
  4 26  1  0  0  0  0
  5  6  1  0  0  0  0
  5 17  1  0  0  0  0
  5 37  1  0  0  0  0
  6  7  1  0  0  0  0
  6 27  1  0  0  0  0
  6 28  1  0  0  0  0
  7  8  1  0  0  0  0
  7 29  1  0  0  0  0
  7 30  1  0  0  0  0
  8  9  1  0  0  0  0
  8 31  1  0  0  0  0
  9 10  2  0  0  0  0
  9 11  1  0  0  0  0
 11 12  1  0  0  0  0
 12 16  1  0  0  0  0
 12 13  2  0  0  0  0
 13 14  1  0  0  0  0
 14 15  2  0  0  0  0
 15 16  1  0  0  0  0
 15 32  1  0  0  0  0
 17 18  1  0  0  0  0
 17 33  1  0  0  0  0
 17 34  1  0  0  0  0
 18 35  1  0  0  0  0
 18 36  1  0  0  0  0
M  CHG  1   5   1
M  CHG  1  11  -1
M  END
> <s_m_source_file>
AV-unprocessed.smi

> <i_m_source_file_index>
1661

> <i_lp_mmshare_version>
43012

> <i_f3d_flags>
0

> <s_epik_input>
W0NIM11bQ0hdMVtDSDJdW0NIMl1OKFtDSDJdW0NIMl0xKVtDSDJdW0NIMl1bTkhdQyg9TylbTkhdYzJubltjSF1zMg==

> <s_epik_cmdline>
J2VwaWtfcHl0aG9uJywgJy1waCcsICc3LjAnLCAnLXRuJywgJzgnLCAnLW1hJywgJzIwMCcsICctbWV0YWxfYmluZGluZycsICctaW1hZScsICc8aW5maWxlLm1hZT4nLCAnLW9tYWUnLCAnPG91dGZpbGUubWFlPic=

> <r_lp_tautomer_probability>
1

> <r_epik_Ionization_Penalty>
3.04466

> <r_epik_Ionization_Penalty_Charging>
3.01305

> <r_epik_Ionization_Penalty_Neutral>
0.0316037

> <r_epik_State_Penalty>
3.00821

> <r_epik_Charging_Adjusted_Penalty>
6.02127

> <i_epik_Tot_Q>
0

> <i_epik_Tot_abs_Q>
2

> <r_epik_Metal_State_Penalty>
0.454395

> <b_epik_Metal_Only>
1

> <s_lp_Force_Field>
OPLS_2005

> <r_lp_Energy>
9.834

> <b_lp_Chiralities_Consistent>
1

> <s_lp_Variant>
AV-unprocessed.smi:1661-4

> <Gold.Version>
5.8.1

> <Gold.Id.Protein>
6NUR|6NUR_protein|mol2

> <Gold.PLP.Fitness>
45.5666

> <Gold.PLP.PLP>
-29.6726

> <Gold.PLP.part.hbond>
-5.0000

> <Gold.PLP.part.metal>
0.0000

> <Gold.PLP.part.buried>
-3.6068

> <Gold.PLP.part.nonpolar>
-22.1530

> <Gold.PLP.part.repulsive>
0.1920

> <Gold.PLP.ligand.clash>
0.0000

> <Gold.PLP.ligand.torsion>
1.0861

> <Gold.PLP.Chemscore.Hbond>
6.0000

> <Gold.PLP.Chemscore.CHOScore>
0.0000

> <Gold.PLP.Chemscore.Metal>
0.0000

> <Gold.Chemscore.Hbonds>
donor molecule, donor type, donor heavy atom, donor atom, acceptor molecule, acceptor atom, score
      L1  H     5    37       P1  7948  1.98
      L1  H     8    31       P1  7948  1.00
      P1  H  7997  8009       L1    14  1.00
      P1  H 10752 10765       L1    11  2.00

> <Gold.PLP.Chemscore.Internal.Correction>
0.0662

> <Gold.Rescore>
     Score         DG    S(hbond)    S(metal)    S(lipo)     H(rot)  DE(clash)    DE(int)     intcor
     17.33     -18.52       3.29        0.00      54.13       1.68       0.01       1.18       ----

> <Gold.Chemscore.Fitness>
17.3291

> <Gold.Chemscore.DG>
-18.5185

> <Gold.Chemscore.ZeroCoef>
-5.4800

> <Gold.Chemscore.Hbond>
3.2935

> <Gold.Chemscore.Metal>
0.0000

> <Gold.Chemscore.Lipo>
54.1307

> <Gold.Chemscore.Internal_Hbond>
0.0000

> <Gold.Chemscore.DEClash>
0.0089

> <Gold.Chemscore.DEInternal>
1.1805

> <Gold.Chemscore.Rot>
1.6777

> <Gold.Chemscore.Internal.Correction>
   9.000000E+99

> <Gold.Chemscore.Hbonds>
donor molecule, donor type, donor heavy atom, donor atom, acceptor molecule, acceptor atom, score
      L1  H     5    37       P1  7948  0.51
      L1  H     8    31       P1  7948  0.34
      P1  H  7997  8009       L1    14  0.86
      P1  H 10752 10765       L1    11  0.26

> <Gold.Chemscore.Hbond.Weighted>
-11.0002

> <Gold.Chemscore.Metal.Weighted>
-0.0000

> <Gold.Chemscore.Lipo.Weighted>
-6.3333

> <Gold.Chemscore.Internal_Hbond.Weighted>
0.0000

> <Gold.Chemscore.DEClash.Weighted>
0.0089

> <Gold.Chemscore.DEInternal.Weighted>
1.1805

> <Gold.Chemscore.Rot.Weighted>
4.2950

> <Gold.Chemscore.Internal.Correction.Weighted>
   9.000000E+99

> <Gold.Protein.RotatedTorsions>
[ 6907 6896 6895 6894 ] final  -39.63 input  -60.11 | X-H torsion
[ 7974 7965 7964 7962 ] final   39.58 input  175.53 | X-H torsion
[ 8008 7997 7996 7995 ] final -161.45 input   59.86 | X-H torsion
[ 10167 10162 10161 10158 ] final   12.88 input  -65.29 | X-H torsion
[ 10718 10713 10712 10709 ] final   66.02 input   66.30 | X-H torsion
[ 10763 10752 10751 10750 ] final  175.43 input  -60.55 | X-H torsion
[ 11005 11000 10999 10996 ] final   31.82 input  -57.11 | X-H torsion

> <Gold.Protein.ActiveResidues>
 VAL166  LYS551  ARG553  GLY616  TRP617  ASP618  TYR619  PRO620  LYS621  CYS622 
 ASP623  PHE694  ASN695  SER759  ASP760  ASP761  ALA762  ILE779  LEU786  VAL792 
 PHE793  MET794  SER795  GLU796  ALA797  LYS798  CYS799  TRP800  GLU811  SER814 

> <Gold.Protein.RotatedAtoms>
  150.9880  134.9221  159.7882 H   0  0  0  0  0  0  0  0  0  0  0  0  # atno 6907 bound_to 6896
  152.5242  134.3320  159.9196 H   0  0  0  0  0  0  0  0  0  0  0  0  # atno 6908 bound_to 6896
  151.3326  133.3953  159.2698 H   0  0  0  0  0  0  0  0  0  0  0  0  # atno 6909 bound_to 6896
  146.0973  139.5635  142.9437 H   0  0  0  0  0  0  0  0  0  0  0  0  # atno 7974 bound_to 7965
  155.7924  140.0880  157.2001 H   0  0  0  0  0  0  0  0  0  0  0  0  # atno 8008 bound_to 7997
  154.3985  140.1487  156.3237 H   0  0  0  0  0  0  0  0  0  0  0  0  # atno 8009 bound_to 7997
  155.8545  140.3433  155.5718 H   0  0  0  0  0  0  0  0  0  0  0  0  # atno 8010 bound_to 7997
  140.6039  143.8548  150.6993 H   0  0  0  0  0  0  0  0  0  0  0  0  # atno 10167 bound_to 10162
  157.6143  130.9245  150.0053 H   0  0  0  0  0  0  0  0  0  0  0  0  # atno 10718 bound_to 10713
  154.4675  135.2770  155.1667 H   0  0  0  0  0  0  0  0  0  0  0  0  # atno 10763 bound_to 10752
  154.3429  135.6166  153.5609 H   0  0  0  0  0  0  0  0  0  0  0  0  # atno 10764 bound_to 10752
  152.9861  135.5793  154.5050 H   0  0  0  0  0  0  0  0  0  0  0  0  # atno 10765 bound_to 10752
  140.2799  134.2985  155.7803 H   0  0  0  0  0  0  0  0  0  0  0  0  # atno 11005 bound_to 11000
  145.5923  141.0367  143.2063 LP  0  0  0  0  0  0  0  0  0  0  0  0  # atno 17320 bound_to 7965
  144.7405  139.7462  143.7312 LP  0  0  0  0  0  0  0  0  0  0  0  0  # atno 17321 bound_to 7965
  140.2101  143.3890  152.1725 LP  0  0  0  0  0  0  0  0  0  0  0  0  # atno 17342 bound_to 10162
  139.5311  144.7159  151.5055 LP  0  0  0  0  0  0  0  0  0  0  0  0  # atno 17343 bound_to 10162
  156.1258  130.3644  149.9812 LP  0  0  0  0  0  0  0  0  0  0  0  0  # atno 17370 bound_to 10713
  156.7883  130.9247  151.3646 LP  0  0  0  0  0  0  0  0  0  0  0  0  # atno 17371 bound_to 10713
  141.2164  133.7519  156.9464 LP  0  0  0  0  0  0  0  0  0  0  0  0  # atno 17394 bound_to 11000
  140.1293  134.9366  157.2315 LP  0  0  0  0  0  0  0  0  0  0  0  0  # atno 17395 bound_to 11000

$$$$
