AV-unprocessed.smi:2106|AV-procd|sdf|8594|dock4
  -GOLD-   2272011323D 1   1.00000     0.00000
 Structure written by MMmdl.
 47 48  0  0  0  0  0  0  0  0  1 V2000
  144.3762  145.7027  153.7918 C   0  0  0  0  0  0  0  0  0  0  0  0
  144.5872  144.5570  154.7369 C   0  0  0  0  0  0  0  0  0  0  0  0
  144.0468  144.3787  156.0409 C   0  0  0  0  0  0  0  0  0  0  0  0
  144.5543  143.1796  156.4554 C   0  0  0  0  0  0  0  0  0  0  0  0
  144.3576  142.4424  157.7393 C   0  0  0  0  0  0  0  0  0  0  0  0
  145.3506  142.7039  155.4283 N   0  0  0  0  0  0  0  0  0  0  0  0
  146.1200  141.4694  155.3573 C   0  0  0  0  0  0  0  0  0  0  0  0
  147.6260  141.7175  155.2065 C   0  0  0  0  0  0  0  0  0  0  0  0
  148.0790  142.2883  154.2131 O   0  0  0  0  0  0  0  0  0  0  0  0
  148.3963  141.2746  156.2119 N   0  0  0  0  0  0  0  0  0  0  0  0
  149.8470  141.4038  156.2746 C   0  0  0  0  0  0  0  0  0  0  0  0
  150.3843  141.0073  157.6626 C   0  0  0  0  0  0  0  0  0  0  0  0
  151.4319  141.8784  158.1921 N   0  0  0  0  0  0  0  0  0  0  0  0
  152.2321  141.2274  159.2253 C   0  0  0  0  0  0  0  0  0  0  0  0
  153.3335  142.1543  159.7715 C   0  0  2  0  0  0  0  0  0  0  0  0
  154.1122  141.5074  160.9218 C   0  0  0  0  0  0  0  0  0  0  0  0
  152.7460  143.3596  160.2583 O   0  0  0  0  0  0  0  0  0  0  0  0
  151.9210  144.0553  159.3226 C   0  0  1  0  0  0  0  0  0  0  0  0
  152.7551  144.7706  158.2461 C   0  0  0  0  0  0  0  0  0  0  0  0
  150.8577  143.1025  158.7410 C   0  0  0  0  0  0  0  0  0  0  0  0
  145.3651  143.5501  154.3753 N   0  0  0  0  0  0  0  0  0  0  0  0
  143.6350  146.4021  154.1790 H   0  0  0  0  0  0  0  0  0  0  0  0
  144.0258  145.3525  152.8204 H   0  0  0  0  0  0  0  0  0  0  0  0
  145.3025  146.2551  153.6338 H   0  0  0  0  0  0  0  0  0  0  0  0
  143.3859  145.0335  156.5892 H   0  0  0  0  0  0  0  0  0  0  0  0
  143.6576  142.9694  158.3877 H   0  0  0  0  0  0  0  0  0  0  0  0
  145.3005  142.3412  158.2768 H   0  0  0  0  0  0  0  0  0  0  0  0
  143.9596  141.4438  157.5592 H   0  0  0  0  0  0  0  0  0  0  0  0
  145.9243  140.8876  156.2590 H   0  0  0  0  0  0  0  0  0  0  0  0
  145.7715  140.8728  154.5127 H   0  0  0  0  0  0  0  0  0  0  0  0
  147.9454  140.8136  156.9889 H   0  0  0  0  0  0  0  0  0  0  0  0
  150.2955  140.8021  155.4835 H   0  0  0  0  0  0  0  0  0  0  0  0
  150.1032  142.4419  156.0615 H   0  0  0  0  0  0  0  0  0  0  0  0
  149.5414  141.0136  158.3553 H   0  0  0  0  0  0  0  0  0  0  0  0
  150.7427  139.9771  157.6394 H   0  0  0  0  0  0  0  0  0  0  0  0
  151.5862  140.9054  160.0437 H   0  0  0  0  0  0  0  0  0  0  0  0
  152.7038  140.3294  158.8282 H   0  0  0  0  0  0  0  0  0  0  0  0
  154.0373  142.3919  158.9734 H   0  0  0  0  0  0  0  0  0  0  0  0
  154.5960  140.5856  160.5984 H   0  0  0  0  0  0  0  0  0  0  0  0
  153.4547  141.2653  161.7572 H   0  0  0  0  0  0  0  0  0  0  0  0
  154.8882  142.1774  161.2925 H   0  0  0  0  0  0  0  0  0  0  0  0
  151.4018  144.8295  159.8883 H   0  0  0  0  0  0  0  0  0  0  0  0
  152.1191  145.3860  157.6093 H   0  0  0  0  0  0  0  0  0  0  0  0
  153.2798  144.0679  157.5993 H   0  0  0  0  0  0  0  0  0  0  0  0
  153.4985  145.4249  158.7018 H   0  0  0  0  0  0  0  0  0  0  0  0
  150.2841  143.6235  157.9732 H   0  0  0  0  0  0  0  0  0  0  0  0
  150.1491  142.8458  159.5299 H   0  0  0  0  0  0  0  0  0  0  0  0
  1  2  1  0  0  0  0
  1 22  1  0  0  0  0
  1 23  1  0  0  0  0
  1 24  1  0  0  0  0
  2 21  2  0  0  0  0
  2  3  1  0  0  0  0
  3  4  2  0  0  0  0
  3 25  1  0  0  0  0
  4  5  1  0  0  0  0
  4  6  1  0  0  0  0
  5 26  1  0  0  0  0
  5 27  1  0  0  0  0
  5 28  1  0  0  0  0
  6  7  1  0  0  0  0
  6 21  1  0  0  0  0
  7  8  1  0  0  0  0
  7 29  1  0  0  0  0
  7 30  1  0  0  0  0
  8  9  2  0  0  0  0
  8 10  1  0  0  0  0
 10 11  1  0  0  0  0
 10 31  1  0  0  0  0
 11 12  1  0  0  0  0
 11 32  1  0  0  0  0
 11 33  1  0  0  0  0
 12 13  1  0  0  0  0
 12 34  1  0  0  0  0
 12 35  1  0  0  0  0
 13 20  1  0  0  0  0
 13 14  1  0  0  0  0
 14 15  1  0  0  0  0
 14 36  1  0  0  0  0
 14 37  1  0  0  0  0
 15 16  1  0  0  0  0
 15 17  1  0  0  0  0
 15 38  1  0  0  0  0
 16 39  1  0  0  0  0
 16 40  1  0  0  0  0
 16 41  1  0  0  0  0
 17 18  1  0  0  0  0
 18 19  1  0  0  0  0
 18 20  1  0  0  0  0
 18 42  1  0  0  0  0
 19 43  1  0  0  0  0
 19 44  1  0  0  0  0
 19 45  1  0  0  0  0
 20 46  1  0  0  0  0
 20 47  1  0  0  0  0
M  END
> <s_m_source_file>
AV-unprocessed.smi

> <i_m_source_file_index>
2106

> <i_lp_mmshare_version>
43012

> <i_f3d_flags>
0

> <s_epik_input>
W0NIM11jMVtjSF1jKFtDSDNdKW4objEpW0NIMl1DKD1PKVtOSF1bQ0gyXVtDSDJdTjJbQ0gyXVtDQEBIXShbQ0gzXSlPW0NAQEhdKFtDSDNdKVtDSDJdMg==

> <s_epik_cmdline>
J2VwaWtfcHl0aG9uJywgJy1waCcsICc3LjAnLCAnLXRuJywgJzgnLCAnLW1hJywgJzIwMCcsICctbWV0YWxfYmluZGluZycsICctaW1hZScsICc8aW5maWxlLm1hZT4nLCAnLW9tYWUnLCAnPG91dGZpbGUubWFlPic=

> <r_lp_tautomer_probability>
1

> <r_epik_Ionization_Penalty>
0.197284

> <r_epik_Ionization_Penalty_Charging>
0

> <r_epik_Ionization_Penalty_Neutral>
0.197284

> <r_epik_State_Penalty>
0.186684

> <r_epik_Charging_Adjusted_Penalty>
0.186684

> <i_epik_Tot_Q>
0

> <i_epik_Tot_abs_Q>
0

> <r_epik_Metal_State_Penalty>
0.186634

> <b_epik_Metal_Only>
0

> <s_lp_Force_Field>
OPLS_2005

> <r_lp_Energy>
21.9362

> <b_lp_Chiralities_Consistent>
1

> <s_lp_Variant>
AV-unprocessed.smi:2106-2

> <Gold.Version>
5.8.1

> <Gold.Id.Protein>
6NUR|6NUR_protein|mol2

> <Gold.PLP.Fitness>
45.5124

> <Gold.PLP.PLP>
-44.9843

> <Gold.PLP.part.hbond>
-1.0000

> <Gold.PLP.part.metal>
0.0000

> <Gold.PLP.part.buried>
-6.2357

> <Gold.PLP.part.nonpolar>
-38.8680

> <Gold.PLP.part.repulsive>
0.4885

> <Gold.PLP.ligand.clash>
0.0000

> <Gold.PLP.ligand.torsion>
0.5378

> <Gold.PLP.Chemscore.Hbond>
0.5120

> <Gold.PLP.Chemscore.CHOScore>
0.0000

> <Gold.PLP.Chemscore.Metal>
0.0000

> <Gold.PLP.Chemscore.Internal.Correction>
0.0678

> <Gold.Rescore>
     Score         DG    S(hbond)    S(metal)    S(lipo)     H(rot)  DE(clash)    DE(int)     intcor
     14.14     -15.95       0.49        0.00     111.90       1.67       0.10       1.71       ----

> <Gold.Chemscore.Fitness>
14.1364

> <Gold.Chemscore.DG>
-15.9479

> <Gold.Chemscore.ZeroCoef>
-5.4800

> <Gold.Chemscore.Hbond>
0.4911

> <Gold.Chemscore.Metal>
0.0000

> <Gold.Chemscore.Lipo>
111.8960

> <Gold.Chemscore.Internal_Hbond>
0.0000

> <Gold.Chemscore.DEClash>
0.0977

> <Gold.Chemscore.DEInternal>
1.7139

> <Gold.Chemscore.Rot>
1.6657

> <Gold.Chemscore.Internal.Correction>
   9.000000E+99

> <Gold.Chemscore.Hbond.Weighted>
-1.6402

> <Gold.Chemscore.Metal.Weighted>
-0.0000

> <Gold.Chemscore.Lipo.Weighted>
-13.0918

> <Gold.Chemscore.Internal_Hbond.Weighted>
0.0000

> <Gold.Chemscore.DEClash.Weighted>
0.0977

> <Gold.Chemscore.DEInternal.Weighted>
1.7139

> <Gold.Chemscore.Rot.Weighted>
4.2641

> <Gold.Chemscore.Internal.Correction.Weighted>
   9.000000E+99

> <Gold.Protein.RotatedTorsions>
[ 6907 6896 6895 6894 ] final -101.81 input  -60.11 | X-H torsion
[ 7974 7965 7964 7962 ] final   96.44 input  175.53 | X-H torsion
[ 8008 7997 7996 7995 ] final  165.65 input   59.86 | X-H torsion
[ 10167 10162 10161 10158 ] final  -12.29 input  -65.29 | X-H torsion
[ 10718 10713 10712 10709 ] final  169.06 input   66.30 | X-H torsion
[ 10763 10752 10751 10750 ] final   35.64 input  -60.55 | X-H torsion
[ 11005 11000 10999 10996 ] final  -64.63 input  -57.11 | X-H torsion

> <Gold.Protein.ActiveResidues>
 VAL166  LYS551  ARG553  GLY616  TRP617  ASP618  TYR619  PRO620  LYS621  CYS622 
 ASP623  PHE694  ASN695  SER759  ASP760  ASP761  ALA762  ILE779  LEU786  VAL792 
 PHE793  MET794  SER795  GLU796  ALA797  LYS798  CYS799  TRP800  GLU811  SER814 

> <Gold.Protein.RotatedAtoms>
  150.7170  134.0677  159.3853 H   0  0  0  0  0  0  0  0  0  0  0  0  # atno 6907 bound_to 6896
  151.8658  135.0505  160.0483 H   0  0  0  0  0  0  0  0  0  0  0  0  # atno 6908 bound_to 6896
  152.2682  133.5322  159.5459 H   0  0  0  0  0  0  0  0  0  0  0  0  # atno 6909 bound_to 6896
  145.4388  139.2303  143.3103 H   0  0  0  0  0  0  0  0  0  0  0  0  # atno 7974 bound_to 7965
  156.1783  140.1664  156.8322 H   0  0  0  0  0  0  0  0  0  0  0  0  # atno 8008 bound_to 7997
  154.5331  140.0752  156.8414 H   0  0  0  0  0  0  0  0  0  0  0  0  # atno 8009 bound_to 7997
  155.3366  140.3382  155.4241 H   0  0  0  0  0  0  0  0  0  0  0  0  # atno 8010 bound_to 7997
  140.7158  143.5548  150.9260 H   0  0  0  0  0  0  0  0  0  0  0  0  # atno 10167 bound_to 10162
  157.0281  131.0251  151.2753 H   0  0  0  0  0  0  0  0  0  0  0  0  # atno 10718 bound_to 10713
  153.0110  135.6327  154.1859 H   0  0  0  0  0  0  0  0  0  0  0  0  # atno 10763 bound_to 10752
  154.1601  135.2824  155.3113 H   0  0  0  0  0  0  0  0  0  0  0  0  # atno 10764 bound_to 10752
  154.5988  135.5594  153.7413 H   0  0  0  0  0  0  0  0  0  0  0  0  # atno 10765 bound_to 10752
  141.1430  133.6668  156.5862 H   0  0  0  0  0  0  0  0  0  0  0  0  # atno 11005 bound_to 11000
  146.2568  140.5133  142.8870 LP  0  0  0  0  0  0  0  0  0  0  0  0  # atno 17320 bound_to 7965
  144.8135  140.6427  143.6400 LP  0  0  0  0  0  0  0  0  0  0  0  0  # atno 17321 bound_to 7965
  139.9273  143.6535  152.3084 LP  0  0  0  0  0  0  0  0  0  0  0  0  # atno 17342 bound_to 10162
  139.6973  144.7639  151.1334 LP  0  0  0  0  0  0  0  0  0  0  0  0  # atno 17343 bound_to 10162
  157.5199  130.7991  149.7797 LP  0  0  0  0  0  0  0  0  0  0  0  0  # atno 17370 bound_to 10713
  156.0079  130.3847  150.2366 LP  0  0  0  0  0  0  0  0  0  0  0  0  # atno 17371 bound_to 10713
  140.3799  134.7532  157.4654 LP  0  0  0  0  0  0  0  0  0  0  0  0  # atno 17394 bound_to 11000
  140.0646  134.5948  155.8710 LP  0  0  0  0  0  0  0  0  0  0  0  0  # atno 17395 bound_to 11000

$$$$
