AV-unprocessed.smi:2184|AV-procd|sdf|8874|dock2
  -GOLD-   2272012 73D 1   1.00000     0.00000
 Structure written by MMmdl.
 47 48  0  0  0  0  0  0  0  0  1 V2000
  148.1941  136.4143  157.1704 C   0  0  0  0  0  0  0  0  0  0  0  0
  147.9004  135.5824  155.5862 S   0  0  0  0  0  0  0  0  0  0  0  0
  149.4971  134.7511  155.3276 C   0  0  1  0  0  0  0  0  0  0  0  0
  149.4370  133.8719  154.0688 C   0  0  0  0  0  0  0  0  0  0  0  0
  150.6592  135.7482  155.2422 C   0  0  0  0  0  0  0  0  0  0  0  0
  151.5732  135.7090  156.0667 O   0  0  0  0  0  0  0  0  0  0  0  0
  150.6190  136.6317  154.2322 N   0  0  0  0  0  0  0  0  0  0  0  0
  151.6333  137.6479  153.9728 C   0  0  0  0  0  0  0  0  0  0  0  0
  151.7152  138.7130  155.0545 C   0  0  0  0  0  0  0  0  0  0  0  0
  150.7927  139.7763  155.0888 C   0  0  0  0  0  0  0  0  0  0  0  0
  150.8981  140.7408  156.1093 C   0  0  0  0  0  0  0  0  0  0  0  0
  151.9285  140.6153  157.0756 C   0  0  0  0  0  0  0  0  0  0  0  0
  152.0928  141.5443  158.1261 N   0  0  0  0  0  0  0  0  0  0  0  0
  151.6383  142.9156  157.9253 C   0  0  0  0  0  0  0  0  0  0  0  0
  152.2363  143.8424  158.9982 C   0  0  1  0  0  0  0  0  0  0  0  0
  151.6744  145.2647  158.9028 C   0  0  0  0  0  0  0  0  0  0  0  0
  151.9317  143.3330  160.2956 O   0  0  0  0  0  0  0  0  0  0  0  0
  152.4013  142.0059  160.5414 C   0  0  2  0  0  0  0  0  0  0  0  0
  153.9322  141.9474  160.6894 C   0  0  0  0  0  0  0  0  0  0  0  0
  151.8519  141.0374  159.4755 C   0  0  0  0  0  0  0  0  0  0  0  0
  152.8179  139.5941  157.0308 N   0  0  0  0  0  0  0  0  0  0  0  0
  152.7141  138.6756  156.0484 C   0  0  0  0  0  0  0  0  0  0  0  0
  147.2838  136.9109  157.5059 H   0  0  0  0  0  0  0  0  0  0  0  0
  148.9748  137.1671  157.0694 H   0  0  0  0  0  0  0  0  0  0  0  0
  148.4958  135.6947  157.9316 H   0  0  0  0  0  0  0  0  0  0  0  0
  149.6592  134.0937  156.1831 H   0  0  0  0  0  0  0  0  0  0  0  0
  150.3864  133.3645  153.8927 H   0  0  0  0  0  0  0  0  0  0  0  0
  149.2017  134.4584  153.1797 H   0  0  0  0  0  0  0  0  0  0  0  0
  148.6700  133.1036  154.1687 H   0  0  0  0  0  0  0  0  0  0  0  0
  149.8333  136.5959  153.5990 H   0  0  0  0  0  0  0  0  0  0  0  0
  152.6025  137.1535  153.9053 H   0  0  0  0  0  0  0  0  0  0  0  0
  151.4548  138.1100  153.0002 H   0  0  0  0  0  0  0  0  0  0  0  0
  150.0090  139.8522  154.3494 H   0  0  0  0  0  0  0  0  0  0  0  0
  150.1796  141.5459  156.1365 H   0  0  0  0  0  0  0  0  0  0  0  0
  151.9411  143.2730  156.9404 H   0  0  0  0  0  0  0  0  0  0  0  0
  150.5487  142.9418  157.9661 H   0  0  0  0  0  0  0  0  0  0  0  0
  153.3173  143.8998  158.8697 H   0  0  0  0  0  0  0  0  0  0  0  0
  151.8851  145.7052  157.9281 H   0  0  0  0  0  0  0  0  0  0  0  0
  152.1174  145.9098  159.6617 H   0  0  0  0  0  0  0  0  0  0  0  0
  150.5937  145.2730  159.0479 H   0  0  0  0  0  0  0  0  0  0  0  0
  151.9817  141.7101  161.5033 H   0  0  0  0  0  0  0  0  0  0  0  0
  154.2498  140.9560  161.0129 H   0  0  0  0  0  0  0  0  0  0  0  0
  154.2791  142.6635  161.4346 H   0  0  0  0  0  0  0  0  0  0  0  0
  154.4473  142.1603  159.7531 H   0  0  0  0  0  0  0  0  0  0  0  0
  150.7749  140.9229  159.6055 H   0  0  0  0  0  0  0  0  0  0  0  0
  152.2910  140.0512  159.6265 H   0  0  0  0  0  0  0  0  0  0  0  0
  153.4520  137.8871  156.0592 H   0  0  0  0  0  0  0  0  0  0  0  0
  1  2  1  0  0  0  0
  1 23  1  0  0  0  0
  1 24  1  0  0  0  0
  1 25  1  0  0  0  0
  2  3  1  0  0  0  0
  3  4  1  0  0  0  0
  3  5  1  0  0  0  0
  3 26  1  0  0  0  0
  4 27  1  0  0  0  0
  4 28  1  0  0  0  0
  4 29  1  0  0  0  0
  5  6  2  0  0  0  0
  5  7  1  0  0  0  0
  7  8  1  0  0  0  0
  7 30  1  0  0  0  0
  8  9  1  0  0  0  0
  8 31  1  0  0  0  0
  8 32  1  0  0  0  0
  9 22  1  0  0  0  0
  9 10  2  0  0  0  0
 10 11  1  0  0  0  0
 10 33  1  0  0  0  0
 11 12  2  0  0  0  0
 11 34  1  0  0  0  0
 12 13  1  0  0  0  0
 12 21  1  0  0  0  0
 13 20  1  0  0  0  0
 13 14  1  0  0  0  0
 14 15  1  0  0  0  0
 14 35  1  0  0  0  0
 14 36  1  0  0  0  0
 15 16  1  0  0  0  0
 15 17  1  0  0  0  0
 15 37  1  0  0  0  0
 16 38  1  0  0  0  0
 16 39  1  0  0  0  0
 16 40  1  0  0  0  0
 17 18  1  0  0  0  0
 18 19  1  0  0  0  0
 18 20  1  0  0  0  0
 18 41  1  0  0  0  0
 19 42  1  0  0  0  0
 19 43  1  0  0  0  0
 19 44  1  0  0  0  0
 20 45  1  0  0  0  0
 20 46  1  0  0  0  0
 21 22  2  0  0  0  0
 22 47  1  0  0  0  0
M  END
> <s_m_source_file>
AV-unprocessed.smi

> <i_m_source_file_index>
2184

> <i_lp_mmshare_version>
43012

> <i_f3d_flags>
0

> <s_epik_input>
W0NIM11TW0NASF0oW0NIM10pQyg9TylbTkhdW0NIMl1jMVtjSF1bY0hdYyhuW2NIXTEpTjJbQ0gyXVtDQEBIXShbQ0gzXSlPW0NAQEhdKFtDSDNdKVtDSDJdMg==

> <s_epik_cmdline>
J2VwaWtfcHl0aG9uJywgJy1waCcsICc3LjAnLCAnLXRuJywgJzgnLCAnLW1hJywgJzIwMCcsICctbWV0YWxfYmluZGluZycsICctaW1hZScsICc8aW5maWxlLm1hZT4nLCAnLW9tYWUnLCAnPG91dGZpbGUubWFlPic=

> <r_lp_tautomer_probability>
1

> <r_epik_Ionization_Penalty>
0.00551702

> <r_epik_Ionization_Penalty_Charging>
0

> <r_epik_Ionization_Penalty_Neutral>
0.00551702

> <r_epik_State_Penalty>
0.00403758

> <r_epik_Charging_Adjusted_Penalty>
0.00403758

> <i_epik_Tot_Q>
0

> <i_epik_Tot_abs_Q>
0

> <r_epik_Metal_State_Penalty>
-0

> <b_epik_Metal_Only>
0

> <s_lp_Force_Field>
OPLS_2005

> <r_lp_Energy>
17.8704

> <b_lp_Chiralities_Consistent>
1

> <s_lp_Variant>
AV-unprocessed.smi:2184-6

> <Gold.Version>
5.8.1

> <Gold.Id.Protein>
6NUR|6NUR_protein|mol2

> <Gold.PLP.Fitness>
51.5394

> <Gold.PLP.PLP>
-43.5300

> <Gold.PLP.part.hbond>
-4.0000

> <Gold.PLP.part.metal>
0.0000

> <Gold.PLP.part.buried>
-1.8244

> <Gold.PLP.part.nonpolar>
-36.9643

> <Gold.PLP.part.repulsive>
0.1418

> <Gold.PLP.ligand.clash>
0.0000

> <Gold.PLP.ligand.torsion>
0.7193

> <Gold.PLP.Chemscore.Hbond>
2.9920

> <Gold.PLP.Chemscore.CHOScore>
0.0000

> <Gold.PLP.Chemscore.Metal>
0.0000

> <Gold.Chemscore.Hbonds>
donor molecule, donor type, donor heavy atom, donor atom, acceptor molecule, acceptor atom, score
      L1  H     7    30       P1  7948  1.00
      P1  H  7997  8010       L1    21  0.95
      P1  H 10752 10763       L1     6  0.99

> <Gold.PLP.Chemscore.Internal.Correction>
0.4720

> <Gold.Rescore>
     Score         DG    S(hbond)    S(metal)    S(lipo)     H(rot)  DE(clash)    DE(int)     intcor
     20.85     -21.84       2.15        0.00     113.46       1.59       0.25       0.74       ----

> <Gold.Chemscore.Fitness>
20.8462

> <Gold.Chemscore.DG>
-21.8372

> <Gold.Chemscore.ZeroCoef>
-5.4800

> <Gold.Chemscore.Hbond>
2.1451

> <Gold.Chemscore.Metal>
0.0000

> <Gold.Chemscore.Lipo>
113.4629

> <Gold.Chemscore.Internal_Hbond>
0.0000

> <Gold.Chemscore.DEClash>
0.2509

> <Gold.Chemscore.DEInternal>
0.7402

> <Gold.Chemscore.Rot>
1.5947

> <Gold.Chemscore.Internal.Correction>
   9.000000E+99

> <Gold.Chemscore.Hbonds>
donor molecule, donor type, donor heavy atom, donor atom, acceptor molecule, acceptor atom, score
      L1  H     7    30       P1  7948  0.33
      P1  H  7997  8010       L1    21  0.19
      P1  H 10752 10763       L1     6  0.73

> <Gold.Chemscore.Hbond.Weighted>
-7.1645

> <Gold.Chemscore.Metal.Weighted>
-0.0000

> <Gold.Chemscore.Lipo.Weighted>
-13.2752

> <Gold.Chemscore.Internal_Hbond.Weighted>
0.0000

> <Gold.Chemscore.DEClash.Weighted>
0.2509

> <Gold.Chemscore.DEInternal.Weighted>
0.7402

> <Gold.Chemscore.Rot.Weighted>
4.0824

> <Gold.Chemscore.Internal.Correction.Weighted>
   9.000000E+99

> <Gold.Protein.RotatedTorsions>
[ 6907 6896 6895 6894 ] final   -9.16 input  -60.11 | X-H torsion
[ 7974 7965 7964 7962 ] final   48.98 input  175.53 | X-H torsion
[ 8008 7997 7996 7995 ] final   48.52 input   59.86 | X-H torsion
[ 10167 10162 10161 10158 ] final   32.88 input  -65.29 | X-H torsion
[ 10718 10713 10712 10709 ] final   30.84 input   66.30 | X-H torsion
[ 10763 10752 10751 10750 ] final  103.81 input  -60.55 | X-H torsion
[ 11005 11000 10999 10996 ] final -118.64 input  -57.11 | X-H torsion

> <Gold.Protein.ActiveResidues>
 VAL166  LYS551  ARG553  GLY616  TRP617  ASP618  TYR619  PRO620  LYS621  CYS622 
 ASP623  PHE694  ASN695  SER759  ASP760  ASP761  ALA762  ILE779  LEU786  VAL792 
 PHE793  MET794  SER795  GLU796  ALA797  LYS798  CYS799  TRP800  GLU811  SER814 

> <Gold.Protein.RotatedAtoms>
  151.4221  135.0999  159.9616 H   0  0  0  0  0  0  0  0  0  0  0  0  # atno 6907 bound_to 6896
  152.4985  133.8697  159.7302 H   0  0  0  0  0  0  0  0  0  0  0  0  # atno 6908 bound_to 6896
  150.9215  133.6817  159.2859 H   0  0  0  0  0  0  0  0  0  0  0  0  # atno 6909 bound_to 6896
  146.0152  139.4588  142.9931 H   0  0  0  0  0  0  0  0  0  0  0  0  # atno 7974 bound_to 7965
  155.3870  140.3431  155.4249 H   0  0  0  0  0  0  0  0  0  0  0  0  # atno 8008 bound_to 7997
  156.1578  140.1591  156.8696 H   0  0  0  0  0  0  0  0  0  0  0  0  # atno 8009 bound_to 7997
  154.5111  140.0790  156.7974 H   0  0  0  0  0  0  0  0  0  0  0  0  # atno 8010 bound_to 7997
  140.4458  144.1120  150.6182 H   0  0  0  0  0  0  0  0  0  0  0  0  # atno 10167 bound_to 10162
  157.2648  130.7179  149.6472 H   0  0  0  0  0  0  0  0  0  0  0  0  # atno 10718 bound_to 10713
  153.3576  135.3964  155.1693 H   0  0  0  0  0  0  0  0  0  0  0  0  # atno 10763 bound_to 10752
  154.8673  135.3671  154.5141 H   0  0  0  0  0  0  0  0  0  0  0  0  # atno 10764 bound_to 10752
  153.5598  135.7081  153.5613 H   0  0  0  0  0  0  0  0  0  0  0  0  # atno 10765 bound_to 10752
  141.0272  134.0036  157.3197 H   0  0  0  0  0  0  0  0  0  0  0  0  # atno 11005 bound_to 11000
  145.7280  141.0052  143.1367 LP  0  0  0  0  0  0  0  0  0  0  0  0  # atno 17320 bound_to 7965
  144.6968  139.8950  143.7455 LP  0  0  0  0  0  0  0  0  0  0  0  0  # atno 17321 bound_to 7965
  140.4265  143.2587  151.9650 LP  0  0  0  0  0  0  0  0  0  0  0  0  # atno 17342 bound_to 10162
  139.4793  144.5783  151.7974 LP  0  0  0  0  0  0  0  0  0  0  0  0  # atno 17343 bound_to 10162
  155.9663  130.4386  150.5224 LP  0  0  0  0  0  0  0  0  0  0  0  0  # atno 17370 bound_to 10713
  157.3136  131.0668  151.1983 LP  0  0  0  0  0  0  0  0  0  0  0  0  # atno 17371 bound_to 10713
  139.9183  135.0199  156.7969 LP  0  0  0  0  0  0  0  0  0  0  0  0  # atno 17394 bound_to 11000
  140.6471  133.9765  155.7736 LP  0  0  0  0  0  0  0  0  0  0  0  0  # atno 17395 bound_to 11000

$$$$
