AV-unprocessed.smi:699|AV-procd|sdf|3402|dock4
  -GOLD-   22720 0383D 1   1.00000     0.00000
 Structure written by MMmdl.
 34 35  0  0  0  0  0  0  0  0  1 V2000
  144.4987  137.6573  152.2209 N   0  0  0  0  0  0  0  0  0  0  0  0
  143.8643  136.7605  152.9800 C   0  0  0  0  0  0  0  0  0  0  0  0
  143.0788  137.0941  153.8655 O   0  0  0  0  0  0  0  0  0  0  0  0
  144.1571  135.2785  152.7015 C   0  0  1  0  0  0  0  0  0  0  0  0
  142.9038  134.4762  152.3233 C   0  0  0  0  0  0  0  0  0  0  0  0
  143.4451  133.2857  151.5376 C   0  0  0  0  0  0  0  0  0  0  0  0
  144.6051  133.8593  150.7240 C   0  0  0  0  0  0  0  0  0  0  0  0
  145.1422  135.0622  151.5266 C   0  0  2  0  0  0  0  0  0  0  0  0
  146.4986  134.8322  152.0212 N   0  0  0  0  0  0  0  0  0  0  0  0
  146.9090  133.7305  152.6660 C   0  0  0  0  0  0  0  0  0  0  0  0
  146.1668  132.7843  152.9274 O   0  0  0  0  0  0  0  0  0  0  0  0
  148.2108  133.8180  152.9917 N   0  0  0  0  0  0  0  0  0  0  0  0
  149.0318  132.8770  153.6724 C   0  0  0  0  0  0  0  0  0  0  0  0
  149.9845  133.3820  154.5818 C   0  0  0  0  0  0  0  0  0  0  0  0
  150.8222  132.4766  155.2631 C   0  0  0  0  0  0  0  0  0  0  0  0
  150.7682  131.1399  155.0865 N   0  0  0  0  0  0  0  0  0  0  0  0
  149.8648  130.6581  154.2071 C   0  0  0  0  0  0  0  0  0  0  0  0
  148.9806  131.4756  153.4747 C   0  0  0  0  0  0  0  0  0  0  0  0
  144.3395  138.6426  152.3738 H   0  0  0  0  0  0  0  0  0  0  0  0
  145.1377  137.3508  151.5021 H   0  0  0  0  0  0  0  0  0  0  0  0
  144.5704  134.8208  153.6030 H   0  0  0  0  0  0  0  0  0  0  0  0
  142.3344  134.1611  153.1981 H   0  0  0  0  0  0  0  0  0  0  0  0
  142.2374  135.0602  151.6864 H   0  0  0  0  0  0  0  0  0  0  0  0
  143.8214  132.5311  152.2299 H   0  0  0  0  0  0  0  0  0  0  0  0
  142.6865  132.8143  150.9121 H   0  0  0  0  0  0  0  0  0  0  0  0
  145.3626  133.1026  150.5157 H   0  0  0  0  0  0  0  0  0  0  0  0
  144.2328  134.2100  149.7604 H   0  0  0  0  0  0  0  0  0  0  0  0
  145.1556  135.9361  150.8714 H   0  0  0  0  0  0  0  0  0  0  0  0
  147.1727  135.5650  151.8552 H   0  0  0  0  0  0  0  0  0  0  0  0
  148.6631  134.6899  152.7597 H   0  0  0  0  0  0  0  0  0  0  0  0
  150.0729  134.4436  154.7612 H   0  0  0  0  0  0  0  0  0  0  0  0
  151.5567  132.8372  155.9679 H   0  0  0  0  0  0  0  0  0  0  0  0
  149.8490  129.5860  154.0780 H   0  0  0  0  0  0  0  0  0  0  0  0
  148.2994  131.0124  152.7786 H   0  0  0  0  0  0  0  0  0  0  0  0
  1  2  1  0  0  0  0
  1 19  1  0  0  0  0
  1 20  1  0  0  0  0
  2  3  2  0  0  0  0
  2  4  1  0  0  0  0
  4  8  1  0  0  0  0
  4  5  1  0  0  0  0
  4 21  1  0  0  0  0
  5  6  1  0  0  0  0
  5 22  1  0  0  0  0
  5 23  1  0  0  0  0
  6  7  1  0  0  0  0
  6 24  1  0  0  0  0
  6 25  1  0  0  0  0
  7  8  1  0  0  0  0
  7 26  1  0  0  0  0
  7 27  1  0  0  0  0
  8  9  1  0  0  0  0
  8 28  1  0  0  0  0
  9 10  1  0  0  0  0
  9 29  1  0  0  0  0
 10 11  2  0  0  0  0
 10 12  1  0  0  0  0
 12 13  1  0  0  0  0
 12 30  1  0  0  0  0
 13 18  1  0  0  0  0
 13 14  2  0  0  0  0
 14 15  1  0  0  0  0
 14 31  1  0  0  0  0
 15 16  2  0  0  0  0
 15 32  1  0  0  0  0
 16 17  1  0  0  0  0
 17 18  2  0  0  0  0
 17 33  1  0  0  0  0
 18 34  1  0  0  0  0
M  END
> <s_m_source_file>
AV-unprocessed.smi

> <i_m_source_file_index>
699

> <i_lp_mmshare_version>
43012

> <i_f3d_flags>
0

> <s_epik_input>
W05IMl1DKD1PKVtDQEBIXTFbQ0gyXVtDSDJdW0NIMl1bQ0BIXTFbTkhdQyg9TylbTkhdYzJbY0hdW2NIXW5bY0hdW2NIXTI=

> <s_epik_cmdline>
J2VwaWtfcHl0aG9uJywgJy1waCcsICc3LjAnLCAnLXRuJywgJzgnLCAnLW1hJywgJzIwMCcsICctbWV0YWxfYmluZGluZycsICctaW1hZScsICc8aW5maWxlLm1hZT4nLCAnLW9tYWUnLCAnPG91dGZpbGUubWFlPic=

> <r_epik_Ionization_Penalty>
0.113907

> <r_epik_Ionization_Penalty_Charging>
0

> <r_epik_Ionization_Penalty_Neutral>
0.113907

> <r_epik_State_Penalty>
0.103543

> <r_epik_Charging_Adjusted_Penalty>
0.103543

> <i_epik_Tot_Q>
0

> <i_epik_Tot_abs_Q>
0

> <r_epik_Metal_State_Penalty>
0.0867106

> <b_epik_Metal_Only>
0

> <s_lp_Force_Field>
OPLS_2005

> <r_lp_Energy>
21.0397

> <b_lp_Chiralities_Consistent>
1

> <s_lp_Variant>
AV-unprocessed.smi:699-4

> <Gold.Version>
5.8.1

> <Gold.Id.Protein>
6NUR|6NUR_protein|mol2

> <Gold.PLP.Fitness>
40.2545

> <Gold.PLP.PLP>
-32.0581

> <Gold.PLP.part.hbond>
-4.0000

> <Gold.PLP.part.metal>
0.0000

> <Gold.PLP.part.buried>
-5.3048

> <Gold.PLP.part.nonpolar>
-22.9651

> <Gold.PLP.part.repulsive>
0.2740

> <Gold.PLP.ligand.clash>
0.0000

> <Gold.PLP.ligand.torsion>
0.4032

> <Gold.PLP.Chemscore.Hbond>
3.0000

> <Gold.PLP.Chemscore.CHOScore>
0.0000

> <Gold.PLP.Chemscore.Metal>
0.0000

> <Gold.Chemscore.Hbonds>
donor molecule, donor type, donor heavy atom, donor atom, acceptor molecule, acceptor atom, score
      L1  H     1    19       P1 10175  1.00
      L1  H     9    29       P1  7948  1.00
      L1  H    12    30       P1  7948  0.80

> <Gold.PLP.Chemscore.Internal.Correction>
0.0028

> <Gold.Rescore>
     Score         DG    S(hbond)    S(metal)    S(lipo)     H(rot)  DE(clash)    DE(int)     intcor
     15.43     -16.80       2.61        0.00      54.70       1.49       0.01       1.36       ----

> <Gold.Chemscore.Fitness>
15.4288

> <Gold.Chemscore.DG>
-16.7980

> <Gold.Chemscore.ZeroCoef>
-5.4800

> <Gold.Chemscore.Hbond>
2.6138

> <Gold.Chemscore.Metal>
0.0000

> <Gold.Chemscore.Lipo>
54.7037

> <Gold.Chemscore.Internal_Hbond>
0.0000

> <Gold.Chemscore.DEClash>
0.0106

> <Gold.Chemscore.DEInternal>
1.3586

> <Gold.Chemscore.Rot>
1.4892

> <Gold.Chemscore.Internal.Correction>
   9.000000E+99

> <Gold.Chemscore.Hbonds>
donor molecule, donor type, donor heavy atom, donor atom, acceptor molecule, acceptor atom, score
      L1  H     1    19       P1 10175  1.00
      L1  H     9    29       P1  7948  0.95
      L1  H    12    30       P1  7948  0.12

> <Gold.Chemscore.Hbond.Weighted>
-8.7299

> <Gold.Chemscore.Metal.Weighted>
-0.0000

> <Gold.Chemscore.Lipo.Weighted>
-6.4003

> <Gold.Chemscore.Internal_Hbond.Weighted>
0.0000

> <Gold.Chemscore.DEClash.Weighted>
0.0106

> <Gold.Chemscore.DEInternal.Weighted>
1.3586

> <Gold.Chemscore.Rot.Weighted>
3.8123

> <Gold.Chemscore.Internal.Correction.Weighted>
   9.000000E+99

> <Gold.Protein.RotatedTorsions>
[ 6907 6896 6895 6894 ] final    4.41 input  -60.11 | X-H torsion
[ 7974 7965 7964 7962 ] final   59.96 input  175.53 | X-H torsion
[ 8008 7997 7996 7995 ] final   58.53 input   59.86 | X-H torsion
[ 10167 10162 10161 10158 ] final -166.63 input  -65.29 | X-H torsion
[ 10718 10713 10712 10709 ] final  126.59 input   66.30 | X-H torsion
[ 10763 10752 10751 10750 ] final  -29.08 input  -60.55 | X-H torsion
[ 11005 11000 10999 10996 ] final  161.38 input  -57.11 | X-H torsion

> <Gold.Protein.ActiveResidues>
 VAL166  LYS551  ARG553  GLY616  TRP617  ASP618  TYR619  PRO620  LYS621  CYS622 
 ASP623  PHE694  ASN695  SER759  ASP760  ASP761  ALA762  ILE779  LEU786  VAL792 
 PHE793  MET794  SER795  GLU796  ALA797  LYS798  CYS799  TRP800  GLU811  SER814 

> <Gold.Protein.RotatedAtoms>
  151.6409  135.1013  160.0140 H   0  0  0  0  0  0  0  0  0  0  0  0  # atno 6907 bound_to 6896
  152.4054  133.6877  159.6360 H   0  0  0  0  0  0  0  0  0  0  0  0  # atno 6908 bound_to 6896
  150.7949  133.8634  159.3279 H   0  0  0  0  0  0  0  0  0  0  0  0  # atno 6909 bound_to 6896
  145.9013  139.3583  143.0590 H   0  0  0  0  0  0  0  0  0  0  0  0  # atno 7974 bound_to 7965
  155.5515  140.3486  155.4470 H   0  0  0  0  0  0  0  0  0  0  0  0  # atno 8008 bound_to 7997
  156.0579  140.1333  157.0001 H   0  0  0  0  0  0  0  0  0  0  0  0  # atno 8009 bound_to 7997
  154.4465  140.0991  156.6458 H   0  0  0  0  0  0  0  0  0  0  0  0  # atno 8010 bound_to 7997
  139.6102  144.0830  152.1834 H   0  0  0  0  0  0  0  0  0  0  0  0  # atno 10167 bound_to 10162
  157.5406  131.1097  150.8864 H   0  0  0  0  0  0  0  0  0  0  0  0  # atno 10718 bound_to 10713
  153.7588  135.6921  153.4930 H   0  0  0  0  0  0  0  0  0  0  0  0  # atno 10763 bound_to 10752
  153.1953  135.4456  155.0198 H   0  0  0  0  0  0  0  0  0  0  0  0  # atno 10764 bound_to 10752
  154.8161  135.3399  154.7104 H   0  0  0  0  0  0  0  0  0  0  0  0  # atno 10765 bound_to 10752
  140.2152  134.8237  157.3163 H   0  0  0  0  0  0  0  0  0  0  0  0  # atno 11005 bound_to 11000
  145.8787  140.9376  143.0612 LP  0  0  0  0  0  0  0  0  0  0  0  0  # atno 17320 bound_to 7965
  144.6736  140.0751  143.7471 LP  0  0  0  0  0  0  0  0  0  0  0  0  # atno 17321 bound_to 7965
  140.0447  144.5980  150.7383 LP  0  0  0  0  0  0  0  0  0  0  0  0  # atno 17342 bound_to 10162
  140.7314  143.2693  151.3939 LP  0  0  0  0  0  0  0  0  0  0  0  0  # atno 17343 bound_to 10162
  156.9418  130.5387  149.5280 LP  0  0  0  0  0  0  0  0  0  0  0  0  # atno 17370 bound_to 10713
  156.0494  130.5565  150.8954 LP  0  0  0  0  0  0  0  0  0  0  0  0  # atno 17371 bound_to 10713
  140.1908  134.4374  155.7717 LP  0  0  0  0  0  0  0  0  0  0  0  0  # atno 17394 bound_to 11000
  141.2225  133.7026  156.8023 LP  0  0  0  0  0  0  0  0  0  0  0  0  # atno 17395 bound_to 11000

$$$$
