#       Name:                AV-unprocessed.smi:1610
#       Creating user name   scv26
#       Creation time:       Fri Mar 27 07:12:43 2020


#       File generated by GOLD software.
#

@<TRIPOS>MOLECULE
AV-unprocessed.smi:1610
    47    48     1
SMALL
NO_CHARGES


@<TRIPOS>ATOM
      1 ****        -5.6344   0.6146  -2.3679 C.3            1 S1                 0.0000
      2 ****        -5.6916   1.2053  -0.6268 S.o2           1 S1                 0.0000
      3 ****        -5.8376   2.6690  -0.6273 O.2            1 S1                 0.0000
      4 ****        -6.6415   0.3633   0.1156 O.2            1 S1                 0.0000
      5 ****        -4.1113   0.8328  -0.0438 N.pl3          1 S1                 0.0000
      6 ****        -2.9266   1.4959  -0.5916 C.3            1 S1                 0.0000
      7 ****        -2.0298   0.4728  -1.3183 C.3            1 S1                 0.0000
      8 ****        -0.7007   1.1189  -1.7505 C.3            1 S1                 0.0000
      9 ****        -0.0400   1.6926  -0.5644 N.am           1 S1                 0.0000
     10 ****         1.0463   1.1872   0.0735 C.2            1 S1                 0.0000
     11 ****         1.4436   1.6042   1.1626 O.2            1 S1                 0.0000
     12 ****         1.6853   0.2083  -0.5898 N.am           1 S1                 0.0000
     13 ****         2.8811  -0.4820  -0.1213 C.3            1 S1                 0.0000
     14 ****         2.5368  -1.5729   0.9054 C.3            1 S1                 0.0000
     15 ****         3.7707  -2.3017   1.3987 C.ar           1 S1                 0.0000
     16 ****         4.4768  -1.8423   2.5295 C.ar           1 S1                 0.0000
     17 ****         5.6188  -2.5509   2.9497 C.ar           1 S1                 0.0000
     18 ****         6.0070  -3.6912   2.2185 C.ar           1 S1                 0.0000
     19 ****         5.3394  -4.1394   1.1334 N.ar           1 S1                 0.0000
     20 ****         4.2452  -3.4542   0.7371 C.ar           1 S1                 0.0000
     21 ****        -0.8313   2.7908   0.0064 C.3            1 S1                 0.0000
     22 ****        -2.1646   2.2279   0.5306 C.3            1 S1                 0.0000
     23 ****        -6.6044   0.7796  -2.8366 H              1 S1                 0.0000
     24 ****        -5.4011  -0.4497  -2.3853 H              1 S1                 0.0000
     25 ****        -4.8716   1.1642  -2.9187 H              1 S1                 0.0000
     26 ****        -3.9815  -0.1338   0.2542 H              1 S1                 0.0000
     27 ****        -3.2477   2.2432  -1.3184 H              1 S1                 0.0000
     28 ****        -1.8205  -0.3726  -0.6610 H              1 S1                 0.0000
     29 ****        -2.5484   0.0691  -2.1885 H              1 S1                 0.0000
     30 ****        -0.0951   0.3882  -2.2863 H              1 S1                 0.0000
     31 ****        -0.8936   1.9154  -2.4705 H              1 S1                 0.0000
     32 ****         1.3142  -0.0773  -1.4842 H              1 S1                 0.0000
     33 ****         3.3754  -0.9266  -0.9855 H              1 S1                 0.0000
     34 ****         3.5845   0.2364   0.3033 H              1 S1                 0.0000
     35 ****         2.0213  -1.1383   1.7630 H              1 S1                 0.0000
     36 ****         1.8477  -2.2959   0.4669 H              1 S1                 0.0000
     37 ****         4.1512  -0.9626   3.0651 H              1 S1                 0.0000
     38 ****         6.1842  -2.2280   3.8113 H              1 S1                 0.0000
     39 ****         6.8779  -4.2578   2.5129 H              1 S1                 0.0000
     40 ****         3.7349  -3.8362  -0.1348 H              1 S1                 0.0000
     41 ****        -0.3085   3.3170   0.8062 H              1 S1                 0.0000
     42 ****        -1.0188   3.5402  -0.7638 H              1 S1                 0.0000
     43 ****        -2.7771   3.0341   0.9360 H              1 S1                 0.0000
     44 ****        -1.9664   1.5426   1.3564 H              1 S1                 0.0000
     45 ****         0.9593   2.3506   1.6191 LP             1 S1                 0.0000
     46 ****         2.2504   1.1963   1.5901 LP             1 S1                 0.0000
     47 ****         5.6457  -4.9529   0.6390 LP             1 S1                 0.0000
@<TRIPOS>BOND
    1    1    2 1     
    2    1   23 1     
    3    1   24 1     
    4    1   25 1     
    5    2    3 2     
    6    2    4 2     
    7    2    5 1     
    8    5    6 1     
    9    5   26 1     
   10    6   22 1     
   11    6    7 1     
   12    6   27 1     
   13    7    8 1     
   14    7   28 1     
   15    7   29 1     
   16    8    9 1     
   17    8   30 1     
   18    8   31 1     
   19    9   10 am    
   20    9   21 1     
   21   10   11 2     
   22   10   12 am    
   23   12   13 1     
   24   12   32 1     
   25   13   14 1     
   26   13   33 1     
   27   13   34 1     
   28   14   15 1     
   29   14   35 1     
   30   14   36 1     
   31   15   20 ar    
   32   15   16 ar    
   33   16   17 ar    
   34   16   37 1     
   35   17   18 ar    
   36   17   38 1     
   37   18   19 ar    
   38   18   39 1     
   39   19   20 ar    
   40   20   40 1     
   41   21   22 1     
   42   21   41 1     
   43   21   42 1     
   44   22   43 1     
   45   22   44 1     
   46   11   45 1     
   47   11   46 1     
   48   19   47 1     
@<TRIPOS>SUBSTRUCTURE
      1 S1             1
@<TRIPOS>SET
LONE_PAIRS      STATIC     ATOMS    <user>   **** ""
5 3 4 45 46 47
DONOR_HYDROGENS      STATIC     ATOMS    <user>   **** ""
2 26 32
ATOM$BLUE        STATIC     ATOMS    COLORGROUP SYSTEM
5 3 4 45 46 47
ATOM$RED        STATIC     ATOMS    COLORGROUP SYSTEM
2 26 32
