#       Name:                AV-unprocessed.smi:2479
#       Creating user name   scv26
#       Creation time:       Fri Mar 27 13:41:13 2020


#       File generated by GOLD software.
#

@<TRIPOS>MOLECULE
AV-unprocessed.smi:2479
    36    37     1
SMALL
NO_CHARGES


@<TRIPOS>ATOM
      1 ****        -6.1160   0.3459  -0.5669 N.1            1 S1                 0.0000
      2 ****        -4.9593   0.3469  -0.5431 C.1            1 S1                 0.0000
      3 ****        -3.5071   0.3481  -0.5135 C.ar           1 S1                 0.0000
      4 ****        -2.7916  -0.8025  -0.1275 C.ar           1 S1                 0.0000
      5 ****        -1.4435  -0.8546  -0.0842 N.ar           1 S1                 0.0000
      6 ****        -0.7390   0.2540  -0.4220 C.ar           1 S1                 0.0000
      7 ****         0.6675   0.1796  -0.3841 N.3            1 S1                 0.0000
      8 ****         1.2016  -0.2768  -1.6640 C.3            1 S1                 0.0000
      9 ****         2.7337  -0.1773  -1.6733 C.3            1 S1                 0.0000
     10 ****         3.2551  -0.9202  -0.5791 O.3            1 S1                 0.0000
     11 ****         2.8175  -0.3946   0.6688 C.3            1 S1                 0.0000
     12 ****         1.2772  -0.4780   0.7812 C.3            1 S1                 0.0000
     13 ****         0.8542   0.1061   2.1413 C.2            1 S1                 0.0000
     14 ****         0.6829  -0.7573   3.1456 N.am           1 S1                 0.0000
     15 ****         0.6980   1.3174   2.2877 O.2            1 S1                 0.0000
     16 ****        -1.3710   1.4549  -0.8282 C.ar           1 S1                 0.0000
     17 ****        -0.4592   2.8604  -1.2558 Cl             1 S1                 0.0000
     18 ****        -2.7784   1.4993  -0.8706 C.ar           1 S1                 0.0000
     19 ****        -3.3085  -1.7088   0.1539 H              1 S1                 0.0000
     20 ****         0.8963  -1.3098  -1.8391 H              1 S1                 0.0000
     21 ****         0.7930   0.3196  -2.4812 H              1 S1                 0.0000
     22 ****         3.1325  -0.5855  -2.6021 H              1 S1                 0.0000
     23 ****         3.0597   0.8627  -1.6153 H              1 S1                 0.0000
     24 ****         3.2895  -0.9715   1.4650 H              1 S1                 0.0000
     25 ****         3.1680   0.6343   0.7750 H              1 S1                 0.0000
     26 ****         0.9990  -1.5336   0.7566 H              1 S1                 0.0000
     27 ****         0.4090  -0.4223   4.0579 H              1 S1                 0.0000
     28 ****         0.8319  -1.7436   2.9885 H              1 S1                 0.0000
     29 ****        -3.2856   2.4045  -1.1720 H              1 S1                 0.0000
     30 ****        -7.1158   0.3450  -0.5875 LP             1 S1                 0.0000
     31 ****        -0.9738  -1.6934   0.1913 LP             1 S1                 0.0000
     32 ****         0.9586   1.1247  -0.2357 LP             1 S1                 0.0000
     33 ****         4.2541  -0.8882  -0.6121 LP             1 S1                 0.0000
     34 ****         2.9493  -1.8692  -0.6564 LP             1 S1                 0.0000
     35 ****         0.8460   1.9374   1.5171 LP             1 S1                 0.0000
     36 ****         0.4230   1.6822   3.1772 LP             1 S1                 0.0000
@<TRIPOS>BOND
    1    1    2 3     
    2    2    3 1     
    3    3   18 ar    
    4    3    4 ar    
    5    4    5 ar    
    6    4   19 1     
    7    5    6 ar    
    8    6    7 1     
    9    6   16 ar    
   10    7   12 1     
   11    7    8 1     
   12    8    9 1     
   13    8   20 1     
   14    8   21 1     
   15    9   10 1     
   16    9   22 1     
   17    9   23 1     
   18   10   11 1     
   19   11   12 1     
   20   11   24 1     
   21   11   25 1     
   22   12   13 1     
   23   12   26 1     
   24   13   14 am    
   25   13   15 2     
   26   14   27 1     
   27   14   28 1     
   28   16   17 1     
   29   16   18 ar    
   30   18   29 1     
   31    1   30 1     
   32    5   31 1     
   33    7   32 1     
   34   10   33 1     
   35   10   34 1     
   36   15   35 1     
   37   15   36 1     
@<TRIPOS>SUBSTRUCTURE
      1 S1             1
@<TRIPOS>SET
LONE_PAIRS      STATIC     ATOMS    <user>   **** ""
7 30 31 32 33 34 35 36
DONOR_HYDROGENS      STATIC     ATOMS    <user>   **** ""
2 27 28
ATOM$BLUE        STATIC     ATOMS    COLORGROUP SYSTEM
7 30 31 32 33 34 35 36
ATOM$RED        STATIC     ATOMS    COLORGROUP SYSTEM
2 27 28
