AV-unprocessed.smi:40|AV-procd|sdf|370|dock4
  -GOLD-   2262016213D 1   1.00000     0.00000
 Structure written by MMmdl.
 47 48  0  0  0  0  0  0  0  0  1 V2000
  151.3257  145.3995  160.1490 C   0  0  0  0  0  0  0  0  0  0  0  0
  152.1427  145.0701  158.8929 C   0  0  0  0  0  0  0  0  0  0  0  0
  152.2670  143.5637  158.6121 C   0  0  0  0  0  0  0  0  0  0  0  0
  152.9623  142.7755  159.7375 C   0  0  0  0  0  0  0  0  0  0  0  0
  153.0139  141.2656  159.4667 C   0  0  0  0  0  0  0  0  0  0  0  0
  152.0058  140.9324  158.5289 O   0  0  0  0  0  0  0  0  0  0  0  0
  151.5230  139.6780  158.4523 C   0  0  0  0  0  0  0  0  0  0  0  0
  151.9288  138.7335  159.1289 O   0  0  0  0  0  0  0  0  0  0  0  0
  150.4919  139.5925  157.4376 N   0  0  0  0  0  0  0  0  0  0  0  0
  149.8044  138.4778  157.1081 C   0  0  0  0  0  0  0  0  0  0  0  0
  149.9258  137.4249  157.8952 N   0  0  0  0  0  0  0  0  0  0  0  0
  149.3134  136.2240  157.6531 C   0  0  0  0  0  0  0  0  0  0  0  0
  149.4912  135.2652  158.4031 O   0  0  0  0  0  0  0  0  0  0  0  0
  148.4933  136.1309  156.5034 N   0  0  0  0  0  0  0  0  0  0  0  0
  147.8253  134.8146  156.1730 C   0  0  1  0  0  0  0  0  0  0  0  0
  146.4445  135.0173  156.1143 O   0  0  0  0  0  0  0  0  0  0  0  0
  145.9136  134.3550  154.9727 C   0  0  1  0  0  0  0  0  0  0  0  0
  144.5689  134.9642  154.5482 C   0  0  0  0  0  0  0  0  0  0  0  0
  147.0443  134.4020  153.9370 C   0  0  1  0  0  0  0  0  0  0  0  0
  147.0330  135.6297  153.2277 O   0  0  0  0  0  0  0  0  0  0  0  0
  148.2822  134.2366  154.8145 C   0  0  1  0  0  0  0  0  0  0  0  0
  149.4507  134.8150  154.2552 O   0  0  0  0  0  0  0  0  0  0  0  0
  148.3368  137.2343  155.6783 C   0  0  0  0  0  0  0  0  0  0  0  0
  148.9571  138.4054  155.9315 C   0  0  0  0  0  0  0  0  0  0  0  0
  148.7833  139.4598  155.1156 F   0  0  0  0  0  0  0  0  0  0  0  0
  148.0325  134.1420  157.0063 H   0  0  0  0  0  0  0  0  0  0  0  0
  145.7524  133.3131  155.2550 H   0  0  0  0  0  0  0  0  0  0  0  0
  146.9579  133.5937  153.2102 H   0  0  0  0  0  0  0  0  0  0  0  0
  148.4664  133.1727  154.9689 H   0  0  0  0  0  0  0  0  0  0  0  0
  151.3243  146.4734  160.3371 H   0  0  0  0  0  0  0  0  0  0  0  0
  151.7421  144.9094  161.0295 H   0  0  0  0  0  0  0  0  0  0  0  0
  150.2875  145.0843  160.0472 H   0  0  0  0  0  0  0  0  0  0  0  0
  151.7108  145.5743  158.0278 H   0  0  0  0  0  0  0  0  0  0  0  0
  153.1438  145.4852  159.0138 H   0  0  0  0  0  0  0  0  0  0  0  0
  151.2625  143.1643  158.4665 H   0  0  0  0  0  0  0  0  0  0  0  0
  152.7930  143.4066  157.6698 H   0  0  0  0  0  0  0  0  0  0  0  0
  153.9821  143.1384  159.8632 H   0  0  0  0  0  0  0  0  0  0  0  0
  152.4530  142.9558  160.6850 H   0  0  0  0  0  0  0  0  0  0  0  0
  153.9938  140.9792  159.0825 H   0  0  0  0  0  0  0  0  0  0  0  0
  152.8483  140.7147  160.3935 H   0  0  0  0  0  0  0  0  0  0  0  0
  150.2250  140.4711  157.0189 H   0  0  0  0  0  0  0  0  0  0  0  0
  144.1856  134.4801  153.6499 H   0  0  0  0  0  0  0  0  0  0  0  0
  144.6556  136.0319  154.3460 H   0  0  0  0  0  0  0  0  0  0  0  0
  143.8248  134.8412  155.3354 H   0  0  0  0  0  0  0  0  0  0  0  0
  147.8600  135.7261  152.7810 H   0  0  0  0  0  0  0  0  0  0  0  0
  149.1936  135.3678  153.5328 H   0  0  0  0  0  0  0  0  0  0  0  0
  147.7086  137.1719  154.8022 H   0  0  0  0  0  0  0  0  0  0  0  0
  1  2  1  0  0  0  0
  1 30  1  0  0  0  0
  1 31  1  0  0  0  0
  1 32  1  0  0  0  0
  2  3  1  0  0  0  0
  2 33  1  0  0  0  0
  2 34  1  0  0  0  0
  3  4  1  0  0  0  0
  3 35  1  0  0  0  0
  3 36  1  0  0  0  0
  4  5  1  0  0  0  0
  4 37  1  0  0  0  0
  4 38  1  0  0  0  0
  5  6  1  0  0  0  0
  5 39  1  0  0  0  0
  5 40  1  0  0  0  0
  6  7  1  0  0  0  0
  7  8  2  0  0  0  0
  7  9  1  0  0  0  0
  9 10  1  0  0  0  0
  9 41  1  0  0  0  0
 10 24  1  0  0  0  0
 10 11  2  0  0  0  0
 11 12  1  0  0  0  0
 12 13  2  0  0  0  0
 12 14  1  0  0  0  0
 14 15  1  0  0  0  0
 14 23  1  0  0  0  0
 15 26  1  0  0  0  0
 15 21  1  0  0  0  0
 15 16  1  0  0  0  0
 16 17  1  0  0  0  0
 17 27  1  0  0  0  0
 17 18  1  0  0  0  0
 17 19  1  0  0  0  0
 18 42  1  0  0  0  0
 18 43  1  0  0  0  0
 18 44  1  0  0  0  0
 19 28  1  0  0  0  0
 19 20  1  0  0  0  0
 19 21  1  0  0  0  0
 20 45  1  0  0  0  0
 21 29  1  0  0  0  0
 21 22  1  0  0  0  0
 22 46  1  0  0  0  0
 23 24  2  0  0  0  0
 23 47  1  0  0  0  0
 24 25  1  0  0  0  0
M  END
> <s_m_source_file>
AV-unprocessed.smi

> <i_m_source_file_index>
40

> <i_lp_mmshare_version>
43012

> <i_f3d_flags>
0

> <s_epik_input>
W0NIM11bQ0gyXVtDSDJdW0NIMl1bQ0gyXU9DKD1PKVtOSF1jMW5jKD1PKW4oW2NIXWMxRilbQ0BASF0yT1tDQEhdKFtDSDNdKVtDQEBIXShbT0hdKVtDQEhdMltPSF0=

> <s_epik_cmdline>
J2VwaWtfcHl0aG9uJywgJy1waCcsICc3LjAnLCAnLXRuJywgJzgnLCAnLW1hJywgJzIwMCcsICctbWV0YWxfYmluZGluZycsICctaW1hZScsICc8aW5maWxlLm1hZT4nLCAnLW9tYWUnLCAnPG91dGZpbGUubWFlPic=

> <r_lp_tautomer_probability>
1

> <r_epik_Ionization_Penalty>
2.29506e-06

> <r_epik_Ionization_Penalty_Charging>
8.26867e-09

> <r_epik_Ionization_Penalty_Neutral>
2.2868e-06

> <r_epik_State_Penalty>
-0

> <r_epik_Charging_Adjusted_Penalty>
8.26867e-09

> <i_epik_Tot_Q>
0

> <i_epik_Tot_abs_Q>
0

> <r_epik_Metal_State_Penalty>
-0

> <b_epik_Metal_Only>
0

> <s_epik_Chemistry_Notes>
This compound has an ester and may undergo hydrolysis at high or low pH. This compound contains an acetal/aminal-like group ( X-CH(R)-Y where X, Y are N, S, or O) that may be acid/base labile, releasing an aldehyde.

> <s_lp_Force_Field>
OPLS_2005

> <r_lp_Energy>
45.3247

> <b_lp_Chiralities_Consistent>
1

> <s_lp_Variant>
AV-unprocessed.smi:40-4

> <Gold.Version>
5.8.1

> <Gold.Id.Protein>
6NUR|6NUR_protein|mol2

> <Gold.PLP.Fitness>
39.6727

> <Gold.PLP.PLP>
-31.4278

> <Gold.PLP.part.hbond>
-2.6960

> <Gold.PLP.part.metal>
0.0000

> <Gold.PLP.part.buried>
-6.0522

> <Gold.PLP.part.nonpolar>
-23.1827

> <Gold.PLP.part.repulsive>
0.0409

> <Gold.PLP.ligand.clash>
0.0000

> <Gold.PLP.ligand.torsion>
0.4271

> <Gold.PLP.Chemscore.Hbond>
3.0000

> <Gold.PLP.Chemscore.CHOScore>
0.0000

> <Gold.PLP.Chemscore.Metal>
0.0000

> <Gold.Chemscore.Hbonds>
donor molecule, donor type, donor heavy atom, donor atom, acceptor molecule, acceptor atom, score
      L1  H    20    45       P1  7948  0.93
      L1  H    22    46       P1  7948  1.00
      P1  H  6896  6908       L1    13  1.00

> <Gold.PLP.Chemscore.Internal.Correction>
0.0992

> <Gold.Rescore>
     Score         DG    S(hbond)    S(metal)    S(lipo)     H(rot)  DE(clash)    DE(int)     intcor
     10.81     -13.75       2.86        0.00      69.78       3.70       0.01       2.92       ----

> <Gold.Chemscore.Fitness>
10.8145

> <Gold.Chemscore.DG>
-13.7475

> <Gold.Chemscore.ZeroCoef>
-5.4800

> <Gold.Chemscore.Hbond>
2.8636

> <Gold.Chemscore.Metal>
0.0000

> <Gold.Chemscore.Lipo>
69.7790

> <Gold.Chemscore.Internal_Hbond>
0.0000

> <Gold.Chemscore.DEClash>
0.0136

> <Gold.Chemscore.DEInternal>
2.9194

> <Gold.Chemscore.Rot>
3.6957

> <Gold.Chemscore.Internal.Correction>
   9.000000E+99

> <Gold.Chemscore.Hbonds>
donor molecule, donor type, donor heavy atom, donor atom, acceptor molecule, acceptor atom, score
      L1  H    20    45       P1  7948  0.88
      L1  H    22    46       P1  7948  0.40
      P1  H  6896  6908       L1    13  1.00

> <Gold.Chemscore.Hbond.Weighted>
-9.5643

> <Gold.Chemscore.Metal.Weighted>
-0.0000

> <Gold.Chemscore.Lipo.Weighted>
-8.1641

> <Gold.Chemscore.Internal_Hbond.Weighted>
0.0000

> <Gold.Chemscore.DEClash.Weighted>
0.0136

> <Gold.Chemscore.DEInternal.Weighted>
2.9194

> <Gold.Chemscore.Rot.Weighted>
9.4610

> <Gold.Chemscore.Internal.Correction.Weighted>
   9.000000E+99

> <Gold.Protein.RotatedTorsions>
[ 6907 6896 6895 6894 ] final  167.04 input  -60.11 | X-H torsion
[ 7974 7965 7964 7962 ] final   12.50 input  175.53 | X-H torsion
[ 8008 7997 7996 7995 ] final  -83.48 input   59.86 | X-H torsion
[ 10167 10162 10161 10158 ] final   -0.61 input  -65.29 | X-H torsion
[ 10718 10713 10712 10709 ] final    7.22 input   66.30 | X-H torsion
[ 10763 10752 10751 10750 ] final  179.93 input  -60.55 | X-H torsion
[ 11005 11000 10999 10996 ] final  -78.51 input  -57.11 | X-H torsion

> <Gold.Protein.ActiveResidues>
 VAL166  LYS551  ARG553  GLY616  TRP617  ASP618  TYR619  PRO620  LYS621  CYS622 
 ASP623  PHE694  ASN695  SER759  ASP760  ASP761  ALA762  ILE779  LEU786  VAL792 
 PHE793  MET794  SER795  GLU796  ALA797  LYS798  CYS799  TRP800  GLU811  SER814 

> <Gold.Protein.RotatedAtoms>
  151.8696  133.3473  159.3730 H   0  0  0  0  0  0  0  0  0  0  0  0  # atno 6907 bound_to 6896
  150.7156  134.5126  159.5624 H   0  0  0  0  0  0  0  0  0  0  0  0  # atno 6908 bound_to 6896
  152.2656  134.7988  160.0474 H   0  0  0  0  0  0  0  0  0  0  0  0  # atno 6909 bound_to 6896
  146.2350  139.9328  142.8494 H   0  0  0  0  0  0  0  0  0  0  0  0  # atno 7974 bound_to 7965
  154.6195  140.0618  156.9597 H   0  0  0  0  0  0  0  0  0  0  0  0  # atno 8008 bound_to 7997
  155.1841  140.3301  155.4351 H   0  0  0  0  0  0  0  0  0  0  0  0  # atno 8009 bound_to 7997
  156.2423  140.1892  156.6935 H   0  0  0  0  0  0  0  0  0  0  0  0  # atno 8010 bound_to 7997
  140.6775  143.6874  150.8056 H   0  0  0  0  0  0  0  0  0  0  0  0  # atno 10167 bound_to 10162
  156.9337  130.5835  149.5650 H   0  0  0  0  0  0  0  0  0  0  0  0  # atno 10718 bound_to 10713
  154.5269  135.2797  155.1214 H   0  0  0  0  0  0  0  0  0  0  0  0  # atno 10763 bound_to 10752
  154.2749  135.6296  153.5328 H   0  0  0  0  0  0  0  0  0  0  0  0  # atno 10764 bound_to 10752
  152.9948  135.5637  154.5773 H   0  0  0  0  0  0  0  0  0  0  0  0  # atno 10765 bound_to 10752
  141.1665  133.7066  156.7983 H   0  0  0  0  0  0  0  0  0  0  0  0  # atno 11005 bound_to 11000
  145.2028  140.9862  143.4146 LP  0  0  0  0  0  0  0  0  0  0  0  0  # atno 17320 bound_to 7965
  144.9759  139.3833  143.6286 LP  0  0  0  0  0  0  0  0  0  0  0  0  # atno 17321 bound_to 7965
  140.0569  143.5194  152.2647 LP  0  0  0  0  0  0  0  0  0  0  0  0  # atno 17342 bound_to 10162
  139.6076  144.7600  151.3026 LP  0  0  0  0  0  0  0  0  0  0  0  0  # atno 17343 bound_to 10162
  156.0435  130.5515  150.8827 LP  0  0  0  0  0  0  0  0  0  0  0  0  # atno 17370 bound_to 10713
  157.5830  131.0946  150.9241 LP  0  0  0  0  0  0  0  0  0  0  0  0  # atno 17371 bound_to 10713
  140.2275  134.8711  157.3442 LP  0  0  0  0  0  0  0  0  0  0  0  0  # atno 17394 bound_to 11000
  140.1925  134.4354  155.7708 LP  0  0  0  0  0  0  0  0  0  0  0  0  # atno 17395 bound_to 11000

$$$$
