AV-unprocessed.smi:771|AV-procd|sdf|3683|dock6
  -GOLD-   22720 1103D 1   1.00000     0.00000
 Structure written by MMmdl.
 41 42  0  0  0  0  0  0  0  0  3 V2000
  153.1877  138.7733  156.7855 O   0  0  0  0  0  0  0  0  0  0  0  0
  152.1493  138.8308  157.4460 C   0  0  0  0  0  0  0  0  0  0  0  0
  152.1907  138.8972  158.9795 C   0  0  0  0  0  0  0  0  0  0  0  0
  152.6183  140.2075  159.4988 N   0  0  0  0  0  0  0  0  0  0  0  0
  151.9213  141.3388  159.0305 C   0  0  0  0  0  0  0  0  0  0  0  0
  152.2307  142.5873  159.4323 C   0  0  0  0  0  0  0  0  0  0  0  0
  151.5068  143.7379  158.9384 N   0  3  0  0  0  0  0  0  0  0  0  0
  150.5912  143.5590  158.1417 O   0  0  0  0  0  0  0  0  0  0  0  0
  151.8282  144.8565  159.3281 O   0  5  0  0  0  0  0  0  0  0  0  0
  153.3194  142.7407  160.3779 C   0  0  0  0  0  0  0  0  0  0  0  0
  153.9927  141.6630  160.8261 C   0  0  0  0  0  0  0  0  0  0  0  0
  153.6569  140.3055  160.3840 C   0  0  0  0  0  0  0  0  0  0  0  0
  154.2727  139.3175  160.7844 O   0  0  0  0  0  0  0  0  0  0  0  0
  150.9269  138.8609  156.8931 N   0  0  0  0  0  0  0  0  0  0  0  0
  150.6399  138.8186  155.4619 C   0  0  0  0  0  0  0  0  0  0  0  0
  149.1658  139.1578  155.1439 C   0  0  2  0  0  0  0  0  0  0  0  0
  148.5587  138.1347  154.1603 C   0  0  0  0  0  0  0  0  0  0  0  0
  147.0706  138.4131  153.8945 C   0  0  0  0  0  0  0  0  0  0  0  0
  146.8551  139.8422  153.3762 C   0  0  0  0  0  0  0  0  0  0  0  0
  147.4524  140.8805  154.3408 C   0  0  0  0  0  0  0  0  0  0  0  0
  148.9392  140.6092  154.6430 C   0  0  2  0  0  0  0  0  0  0  0  0
  149.7059  140.8735  153.4831 O   0  0  0  0  0  0  0  0  0  0  0  0
  151.1992  138.6442  159.3579 H   0  0  0  0  0  0  0  0  0  0  0  0
  152.8469  138.1092  159.3540 H   0  0  0  0  0  0  0  0  0  0  0  0
  151.1327  141.1188  158.3253 H   0  0  0  0  0  0  0  0  0  0  0  0
  153.6037  143.7204  160.7326 H   0  0  0  0  0  0  0  0  0  0  0  0
  154.8011  141.8005  161.5290 H   0  0  0  0  0  0  0  0  0  0  0  0
  150.1310  138.9136  157.5126 H   0  0  0  0  0  0  0  0  0  0  0  0
  151.3144  139.4701  154.9038 H   0  0  0  0  0  0  0  0  0  0  0  0
  150.8591  137.8058  155.1223 H   0  0  0  0  0  0  0  0  0  0  0  0
  148.6131  139.0573  156.0795 H   0  0  0  0  0  0  0  0  0  0  0  0
  149.1076  138.1539  153.2178 H   0  0  0  0  0  0  0  0  0  0  0  0
  148.6700  137.1254  154.5578 H   0  0  0  0  0  0  0  0  0  0  0  0
  146.6815  137.6943  153.1729 H   0  0  0  0  0  0  0  0  0  0  0  0
  146.5012  138.2674  154.8132 H   0  0  0  0  0  0  0  0  0  0  0  0
  147.3130  139.9463  152.3917 H   0  0  0  0  0  0  0  0  0  0  0  0
  145.7899  140.0317  153.2405 H   0  0  0  0  0  0  0  0  0  0  0  0
  147.3261  141.8848  153.9349 H   0  0  0  0  0  0  0  0  0  0  0  0
  146.8901  140.8588  155.2752 H   0  0  0  0  0  0  0  0  0  0  0  0
  149.2623  141.3161  155.4073 H   0  0  0  0  0  0  0  0  0  0  0  0
  149.5373  140.1912  152.8504 H   0  0  0  0  0  0  0  0  0  0  0  0
  1  2  2  0  0  0  0
  2  3  1  0  0  0  0
  2 14  1  0  0  0  0
  3  4  1  0  0  0  0
  3 23  1  0  0  0  0
  3 24  1  0  0  0  0
  4 12  1  0  0  0  0
  4  5  1  0  0  0  0
  5  6  2  0  0  0  0
  5 25  1  0  0  0  0
  6  7  1  0  0  0  0
  6 10  1  0  0  0  0
  7  8  2  0  0  0  0
  7  9  1  0  0  0  0
 10 11  2  0  0  0  0
 10 26  1  0  0  0  0
 11 12  1  0  0  0  0
 11 27  1  0  0  0  0
 12 13  2  0  0  0  0
 14 15  1  0  0  0  0
 14 28  1  0  0  0  0
 15 16  1  0  0  0  0
 15 29  1  0  0  0  0
 15 30  1  0  0  0  0
 16 21  1  0  0  0  0
 16 17  1  0  0  0  0
 16 31  1  0  0  0  0
 17 18  1  0  0  0  0
 17 32  1  0  0  0  0
 17 33  1  0  0  0  0
 18 19  1  0  0  0  0
 18 34  1  0  0  0  0
 18 35  1  0  0  0  0
 19 20  1  0  0  0  0
 19 36  1  0  0  0  0
 19 37  1  0  0  0  0
 20 21  1  0  0  0  0
 20 38  1  0  0  0  0
 20 39  1  0  0  0  0
 21 22  1  0  0  0  0
 21 40  1  0  0  0  0
 22 41  1  0  0  0  0
M  CHG  1   7   1
M  CHG  1   9  -1
M  END
> <s_m_source_file>
AV-unprocessed.smi

> <i_m_source_file_index>
771

> <i_lp_mmshare_version>
43012

> <i_f3d_flags>
0

> <s_epik_input>
Tz1jMVtjSF1bY0hdYyhbTitdKD1PKVtPLV0pW2NIXW4xW0NIMl1DKD1PKVtOSF1bQ0gyXVtDQEBIXTJbQ0gyXVtDSDJdW0NIMl1bQ0gyXVtDQEhdMltPSF0=

> <s_epik_cmdline>
J2VwaWtfcHl0aG9uJywgJy1waCcsICc3LjAnLCAnLXRuJywgJzgnLCAnLW1hJywgJzIwMCcsICctbWV0YWxfYmluZGluZycsICctaW1hZScsICc8aW5maWxlLm1hZT4nLCAnLW9tYWUnLCAnPG91dGZpbGUubWFlPic=

> <r_lp_tautomer_probability>
1

> <r_epik_Ionization_Penalty>
3.77175e-07

> <r_epik_Ionization_Penalty_Charging>
7.70067e-11

> <r_epik_Ionization_Penalty_Neutral>
3.77098e-07

> <r_epik_State_Penalty>
-0

> <r_epik_Charging_Adjusted_Penalty>
7.70067e-11

> <i_epik_Tot_Q>
0

> <i_epik_Tot_abs_Q>
2

> <r_epik_Metal_State_Penalty>
-0

> <b_epik_Metal_Only>
0

> <s_lp_Force_Field>
OPLS_2005

> <r_lp_Energy>
25.3676

> <b_lp_Chiralities_Consistent>
1

> <s_lp_Variant>
AV-unprocessed.smi:771-3

> <Gold.Version>
5.8.1

> <Gold.Id.Protein>
6NUR|6NUR_protein|mol2

> <Gold.PLP.Fitness>
44.4267

> <Gold.PLP.PLP>
-37.0883

> <Gold.PLP.part.hbond>
-3.3003

> <Gold.PLP.part.metal>
0.0000

> <Gold.PLP.part.buried>
-4.5192

> <Gold.PLP.part.nonpolar>
-30.4816

> <Gold.PLP.part.repulsive>
0.2272

> <Gold.PLP.ligand.clash>
0.0000

> <Gold.PLP.ligand.torsion>
0.9033

> <Gold.PLP.Chemscore.Hbond>
3.0400

> <Gold.PLP.Chemscore.CHOScore>
0.0000

> <Gold.PLP.Chemscore.Metal>
0.0000

> <Gold.Chemscore.Hbonds>
donor molecule, donor type, donor heavy atom, donor atom, acceptor molecule, acceptor atom, score
      L1  H    22    41       P1  7957  0.72
      P1  H  7989  7998       L1    22  0.30
      P1  H  7997  8008       L1     1  1.00
      P1  H  8011  8017       L1    22  1.00

> <Gold.PLP.Chemscore.Internal.Correction>
0.0250

> <Gold.Rescore>
     Score         DG    S(hbond)    S(metal)    S(lipo)     H(rot)  DE(clash)    DE(int)     intcor
     15.88     -16.82       2.45        0.00      81.29       2.48       0.00       0.93       ----

> <Gold.Chemscore.Fitness>
15.8850

> <Gold.Chemscore.DG>
-16.8222

> <Gold.Chemscore.ZeroCoef>
-5.4800

> <Gold.Chemscore.Hbond>
2.4457

> <Gold.Chemscore.Metal>
0.0000

> <Gold.Chemscore.Lipo>
81.2867

> <Gold.Chemscore.Internal_Hbond>
0.0000

> <Gold.Chemscore.DEClash>
0.0029

> <Gold.Chemscore.DEInternal>
0.9344

> <Gold.Chemscore.Rot>
2.4753

> <Gold.Chemscore.Internal.Correction>
   9.000000E+99

> <Gold.Chemscore.Hbonds>
donor molecule, donor type, donor heavy atom, donor atom, acceptor molecule, acceptor atom, score
      L1  H    22    41       P1  7957  0.72
      P1  H  7989  7998       L1    22  0.08
      P1  H  7997  8008       L1     1  0.95
      P1  H  8011  8017       L1    22  0.25

> <Gold.Chemscore.Hbond.Weighted>
-8.1686

> <Gold.Chemscore.Metal.Weighted>
-0.0000

> <Gold.Chemscore.Lipo.Weighted>
-9.5105

> <Gold.Chemscore.Internal_Hbond.Weighted>
0.0000

> <Gold.Chemscore.DEClash.Weighted>
0.0029

> <Gold.Chemscore.DEInternal.Weighted>
0.9344

> <Gold.Chemscore.Rot.Weighted>
6.3369

> <Gold.Chemscore.Internal.Correction.Weighted>
   9.000000E+99

> <Gold.Protein.RotatedTorsions>
[ 6907 6896 6895 6894 ] final  -91.39 input  -60.11 | X-H torsion
[ 7974 7965 7964 7962 ] final  105.68 input  175.53 | X-H torsion
[ 8008 7997 7996 7995 ] final  -73.03 input   59.86 | X-H torsion
[ 10167 10162 10161 10158 ] final  159.06 input  -65.29 | X-H torsion
[ 10718 10713 10712 10709 ] final -107.47 input   66.30 | X-H torsion
[ 10763 10752 10751 10750 ] final   -1.30 input  -60.55 | X-H torsion
[ 11005 11000 10999 10996 ] final  -13.09 input  -57.11 | X-H torsion

> <Gold.Protein.ActiveResidues>
 VAL166  LYS551  ARG553  GLY616  TRP617  ASP618  TYR619  PRO620  LYS621  CYS622 
 ASP623  PHE694  ASN695  SER759  ASP760  ASP761  ALA762  ILE779  LEU786  VAL792 
 PHE793  MET794  SER795  GLU796  ALA797  LYS798  CYS799  TRP800  GLU811  SER814 

> <Gold.Protein.RotatedAtoms>
  150.6892  134.2284  159.4424 H   0  0  0  0  0  0  0  0  0  0  0  0  # atno 6907 bound_to 6896
  152.0236  134.9806  160.0580 H   0  0  0  0  0  0  0  0  0  0  0  0  # atno 6908 bound_to 6896
  152.1373  133.4408  159.4787 H   0  0  0  0  0  0  0  0  0  0  0  0  # atno 6909 bound_to 6896
  145.3166  139.2525  143.3734 H   0  0  0  0  0  0  0  0  0  0  0  0  # atno 7974 bound_to 7965
  154.5214  140.0786  156.8178 H   0  0  0  0  0  0  0  0  0  0  0  0  # atno 8008 bound_to 7997
  155.3568  140.3415  155.4222 H   0  0  0  0  0  0  0  0  0  0  0  0  # atno 8009 bound_to 7997
  156.1685  140.1612  156.8476 H   0  0  0  0  0  0  0  0  0  0  0  0  # atno 8010 bound_to 7997
  139.4830  144.4765  151.8504 H   0  0  0  0  0  0  0  0  0  0  0  0  # atno 10167 bound_to 10162
  156.0438  130.5664  150.7826 H   0  0  0  0  0  0  0  0  0  0  0  0  # atno 10718 bound_to 10713
  153.3431  135.6981  153.6850 H   0  0  0  0  0  0  0  0  0  0  0  0  # atno 10763 bound_to 10752
  153.5607  135.3535  155.2799 H   0  0  0  0  0  0  0  0  0  0  0  0  # atno 10764 bound_to 10752
  154.8640  135.4248  154.2648 H   0  0  0  0  0  0  0  0  0  0  0  0  # atno 10765 bound_to 10752
  140.7725  133.8427  155.9220 H   0  0  0  0  0  0  0  0  0  0  0  0  # atno 11005 bound_to 11000
  146.3098  140.3714  142.8674 LP  0  0  0  0  0  0  0  0  0  0  0  0  # atno 17320 bound_to 7965
  144.8973  140.7599  143.5889 LP  0  0  0  0  0  0  0  0  0  0  0  0  # atno 17321 bound_to 7965
  140.4238  144.2208  150.5887 LP  0  0  0  0  0  0  0  0  0  0  0  0  # atno 17342 bound_to 10162
  140.4847  143.2367  151.8904 LP  0  0  0  0  0  0  0  0  0  0  0  0  # atno 17343 bound_to 10162
  157.5289  131.0935  150.9981 LP  0  0  0  0  0  0  0  0  0  0  0  0  # atno 17370 bound_to 10713
  157.0292  130.5705  149.5341 LP  0  0  0  0  0  0  0  0  0  0  0  0  # atno 17371 bound_to 10713
  140.9560  134.1717  157.4691 LP  0  0  0  0  0  0  0  0  0  0  0  0  # atno 17394 bound_to 11000
  139.8754  134.9927  156.5609 LP  0  0  0  0  0  0  0  0  0  0  0  0  # atno 17395 bound_to 11000

$$$$
