AV-unprocessed.smi:999|AV-procd|sdf|4351|dock6
  -GOLD-   22720 2253D 1   1.00000     0.00000
 Structure written by MMmdl.
 37 38  0  0  0  0  0  0  0  0  2 V2000
  145.0441  142.8297  157.4960 C   0  0  0  0  0  0  0  0  0  0  0  0
  146.4134  143.1766  158.1161 C   0  0  2  0  0  0  0  0  0  0  0  0
  147.5021  142.1460  157.7755 C   0  0  0  0  0  0  0  0  0  0  0  0
  147.4155  140.9830  158.1716 O   0  0  0  0  0  0  0  0  0  0  0  0
  148.5260  142.5934  157.0313 N   0  0  0  0  0  0  0  0  0  0  0  0
  149.6755  141.8018  156.6056 C   0  0  2  0  0  0  0  0  0  0  0  0
  149.2955  140.9741  155.3655 C   0  0  0  0  0  0  0  0  0  0  0  0
  150.4588  140.0821  154.9038 C   0  0  0  0  0  0  0  0  0  0  0  0
  150.9531  139.1564  156.0413 C   0  0  1  0  0  0  0  0  0  0  0  0
  152.1360  138.2705  155.5975 C   0  0  0  0  0  0  0  0  0  0  0  0
  151.9811  137.0287  155.6000 O   0  0  0  0  0  0  0  0  0  0  0  0
  153.1991  138.8500  155.2827 O   0  5  0  0  0  0  0  0  0  0  0  0
  151.3209  139.9858  157.2935 C   0  0  0  0  0  0  0  0  0  0  0  0
  150.1556  140.8810  157.7444 C   0  0  0  0  0  0  0  0  0  0  0  0
  146.3331  143.3718  159.5594 N   0  0  0  0  0  0  0  0  0  0  0  0
  146.6693  144.4989  160.2820 C   0  0  0  0  0  0  0  0  0  0  0  0
  146.4702  144.2157  161.6028 C   0  0  0  0  0  0  0  0  0  0  0  0
  146.0170  142.8678  161.5942 C   0  0  0  0  0  0  0  0  0  0  0  0
  145.9445  142.3628  160.3739 N   0  0  0  0  0  0  0  0  0  0  0  0
  145.1135  142.7503  156.4106 H   0  0  0  0  0  0  0  0  0  0  0  0
  144.3102  143.6043  157.7194 H   0  0  0  0  0  0  0  0  0  0  0  0
  144.6504  141.8840  157.8708 H   0  0  0  0  0  0  0  0  0  0  0  0
  146.7269  144.1278  157.6827 H   0  0  0  0  0  0  0  0  0  0  0  0
  148.5150  143.5621  156.7474 H   0  0  0  0  0  0  0  0  0  0  0  0
  150.4887  142.4757  156.3283 H   0  0  0  0  0  0  0  0  0  0  0  0
  148.4292  140.3493  155.5880 H   0  0  0  0  0  0  0  0  0  0  0  0
  148.9981  141.6361  154.5513 H   0  0  0  0  0  0  0  0  0  0  0  0
  150.1328  139.4918  154.0461 H   0  0  0  0  0  0  0  0  0  0  0  0
  151.2776  140.7131  154.5541 H   0  0  0  0  0  0  0  0  0  0  0  0
  150.1404  138.4786  156.3062 H   0  0  0  0  0  0  0  0  0  0  0  0
  151.6018  139.3317  158.1201 H   0  0  0  0  0  0  0  0  0  0  0  0
  152.1922  140.6078  157.0822 H   0  0  0  0  0  0  0  0  0  0  0  0
  150.4676  141.4750  158.6042 H   0  0  0  0  0  0  0  0  0  0  0  0
  149.3306  140.2540  158.0857 H   0  0  0  0  0  0  0  0  0  0  0  0
  147.0189  145.4002  159.8006 H   0  0  0  0  0  0  0  0  0  0  0  0
  146.6287  144.8703  162.4469 H   0  0  0  0  0  0  0  0  0  0  0  0
  145.7440  142.2440  162.4326 H   0  0  0  0  0  0  0  0  0  0  0  0
  1  2  1  0  0  0  0
  1 20  1  0  0  0  0
  1 21  1  0  0  0  0
  1 22  1  0  0  0  0
  2  3  1  0  0  0  0
  2 15  1  0  0  0  0
  2 23  1  0  0  0  0
  3  4  2  0  0  0  0
  3  5  1  0  0  0  0
  5  6  1  0  0  0  0
  5 24  1  0  0  0  0
  6 14  1  0  0  0  0
  6  7  1  0  0  0  0
  6 25  1  0  0  0  0
  7  8  1  0  0  0  0
  7 26  1  0  0  0  0
  7 27  1  0  0  0  0
  8  9  1  0  0  0  0
  8 28  1  0  0  0  0
  8 29  1  0  0  0  0
  9 10  1  0  0  0  0
  9 13  1  0  0  0  0
  9 30  1  0  0  0  0
 10 11  2  0  0  0  0
 10 12  1  0  0  0  0
 13 14  1  0  0  0  0
 13 31  1  0  0  0  0
 13 32  1  0  0  0  0
 14 33  1  0  0  0  0
 14 34  1  0  0  0  0
 15 19  1  0  0  0  0
 15 16  1  0  0  0  0
 16 17  2  0  0  0  0
 16 35  1  0  0  0  0
 17 18  1  0  0  0  0
 17 36  1  0  0  0  0
 18 19  2  0  0  0  0
 18 37  1  0  0  0  0
M  CHG  1  12  -1
M  END
> <s_m_source_file>
AV-unprocessed.smi

> <i_m_source_file_index>
999

> <i_lp_mmshare_version>
43012

> <i_f3d_flags>
0

> <s_epik_input>
bjFbY0hdW2NIXVtjSF1uMVtDQEhdKFtDSDNdKUMoPU8pW05IXVtDQEBIXTJbQ0gyXVtDSDJdW0NAQEhdKEMoPU8pW09IXSlbQ0gyXVtDSDJdMg==

> <s_epik_cmdline>
J2VwaWtfcHl0aG9uJywgJy1waCcsICc3LjAnLCAnLXRuJywgJzgnLCAnLW1hJywgJzIwMCcsICctbWV0YWxfYmluZGluZycsICctaW1hZScsICc8aW5maWxlLm1hZT4nLCAnLW9tYWUnLCAnPG91dGZpbGUubWFlPic=

> <r_lp_tautomer_probability>
1

> <r_epik_Ionization_Penalty>
0.00221712

> <r_epik_Ionization_Penalty_Charging>
0.00217268

> <r_epik_Ionization_Penalty_Neutral>
4.44343e-05

> <r_epik_State_Penalty>
0.0014925

> <r_epik_Charging_Adjusted_Penalty>
0.00366518

> <i_epik_Tot_Q>
-1

> <i_epik_Tot_abs_Q>
1

> <r_epik_Metal_State_Penalty>
-0

> <b_epik_Metal_Only>
0

> <s_lp_Force_Field>
OPLS_2005

> <r_lp_Energy>
14.6475

> <b_lp_Chiralities_Consistent>
1

> <s_lp_Variant>
AV-unprocessed.smi:999-1

> <Gold.Version>
5.8.1

> <Gold.Id.Protein>
6NUR|6NUR_protein|mol2

> <Gold.PLP.Fitness>
49.8252

> <Gold.PLP.PLP>
-29.4398

> <Gold.PLP.part.hbond>
-4.9909

> <Gold.PLP.part.metal>
0.0000

> <Gold.PLP.part.buried>
-2.5495

> <Gold.PLP.part.nonpolar>
-20.9991

> <Gold.PLP.part.repulsive>
0.0354

> <Gold.PLP.ligand.clash>
0.0000

> <Gold.PLP.ligand.torsion>
0.3693

> <Gold.PLP.Chemscore.Hbond>
6.0000

> <Gold.PLP.Chemscore.CHOScore>
1.0000

> <Gold.PLP.Chemscore.Metal>
0.0000

> <Gold.Chemscore.Hbonds>
donor molecule, donor type, donor heavy atom, donor atom, acceptor molecule, acceptor atom, score
      L1  H     5    24       P1  8028  1.00
      P1  H  6934  6946       L1    19  0.80
      P1  H  7997  8008       L1    12  2.00
      P1  H 10752 10763       L1    11  1.92
      L1  C    16    35       P1  8029  0.55

> <Gold.PLP.Chemscore.Internal.Correction>
0.1241

> <Gold.Rescore>
     Score         DG    S(hbond)    S(metal)    S(lipo)     H(rot)  DE(clash)    DE(int)     intcor
     13.90     -17.57       3.38        0.00      50.15       1.98       0.13       3.54       ----

> <Gold.Chemscore.Fitness>
13.9037

> <Gold.Chemscore.DG>
-17.5726

> <Gold.Chemscore.ZeroCoef>
-5.4800

> <Gold.Chemscore.Hbond>
3.3794

> <Gold.Chemscore.Metal>
0.0000

> <Gold.Chemscore.Lipo>
50.1488

> <Gold.Chemscore.Internal_Hbond>
0.0000

> <Gold.Chemscore.DEClash>
0.1256

> <Gold.Chemscore.DEInternal>
3.5432

> <Gold.Chemscore.Rot>
1.9774

> <Gold.Chemscore.Internal.Correction>
   9.000000E+99

> <Gold.Chemscore.Hbonds>
donor molecule, donor type, donor heavy atom, donor atom, acceptor molecule, acceptor atom, score
      L1  H     5    24       P1  8028  0.24
      P1  H  6934  6946       L1    19  0.12
      P1  H  7997  8008       L1    12  0.97
      P1  H 10752 10763       L1    11  0.90

> <Gold.Chemscore.Hbond.Weighted>
-11.2873

> <Gold.Chemscore.Metal.Weighted>
-0.0000

> <Gold.Chemscore.Lipo.Weighted>
-5.8674

> <Gold.Chemscore.Internal_Hbond.Weighted>
0.0000

> <Gold.Chemscore.DEClash.Weighted>
0.1256

> <Gold.Chemscore.DEInternal.Weighted>
3.5432

> <Gold.Chemscore.Rot.Weighted>
5.0620

> <Gold.Chemscore.Internal.Correction.Weighted>
   9.000000E+99

> <Gold.Protein.RotatedTorsions>
[ 6907 6896 6895 6894 ] final -135.28 input  -60.11 | X-H torsion
[ 7974 7965 7964 7962 ] final   34.21 input  175.53 | X-H torsion
[ 8008 7997 7996 7995 ] final  -29.64 input   59.86 | X-H torsion
[ 10167 10162 10161 10158 ] final  -74.37 input  -65.29 | X-H torsion
[ 10718 10713 10712 10709 ] final -158.47 input   66.30 | X-H torsion
[ 10763 10752 10751 10750 ] final   82.42 input  -60.55 | X-H torsion
[ 11005 11000 10999 10996 ] final -176.02 input  -57.11 | X-H torsion

> <Gold.Protein.ActiveResidues>
 VAL166  LYS551  ARG553  GLY616  TRP617  ASP618  TYR619  PRO620  LYS621  CYS622 
 ASP623  PHE694  ASN695  SER759  ASP760  ASP761  ALA762  ILE779  LEU786  VAL792 
 PHE793  MET794  SER795  GLU796  ALA797  LYS798  CYS799  TRP800  GLU811  SER814 

> <Gold.Protein.RotatedAtoms>
  150.9959  133.6103  159.2701 H   0  0  0  0  0  0  0  0  0  0  0  0  # atno 6907 bound_to 6896
  151.3307  135.0840  159.9347 H   0  0  0  0  0  0  0  0  0  0  0  0  # atno 6908 bound_to 6896
  152.5260  133.9589  159.7762 H   0  0  0  0  0  0  0  0  0  0  0  0  # atno 6909 bound_to 6896
  146.1369  139.6299  142.9189 H   0  0  0  0  0  0  0  0  0  0  0  0  # atno 7974 bound_to 7965
  154.4282  140.1813  156.1279 H   0  0  0  0  0  0  0  0  0  0  0  0  # atno 8008 bound_to 7997
  156.0091  140.3352  155.6897 H   0  0  0  0  0  0  0  0  0  0  0  0  # atno 8009 bound_to 7997
  155.6136  140.0652  157.2689 H   0  0  0  0  0  0  0  0  0  0  0  0  # atno 8010 bound_to 7997
  140.5033  143.2357  151.7716 H   0  0  0  0  0  0  0  0  0  0  0  0  # atno 10167 bound_to 10162
  156.5546  130.8620  151.2790 H   0  0  0  0  0  0  0  0  0  0  0  0  # atno 10718 bound_to 10713
  153.1201  135.4729  154.9181 H   0  0  0  0  0  0  0  0  0  0  0  0  # atno 10763 bound_to 10752
  154.7567  135.3120  154.8459 H   0  0  0  0  0  0  0  0  0  0  0  0  # atno 10764 bound_to 10752
  153.9025  135.6873  153.4808 H   0  0  0  0  0  0  0  0  0  0  0  0  # atno 10765 bound_to 10752
  140.4568  134.6292  157.4825 H   0  0  0  0  0  0  0  0  0  0  0  0  # atno 11005 bound_to 11000
  145.5136  141.0434  143.2474 LP  0  0  0  0  0  0  0  0  0  0  0  0  # atno 17320 bound_to 7965
  144.7749  139.6652  143.7179 LP  0  0  0  0  0  0  0  0  0  0  0  0  # atno 17321 bound_to 7965
  139.4877  144.4492  151.9674 LP  0  0  0  0  0  0  0  0  0  0  0  0  # atno 17342 bound_to 10162
  140.3582  144.3006  150.5938 LP  0  0  0  0  0  0  0  0  0  0  0  0  # atno 17343 bound_to 10162
  157.7381  130.9807  150.2231 LP  0  0  0  0  0  0  0  0  0  0  0  0  # atno 17370 bound_to 10713
  156.2854  130.3739  149.7894 LP  0  0  0  0  0  0  0  0  0  0  0  0  # atno 17371 bound_to 10713
  139.9971  134.6894  155.9592 LP  0  0  0  0  0  0  0  0  0  0  0  0  # atno 17394 bound_to 11000
  141.1639  133.6537  156.4413 LP  0  0  0  0  0  0  0  0  0  0  0  0  # atno 17395 bound_to 11000

$$$$
