AV-unprocessed.smi:52|AV-procd|sdf|508|dock4
  -GOLD-   2262016383D 1   1.00000     0.00000
 Structure written by MMmdl.
 27 28  0  0  0  0  0  0  0  0  3 V2000
  153.3767  139.5678  154.6835 O   0  0  0  0  0  0  0  0  0  0  0  0
  152.8204  138.5191  155.0768 C   0  0  0  0  0  0  0  0  0  0  0  0
  153.4678  137.5748  155.5798 O   0  5  0  0  0  0  0  0  0  0  0  0
  151.3474  138.3897  154.9382 C   0  0  0  0  0  0  0  0  0  0  0  0
  150.5310  137.5171  155.6125 C   0  0  0  0  0  0  0  0  0  0  0  0
  149.2355  137.7170  155.2182 O   0  0  0  0  0  0  0  0  0  0  0  0
  149.3168  138.7176  154.2999 C   0  0  0  0  0  0  0  0  0  0  0  0
  148.0630  139.2253  153.6689 C   0  0  0  0  0  0  0  0  0  0  0  0
  147.3419  137.9986  153.2512 N   0  3  1  0  0  0  0  0  0  0  0  0
  146.6654  137.2547  154.3403 C   0  0  0  0  0  0  0  0  0  0  0  0
  145.5167  136.5129  153.6649 C   0  0  0  0  0  0  0  0  0  0  0  0
  145.0556  137.5176  152.6151 C   0  0  2  0  0  0  0  0  0  0  0  0
  144.3944  136.8902  151.5374 O   0  0  0  0  0  0  0  0  0  0  0  0
  146.3479  138.2183  152.1738 C   0  0  0  0  0  0  0  0  0  0  0  0
  150.5559  139.1539  154.0906 N   0  0  0  0  0  0  0  0  0  0  0  0
  144.3857  138.2440  153.0777 H   0  0  0  0  0  0  0  0  0  0  0  0
  150.7052  136.7520  156.3548 H   0  0  0  0  0  0  0  0  0  0  0  0
  147.4833  139.8251  154.3718 H   0  0  0  0  0  0  0  0  0  0  0  0
  148.3197  139.8422  152.8070 H   0  0  0  0  0  0  0  0  0  0  0  0
  147.3487  136.5788  154.8559 H   0  0  0  0  0  0  0  0  0  0  0  0
  146.2644  137.9537  155.0762 H   0  0  0  0  0  0  0  0  0  0  0  0
  145.8955  135.6071  153.1884 H   0  0  0  0  0  0  0  0  0  0  0  0
  144.7262  136.2265  154.3595 H   0  0  0  0  0  0  0  0  0  0  0  0
  144.1506  137.5499  150.9056 H   0  0  0  0  0  0  0  0  0  0  0  0
  146.1679  139.2764  151.9774 H   0  0  0  0  0  0  0  0  0  0  0  0
  146.7470  137.7778  151.2591 H   0  0  0  0  0  0  0  0  0  0  0  0
  148.0322  137.3716  152.8627 H   0  0  0  0  0  0  0  0  0  0  0  0
  1  2  2  0  0  0  0
  2  3  1  0  0  0  0
  2  4  1  0  0  0  0
  4 15  1  0  0  0  0
  4  5  2  0  0  0  0
  5  6  1  0  0  0  0
  5 17  1  0  0  0  0
  6  7  1  0  0  0  0
  7  8  1  0  0  0  0
  7 15  2  0  0  0  0
  8  9  1  0  0  0  0
  8 18  1  0  0  0  0
  8 19  1  0  0  0  0
  9 14  1  0  0  0  0
  9 10  1  0  0  0  0
  9 27  1  0  0  0  0
 10 11  1  0  0  0  0
 10 20  1  0  0  0  0
 10 21  1  0  0  0  0
 11 12  1  0  0  0  0
 11 22  1  0  0  0  0
 11 23  1  0  0  0  0
 12 16  1  0  0  0  0
 12 13  1  0  0  0  0
 12 14  1  0  0  0  0
 13 24  1  0  0  0  0
 14 25  1  0  0  0  0
 14 26  1  0  0  0  0
M  CHG  1   3  -1
M  CHG  1   9   1
M  END
> <s_m_source_file>
AV-unprocessed.smi

> <i_m_source_file_index>
52

> <i_lp_mmshare_version>
43012

> <i_f3d_flags>
0

> <s_epik_input>
Tz1DKFtPSF0pYzFbY0hdb2MobjEpW0NIMl1OMltDSDJdW0NIMl1bQ0BIXShbT0hdKVtDSDJdMg==

> <s_epik_cmdline>
J2VwaWtfcHl0aG9uJywgJy1waCcsICc3LjAnLCAnLXRuJywgJzgnLCAnLW1hJywgJzIwMCcsICctbWV0YWxfYmluZGluZycsICctaW1hZScsICc8aW5maWxlLm1hZT4nLCAnLW9tYWUnLCAnPG91dGZpbGUubWFlPic=

> <r_epik_Ionization_Penalty>
0.0376014

> <r_epik_Ionization_Penalty_Charging>
0.0376013

> <r_epik_Ionization_Penalty_Neutral>
1.78687e-08

> <r_epik_State_Penalty>
0.0314164

> <r_epik_Charging_Adjusted_Penalty>
0.0690177

> <i_epik_Tot_Q>
0

> <i_epik_Tot_abs_Q>
2

> <r_epik_Metal_State_Penalty>
0.0314164

> <b_epik_Metal_Only>
0

> <s_lp_Force_Field>
OPLS_2005

> <r_lp_Energy>
18.2584

> <b_lp_Chiralities_Consistent>
1

> <s_lp_Variant>
AV-unprocessed.smi:52-2

> <Gold.Version>
5.8.1

> <Gold.Id.Protein>
6NUR|6NUR_protein|mol2

> <Gold.PLP.Fitness>
39.5091

> <Gold.PLP.PLP>
-22.3688

> <Gold.PLP.part.hbond>
-5.6620

> <Gold.PLP.part.metal>
0.0000

> <Gold.PLP.part.buried>
-1.7117

> <Gold.PLP.part.nonpolar>
-15.4702

> <Gold.PLP.part.repulsive>
0.3628

> <Gold.PLP.ligand.clash>
0.0000

> <Gold.PLP.ligand.torsion>
0.4777

> <Gold.PLP.Chemscore.Hbond>
6.0274

> <Gold.PLP.Chemscore.CHOScore>
0.0000

> <Gold.PLP.Chemscore.Metal>
0.0000

> <Gold.Chemscore.Hbonds>
donor molecule, donor type, donor heavy atom, donor atom, acceptor molecule, acceptor atom, score
      L1  H     9    27       P1  7948  2.00
      L1  H    13    24       P1 10171  1.00
      P1  H  7989  7998       L1    15  0.83
      P1  H  7997  8008       L1     1  2.00
      P1  H 10752 10765       L1     3  0.26

> <Gold.PLP.Chemscore.Internal.Correction>
0.0136

> <Gold.Rescore>
     Score         DG    S(hbond)    S(metal)    S(lipo)     H(rot)  DE(clash)    DE(int)     intcor
     14.48     -16.36       3.60        0.00      33.79       1.99       0.01       1.87       ----

> <Gold.Chemscore.Fitness>
14.4847

> <Gold.Chemscore.DG>
-16.3637

> <Gold.Chemscore.ZeroCoef>
-5.4800

> <Gold.Chemscore.Hbond>
3.6016

> <Gold.Chemscore.Metal>
0.0000

> <Gold.Chemscore.Lipo>
33.7915

> <Gold.Chemscore.Internal_Hbond>
0.0000

> <Gold.Chemscore.DEClash>
0.0099

> <Gold.Chemscore.DEInternal>
1.8691

> <Gold.Chemscore.Rot>
1.9919

> <Gold.Chemscore.Internal.Correction>
   9.000000E+99

> <Gold.Chemscore.Hbonds>
donor molecule, donor type, donor heavy atom, donor atom, acceptor molecule, acceptor atom, score
      L1  H     9    27       P1  7948  1.00
      L1  H    13    24       P1 10171  0.93
      P1  H  7989  7998       L1    15  0.59
      P1  H  7997  8008       L1     1  0.96
      P1  H 10752 10765       L1     3  0.12

> <Gold.Chemscore.Hbond.Weighted>
-12.0293

> <Gold.Chemscore.Metal.Weighted>
-0.0000

> <Gold.Chemscore.Lipo.Weighted>
-3.9536

> <Gold.Chemscore.Internal_Hbond.Weighted>
0.0000

> <Gold.Chemscore.DEClash.Weighted>
0.0099

> <Gold.Chemscore.DEInternal.Weighted>
1.8691

> <Gold.Chemscore.Rot.Weighted>
5.0991

> <Gold.Chemscore.Internal.Correction.Weighted>
   9.000000E+99

> <Gold.Protein.RotatedTorsions>
[ 6907 6896 6895 6894 ] final   57.75 input  -60.11 | X-H torsion
[ 7974 7965 7964 7962 ] final  -74.51 input  175.53 | X-H torsion
[ 8008 7997 7996 7995 ] final    0.38 input   59.86 | X-H torsion
[ 10167 10162 10161 10158 ] final -116.80 input  -65.29 | X-H torsion
[ 10718 10713 10712 10709 ] final  -39.41 input   66.30 | X-H torsion
[ 10763 10752 10751 10750 ] final -163.10 input  -60.55 | X-H torsion
[ 11005 11000 10999 10996 ] final   56.53 input  -57.11 | X-H torsion

> <Gold.Protein.ActiveResidues>
 VAL166  LYS551  ARG553  GLY616  TRP617  ASP618  TYR619  PRO620  LYS621  CYS622 
 ASP623  PHE694  ASN695  SER759  ASP760  ASP761  ALA762  ILE779  LEU786  VAL792 
 PHE793  MET794  SER795  GLU796  ALA797  LYS798  CYS799  TRP800  GLU811  SER814 

> <Gold.Protein.RotatedAtoms>
  152.3761  134.6661  160.0159 H   0  0  0  0  0  0  0  0  0  0  0  0  # atno 6907 bound_to 6896
  151.6939  133.3305  159.3258 H   0  0  0  0  0  0  0  0  0  0  0  0  # atno 6908 bound_to 6896
  150.7710  134.6610  159.6384 H   0  0  0  0  0  0  0  0  0  0  0  0  # atno 6909 bound_to 6896
  145.6382  140.9318  143.1050 H   0  0  0  0  0  0  0  0  0  0  0  0  # atno 7974 bound_to 7965
  154.6674  140.2604  155.7043 H   0  0  0  0  0  0  0  0  0  0  0  0  # atno 8008 bound_to 7997
  156.2644  140.2836  156.1092 H   0  0  0  0  0  0  0  0  0  0  0  0  # atno 8009 bound_to 7997
  155.1219  140.0377  157.2742 H   0  0  0  0  0  0  0  0  0  0  0  0  # atno 8010 bound_to 7997
  140.0753  143.4838  152.1956 H   0  0  0  0  0  0  0  0  0  0  0  0  # atno 10167 bound_to 10162
  156.2928  130.4230  149.8222 H   0  0  0  0  0  0  0  0  0  0  0  0  # atno 10718 bound_to 10713
  154.7153  135.3014  154.9132 H   0  0  0  0  0  0  0  0  0  0  0  0  # atno 10763 bound_to 10752
  154.0021  135.6705  153.4764 H   0  0  0  0  0  0  0  0  0  0  0  0  # atno 10764 bound_to 10752
  153.0789  135.5020  154.8376 H   0  0  0  0  0  0  0  0  0  0  0  0  # atno 10765 bound_to 10752
  140.0522  134.5721  155.9250 H   0  0  0  0  0  0  0  0  0  0  0  0  # atno 11005 bound_to 11000
  144.7167  139.8171  143.7396 LP  0  0  0  0  0  0  0  0  0  0  0  0  # atno 17320 bound_to 7965
  146.1302  139.4336  143.0173 LP  0  0  0  0  0  0  0  0  0  0  0  0  # atno 17321 bound_to 7965
  139.5811  144.7511  151.3637 LP  0  0  0  0  0  0  0  0  0  0  0  0  # atno 17342 bound_to 10162
  140.7105  143.7403  150.7558 LP  0  0  0  0  0  0  0  0  0  0  0  0  # atno 17343 bound_to 10162
  156.5628  130.8391  151.3334 LP  0  0  0  0  0  0  0  0  0  0  0  0  # atno 17370 bound_to 10713
  157.7347  130.9750  150.2042 LP  0  0  0  0  0  0  0  0  0  0  0  0  # atno 17371 bound_to 10713
  141.1935  133.6579  156.5553 LP  0  0  0  0  0  0  0  0  0  0  0  0  # atno 17394 bound_to 11000
  140.3900  134.7449  157.4715 LP  0  0  0  0  0  0  0  0  0  0  0  0  # atno 17395 bound_to 11000

$$$$
