AV-unprocessed.smi:1244|AV-procd|sdf|5231|dock5
  -GOLD-   22720 4333D 1   1.00000     0.00000
 Structure written by MMmdl.
 56 58  0  0  0  0  0  0  0  0  3 V2000
  147.8657  140.6127  155.3807 C   0  0  0  0  0  0  0  0  0  0  0  0
  149.2866  140.8732  154.8489 C   0  0  2  0  0  0  0  0  0  0  0  0
  150.0524  139.5872  154.4793 C   0  0  0  0  0  0  0  0  0  0  0  0
  150.4898  138.8546  155.6914 N   0  3  1  0  0  0  0  0  0  0  0  0
  151.1718  137.5771  155.3659 C   0  0  0  0  0  0  0  0  0  0  0  0
  150.2424  136.3588  155.5268 C   0  0  0  0  0  0  0  0  0  0  0  0
  149.1375  136.3924  154.5755 N   0  0  0  0  0  0  0  0  0  0  0  0
  147.8736  136.7194  154.8801 C   0  0  0  0  0  0  0  0  0  0  0  0
  147.5150  137.0667  156.0052 O   0  0  0  0  0  0  0  0  0  0  0  0
  147.0657  136.5977  153.8134 N   0  0  0  0  0  0  0  0  0  0  0  0
  145.6540  136.7777  153.7614 C   0  0  0  0  0  0  0  0  0  0  0  0
  144.9886  137.6345  154.6755 C   0  0  0  0  0  0  0  0  0  0  0  0
  143.5894  137.7762  154.6160 C   0  0  0  0  0  0  0  0  0  0  0  0
  142.8749  137.0615  153.6397 C   0  0  0  0  0  0  0  0  0  0  0  0
  143.5379  136.2701  152.7717 N   0  3  0  0  0  0  0  0  0  0  0  0
  144.8844  136.1041  152.7681 C   0  0  0  0  0  0  0  0  0  0  0  0
  145.4401  135.2504  151.7880 N   0  0  0  0  0  0  0  0  0  0  0  0
  146.3362  134.1665  152.1741 C   0  0  0  0  0  0  0  0  0  0  0  0
  146.4415  133.2805  150.9359 C   0  0  0  0  0  0  0  0  0  0  0  0
  145.0410  133.3844  150.3395 C   0  0  0  0  0  0  0  0  0  0  0  0
  144.6102  134.8180  150.6681 C   0  0  0  0  0  0  0  0  0  0  0  0
  151.2842  139.7468  156.5696 C   0  0  0  0  0  0  0  0  0  0  0  0
  150.4713  141.0010  156.9369 C   0  0  1  0  0  0  0  0  0  0  0  0
  151.2882  141.9904  157.7754 C   0  0  0  0  0  0  0  0  0  0  0  0
  150.0624  141.6682  155.7458 O   0  0  0  0  0  0  0  0  0  0  0  0
  147.2534  140.1221  154.6234 H   0  0  0  0  0  0  0  0  0  0  0  0
  147.3724  141.5481  155.6455 H   0  0  0  0  0  0  0  0  0  0  0  0
  147.8636  139.9719  156.2619 H   0  0  0  0  0  0  0  0  0  0  0  0
  149.1771  141.4658  153.9401 H   0  0  0  0  0  0  0  0  0  0  0  0
  149.4242  138.9482  153.8571 H   0  0  0  0  0  0  0  0  0  0  0  0
  150.9306  139.8419  153.8834 H   0  0  0  0  0  0  0  0  0  0  0  0
  151.5116  137.6162  154.3300 H   0  0  0  0  0  0  0  0  0  0  0  0
  152.0670  137.4668  155.9802 H   0  0  0  0  0  0  0  0  0  0  0  0
  150.7853  135.4305  155.3531 H   0  0  0  0  0  0  0  0  0  0  0  0
  149.8558  136.3057  156.5462 H   0  0  0  0  0  0  0  0  0  0  0  0
  149.3464  136.1206  153.6255 H   0  0  0  0  0  0  0  0  0  0  0  0
  147.4862  136.2131  152.9801 H   0  0  0  0  0  0  0  0  0  0  0  0
  145.5330  138.1918  155.4226 H   0  0  0  0  0  0  0  0  0  0  0  0
  143.0729  138.4221  155.3108 H   0  0  0  0  0  0  0  0  0  0  0  0
  141.8018  137.1035  153.5213 H   0  0  0  0  0  0  0  0  0  0  0  0
  147.3099  134.5456  152.4852 H   0  0  0  0  0  0  0  0  0  0  0  0
  145.9091  133.5934  152.9981 H   0  0  0  0  0  0  0  0  0  0  0  0
  147.1738  133.6936  150.2409 H   0  0  0  0  0  0  0  0  0  0  0  0
  146.7336  132.2563  151.1688 H   0  0  0  0  0  0  0  0  0  0  0  0
  145.0153  133.1689  149.2711 H   0  0  0  0  0  0  0  0  0  0  0  0
  144.3773  132.6783  150.8402 H   0  0  0  0  0  0  0  0  0  0  0  0
  143.5455  134.8682  150.9006 H   0  0  0  0  0  0  0  0  0  0  0  0
  144.8045  135.4689  149.8151 H   0  0  0  0  0  0  0  0  0  0  0  0
  151.5688  139.2272  157.4839 H   0  0  0  0  0  0  0  0  0  0  0  0
  152.2082  140.0291  156.0623 H   0  0  0  0  0  0  0  0  0  0  0  0
  149.5952  140.7118  157.5176 H   0  0  0  0  0  0  0  0  0  0  0  0
  151.6223  141.5342  158.7076 H   0  0  0  0  0  0  0  0  0  0  0  0
  150.6939  142.8681  158.0304 H   0  0  0  0  0  0  0  0  0  0  0  0
  152.1714  142.3324  157.2349 H   0  0  0  0  0  0  0  0  0  0  0  0
  149.6480  138.6131  156.1949 H   0  0  0  0  0  0  0  0  0  0  0  0
  142.9916  135.7716  152.0691 H   0  0  0  0  0  0  0  0  0  0  0  0
  1  2  1  0  0  0  0
  1 26  1  0  0  0  0
  1 27  1  0  0  0  0
  1 28  1  0  0  0  0
  2 25  1  0  0  0  0
  2  3  1  0  0  0  0
  2 29  1  0  0  0  0
  3  4  1  0  0  0  0
  3 30  1  0  0  0  0
  3 31  1  0  0  0  0
  4  5  1  0  0  0  0
  4 22  1  0  0  0  0
  4 55  1  0  0  0  0
  5  6  1  0  0  0  0
  5 32  1  0  0  0  0
  5 33  1  0  0  0  0
  6  7  1  0  0  0  0
  6 34  1  0  0  0  0
  6 35  1  0  0  0  0
  7  8  1  0  0  0  0
  7 36  1  0  0  0  0
  8  9  2  0  0  0  0
  8 10  1  0  0  0  0
 10 11  1  0  0  0  0
 10 37  1  0  0  0  0
 11 16  1  0  0  0  0
 11 12  2  0  0  0  0
 12 13  1  0  0  0  0
 12 38  1  0  0  0  0
 13 14  2  0  0  0  0
 13 39  1  0  0  0  0
 14 15  1  0  0  0  0
 14 40  1  0  0  0  0
 15 16  2  0  0  0  0
 15 56  1  0  0  0  0
 16 17  1  0  0  0  0
 17 21  1  0  0  0  0
 17 18  1  0  0  0  0
 18 19  1  0  0  0  0
 18 41  1  0  0  0  0
 18 42  1  0  0  0  0
 19 20  1  0  0  0  0
 19 43  1  0  0  0  0
 19 44  1  0  0  0  0
 20 21  1  0  0  0  0
 20 45  1  0  0  0  0
 20 46  1  0  0  0  0
 21 47  1  0  0  0  0
 21 48  1  0  0  0  0
 22 23  1  0  0  0  0
 22 49  1  0  0  0  0
 22 50  1  0  0  0  0
 23 24  1  0  0  0  0
 23 25  1  0  0  0  0
 23 51  1  0  0  0  0
 24 52  1  0  0  0  0
 24 53  1  0  0  0  0
 24 54  1  0  0  0  0
M  CHG  1   4   1
M  CHG  1  15   1
M  END
> <s_m_source_file>
AV-unprocessed.smi

> <i_m_source_file_index>
1244

> <i_lp_mmshare_version>
43012

> <i_f3d_flags>
0

> <s_epik_input>
W0NIM11bQ0BASF0xW0NIMl1OKFtDSDJdW0NASF0oTzEpW0NIM10pW0NIMl1bQ0gyXVtOSF1DKD1PKVtOSF1jMltjSF1bY0hdW2NIXW5jMk4zW0NIMl1bQ0gyXVtDSDJdW0NIMl0z

> <s_epik_cmdline>
J2VwaWtfcHl0aG9uJywgJy1waCcsICc3LjAnLCAnLXRuJywgJzgnLCAnLW1hJywgJzIwMCcsICctbWV0YWxfYmluZGluZycsICctaW1hZScsICc8aW5maWxlLm1hZT4nLCAnLW9tYWUnLCAnPG91dGZpbGUubWFlPic=

> <r_lp_tautomer_probability>
0.999994

> <r_epik_Ionization_Penalty>
1.81601

> <r_epik_Ionization_Penalty_Charging>
1.81599

> <r_epik_Ionization_Penalty_Neutral>
2.01972e-05

> <r_epik_State_Penalty>
1.85672

> <r_epik_Charging_Adjusted_Penalty>
3.6727

> <i_epik_Tot_Q>
2

> <i_epik_Tot_abs_Q>
2

> <r_epik_Metal_State_Penalty>
1.93796

> <b_epik_Metal_Only>
0

> <s_lp_Force_Field>
OPLS_2005

> <r_lp_Energy>
54.4997

> <b_lp_Chiralities_Consistent>
1

> <s_lp_Variant>
AV-unprocessed.smi:1244-11

> <Gold.Version>
5.8.1

> <Gold.Id.Protein>
6NUR|6NUR_protein|mol2

> <Gold.PLP.Fitness>
35.6066

> <Gold.PLP.PLP>
-31.6115

> <Gold.PLP.part.hbond>
-2.0000

> <Gold.PLP.part.metal>
0.0000

> <Gold.PLP.part.buried>
-3.6769

> <Gold.PLP.part.nonpolar>
-25.9453

> <Gold.PLP.part.repulsive>
0.3536

> <Gold.PLP.ligand.clash>
0.0000

> <Gold.PLP.ligand.torsion>
1.0669

> <Gold.PLP.Chemscore.Hbond>
1.9040

> <Gold.PLP.Chemscore.CHOScore>
0.0000

> <Gold.PLP.Chemscore.Metal>
0.0000

> <Gold.Chemscore.Hbonds>
donor molecule, donor type, donor heavy atom, donor atom, acceptor molecule, acceptor atom, score
      L1  H     7    36       P1  7948  1.00
      L1  H    10    37       P1  7948  0.93

> <Gold.PLP.Chemscore.Internal.Correction>
0.4169

> <Gold.Rescore>
     Score         DG    S(hbond)    S(metal)    S(lipo)     H(rot)  DE(clash)    DE(int)     intcor
     14.22     -16.60       1.82        0.00      78.82       1.63       0.09       2.29       ----

> <Gold.Chemscore.Fitness>
14.2212

> <Gold.Chemscore.DG>
-16.6002

> <Gold.Chemscore.ZeroCoef>
-5.4800

> <Gold.Chemscore.Hbond>
1.8169

> <Gold.Chemscore.Metal>
0.0000

> <Gold.Chemscore.Lipo>
78.8250

> <Gold.Chemscore.Internal_Hbond>
0.0000

> <Gold.Chemscore.DEClash>
0.0910

> <Gold.Chemscore.DEInternal>
2.2880

> <Gold.Chemscore.Rot>
1.6293

> <Gold.Chemscore.Internal.Correction>
   9.000000E+99

> <Gold.Chemscore.Hbonds>
donor molecule, donor type, donor heavy atom, donor atom, acceptor molecule, acceptor atom, score
      L1  H     7    36       P1  7948  0.70
      L1  H    10    37       P1  7948  0.91

> <Gold.Chemscore.Hbond.Weighted>
-6.0686

> <Gold.Chemscore.Metal.Weighted>
-0.0000

> <Gold.Chemscore.Lipo.Weighted>
-9.2225

> <Gold.Chemscore.Internal_Hbond.Weighted>
0.0000

> <Gold.Chemscore.DEClash.Weighted>
0.0910

> <Gold.Chemscore.DEInternal.Weighted>
2.2880

> <Gold.Chemscore.Rot.Weighted>
4.1709

> <Gold.Chemscore.Internal.Correction.Weighted>
   9.000000E+99

> <Gold.Protein.RotatedTorsions>
[ 6907 6896 6895 6894 ] final  171.74 input  -60.11 | X-H torsion
[ 7974 7965 7964 7962 ] final  -18.31 input  175.53 | X-H torsion
[ 8008 7997 7996 7995 ] final   31.98 input   59.86 | X-H torsion
[ 10167 10162 10161 10158 ] final -144.50 input  -65.29 | X-H torsion
[ 10718 10713 10712 10709 ] final -114.93 input   66.30 | X-H torsion
[ 10763 10752 10751 10750 ] final -146.32 input  -60.55 | X-H torsion
[ 11005 11000 10999 10996 ] final  151.47 input  -57.11 | X-H torsion

> <Gold.Protein.ActiveResidues>
 VAL166  LYS551  ARG553  GLY616  TRP617  ASP618  TYR619  PRO620  LYS621  CYS622 
 ASP623  PHE694  ASN695  SER759  ASP760  ASP761  ALA762  ILE779  LEU786  VAL792 
 PHE793  MET794  SER795  GLU796  ALA797  LYS798  CYS799  TRP800  GLU811  SER814 

> <Gold.Protein.RotatedAtoms>
  151.7954  133.3364  159.3511 H   0  0  0  0  0  0  0  0  0  0  0  0  # atno 6907 bound_to 6896
  150.7377  134.5803  159.5945 H   0  0  0  0  0  0  0  0  0  0  0  0  # atno 6908 bound_to 6896
  152.3181  134.7416  160.0372 H   0  0  0  0  0  0  0  0  0  0  0  0  # atno 6909 bound_to 6896
  146.1898  140.3903  142.8462 H   0  0  0  0  0  0  0  0  0  0  0  0  # atno 7974 bound_to 7965
  155.1151  140.3243  155.4511 H   0  0  0  0  0  0  0  0  0  0  0  0  # atno 8008 bound_to 7997
  156.2679  140.2037  156.6222 H   0  0  0  0  0  0  0  0  0  0  0  0  # atno 8009 bound_to 7997
  154.6726  140.0535  157.0169 H   0  0  0  0  0  0  0  0  0  0  0  0  # atno 8010 bound_to 7997
  139.7893  143.7989  152.2648 H   0  0  0  0  0  0  0  0  0  0  0  0  # atno 10167 bound_to 10162
  156.0862  130.6053  150.8839 H   0  0  0  0  0  0  0  0  0  0  0  0  # atno 10718 bound_to 10713
  154.8342  135.3389  154.6643 H   0  0  0  0  0  0  0  0  0  0  0  0  # atno 10763 bound_to 10752
  153.7259  135.6955  153.5005 H   0  0  0  0  0  0  0  0  0  0  0  0  # atno 10764 bound_to 10752
  153.2347  135.4404  155.0586 H   0  0  0  0  0  0  0  0  0  0  0  0  # atno 10765 bound_to 10752
  140.1222  134.8856  157.2087 H   0  0  0  0  0  0  0  0  0  0  0  0  # atno 11005 bound_to 11000
  144.8465  140.6938  143.6195 LP  0  0  0  0  0  0  0  0  0  0  0  0  # atno 17320 bound_to 7965
  145.3827  139.1633  143.4272 LP  0  0  0  0  0  0  0  0  0  0  0  0  # atno 17321 bound_to 7965
  139.8075  144.7349  150.9741 LP  0  0  0  0  0  0  0  0  0  0  0  0  # atno 17342 bound_to 10162
  140.7820  143.4283  151.0733 LP  0  0  0  0  0  0  0  0  0  0  0  0  # atno 17343 bound_to 10162
  157.5997  131.0941  150.8981 LP  0  0  0  0  0  0  0  0  0  0  0  0  # atno 17370 bound_to 10713
  156.9141  130.5291  149.5280 LP  0  0  0  0  0  0  0  0  0  0  0  0  # atno 17371 bound_to 10713
  140.2951  134.3196  155.7304 LP  0  0  0  0  0  0  0  0  0  0  0  0  # atno 17394 bound_to 11000
  141.2154  133.7558  156.9559 LP  0  0  0  0  0  0  0  0  0  0  0  0  # atno 17395 bound_to 11000

$$$$
