AV-unprocessed.smi:1023|AV-procd|sdf|4462|dock5
  -GOLD-   22720 2433D 1   1.00000     0.00000
 Structure written by MMmdl.
 32 33  0  0  0  0  0  0  0  0  1 V2000
  151.5893  144.1946  156.9526 C   0  0  0  0  0  0  0  0  0  0  0  0
  152.2131  144.4441  158.3371 C   0  0  0  0  0  0  0  0  0  0  0  0
  152.4071  143.1176  159.0865 C   0  0  0  0  0  0  0  0  0  0  0  0
  151.3956  145.4358  159.1906 C   0  0  0  0  0  0  0  0  0  0  0  0
  149.9572  145.2331  159.0441 N   0  0  0  0  0  0  0  0  0  0  0  0
  149.1459  144.6580  159.9479 C   0  0  0  0  0  0  0  0  0  0  0  0
  149.5459  144.2457  161.0353 O   0  0  0  0  0  0  0  0  0  0  0  0
  147.8442  144.5528  159.6045 N   0  0  0  0  0  0  0  0  0  0  0  0
  146.7213  144.0118  160.2960 C   0  0  0  0  0  0  0  0  0  0  0  0
  146.7177  142.8386  160.9453 N   0  0  0  0  0  0  0  0  0  0  0  0
  145.4914  142.5733  161.5368 N   0  0  0  0  0  0  0  0  0  0  0  0
  144.6040  143.5524  161.3267 C   0  0  0  0  0  0  0  0  0  0  0  0
  143.2134  143.4963  161.8657 C   0  0  0  0  0  0  0  0  0  0  0  0
  142.0485  143.1570  160.9643 C   0  0  0  0  0  0  0  0  0  0  0  0
  142.1860  144.5518  161.5184 C   0  0  0  0  0  0  0  0  0  0  0  0
  145.2102  144.9026  160.3739 S   0  0  0  0  0  0  0  0  0  0  0  0
  150.5733  143.8088  157.0411 H   0  0  0  0  0  0  0  0  0  0  0  0
  152.1725  143.4692  156.3849 H   0  0  0  0  0  0  0  0  0  0  0  0
  151.5489  145.1080  156.3591 H   0  0  0  0  0  0  0  0  0  0  0  0
  153.2029  144.8748  158.1792 H   0  0  0  0  0  0  0  0  0  0  0  0
  151.4522  142.6267  159.2772 H   0  0  0  0  0  0  0  0  0  0  0  0
  152.8974  143.2767  160.0473 H   0  0  0  0  0  0  0  0  0  0  0  0
  153.0272  142.4282  158.5127 H   0  0  0  0  0  0  0  0  0  0  0  0
  151.7000  145.3762  160.2369 H   0  0  0  0  0  0  0  0  0  0  0  0
  151.6114  146.4561  158.8722 H   0  0  0  0  0  0  0  0  0  0  0  0
  149.5440  145.5440  158.1763 H   0  0  0  0  0  0  0  0  0  0  0  0
  147.6191  144.9612  158.7091 H   0  0  0  0  0  0  0  0  0  0  0  0
  143.2090  143.0951  162.8773 H   0  0  0  0  0  0  0  0  0  0  0  0
  142.2529  143.0160  159.9047 H   0  0  0  0  0  0  0  0  0  0  0  0
  141.2640  142.5256  161.3762 H   0  0  0  0  0  0  0  0  0  0  0  0
  141.4916  144.8521  162.3004 H   0  0  0  0  0  0  0  0  0  0  0  0
  142.4690  145.3373  160.8206 H   0  0  0  0  0  0  0  0  0  0  0  0
  1  2  1  0  0  0  0
  1 17  1  0  0  0  0
  1 18  1  0  0  0  0
  1 19  1  0  0  0  0
  2  3  1  0  0  0  0
  2  4  1  0  0  0  0
  2 20  1  0  0  0  0
  3 21  1  0  0  0  0
  3 22  1  0  0  0  0
  3 23  1  0  0  0  0
  4  5  1  0  0  0  0
  4 24  1  0  0  0  0
  4 25  1  0  0  0  0
  5  6  1  0  0  0  0
  5 26  1  0  0  0  0
  6  7  2  0  0  0  0
  6  8  1  0  0  0  0
  8  9  1  0  0  0  0
  8 27  1  0  0  0  0
  9 16  1  0  0  0  0
  9 10  2  0  0  0  0
 10 11  1  0  0  0  0
 11 12  2  0  0  0  0
 12 13  1  0  0  0  0
 12 16  1  0  0  0  0
 13 15  1  0  0  0  0
 13 14  1  0  0  0  0
 13 28  1  0  0  0  0
 14 15  1  0  0  0  0
 14 29  1  0  0  0  0
 14 30  1  0  0  0  0
 15 31  1  0  0  0  0
 15 32  1  0  0  0  0
M  END
> <s_m_source_file>
AV-unprocessed.smi

> <i_m_source_file_index>
1023

> <i_lp_mmshare_version>
43012

> <i_f3d_flags>
0

> <s_epik_input>
W0NIM11bQ0hdKFtDSDNdKVtDSDJdW05IXUMoPU8pW05IXWMxbm5jKHMxKVtDSF0yW0NIMl1bQ0gyXTI=

> <s_epik_cmdline>
J2VwaWtfcHl0aG9uJywgJy1waCcsICc3LjAnLCAnLXRuJywgJzgnLCAnLW1hJywgJzIwMCcsICctbWV0YWxfYmluZGluZycsICctaW1hZScsICc8aW5maWxlLm1hZT4nLCAnLW9tYWUnLCAnPG91dGZpbGUubWFlPic=

> <r_lp_tautomer_probability>
1

> <r_epik_Ionization_Penalty>
0.000943136

> <r_epik_Ionization_Penalty_Charging>
0

> <r_epik_Ionization_Penalty_Neutral>
0.000943136

> <r_epik_State_Penalty>
-0

> <r_epik_Charging_Adjusted_Penalty>
0

> <i_epik_Tot_Q>
0

> <i_epik_Tot_abs_Q>
0

> <r_epik_Metal_State_Penalty>
0.281646

> <b_epik_Metal_Only>
0

> <s_lp_Force_Field>
OPLS_2005

> <r_lp_Energy>
5.4251

> <b_lp_Chiralities_Consistent>
1

> <s_lp_Variant>
AV-unprocessed.smi:1023-1

> <Gold.Version>
5.8.1

> <Gold.Id.Protein>
6NUR|6NUR_protein|mol2

> <Gold.PLP.Fitness>
43.5168

> <Gold.PLP.PLP>
-36.1213

> <Gold.PLP.part.hbond>
-5.1146

> <Gold.PLP.part.metal>
0.0000

> <Gold.PLP.part.buried>
-5.2358

> <Gold.PLP.part.nonpolar>
-27.0562

> <Gold.PLP.part.repulsive>
0.6504

> <Gold.PLP.ligand.clash>
0.0000

> <Gold.PLP.ligand.torsion>
0.9657

> <Gold.PLP.Chemscore.Hbond>
3.0650

> <Gold.PLP.Chemscore.CHOScore>
0.0000

> <Gold.PLP.Chemscore.Metal>
0.0000

> <Gold.Chemscore.Hbonds>
donor molecule, donor type, donor heavy atom, donor atom, acceptor molecule, acceptor atom, score
      L1  H     5    26       P1  8029  0.93
      L1  H     8    27       P1  8029  1.00
      P1  H  6933  6944       L1    10  0.88
      P1  H  6934  6946       L1    10  0.29

> <Gold.PLP.Chemscore.Internal.Correction>
0.1320

> <Gold.Rescore>
     Score         DG    S(hbond)    S(metal)    S(lipo)     H(rot)  DE(clash)    DE(int)     intcor
     17.87     -20.51       2.51        0.00      87.76       1.42       1.68       0.96       ----

> <Gold.Chemscore.Fitness>
17.8704

> <Gold.Chemscore.DG>
-20.5106

> <Gold.Chemscore.ZeroCoef>
-5.4800

> <Gold.Chemscore.Hbond>
2.5137

> <Gold.Chemscore.Metal>
0.0000

> <Gold.Chemscore.Lipo>
87.7609

> <Gold.Chemscore.Internal_Hbond>
0.0000

> <Gold.Chemscore.DEClash>
1.6820

> <Gold.Chemscore.DEInternal>
0.9582

> <Gold.Chemscore.Rot>
1.4193

> <Gold.Chemscore.Internal.Correction>
   9.000000E+99

> <Gold.Chemscore.Hbonds>
donor molecule, donor type, donor heavy atom, donor atom, acceptor molecule, acceptor atom, score
      L1  H     5    26       P1  8029  0.49
      L1  H     8    27       P1  8029  0.99
      P1  H  6933  6944       L1    10  0.68
      P1  H  6934  6946       L1    10  0.01

> <Gold.Chemscore.Hbond.Weighted>
-8.3959

> <Gold.Chemscore.Metal.Weighted>
-0.0000

> <Gold.Chemscore.Lipo.Weighted>
-10.2680

> <Gold.Chemscore.Internal_Hbond.Weighted>
0.0000

> <Gold.Chemscore.DEClash.Weighted>
1.6820

> <Gold.Chemscore.DEInternal.Weighted>
0.9582

> <Gold.Chemscore.Rot.Weighted>
3.6333

> <Gold.Chemscore.Internal.Correction.Weighted>
   9.000000E+99

> <Gold.Protein.RotatedTorsions>
[ 6907 6896 6895 6894 ] final  -18.48 input  -60.11 | X-H torsion
[ 7974 7965 7964 7962 ] final   63.12 input  175.53 | X-H torsion
[ 8008 7997 7996 7995 ] final -103.19 input   59.86 | X-H torsion
[ 10167 10162 10161 10158 ] final   96.27 input  -65.29 | X-H torsion
[ 10718 10713 10712 10709 ] final -115.46 input   66.30 | X-H torsion
[ 10763 10752 10751 10750 ] final  154.69 input  -60.55 | X-H torsion
[ 11005 11000 10999 10996 ] final -146.21 input  -57.11 | X-H torsion

> <Gold.Protein.ActiveResidues>
 VAL166  LYS551  ARG553  GLY616  TRP617  ASP618  TYR619  PRO620  LYS621  CYS622 
 ASP623  PHE694  ASN695  SER759  ASP760  ASP761  ALA762  ILE779  LEU786  VAL792 
 PHE793  MET794  SER795  GLU796  ALA797  LYS798  CYS799  TRP800  GLU811  SER814 

> <Gold.Protein.RotatedAtoms>
  151.2776  135.0704  159.9157 H   0  0  0  0  0  0  0  0  0  0  0  0  # atno 6907 bound_to 6896
  152.5340  134.0064  159.7929 H   0  0  0  0  0  0  0  0  0  0  0  0  # atno 6908 bound_to 6896
  151.0313  133.5737  159.2691 H   0  0  0  0  0  0  0  0  0  0  0  0  # atno 6909 bound_to 6896
  145.8655  139.3343  143.0794 H   0  0  0  0  0  0  0  0  0  0  0  0  # atno 7974 bound_to 7965
  154.8674  140.0424  157.1703 H   0  0  0  0  0  0  0  0  0  0  0  0  # atno 8008 bound_to 7997
  154.8775  140.2967  155.5424 H   0  0  0  0  0  0  0  0  0  0  0  0  # atno 8009 bound_to 7997
  156.2999  140.2417  156.3772 H   0  0  0  0  0  0  0  0  0  0  0  0  # atno 8010 bound_to 7997
  139.7910  144.6852  150.9893 H   0  0  0  0  0  0  0  0  0  0  0  0  # atno 10167 bound_to 10162
  156.0897  130.6082  150.8909 H   0  0  0  0  0  0  0  0  0  0  0  0  # atno 10718 bound_to 10713
  154.1564  135.2812  155.3121 H   0  0  0  0  0  0  0  0  0  0  0  0  # atno 10763 bound_to 10752
  154.6179  135.5477  153.7547 H   0  0  0  0  0  0  0  0  0  0  0  0  # atno 10764 bound_to 10752
  153.0205  135.6432  154.1707 H   0  0  0  0  0  0  0  0  0  0  0  0  # atno 10765 bound_to 10752
  140.7843  134.3042  157.5035 H   0  0  0  0  0  0  0  0  0  0  0  0  # atno 11005 bound_to 11000
  145.9198  140.9123  143.0411 LP  0  0  0  0  0  0  0  0  0  0  0  0  # atno 17320 bound_to 7965
  144.6726  140.1274  143.7446 LP  0  0  0  0  0  0  0  0  0  0  0  0  # atno 17321 bound_to 7965
  140.7820  143.4381  151.0593 LP  0  0  0  0  0  0  0  0  0  0  0  0  # atno 17342 bound_to 10162
  139.8058  143.8020  152.3167 LP  0  0  0  0  0  0  0  0  0  0  0  0  # atno 17343 bound_to 10162
  157.6043  131.0940  150.8907 LP  0  0  0  0  0  0  0  0  0  0  0  0  # atno 17370 bound_to 10713
  156.9058  130.5263  149.5281 LP  0  0  0  0  0  0  0  0  0  0  0  0  # atno 17371 bound_to 10713
  139.8738  134.9337  156.3588 LP  0  0  0  0  0  0  0  0  0  0  0  0  # atno 17394 bound_to 11000
  140.9452  133.7488  156.0198 LP  0  0  0  0  0  0  0  0  0  0  0  0  # atno 17395 bound_to 11000

$$$$
