AV-unprocessed.smi:174|AV-procd|sdf|1428|dock6
  -GOLD-   2262019203D 1   1.00000     0.00000
 Structure written by MMmdl.
 51 54  0  0  0  0  0  0  0  0  1 V2000
  145.1463  135.9994  149.6637 N   0  0  0  0  0  0  0  0  0  0  0  0
  144.7755  135.1623  150.6350 C   0  0  0  0  0  0  0  0  0  0  0  0
  144.9288  133.9453  150.5414 O   0  0  0  0  0  0  0  0  0  0  0  0
  144.1612  135.7987  151.8903 C   0  0  0  0  0  0  0  0  0  0  0  0
  145.1658  136.3063  152.8368 N   0  0  0  0  0  0  0  0  0  0  0  0
  145.2160  137.7604  153.0127 C   0  0  0  0  0  0  0  0  0  0  0  0
  146.6362  138.2564  153.3015 C   0  0  0  0  0  0  0  0  0  0  0  0
  147.2071  137.5238  154.4249 N   0  0  0  0  0  0  0  0  0  0  0  0
  148.2507  138.0527  155.1235 C   0  0  0  0  0  0  0  0  0  0  0  0
  148.9353  137.2233  155.9560 N   0  0  0  0  0  0  0  0  0  0  0  0
  149.9652  137.6736  156.6769 C   0  0  0  0  0  0  0  0  0  0  0  0
  150.4790  138.9026  156.7179 N   0  0  0  0  0  0  0  0  0  0  0  0
  149.8090  139.7440  155.8808 C   0  0  0  0  0  0  0  0  0  0  0  0
  148.6946  139.4102  155.0557 C   0  0  0  0  0  0  0  0  0  0  0  0
  148.3001  140.5379  154.3408 N   0  0  0  0  0  0  0  0  0  0  0  0
  149.1196  141.4765  154.7263 C   0  0  0  0  0  0  0  0  0  0  0  0
  150.0581  141.0855  155.6512 N   0  0  0  0  0  0  0  0  0  0  0  0
  151.0872  141.9203  156.2454 C   0  0  0  0  0  0  0  0  0  0  0  0
  150.9435  142.0178  157.7787 C   0  0  1  0  0  0  0  0  0  0  0  0
  151.2110  140.7650  158.3769 O   0  0  0  0  0  0  0  0  0  0  0  0
  151.8323  143.0921  158.4389 C   0  0  1  0  0  0  0  0  0  0  0  0
  151.6726  144.5278  157.9295 C   0  0  0  0  0  0  0  0  0  0  0  0
  152.1847  145.3201  159.1105 C   0  0  0  0  0  0  0  0  0  0  0  0
  151.6376  144.5130  160.2845 C   0  0  0  0  0  0  0  0  0  0  0  0
  151.5936  143.1582  159.8431 O   0  0  0  0  0  0  0  0  0  0  0  0
  147.0310  136.0634  154.4880 C   0  0  0  0  0  0  0  0  0  0  0  0
  145.9738  135.4724  153.5358 C   0  0  0  0  0  0  0  0  0  0  0  0
  145.9103  134.2471  153.4320 O   0  0  0  0  0  0  0  0  0  0  0  0
  145.5536  135.6328  148.8157 H   0  0  0  0  0  0  0  0  0  0  0  0
  145.0169  136.9940  149.7776 H   0  0  0  0  0  0  0  0  0  0  0  0
  143.5047  136.6116  151.5767 H   0  0  0  0  0  0  0  0  0  0  0  0
  143.5099  135.0732  152.3810 H   0  0  0  0  0  0  0  0  0  0  0  0
  144.8356  138.2666  152.1245 H   0  0  0  0  0  0  0  0  0  0  0  0
  144.5522  138.0292  153.8357 H   0  0  0  0  0  0  0  0  0  0  0  0
  147.2680  138.1231  152.4220 H   0  0  0  0  0  0  0  0  0  0  0  0
  146.5889  139.3236  153.5203 H   0  0  0  0  0  0  0  0  0  0  0  0
  150.4458  136.9439  157.3120 H   0  0  0  0  0  0  0  0  0  0  0  0
  149.0624  142.4854  154.3440 H   0  0  0  0  0  0  0  0  0  0  0  0
  152.0601  141.5184  155.9630 H   0  0  0  0  0  0  0  0  0  0  0  0
  151.0175  142.9115  155.7963 H   0  0  0  0  0  0  0  0  0  0  0  0
  149.9059  142.2620  158.0105 H   0  0  0  0  0  0  0  0  0  0  0  0
  150.3983  140.4086  158.7018 H   0  0  0  0  0  0  0  0  0  0  0  0
  152.8789  142.8049  158.3216 H   0  0  0  0  0  0  0  0  0  0  0  0
  152.2312  144.7172  157.0126 H   0  0  0  0  0  0  0  0  0  0  0  0
  150.6285  144.7815  157.7504 H   0  0  0  0  0  0  0  0  0  0  0  0
  153.2754  145.3123  159.1232 H   0  0  0  0  0  0  0  0  0  0  0  0
  151.8490  146.3574  159.1115 H   0  0  0  0  0  0  0  0  0  0  0  0
  152.2454  144.6209  161.1831 H   0  0  0  0  0  0  0  0  0  0  0  0
  150.6218  144.8304  160.5227 H   0  0  0  0  0  0  0  0  0  0  0  0
  147.9865  135.5792  154.2793 H   0  0  0  0  0  0  0  0  0  0  0  0
  146.7423  135.7780  155.5005 H   0  0  0  0  0  0  0  0  0  0  0  0
  1  2  1  0  0  0  0
  1 29  1  0  0  0  0
  1 30  1  0  0  0  0
  2  3  2  0  0  0  0
  2  4  1  0  0  0  0
  4  5  1  0  0  0  0
  4 31  1  0  0  0  0
  4 32  1  0  0  0  0
  5 27  1  0  0  0  0
  5  6  1  0  0  0  0
  6  7  1  0  0  0  0
  6 33  1  0  0  0  0
  6 34  1  0  0  0  0
  7  8  1  0  0  0  0
  7 35  1  0  0  0  0
  7 36  1  0  0  0  0
  8  9  1  0  0  0  0
  8 26  1  0  0  0  0
  9 14  1  0  0  0  0
  9 10  2  0  0  0  0
 10 11  1  0  0  0  0
 11 12  2  0  0  0  0
 11 37  1  0  0  0  0
 12 13  1  0  0  0  0
 13 17  1  0  0  0  0
 13 14  2  0  0  0  0
 14 15  1  0  0  0  0
 15 16  2  0  0  0  0
 16 17  1  0  0  0  0
 16 38  1  0  0  0  0
 17 18  1  0  0  0  0
 18 19  1  0  0  0  0
 18 39  1  0  0  0  0
 18 40  1  0  0  0  0
 19 20  1  0  0  0  0
 19 21  1  0  0  0  0
 19 41  1  0  0  0  0
 20 42  1  0  0  0  0
 21 25  1  0  0  0  0
 21 22  1  0  0  0  0
 21 43  1  0  0  0  0
 22 23  1  0  0  0  0
 22 44  1  0  0  0  0
 22 45  1  0  0  0  0
 23 24  1  0  0  0  0
 23 46  1  0  0  0  0
 23 47  1  0  0  0  0
 24 25  1  0  0  0  0
 24 48  1  0  0  0  0
 24 49  1  0  0  0  0
 26 27  1  0  0  0  0
 26 50  1  0  0  0  0
 26 51  1  0  0  0  0
 27 28  2  0  0  0  0
M  END
> <s_m_source_file>
AV-unprocessed.smi

> <i_m_source_file_index>
174

> <i_lp_mmshare_version>
43012

> <i_f3d_flags>
0

> <s_epik_input>
W05IMl1DKD1PKVtDSDJdTjFbQ0gyXVtDSDJdTihbQ0gyXUMxPU8pYyhuW2NIXW4yKWMoYzIzKW5bY0hdbjNbQ0gyXVtDQEhdKFtPSF0pW0NAQEhdNFtDSDJdW0NIMl1bQ0gyXU80

> <s_epik_cmdline>
J2VwaWtfcHl0aG9uJywgJy1waCcsICc3LjAnLCAnLXRuJywgJzgnLCAnLW1hJywgJzIwMCcsICctbWV0YWxfYmluZGluZycsICctaW1hZScsICc8aW5maWxlLm1hZT4nLCAnLW9tYWUnLCAnPG91dGZpbGUubWFlPic=

> <r_lp_tautomer_probability>
1

> <r_epik_Ionization_Penalty>
0.000250477

> <r_epik_Ionization_Penalty_Charging>
0

> <r_epik_Ionization_Penalty_Neutral>
0.000250477

> <r_epik_State_Penalty>
-0

> <r_epik_Charging_Adjusted_Penalty>
0

> <i_epik_Tot_Q>
0

> <i_epik_Tot_abs_Q>
0

> <r_epik_Metal_State_Penalty>
-0

> <b_epik_Metal_Only>
0

> <s_lp_Force_Field>
OPLS_2005

> <r_lp_Energy>
38.9575

> <b_lp_Chiralities_Consistent>
1

> <s_lp_Variant>
AV-unprocessed.smi:174-4

> <Gold.Version>
5.8.1

> <Gold.Id.Protein>
6NUR|6NUR_protein|mol2

> <Gold.PLP.Fitness>
48.6999

> <Gold.PLP.PLP>
-40.3637

> <Gold.PLP.part.hbond>
-2.0000

> <Gold.PLP.part.metal>
0.0000

> <Gold.PLP.part.buried>
-7.3961

> <Gold.PLP.part.nonpolar>
-31.8856

> <Gold.PLP.part.repulsive>
0.5727

> <Gold.PLP.ligand.clash>
0.0000

> <Gold.PLP.ligand.torsion>
0.4914

> <Gold.PLP.Chemscore.Hbond>
2.0000

> <Gold.PLP.Chemscore.CHOScore>
1.0000

> <Gold.PLP.Chemscore.Metal>
0.0000

> <Gold.Chemscore.Hbonds>
donor molecule, donor type, donor heavy atom, donor atom, acceptor molecule, acceptor atom, score
      L1  H     1    29       P1  7921  1.00
      L1  H     1    30       P1 10171  1.00
      L1  C    16    38       P1  8028  0.88

> <Gold.PLP.Chemscore.Internal.Correction>
0.3191

> <Gold.Rescore>
     Score         DG    S(hbond)    S(metal)    S(lipo)     H(rot)  DE(clash)    DE(int)     intcor
     11.13     -12.86       1.93        0.00      83.61       3.46       0.23       1.50       ----

> <Gold.Chemscore.Fitness>
11.1295

> <Gold.Chemscore.DG>
-12.8552

> <Gold.Chemscore.ZeroCoef>
-5.4800

> <Gold.Chemscore.Hbond>
1.9305

> <Gold.Chemscore.Metal>
0.0000

> <Gold.Chemscore.Lipo>
83.6124

> <Gold.Chemscore.Internal_Hbond>
0.0000

> <Gold.Chemscore.DEClash>
0.2284

> <Gold.Chemscore.DEInternal>
1.4973

> <Gold.Chemscore.Rot>
3.4591

> <Gold.Chemscore.Internal.Correction>
   9.000000E+99

> <Gold.Chemscore.Hbonds>
donor molecule, donor type, donor heavy atom, donor atom, acceptor molecule, acceptor atom, score
      L1  H     1    29       P1  7921  0.93
      L1  H     1    30       P1 10171  0.95

> <Gold.Chemscore.Hbond.Weighted>
-6.4479

> <Gold.Chemscore.Metal.Weighted>
-0.0000

> <Gold.Chemscore.Lipo.Weighted>
-9.7826

> <Gold.Chemscore.Internal_Hbond.Weighted>
0.0000

> <Gold.Chemscore.DEClash.Weighted>
0.2284

> <Gold.Chemscore.DEInternal.Weighted>
1.4973

> <Gold.Chemscore.Rot.Weighted>
8.8553

> <Gold.Chemscore.Internal.Correction.Weighted>
   9.000000E+99

> <Gold.Protein.RotatedTorsions>
[ 6907 6896 6895 6894 ] final -156.18 input  -60.11 | X-H torsion
[ 7974 7965 7964 7962 ] final  -31.79 input  175.53 | X-H torsion
[ 8008 7997 7996 7995 ] final  -46.26 input   59.86 | X-H torsion
[ 10167 10162 10161 10158 ] final  -32.58 input  -65.29 | X-H torsion
[ 10718 10713 10712 10709 ] final   28.05 input   66.30 | X-H torsion
[ 10763 10752 10751 10750 ] final -133.13 input  -60.55 | X-H torsion
[ 11005 11000 10999 10996 ] final  122.62 input  -57.11 | X-H torsion

> <Gold.Protein.ActiveResidues>
 VAL166  LYS551  ARG553  GLY616  TRP617  ASP618  TYR619  PRO620  LYS621  CYS622 
 ASP623  PHE694  ASN695  SER759  ASP760  ASP761  ALA762  ILE779  LEU786  VAL792 
 PHE793  MET794  SER795  GLU796  ALA797  LYS798  CYS799  TRP800  GLU811  SER814 

> <Gold.Protein.RotatedAtoms>
  151.2838  133.4197  159.2628 H   0  0  0  0  0  0  0  0  0  0  0  0  # atno 6907 bound_to 6896
  151.0337  134.9558  159.8135 H   0  0  0  0  0  0  0  0  0  0  0  0  # atno 6908 bound_to 6896
  152.5351  134.2798  159.9055 H   0  0  0  0  0  0  0  0  0  0  0  0  # atno 6909 bound_to 6896
  146.1040  140.5712  142.8808 H   0  0  0  0  0  0  0  0  0  0  0  0  # atno 7974 bound_to 7965
  154.4006  140.1376  156.3982 H   0  0  0  0  0  0  0  0  0  0  0  0  # atno 8008 bound_to 7997
  155.7850  140.3480  155.5297 H   0  0  0  0  0  0  0  0  0  0  0  0  # atno 8009 bound_to 7997
  155.8636  140.0960  157.1587 H   0  0  0  0  0  0  0  0  0  0  0  0  # atno 8010 bound_to 7997
  140.7219  143.3684  151.1826 H   0  0  0  0  0  0  0  0  0  0  0  0  # atno 10167 bound_to 10162
  157.2283  130.7011  149.6301 H   0  0  0  0  0  0  0  0  0  0  0  0  # atno 10718 bound_to 10713
  154.8736  135.3776  154.4522 H   0  0  0  0  0  0  0  0  0  0  0  0  # atno 10763 bound_to 10752
  153.5197  135.7029  153.5742 H   0  0  0  0  0  0  0  0  0  0  0  0  # atno 10764 bound_to 10752
  153.3995  135.3952  155.1943 H   0  0  0  0  0  0  0  0  0  0  0  0  # atno 10765 bound_to 10752
  139.9276  134.9641  156.8137 H   0  0  0  0  0  0  0  0  0  0  0  0  # atno 11005 bound_to 11000
  144.7456  140.5058  143.6838 LP  0  0  0  0  0  0  0  0  0  0  0  0  # atno 17320 bound_to 7965
  145.5798  139.1488  143.3242 LP  0  0  0  0  0  0  0  0  0  0  0  0  # atno 17321 bound_to 7965
  139.7250  143.9163  152.2999 LP  0  0  0  0  0  0  0  0  0  0  0  0  # atno 17342 bound_to 10162
  139.8932  144.6953  150.8747 LP  0  0  0  0  0  0  0  0  0  0  0  0  # atno 17343 bound_to 10162
  155.9677  130.4497  150.5669 LP  0  0  0  0  0  0  0  0  0  0  0  0  # atno 17370 bound_to 10713
  157.3505  131.0732  151.1717 LP  0  0  0  0  0  0  0  0  0  0  0  0  # atno 17371 bound_to 10713
  140.6291  133.9922  155.7653 LP  0  0  0  0  0  0  0  0  0  0  0  0  # atno 17394 bound_to 11000
  141.0844  134.0012  157.3335 LP  0  0  0  0  0  0  0  0  0  0  0  0  # atno 17395 bound_to 11000

$$$$
