AV-unprocessed.smi:2732|AV-procd|sdf|10534|dock1
  -GOLD-   2272014583D 1   1.00000     0.00000
 Structure written by MMmdl.
 35 36  0  0  0  0  0  0  0  0  2 V2000
  151.8243  141.1333  158.2201 C   0  0  0  0  0  0  0  0  0  0  0  0
  151.2535  141.9632  157.0611 C   0  0  2  0  0  0  0  0  0  0  0  0
  150.3030  142.8689  157.6139 O   0  0  0  0  0  0  0  0  0  0  0  0
  150.8420  144.0745  158.1472 C   0  0  0  0  0  0  0  0  0  0  0  0
  151.1564  143.9257  159.6245 C   0  0  0  0  0  0  0  0  0  0  0  0
  151.7988  145.0526  160.4076 C   0  0  0  0  0  0  0  0  0  0  0  0
  152.5882  143.8079  160.1045 C   0  0  0  0  0  0  0  0  0  0  0  0
  150.5811  141.0640  156.0115 C   0  0  0  0  0  0  0  0  0  0  0  0
  151.2537  140.2342  155.3998 O   0  0  0  0  0  0  0  0  0  0  0  0
  149.2620  141.2603  155.8302 N   0  0  0  0  0  0  0  0  0  0  0  0
  148.3772  140.5681  154.9601 C   0  0  0  0  0  0  0  0  0  0  0  0
  148.8269  139.3584  154.3872 C   0  0  0  0  0  0  0  0  0  0  0  0
  147.9896  138.6497  153.5010 C   0  0  0  0  0  0  0  0  0  0  0  0
  146.7163  139.1711  153.1940 C   0  0  0  0  0  0  0  0  0  0  0  0
  145.8410  138.5229  152.3250 N   0  0  0  0  0  0  0  0  0  0  0  0
  146.3216  140.3377  153.7481 N   0  3  0  0  0  0  0  0  0  0  0  0
  147.0918  141.0459  154.6031 C   0  0  0  0  0  0  0  0  0  0  0  0
  152.5593  140.4098  157.8657 H   0  0  0  0  0  0  0  0  0  0  0  0
  151.0416  140.5860  158.7473 H   0  0  0  0  0  0  0  0  0  0  0  0
  152.3206  141.7765  158.9468 H   0  0  0  0  0  0  0  0  0  0  0  0
  152.0704  142.5268  156.6060 H   0  0  0  0  0  0  0  0  0  0  0  0
  151.7605  144.3370  157.6207 H   0  0  0  0  0  0  0  0  0  0  0  0
  150.1448  144.9044  158.0291 H   0  0  0  0  0  0  0  0  0  0  0  0
  150.4259  143.3281  160.1663 H   0  0  0  0  0  0  0  0  0  0  0  0
  152.0701  145.9608  159.8733 H   0  0  0  0  0  0  0  0  0  0  0  0
  151.4689  145.2004  161.4339 H   0  0  0  0  0  0  0  0  0  0  0  0
  152.7854  143.1246  160.9280 H   0  0  0  0  0  0  0  0  0  0  0  0
  153.3841  143.8858  159.3665 H   0  0  0  0  0  0  0  0  0  0  0  0
  148.8571  142.0317  156.3411 H   0  0  0  0  0  0  0  0  0  0  0  0
  149.8064  138.9701  154.6267 H   0  0  0  0  0  0  0  0  0  0  0  0
  148.3254  137.7204  153.0639 H   0  0  0  0  0  0  0  0  0  0  0  0
  146.0881  137.6501  151.8805 H   0  0  0  0  0  0  0  0  0  0  0  0
  144.9293  138.9014  152.1109 H   0  0  0  0  0  0  0  0  0  0  0  0
  146.6530  141.9688  154.9514 H   0  0  0  0  0  0  0  0  0  0  0  0
  145.4006  140.7063  153.5092 H   0  0  0  0  0  0  0  0  0  0  0  0
  1  2  1  0  0  0  0
  1 18  1  0  0  0  0
  1 19  1  0  0  0  0
  1 20  1  0  0  0  0
  2  3  1  0  0  0  0
  2  8  1  0  0  0  0
  2 21  1  0  0  0  0
  3  4  1  0  0  0  0
  4  5  1  0  0  0  0
  4 22  1  0  0  0  0
  4 23  1  0  0  0  0
  5  7  1  0  0  0  0
  5  6  1  0  0  0  0
  5 24  1  0  0  0  0
  6  7  1  0  0  0  0
  6 25  1  0  0  0  0
  6 26  1  0  0  0  0
  7 27  1  0  0  0  0
  7 28  1  0  0  0  0
  8  9  2  0  0  0  0
  8 10  1  0  0  0  0
 10 11  1  0  0  0  0
 10 29  1  0  0  0  0
 11 17  1  0  0  0  0
 11 12  2  0  0  0  0
 12 13  1  0  0  0  0
 12 30  1  0  0  0  0
 13 14  2  0  0  0  0
 13 31  1  0  0  0  0
 14 15  1  0  0  0  0
 14 16  1  0  0  0  0
 15 32  1  0  0  0  0
 15 33  1  0  0  0  0
 16 17  2  0  0  0  0
 16 35  1  0  0  0  0
 17 34  1  0  0  0  0
M  CHG  1  16   1
M  END
> <s_m_source_file>
AV-unprocessed.smi

> <i_m_source_file_index>
2732

> <i_lp_mmshare_version>
43012

> <i_f3d_flags>
0

> <s_epik_input>
W0NIMl0xW0NIMl1bQ0hdMVtDSDJdT1tDQEBIXShbQ0gzXSlDKD1PKVtOSF1jMltjSF1bY0hdYyhbTkgyXSluW2NIXTI=

> <s_epik_cmdline>
J2VwaWtfcHl0aG9uJywgJy1waCcsICc3LjAnLCAnLXRuJywgJzgnLCAnLW1hJywgJzIwMCcsICctbWV0YWxfYmluZGluZycsICctaW1hZScsICc8aW5maWxlLm1hZT4nLCAnLW9tYWUnLCAnPG91dGZpbGUubWFlPic=

> <r_lp_tautomer_probability>
0.999994

> <r_epik_Ionization_Penalty>
1.25173

> <r_epik_Ionization_Penalty_Charging>
1.25172

> <r_epik_Ionization_Penalty_Neutral>
2.35798e-06

> <r_epik_State_Penalty>
1.32157

> <r_epik_Charging_Adjusted_Penalty>
2.5733

> <i_epik_Tot_Q>
1

> <i_epik_Tot_abs_Q>
1

> <r_epik_Metal_State_Penalty>
1.39188

> <b_epik_Metal_Only>
0

> <s_lp_Force_Field>
OPLS_2005

> <r_lp_Energy>
25.4145

> <b_lp_Chiralities_Consistent>
1

> <s_lp_Variant>
AV-unprocessed.smi:2732-3

> <Gold.Version>
5.8.1

> <Gold.Id.Protein>
6NUR|6NUR_protein|mol2

> <Gold.PLP.Fitness>
44.6386

> <Gold.PLP.PLP>
-31.9327

> <Gold.PLP.part.hbond>
-3.9316

> <Gold.PLP.part.metal>
0.0000

> <Gold.PLP.part.buried>
-2.4864

> <Gold.PLP.part.nonpolar>
-27.2667

> <Gold.PLP.part.repulsive>
0.9426

> <Gold.PLP.ligand.clash>
0.0000

> <Gold.PLP.ligand.torsion>
0.8562

> <Gold.PLP.Chemscore.Hbond>
4.6000

> <Gold.PLP.Chemscore.CHOScore>
0.0000

> <Gold.PLP.Chemscore.Metal>
0.0000

> <Gold.Chemscore.Hbonds>
donor molecule, donor type, donor heavy atom, donor atom, acceptor molecule, acceptor atom, score
      L1  H    15    33       P1 10175  1.79
      L1  H    16    35       P1 10175  1.95
      P1  H  7989  7998       L1     9  0.99

> <Gold.PLP.Chemscore.Internal.Correction>
0.6183

> <Gold.Rescore>
     Score         DG    S(hbond)    S(metal)    S(lipo)     H(rot)  DE(clash)    DE(int)     intcor
     16.66     -19.34       2.59        0.00      83.13       1.76       0.24       2.44       ----

> <Gold.Chemscore.Fitness>
16.6580

> <Gold.Chemscore.DG>
-19.3423

> <Gold.Chemscore.ZeroCoef>
-5.4800

> <Gold.Chemscore.Hbond>
2.5875

> <Gold.Chemscore.Metal>
0.0000

> <Gold.Chemscore.Lipo>
83.1331

> <Gold.Chemscore.Internal_Hbond>
0.0000

> <Gold.Chemscore.DEClash>
0.2397

> <Gold.Chemscore.DEInternal>
2.4446

> <Gold.Chemscore.Rot>
1.7604

> <Gold.Chemscore.Internal.Correction>
   9.000000E+99

> <Gold.Chemscore.Hbonds>
donor molecule, donor type, donor heavy atom, donor atom, acceptor molecule, acceptor atom, score
      L1  H    15    33       P1 10175  0.83
      L1  H    16    35       P1 10175  0.81
      P1  H  7989  7998       L1     9  0.69

> <Gold.Chemscore.Hbond.Weighted>
-8.6422

> <Gold.Chemscore.Metal.Weighted>
-0.0000

> <Gold.Chemscore.Lipo.Weighted>
-9.7266

> <Gold.Chemscore.Internal_Hbond.Weighted>
0.0000

> <Gold.Chemscore.DEClash.Weighted>
0.2397

> <Gold.Chemscore.DEInternal.Weighted>
2.4446

> <Gold.Chemscore.Rot.Weighted>
4.5065

> <Gold.Chemscore.Internal.Correction.Weighted>
   9.000000E+99

> <Gold.Protein.RotatedTorsions>
[ 6907 6896 6895 6894 ] final   85.57 input  -60.11 | X-H torsion
[ 7974 7965 7964 7962 ] final    3.74 input  175.53 | X-H torsion
[ 8008 7997 7996 7995 ] final -120.30 input   59.86 | X-H torsion
[ 10167 10162 10161 10158 ] final  -72.35 input  -65.29 | X-H torsion
[ 10718 10713 10712 10709 ] final  109.46 input   66.30 | X-H torsion
[ 10763 10752 10751 10750 ] final  -65.69 input  -60.55 | X-H torsion
[ 11005 11000 10999 10996 ] final  146.39 input  -57.11 | X-H torsion

> <Gold.Protein.ActiveResidues>
 VAL166  LYS551  ARG553  GLY616  TRP617  ASP618  TYR619  PRO620  LYS621  CYS622 
 ASP623  PHE694  ASN695  SER759  ASP760  ASP761  ALA762  ILE779  LEU786  VAL792 
 PHE793  MET794  SER795  GLU796  ALA797  LYS798  CYS799  TRP800  GLU811  SER814 

> <Gold.Protein.RotatedAtoms>
  152.5377  134.2566  159.8918 H   0  0  0  0  0  0  0  0  0  0  0  0  # atno 6907 bound_to 6896
  151.2527  133.4335  159.2620 H   0  0  0  0  0  0  0  0  0  0  0  0  # atno 6908 bound_to 6896
  151.0524  134.9696  159.8274 H   0  0  0  0  0  0  0  0  0  0  0  0  # atno 6909 bound_to 6896
  146.2445  140.0640  142.8366 H   0  0  0  0  0  0  0  0  0  0  0  0  # atno 7974 bound_to 7965
  155.1295  140.0400  157.2771 H   0  0  0  0  0  0  0  0  0  0  0  0  # atno 8008 bound_to 7997
  154.6553  140.2578  155.7142 H   0  0  0  0  0  0  0  0  0  0  0  0  # atno 8009 bound_to 7997
  156.2595  140.2828  156.1003 H   0  0  0  0  0  0  0  0  0  0  0  0  # atno 8010 bound_to 7997
  140.5200  143.2333  151.7447 H   0  0  0  0  0  0  0  0  0  0  0  0  # atno 10167 bound_to 10162
  157.6540  131.0914  150.6456 H   0  0  0  0  0  0  0  0  0  0  0  0  # atno 10718 bound_to 10713
  154.3488  135.6141  153.5632 H   0  0  0  0  0  0  0  0  0  0  0  0  # atno 10763 bound_to 10752
  152.9799  135.5787  154.4768 H   0  0  0  0  0  0  0  0  0  0  0  0  # atno 10764 bound_to 10752
  154.4485  135.2852  155.1775 H   0  0  0  0  0  0  0  0  0  0  0  0  # atno 10765 bound_to 10752
  140.0789  134.9108  157.1468 H   0  0  0  0  0  0  0  0  0  0  0  0  # atno 11005 bound_to 11000
  145.0875  140.9262  143.4789 LP  0  0  0  0  0  0  0  0  0  0  0  0  # atno 17320 bound_to 7965
  145.0806  139.2963  143.5786 LP  0  0  0  0  0  0  0  0  0  0  0  0  # atno 17321 bound_to 7965
  139.4920  144.4269  151.9916 LP  0  0  0  0  0  0  0  0  0  0  0  0  # atno 17342 bound_to 10162
  140.3365  144.3254  150.5976 LP  0  0  0  0  0  0  0  0  0  0  0  0  # atno 17343 bound_to 10162
  156.6765  130.4554  149.5641 LP  0  0  0  0  0  0  0  0  0  0  0  0  # atno 17370 bound_to 10713
  156.1960  130.6590  151.1115 LP  0  0  0  0  0  0  0  0  0  0  0  0  # atno 17371 bound_to 10713
  140.3516  134.2592  155.7198 LP  0  0  0  0  0  0  0  0  0  0  0  0  # atno 17394 bound_to 11000
  141.2039  133.7899  157.0312 LP  0  0  0  0  0  0  0  0  0  0  0  0  # atno 17395 bound_to 11000

$$$$
