AV-unprocessed.smi:283|AV-procd|sdf|2129|dock9
  -GOLD-   2262021443D 1   1.00000     0.00000
 Structure written by MMmdl.
 48 51  0  0  0  0  0  0  0  0  1 V2000
  151.6364  144.1741  157.5463 C   0  0  0  0  0  0  0  0  0  0  0  0
  152.6304  143.2057  158.2016 C   0  0  2  0  0  0  0  0  0  0  0  0
  152.4059  141.8529  157.6960 N   0  0  0  0  0  0  0  0  0  0  0  0
  151.2205  141.4969  157.1532 C   0  0  0  0  0  0  0  0  0  0  0  0
  150.1270  141.7832  157.8990 N   0  0  0  0  0  0  0  0  0  0  0  0
  148.9100  141.4503  157.4608 C   0  0  0  0  0  0  0  0  0  0  0  0
  148.5708  140.8427  156.3226 N   0  0  0  0  0  0  0  0  0  0  0  0
  149.6655  140.5652  155.5563 C   0  0  0  0  0  0  0  0  0  0  0  0
  151.0176  140.8588  155.8938 C   0  0  0  0  0  0  0  0  0  0  0  0
  151.8470  140.4352  154.8628 N   0  0  0  0  0  0  0  0  0  0  0  0
  151.0361  139.9068  153.9886 C   0  0  0  0  0  0  0  0  0  0  0  0
  149.6974  139.9562  154.3190 N   0  0  0  0  0  0  0  0  0  0  0  0
  148.5033  139.4306  153.5754 C   0  0  2  0  0  0  0  0  0  0  0  0
  147.8401  138.5404  154.4200 O   0  0  0  0  0  0  0  0  0  0  0  0
  148.2374  137.2074  154.1222 C   0  0  1  0  0  0  0  0  0  0  0  0
  147.2378  136.1858  154.6944 C   0  0  0  0  0  0  0  0  0  0  0  0
  147.2069  136.2732  156.1032 O   0  0  0  0  0  0  0  0  0  0  0  0
  148.3548  137.2422  152.5912 C   0  0  1  0  0  0  0  0  0  0  0  0
  147.0871  137.0331  151.9892 O   0  0  0  0  0  0  0  0  0  0  0  0
  148.9177  138.6413  152.3182 C   0  0  1  0  0  0  0  0  0  0  0  0
  148.4219  139.2118  151.1214 O   0  0  0  0  0  0  0  0  0  0  0  0
  152.5748  143.3378  159.7265 C   0  0  0  0  0  0  0  0  0  0  0  0
  151.6865  144.2634  160.3226 C   0  0  0  0  0  0  0  0  0  0  0  0
  151.6170  144.3943  161.7220 C   0  0  0  0  0  0  0  0  0  0  0  0
  152.4438  143.6071  162.5429 C   0  0  0  0  0  0  0  0  0  0  0  0
  153.3429  142.6945  161.9616 C   0  0  0  0  0  0  0  0  0  0  0  0
  153.4163  142.5588  160.5607 C   0  0  0  0  0  0  0  0  0  0  0  0
  154.5507  141.4317  159.9029 Cl  0  0  0  0  0  0  0  0  0  0  0  0
  147.8804  140.3006  153.3660 H   0  0  0  0  0  0  0  0  0  0  0  0
  149.2266  137.0222  154.5415 H   0  0  0  0  0  0  0  0  0  0  0  0
  149.0274  136.4645  152.2279 H   0  0  0  0  0  0  0  0  0  0  0  0
  150.0038  138.5960  152.2423 H   0  0  0  0  0  0  0  0  0  0  0  0
  151.8411  145.2042  157.8394 H   0  0  0  0  0  0  0  0  0  0  0  0
  150.6095  143.9445  157.8334 H   0  0  0  0  0  0  0  0  0  0  0  0
  151.6980  144.1249  156.4587 H   0  0  0  0  0  0  0  0  0  0  0  0
  153.6217  143.4937  157.8563 H   0  0  0  0  0  0  0  0  0  0  0  0
  153.2484  141.3245  157.5221 H   0  0  0  0  0  0  0  0  0  0  0  0
  148.0909  141.7053  158.1169 H   0  0  0  0  0  0  0  0  0  0  0  0
  151.4071  139.4733  153.0721 H   0  0  0  0  0  0  0  0  0  0  0  0
  146.2372  136.3334  154.2869 H   0  0  0  0  0  0  0  0  0  0  0  0
  147.5485  135.1725  154.4379 H   0  0  0  0  0  0  0  0  0  0  0  0
  147.5053  135.4519  156.4630 H   0  0  0  0  0  0  0  0  0  0  0  0
  146.5996  137.8417  152.0299 H   0  0  0  0  0  0  0  0  0  0  0  0
  149.1449  139.5985  150.6512 H   0  0  0  0  0  0  0  0  0  0  0  0
  151.0469  144.8793  159.7077 H   0  0  0  0  0  0  0  0  0  0  0  0
  150.9299  145.1002  162.1647 H   0  0  0  0  0  0  0  0  0  0  0  0
  152.3921  143.7069  163.6172 H   0  0  0  0  0  0  0  0  0  0  0  0
  153.9821  142.0969  162.5948 H   0  0  0  0  0  0  0  0  0  0  0  0
  1  2  1  0  0  0  0
  1 33  1  0  0  0  0
  1 34  1  0  0  0  0
  1 35  1  0  0  0  0
  2  3  1  0  0  0  0
  2 22  1  0  0  0  0
  2 36  1  0  0  0  0
  3  4  1  0  0  0  0
  3 37  1  0  0  0  0
  4  9  1  0  0  0  0
  4  5  2  0  0  0  0
  5  6  1  0  0  0  0
  6  7  2  0  0  0  0
  6 38  1  0  0  0  0
  7  8  1  0  0  0  0
  8 12  1  0  0  0  0
  8  9  2  0  0  0  0
  9 10  1  0  0  0  0
 10 11  2  0  0  0  0
 11 12  1  0  0  0  0
 11 39  1  0  0  0  0
 12 13  1  0  0  0  0
 13 29  1  0  0  0  0
 13 20  1  0  0  0  0
 13 14  1  0  0  0  0
 14 15  1  0  0  0  0
 15 30  1  0  0  0  0
 15 16  1  0  0  0  0
 15 18  1  0  0  0  0
 16 17  1  0  0  0  0
 16 40  1  0  0  0  0
 16 41  1  0  0  0  0
 17 42  1  0  0  0  0
 18 31  1  0  0  0  0
 18 19  1  0  0  0  0
 18 20  1  0  0  0  0
 19 43  1  0  0  0  0
 20 32  1  0  0  0  0
 20 21  1  0  0  0  0
 21 44  1  0  0  0  0
 22 27  1  0  0  0  0
 22 23  2  0  0  0  0
 23 24  1  0  0  0  0
 23 45  1  0  0  0  0
 24 25  2  0  0  0  0
 24 46  1  0  0  0  0
 25 26  1  0  0  0  0
 25 47  1  0  0  0  0
 26 27  2  0  0  0  0
 26 48  1  0  0  0  0
 27 28  1  0  0  0  0
M  END
> <s_m_source_file>
AV-unprocessed.smi

> <i_m_source_file_index>
283

> <i_lp_mmshare_version>
43012

> <i_f3d_flags>
0

> <s_epik_input>
Q2xjMVtjSF1bY0hdW2NIXVtjSF1jMVtDQEhdKFtDSDNdKVtOSF1jKG5bY0hdbjIpYyhjMjMpbltjSF1uM1tDQEBIXTRPW0NASF0oW0NIMl1bT0hdKVtDQEBIXShbT0hdKVtDQEhdNFtPSF0=

> <s_epik_cmdline>
J2VwaWtfcHl0aG9uJywgJy1waCcsICc3LjAnLCAnLXRuJywgJzgnLCAnLW1hJywgJzIwMCcsICctbWV0YWxfYmluZGluZycsICctaW1hZScsICc8aW5maWxlLm1hZT4nLCAnLW9tYWUnLCAnPG91dGZpbGUubWFlPic=

> <r_lp_tautomer_probability>
1

> <r_epik_Ionization_Penalty>
0.000266407

> <r_epik_Ionization_Penalty_Charging>
0

> <r_epik_Ionization_Penalty_Neutral>
0.000266407

> <r_epik_State_Penalty>
-0

> <r_epik_Charging_Adjusted_Penalty>
0

> <i_epik_Tot_Q>
0

> <i_epik_Tot_abs_Q>
0

> <r_epik_Metal_State_Penalty>
-0

> <b_epik_Metal_Only>
0

> <s_epik_Chemistry_Notes>
This compound contains an acetal/aminal-like group ( X-CH(R)-Y where X, Y are N, S, or O) that may be acid/base labile, releasing an aldehyde.

> <s_lp_Force_Field>
OPLS_2005

> <r_lp_Energy>
46.6771

> <b_lp_Chiralities_Consistent>
1

> <s_lp_Variant>
AV-unprocessed.smi:283-5

> <Gold.Version>
5.8.1

> <Gold.Id.Protein>
6NUR|6NUR_protein|mol2

> <Gold.PLP.Fitness>
57.8534

> <Gold.PLP.PLP>
-49.9539

> <Gold.PLP.part.hbond>
-3.9711

> <Gold.PLP.part.metal>
0.0000

> <Gold.PLP.part.buried>
-0.6624

> <Gold.PLP.part.nonpolar>
-45.8951

> <Gold.PLP.part.repulsive>
0.4741

> <Gold.PLP.ligand.clash>
0.4482

> <Gold.PLP.ligand.torsion>
0.7991

> <Gold.PLP.Chemscore.Hbond>
2.2960

> <Gold.PLP.Chemscore.CHOScore>
0.9929

> <Gold.PLP.Chemscore.Metal>
0.0000

> <Gold.Chemscore.Hbonds>
donor molecule, donor type, donor heavy atom, donor atom, acceptor molecule, acceptor atom, score
      P1  H  7954  7966       L1    21  0.17
      L1  C    11    39       P1  7957  0.36

> <Gold.PLP.Chemscore.Internal.Correction>
0.0792

> <Gold.Rescore>
     Score         DG    S(hbond)    S(metal)    S(lipo)     H(rot)  DE(clash)    DE(int)     intcor
     13.16     -15.62       1.88        0.00     122.69       4.10       0.34       2.13       ----

> <Gold.Chemscore.Fitness>
13.1572

> <Gold.Chemscore.DG>
-15.6246

> <Gold.Chemscore.ZeroCoef>
-5.4800

> <Gold.Chemscore.Hbond>
1.8797

> <Gold.Chemscore.Metal>
0.0000

> <Gold.Chemscore.Lipo>
122.6863

> <Gold.Chemscore.Internal_Hbond>
0.0000

> <Gold.Chemscore.DEClash>
0.3408

> <Gold.Chemscore.DEInternal>
2.1266

> <Gold.Chemscore.Rot>
4.0968

> <Gold.Chemscore.Internal.Correction>
   9.000000E+99

> <Gold.Chemscore.Hbonds>
donor molecule, donor type, donor heavy atom, donor atom, acceptor molecule, acceptor atom, score
      P1  H  7954  7966       L1    21  0.01

> <Gold.Chemscore.Hbond.Weighted>
-6.2782

> <Gold.Chemscore.Metal.Weighted>
-0.0000

> <Gold.Chemscore.Lipo.Weighted>
-14.3543

> <Gold.Chemscore.Internal_Hbond.Weighted>
0.0000

> <Gold.Chemscore.DEClash.Weighted>
0.3408

> <Gold.Chemscore.DEInternal.Weighted>
2.1266

> <Gold.Chemscore.Rot.Weighted>
10.4879

> <Gold.Chemscore.Internal.Correction.Weighted>
   9.000000E+99

> <Gold.Protein.RotatedTorsions>
[ 6907 6896 6895 6894 ] final  139.70 input  -60.11 | X-H torsion
[ 7974 7965 7964 7962 ] final  105.40 input  175.53 | X-H torsion
[ 8008 7997 7996 7995 ] final  -61.41 input   59.86 | X-H torsion
[ 10167 10162 10161 10158 ] final  -60.23 input  -65.29 | X-H torsion
[ 10718 10713 10712 10709 ] final  -81.50 input   66.30 | X-H torsion
[ 10763 10752 10751 10750 ] final  -18.94 input  -60.55 | X-H torsion
[ 11005 11000 10999 10996 ] final   93.61 input  -57.11 | X-H torsion

> <Gold.Protein.ActiveResidues>
 VAL166  LYS551  ARG553  GLY616  TRP617  ASP618  TYR619  PRO620  LYS621  CYS622 
 ASP623  PHE694  ASN695  SER759  ASP760  ASP761  ALA762  ILE779  LEU786  VAL792 
 PHE793  MET794  SER795  GLU796  ALA797  LYS798  CYS799  TRP800  GLU811  SER814 

> <Gold.Protein.RotatedAtoms>
  152.2518  133.5222  159.5329 H   0  0  0  0  0  0  0  0  0  0  0  0  # atno 6907 bound_to 6896
  150.7096  134.0949  159.3954 H   0  0  0  0  0  0  0  0  0  0  0  0  # atno 6908 bound_to 6896
  151.8868  135.0432  160.0545 H   0  0  0  0  0  0  0  0  0  0  0  0  # atno 6909 bound_to 6896
  145.3201  139.2515  143.3716 H   0  0  0  0  0  0  0  0  0  0  0  0  # atno 7974 bound_to 7965
  154.4446  140.1018  156.6427 H   0  0  0  0  0  0  0  0  0  0  0  0  # atno 8008 bound_to 7997
  155.5484  140.3485  155.4444 H   0  0  0  0  0  0  0  0  0  0  0  0  # atno 8009 bound_to 7997
  156.0546  140.1312  157.0000 H   0  0  0  0  0  0  0  0  0  0  0  0  # atno 8010 bound_to 7997
  140.6085  143.2380  151.5766 H   0  0  0  0  0  0  0  0  0  0  0  0  # atno 10167 bound_to 10162
  156.0049  130.4605  150.3961 H   0  0  0  0  0  0  0  0  0  0  0  0  # atno 10718 bound_to 10713
  153.5970  135.7000  153.5400 H   0  0  0  0  0  0  0  0  0  0  0  0  # atno 10763 bound_to 10752
  153.3129  135.4096  155.1351 H   0  0  0  0  0  0  0  0  0  0  0  0  # atno 10764 bound_to 10752
  154.8590  135.3676  154.5504 H   0  0  0  0  0  0  0  0  0  0  0  0  # atno 10765 bound_to 10752
  139.8808  134.8799  156.3743 H   0  0  0  0  0  0  0  0  0  0  0  0  # atno 11005 bound_to 11000
  146.3085  140.3757  142.8678 LP  0  0  0  0  0  0  0  0  0  0  0  0  # atno 17320 bound_to 7965
  144.8946  140.7566  143.5905 LP  0  0  0  0  0  0  0  0  0  0  0  0  # atno 17321 bound_to 7965
  139.5343  144.2826  152.1217 LP  0  0  0  0  0  0  0  0  0  0  0  0  # atno 17342 bound_to 10162
  140.2021  144.4648  150.6426 LP  0  0  0  0  0  0  0  0  0  0  0  0  # atno 17343 bound_to 10162
  157.2033  131.0443  151.2639 LP  0  0  0  0  0  0  0  0  0  0  0  0  # atno 17370 bound_to 10713
  157.3956  130.7305  149.6729 LP  0  0  0  0  0  0  0  0  0  0  0  0  # atno 17371 bound_to 10713
  140.9443  133.7493  156.0187 LP  0  0  0  0  0  0  0  0  0  0  0  0  # atno 17394 bound_to 11000
  140.8182  134.3320  157.5390 LP  0  0  0  0  0  0  0  0  0  0  0  0  # atno 17395 bound_to 11000

$$$$
