AV-unprocessed.smi:623|AV-procd|sdf|3098|dock2
  -GOLD-   22720 0 13D 1   1.00000     0.00000
 Structure written by MMmdl.
 44 46  0  0  0  0  0  0  0  0  2 V2000
  143.5396  145.3329  161.3371 C   0  0  0  0  0  0  0  0  0  0  0  0
  144.3828  144.1160  160.8619 C   0  0  0  0  0  0  0  0  0  0  0  0
  144.8222  143.3841  162.1607 C   0  0  0  0  0  0  0  0  0  0  0  0
  143.6652  143.2117  159.8395 C   0  0  1  0  0  0  0  0  0  0  0  0
  143.4599  144.1331  158.6171 C   0  0  0  0  0  0  0  0  0  0  0  0
  144.7300  145.0056  158.6396 C   0  0  0  0  0  0  0  0  0  0  0  0
  145.5187  144.4339  159.8514 C   0  0  1  0  0  0  0  0  0  0  0  0
  146.6210  145.3815  160.3538 C   0  0  0  0  0  0  0  0  0  0  0  0
  146.0471  143.0173  159.4687 C   0  0  2  0  0  0  0  0  0  0  0  0
  146.7645  142.9833  158.1948 N   0  0  0  0  0  0  0  0  0  0  0  0
  147.0717  141.8724  157.5097 C   0  0  0  0  0  0  0  0  0  0  0  0
  146.7594  140.7418  157.8861 O   0  0  0  0  0  0  0  0  0  0  0  0
  147.8191  142.0897  156.1866 C   0  0  0  0  0  0  0  0  0  0  0  0
  149.0640  141.3113  156.0840 N   0  0  0  0  0  0  0  0  0  0  0  0
  149.6942  140.9298  157.2813 C   0  0  0  0  0  0  0  0  0  0  0  0
  150.8388  140.2204  157.2872 C   0  0  0  0  0  0  0  0  0  0  0  0
  151.4254  139.8465  156.0063 C   0  0  0  0  0  0  0  0  0  0  0  0
  152.4676  139.1944  155.9926 O   0  0  0  0  0  0  0  0  0  0  0  0
  150.7787  140.2444  154.8717 N   0  5  0  0  0  0  0  0  0  0  0  0
  149.6169  140.9692  154.8811 C   0  0  0  0  0  0  0  0  0  0  0  0
  149.0519  141.3221  153.8453 O   0  0  0  0  0  0  0  0  0  0  0  0
  144.7447  142.1798  159.4446 C   0  0  0  0  0  0  0  0  0  0  0  0
  142.6852  144.9994  161.9269 H   0  0  0  0  0  0  0  0  0  0  0  0
  143.1360  145.9558  160.5420 H   0  0  0  0  0  0  0  0  0  0  0  0
  144.1315  145.9888  161.9759 H   0  0  0  0  0  0  0  0  0  0  0  0
  145.4239  142.4912  162.0087 H   0  0  0  0  0  0  0  0  0  0  0  0
  143.9506  143.0707  162.7365 H   0  0  0  0  0  0  0  0  0  0  0  0
  145.4063  144.0467  162.8000 H   0  0  0  0  0  0  0  0  0  0  0  0
  142.7417  142.7543  160.1961 H   0  0  0  0  0  0  0  0  0  0  0  0
  143.3637  143.5712  157.6872 H   0  0  0  0  0  0  0  0  0  0  0  0
  142.5604  144.7407  158.7176 H   0  0  0  0  0  0  0  0  0  0  0  0
  145.2741  144.9639  157.6964 H   0  0  0  0  0  0  0  0  0  0  0  0
  144.4764  146.0553  158.7877 H   0  0  0  0  0  0  0  0  0  0  0  0
  147.3672  145.5573  159.5787 H   0  0  0  0  0  0  0  0  0  0  0  0
  147.1374  144.9666  161.2196 H   0  0  0  0  0  0  0  0  0  0  0  0
  146.2123  146.3499  160.6426 H   0  0  0  0  0  0  0  0  0  0  0  0
  146.7230  142.6456  160.2404 H   0  0  0  0  0  0  0  0  0  0  0  0
  147.0601  143.8705  157.8145 H   0  0  0  0  0  0  0  0  0  0  0  0
  147.1442  141.8316  155.3694 H   0  0  0  0  0  0  0  0  0  0  0  0
  148.0279  143.1535  156.0585 H   0  0  0  0  0  0  0  0  0  0  0  0
  149.1982  141.2529  158.1848 H   0  0  0  0  0  0  0  0  0  0  0  0
  151.3119  139.9381  158.2161 H   0  0  0  0  0  0  0  0  0  0  0  0
  144.7949  141.3592  160.1605 H   0  0  0  0  0  0  0  0  0  0  0  0
  144.5397  141.7317  158.4712 H   0  0  0  0  0  0  0  0  0  0  0  0
  1  2  1  0  0  0  0
  1 23  1  0  0  0  0
  1 24  1  0  0  0  0
  1 25  1  0  0  0  0
  2  7  1  0  0  0  0
  2  3  1  0  0  0  0
  2  4  1  0  0  0  0
  3 26  1  0  0  0  0
  3 27  1  0  0  0  0
  3 28  1  0  0  0  0
  4 22  1  0  0  0  0
  4  5  1  0  0  0  0
  4 29  1  0  0  0  0
  5  6  1  0  0  0  0
  5 30  1  0  0  0  0
  5 31  1  0  0  0  0
  6  7  1  0  0  0  0
  6 32  1  0  0  0  0
  6 33  1  0  0  0  0
  7  8  1  0  0  0  0
  7  9  1  0  0  0  0
  8 34  1  0  0  0  0
  8 35  1  0  0  0  0
  8 36  1  0  0  0  0
  9 10  1  0  0  0  0
  9 22  1  0  0  0  0
  9 37  1  0  0  0  0
 10 11  1  0  0  0  0
 10 38  1  0  0  0  0
 11 12  2  0  0  0  0
 11 13  1  0  0  0  0
 13 14  1  0  0  0  0
 13 39  1  0  0  0  0
 13 40  1  0  0  0  0
 14 20  1  0  0  0  0
 14 15  1  0  0  0  0
 15 16  2  0  0  0  0
 15 41  1  0  0  0  0
 16 17  1  0  0  0  0
 16 42  1  0  0  0  0
 17 18  2  0  0  0  0
 17 19  1  0  0  0  0
 19 20  1  0  0  0  0
 20 21  2  0  0  0  0
 22 43  1  0  0  0  0
 22 44  1  0  0  0  0
M  CHG  1  19  -1
M  END
> <s_m_source_file>
AV-unprocessed.smi

> <i_m_source_file_index>
623

> <i_lp_mmshare_version>
43012

> <i_f3d_flags>
0

> <s_epik_input>
W0NIM11bQ0BdMTJDKFtDSDNdKShbQ0gzXSlbQ0BIXShbQ0gyXVtDSDJdMSlbQ0gyXVtDQEBIXTJbTkhdQyg9TylbQ0gyXW4zW2NIXVtjSF1jKD1PKVtuSF1jMz1P

> <s_epik_cmdline>
J2VwaWtfcHl0aG9uJywgJy1waCcsICc3LjAnLCAnLXRuJywgJzgnLCAnLW1hJywgJzIwMCcsICctbWV0YWxfYmluZGluZycsICctaW1hZScsICc8aW5maWxlLm1hZT4nLCAnLW9tYWUnLCAnPG91dGZpbGUubWFlPic=

> <r_lp_tautomer_probability>
0.999537

> <r_epik_Ionization_Penalty>
3.12624

> <r_epik_Ionization_Penalty_Charging>
3.01273e-08

> <r_epik_Ionization_Penalty_Neutral>
3.12624

> <r_epik_State_Penalty>
3.12534

> <r_epik_Charging_Adjusted_Penalty>
3.12534

> <i_epik_Tot_Q>
-1

> <i_epik_Tot_abs_Q>
1

> <r_epik_Metal_State_Penalty>
0.46406

> <b_epik_Metal_Only>
1

> <s_lp_Force_Field>
OPLS_2005

> <r_lp_Energy>
65.8638

> <b_lp_Chiralities_Consistent>
1

> <s_lp_Variant>
AV-unprocessed.smi:623-8

> <Gold.Version>
5.8.1

> <Gold.Id.Protein>
6NUR|6NUR_protein|mol2

> <Gold.PLP.Fitness>
33.0628

> <Gold.PLP.PLP>
-24.5033

> <Gold.PLP.part.hbond>
-5.2350

> <Gold.PLP.part.metal>
0.0000

> <Gold.PLP.part.buried>
2.8490

> <Gold.PLP.part.nonpolar>
-21.6351

> <Gold.PLP.part.repulsive>
0.3891

> <Gold.PLP.ligand.clash>
0.0000

> <Gold.PLP.ligand.torsion>
0.5183

> <Gold.PLP.Chemscore.Hbond>
3.1946

> <Gold.PLP.Chemscore.CHOScore>
0.0000

> <Gold.PLP.Chemscore.Metal>
0.0000

> <Gold.Chemscore.Hbonds>
donor molecule, donor type, donor heavy atom, donor atom, acceptor molecule, acceptor atom, score
      L1  H    10    38       P1  8029  0.25
      P1  H  7989  7998       L1    19  1.00
      P1  H  7997  8010       L1    18  0.78
      P1  H  8011  8017       L1    21  0.82

> <Gold.PLP.Chemscore.Internal.Correction>
0.0123

> <Gold.Rescore>
     Score         DG    S(hbond)    S(metal)    S(lipo)     H(rot)  DE(clash)    DE(int)     intcor
      9.57     -14.51       2.21        0.00      49.62       1.63       1.98       2.96       ----

> <Gold.Chemscore.Fitness>
9.5725

> <Gold.Chemscore.DG>
-14.5053

> <Gold.Chemscore.ZeroCoef>
-5.4800

> <Gold.Chemscore.Hbond>
2.2148

> <Gold.Chemscore.Metal>
0.0000

> <Gold.Chemscore.Lipo>
49.6246

> <Gold.Chemscore.Internal_Hbond>
0.0000

> <Gold.Chemscore.DEClash>
1.9775

> <Gold.Chemscore.DEInternal>
2.9553

> <Gold.Chemscore.Rot>
1.6322

> <Gold.Chemscore.Internal.Correction>
   9.000000E+99

> <Gold.Chemscore.Hbonds>
donor molecule, donor type, donor heavy atom, donor atom, acceptor molecule, acceptor atom, score
      L1  H    10    38       P1  8029  0.02
      P1  H  7989  7998       L1    19  0.39
      P1  H  7997  8010       L1    18  0.75
      P1  H  8011  8017       L1    21  0.78

> <Gold.Chemscore.Hbond.Weighted>
-7.3976

> <Gold.Chemscore.Metal.Weighted>
-0.0000

> <Gold.Chemscore.Lipo.Weighted>
-5.8061

> <Gold.Chemscore.Internal_Hbond.Weighted>
0.0000

> <Gold.Chemscore.DEClash.Weighted>
1.9775

> <Gold.Chemscore.DEInternal.Weighted>
2.9553

> <Gold.Chemscore.Rot.Weighted>
4.1783

> <Gold.Chemscore.Internal.Correction.Weighted>
   9.000000E+99

> <Gold.Protein.RotatedTorsions>
[ 6907 6896 6895 6894 ] final    5.01 input  -60.11 | X-H torsion
[ 7974 7965 7964 7962 ] final -102.30 input  175.53 | X-H torsion
[ 8008 7997 7996 7995 ] final   74.13 input   59.86 | X-H torsion
[ 10167 10162 10161 10158 ] final   58.66 input  -65.29 | X-H torsion
[ 10718 10713 10712 10709 ] final   51.48 input   66.30 | X-H torsion
[ 10763 10752 10751 10750 ] final -136.84 input  -60.55 | X-H torsion
[ 11005 11000 10999 10996 ] final  152.32 input  -57.11 | X-H torsion

> <Gold.Protein.ActiveResidues>
 VAL166  LYS551  ARG553  GLY616  TRP617  ASP618  TYR619  PRO620  LYS621  CYS622 
 ASP623  PHE694  ASN695  SER759  ASP760  ASP761  ALA762  ILE779  LEU786  VAL792 
 PHE793  MET794  SER795  GLU796  ALA797  LYS798  CYS799  TRP800  GLU811  SER814 

> <Gold.Protein.RotatedAtoms>
  151.6505  135.1002  160.0159 H   0  0  0  0  0  0  0  0  0  0  0  0  # atno 6907 bound_to 6896
  152.4003  133.6804  159.6319 H   0  0  0  0  0  0  0  0  0  0  0  0  # atno 6908 bound_to 6896
  150.7904  133.8719  159.3302 H   0  0  0  0  0  0  0  0  0  0  0  0  # atno 6909 bound_to 6896
  145.2705  140.9297  143.2989 H   0  0  0  0  0  0  0  0  0  0  0  0  # atno 7974 bound_to 7965
  155.7938  140.3478  155.5364 H   0  0  0  0  0  0  0  0  0  0  0  0  # atno 8008 bound_to 7997
  155.8607  140.0971  157.1635 H   0  0  0  0  0  0  0  0  0  0  0  0  # atno 8009 bound_to 7997
  154.4012  140.1359  156.3945 H   0  0  0  0  0  0  0  0  0  0  0  0  # atno 8010 bound_to 7997
  140.1848  144.4145  150.6598 H   0  0  0  0  0  0  0  0  0  0  0  0  # atno 10167 bound_to 10162
  157.4985  130.8422  149.8288 H   0  0  0  0  0  0  0  0  0  0  0  0  # atno 10718 bound_to 10713
  154.8675  135.3660  154.5127 H   0  0  0  0  0  0  0  0  0  0  0  0  # atno 10763 bound_to 10752
  153.5761  135.7019  153.5488 H   0  0  0  0  0  0  0  0  0  0  0  0  # atno 10764 bound_to 10752
  153.3499  135.4075  155.1600 H   0  0  0  0  0  0  0  0  0  0  0  0  # atno 10765 bound_to 10752
  140.1297  134.8810  157.2187 H   0  0  0  0  0  0  0  0  0  0  0  0  # atno 11005 bound_to 11000
  144.9339  139.4266  143.6481 LP  0  0  0  0  0  0  0  0  0  0  0  0  # atno 17320 bound_to 7965
  146.3248  139.8264  142.8916 LP  0  0  0  0  0  0  0  0  0  0  0  0  # atno 17321 bound_to 7965
  140.6495  143.2221  151.6109 LP  0  0  0  0  0  0  0  0  0  0  0  0  # atno 17342 bound_to 10162
  139.5281  144.2999  152.1082 LP  0  0  0  0  0  0  0  0  0  0  0  0  # atno 17343 bound_to 10162
  156.0215  130.3794  150.1949 LP  0  0  0  0  0  0  0  0  0  0  0  0  # atno 17370 bound_to 10713
  157.0138  130.9959  151.3358 LP  0  0  0  0  0  0  0  0  0  0  0  0  # atno 17371 bound_to 10713
  140.2858  134.3298  155.7329 LP  0  0  0  0  0  0  0  0  0  0  0  0  # atno 17394 bound_to 11000
  141.2168  133.7505  156.9430 LP  0  0  0  0  0  0  0  0  0  0  0  0  # atno 17395 bound_to 11000

$$$$
