AV-unprocessed.smi:1572|AV-procd|sdf|6328|dock4
  -GOLD-   22720 6533D 1   1.00000     0.00000
 Structure written by MMmdl.
 43 44  0  0  0  0  0  0  0  0  2 V2000
  146.5632  136.4250  154.2367 C   0  0  0  0  0  0  0  0  0  0  0  0
  145.6047  137.2220  153.4787 N   0  0  0  0  0  0  0  0  0  0  0  0
  144.6832  137.9814  154.3216 C   0  0  0  0  0  0  0  0  0  0  0  0
  145.3849  139.1506  155.0414 C   0  0  0  0  0  0  0  0  0  0  0  0
  146.0184  140.0811  154.0612 N   0  3  0  0  0  0  0  0  0  0  0  0
  146.5508  141.3705  154.6422 C   0  0  0  0  0  0  0  0  0  0  0  0
  147.6118  142.0104  153.7140 C   0  0  0  0  0  0  0  0  0  0  0  0
  145.4073  142.4026  154.8355 C   0  0  0  0  0  0  0  0  0  0  0  0
  147.1796  141.0656  156.0369 C   0  0  0  0  0  0  0  0  0  0  0  0
  148.0891  142.1023  156.5259 N   0  0  0  0  0  0  0  0  0  0  0  0
  148.9591  141.9595  157.5370 C   0  0  0  0  0  0  0  0  0  0  0  0
  149.0732  140.9227  158.1910 O   0  0  0  0  0  0  0  0  0  0  0  0
  149.6681  143.0851  157.7331 N   0  0  0  0  0  0  0  0  0  0  0  0
  150.6564  143.3406  158.7204 C   0  0  0  0  0  0  0  0  0  0  0  0
  150.8209  142.5894  159.8206 N   0  0  0  0  0  0  0  0  0  0  0  0
  151.8539  143.0593  160.6210 N   0  0  0  0  0  0  0  0  0  0  0  0
  152.4257  144.1462  160.0950 C   0  0  0  0  0  0  0  0  0  0  0  0
  151.7563  144.7036  158.5711 S   0  0  0  0  0  0  0  0  0  0  0  0
  146.9563  139.3067  153.1962 C   0  0  0  0  0  0  0  0  0  0  0  0
  146.2372  138.1216  152.5166 C   0  0  0  0  0  0  0  0  0  0  0  0
  146.0393  135.7364  154.9002 H   0  0  0  0  0  0  0  0  0  0  0  0
  147.2324  137.0346  154.8428 H   0  0  0  0  0  0  0  0  0  0  0  0
  147.1746  135.8284  153.5589 H   0  0  0  0  0  0  0  0  0  0  0  0
  143.8762  138.3679  153.6975 H   0  0  0  0  0  0  0  0  0  0  0  0
  144.2189  137.3122  155.0470 H   0  0  0  0  0  0  0  0  0  0  0  0
  144.6323  139.6586  155.6392 H   0  0  0  0  0  0  0  0  0  0  0  0
  146.1256  138.7673  155.7427 H   0  0  0  0  0  0  0  0  0  0  0  0
  147.9207  142.9898  154.0812 H   0  0  0  0  0  0  0  0  0  0  0  0
  147.2297  142.1584  152.7040 H   0  0  0  0  0  0  0  0  0  0  0  0
  148.5157  141.4055  153.6436 H   0  0  0  0  0  0  0  0  0  0  0  0
  145.7514  143.3121  155.3266 H   0  0  0  0  0  0  0  0  0  0  0  0
  144.5976  141.9939  155.4413 H   0  0  0  0  0  0  0  0  0  0  0  0
  144.9884  142.7413  153.8881 H   0  0  0  0  0  0  0  0  0  0  0  0
  146.3916  140.8678  156.7660 H   0  0  0  0  0  0  0  0  0  0  0  0
  147.7843  140.1615  156.0065 H   0  0  0  0  0  0  0  0  0  0  0  0
  148.0618  142.9914  156.0481 H   0  0  0  0  0  0  0  0  0  0  0  0
  149.4772  143.8518  157.1051 H   0  0  0  0  0  0  0  0  0  0  0  0
  153.2474  144.6231  160.6086 H   0  0  0  0  0  0  0  0  0  0  0  0
  147.3439  139.9203  152.3858 H   0  0  0  0  0  0  0  0  0  0  0  0
  147.8158  138.9653  153.7733 H   0  0  0  0  0  0  0  0  0  0  0  0
  146.9355  137.5591  151.8959 H   0  0  0  0  0  0  0  0  0  0  0  0
  145.4674  138.5026  151.8438 H   0  0  0  0  0  0  0  0  0  0  0  0
  145.2750  140.3680  153.4404 H   0  0  0  0  0  0  0  0  0  0  0  0
  1  2  1  0  0  0  0
  1 21  1  0  0  0  0
  1 22  1  0  0  0  0
  1 23  1  0  0  0  0
  2 20  1  0  0  0  0
  2  3  1  0  0  0  0
  3  4  1  0  0  0  0
  3 24  1  0  0  0  0
  3 25  1  0  0  0  0
  4  5  1  0  0  0  0
  4 26  1  0  0  0  0
  4 27  1  0  0  0  0
  5  6  1  0  0  0  0
  5 19  1  0  0  0  0
  5 43  1  0  0  0  0
  6  7  1  0  0  0  0
  6  8  1  0  0  0  0
  6  9  1  0  0  0  0
  7 28  1  0  0  0  0
  7 29  1  0  0  0  0
  7 30  1  0  0  0  0
  8 31  1  0  0  0  0
  8 32  1  0  0  0  0
  8 33  1  0  0  0  0
  9 10  1  0  0  0  0
  9 34  1  0  0  0  0
  9 35  1  0  0  0  0
 10 11  1  0  0  0  0
 10 36  1  0  0  0  0
 11 12  2  0  0  0  0
 11 13  1  0  0  0  0
 13 14  1  0  0  0  0
 13 37  1  0  0  0  0
 14 18  1  0  0  0  0
 14 15  2  0  0  0  0
 15 16  1  0  0  0  0
 16 17  2  0  0  0  0
 17 18  1  0  0  0  0
 17 38  1  0  0  0  0
 19 20  1  0  0  0  0
 19 39  1  0  0  0  0
 19 40  1  0  0  0  0
 20 41  1  0  0  0  0
 20 42  1  0  0  0  0
M  CHG  1   5   1
M  END
> <s_m_source_file>
AV-unprocessed.smi

> <i_m_source_file_index>
1572

> <i_lp_mmshare_version>
43012

> <i_f3d_flags>
0

> <s_epik_input>
W0NIM11OMVtDSDJdW0NIMl1OKFtDSDJdW0NIMl0xKUMoW0NIM10pKFtDSDNdKVtDSDJdW05IXUMoPU8pW05IXWMybm5bY0hdczI=

> <s_epik_cmdline>
J2VwaWtfcHl0aG9uJywgJy1waCcsICc3LjAnLCAnLXRuJywgJzgnLCAnLW1hJywgJzIwMCcsICctbWV0YWxfYmluZGluZycsICctaW1hZScsICc8aW5maWxlLm1hZT4nLCAnLW9tYWUnLCAnPG91dGZpbGUubWFlPic=

> <r_epik_Ionization_Penalty>
0.104337

> <r_epik_Ionization_Penalty_Charging>
0.0985296

> <r_epik_Ionization_Penalty_Neutral>
0.00580738

> <r_epik_State_Penalty>
1.056

> <r_epik_Charging_Adjusted_Penalty>
1.15453

> <i_epik_Tot_Q>
1

> <i_epik_Tot_abs_Q>
1

> <r_epik_Metal_State_Penalty>
1.38982

> <b_epik_Metal_Only>
0

> <s_lp_Force_Field>
OPLS_2005

> <r_lp_Energy>
26.4424

> <b_lp_Chiralities_Consistent>
1

> <s_lp_Variant>
AV-unprocessed.smi:1572-2

> <Gold.Version>
5.8.1

> <Gold.Id.Protein>
6NUR|6NUR_protein|mol2

> <Gold.PLP.Fitness>
38.9035

> <Gold.PLP.PLP>
-29.4003

> <Gold.PLP.part.hbond>
-4.0497

> <Gold.PLP.part.metal>
0.0000

> <Gold.PLP.part.buried>
-4.7439

> <Gold.PLP.part.nonpolar>
-20.8407

> <Gold.PLP.part.repulsive>
0.2768

> <Gold.PLP.ligand.clash>
0.0000

> <Gold.PLP.ligand.torsion>
1.2996

> <Gold.PLP.Chemscore.Hbond>
4.0000

> <Gold.PLP.Chemscore.CHOScore>
0.0000

> <Gold.PLP.Chemscore.Metal>
0.0000

> <Gold.Chemscore.Hbonds>
donor molecule, donor type, donor heavy atom, donor atom, acceptor molecule, acceptor atom, score
      L1  H     5    43       P1 10175  2.00
      L1  H    10    36       P1  8028  1.00
      L1  H    13    37       P1  8028  1.00

> <Gold.PLP.Chemscore.Internal.Correction>
0.1024

> <Gold.Rescore>
     Score         DG    S(hbond)    S(metal)    S(lipo)     H(rot)  DE(clash)    DE(int)     intcor
     15.52     -18.14       2.90        0.00      62.39       1.70       0.08       2.54       ----

> <Gold.Chemscore.Fitness>
15.5179

> <Gold.Chemscore.DG>
-18.1391

> <Gold.Chemscore.ZeroCoef>
-5.4800

> <Gold.Chemscore.Hbond>
2.9043

> <Gold.Chemscore.Metal>
0.0000

> <Gold.Chemscore.Lipo>
62.3876

> <Gold.Chemscore.Internal_Hbond>
0.0000

> <Gold.Chemscore.DEClash>
0.0797

> <Gold.Chemscore.DEInternal>
2.5415

> <Gold.Chemscore.Rot>
1.6956

> <Gold.Chemscore.Internal.Correction>
   9.000000E+99

> <Gold.Chemscore.Hbonds>
donor molecule, donor type, donor heavy atom, donor atom, acceptor molecule, acceptor atom, score
      L1  H     5    43       P1 10175  0.99
      L1  H    10    36       P1  8028  0.62
      L1  H    13    37       P1  8028  0.70

> <Gold.Chemscore.Hbond.Weighted>
-9.7005

> <Gold.Chemscore.Metal.Weighted>
-0.0000

> <Gold.Chemscore.Lipo.Weighted>
-7.2993

> <Gold.Chemscore.Internal_Hbond.Weighted>
0.0000

> <Gold.Chemscore.DEClash.Weighted>
0.0797

> <Gold.Chemscore.DEInternal.Weighted>
2.5415

> <Gold.Chemscore.Rot.Weighted>
4.3407

> <Gold.Chemscore.Internal.Correction.Weighted>
   9.000000E+99

> <Gold.Protein.RotatedTorsions>
[ 6907 6896 6895 6894 ] final  114.51 input  -60.11 | X-H torsion
[ 7974 7965 7964 7962 ] final   -8.86 input  175.53 | X-H torsion
[ 8008 7997 7996 7995 ] final   80.60 input   59.86 | X-H torsion
[ 10167 10162 10161 10158 ] final   38.16 input  -65.29 | X-H torsion
[ 10718 10713 10712 10709 ] final   47.22 input   66.30 | X-H torsion
[ 10763 10752 10751 10750 ] final -132.00 input  -60.55 | X-H torsion
[ 11005 11000 10999 10996 ] final  -78.35 input  -57.11 | X-H torsion

> <Gold.Protein.ActiveResidues>
 VAL166  LYS551  ARG553  GLY616  TRP617  ASP618  TYR619  PRO620  LYS621  CYS622 
 ASP623  PHE694  ASN695  SER759  ASP760  ASP761  ALA762  ILE779  LEU786  VAL792 
 PHE793  MET794  SER795  GLU796  ALA797  LYS798  CYS799  TRP800  GLU811  SER814 

> <Gold.Protein.RotatedAtoms>
  152.4798  133.8226  159.7061 H   0  0  0  0  0  0  0  0  0  0  0  0  # atno 6907 bound_to 6896
  150.8840  133.7324  159.2930 H   0  0  0  0  0  0  0  0  0  0  0  0  # atno 6908 bound_to 6896
  151.4819  135.1056  159.9832 H   0  0  0  0  0  0  0  0  0  0  0  0  # atno 6909 bound_to 6896
  146.2268  140.2531  142.8348 H   0  0  0  0  0  0  0  0  0  0  0  0  # atno 7974 bound_to 7965
  155.8857  140.3441  155.5920 H   0  0  0  0  0  0  0  0  0  0  0  0  # atno 8008 bound_to 7997
  155.7668  140.0840  157.2147 H   0  0  0  0  0  0  0  0  0  0  0  0  # atno 8009 bound_to 7997
  154.4028  140.1525  156.2883 H   0  0  0  0  0  0  0  0  0  0  0  0  # atno 8010 bound_to 7997
  140.3963  144.1784  150.6132 H   0  0  0  0  0  0  0  0  0  0  0  0  # atno 10167 bound_to 10162
  157.4562  130.8168  149.7839 H   0  0  0  0  0  0  0  0  0  0  0  0  # atno 10718 bound_to 10713
  154.8746  135.3812  154.4339 H   0  0  0  0  0  0  0  0  0  0  0  0  # atno 10763 bound_to 10752
  153.5030  135.7030  153.5827 H   0  0  0  0  0  0  0  0  0  0  0  0  # atno 10764 bound_to 10752
  153.4150  135.3915  155.2041 H   0  0  0  0  0  0  0  0  0  0  0  0  # atno 10765 bound_to 10752
  141.1664  133.7060  156.7959 H   0  0  0  0  0  0  0  0  0  0  0  0  # atno 11005 bound_to 11000
  144.9397  140.8064  143.5638 LP  0  0  0  0  0  0  0  0  0  0  0  0  # atno 17320 bound_to 7965
  145.2481  139.2043  143.4957 LP  0  0  0  0  0  0  0  0  0  0  0  0  # atno 17321 bound_to 7965
  140.4786  143.2387  151.8987 LP  0  0  0  0  0  0  0  0  0  0  0  0  # atno 17342 bound_to 10162
  139.4786  144.5293  151.8690 LP  0  0  0  0  0  0  0  0  0  0  0  0  # atno 17343 bound_to 10162
  156.0008  130.3881  150.2613 LP  0  0  0  0  0  0  0  0  0  0  0  0  # atno 17370 bound_to 10713
  157.0788  131.0137  151.3164 LP  0  0  0  0  0  0  0  0  0  0  0  0  # atno 17371 bound_to 10713
  140.2291  134.8699  157.3458 LP  0  0  0  0  0  0  0  0  0  0  0  0  # atno 17394 bound_to 11000
  140.1909  134.4373  155.7716 LP  0  0  0  0  0  0  0  0  0  0  0  0  # atno 17395 bound_to 11000

$$$$
