AV-unprocessed.smi:1224|AV-procd|sdf|5132|dock10
  -GOLD-   22720 4193D 1   1.00000     0.00000
 Structure written by MMmdl.
 43 45  0  0  0  0  0  0  0  0  1 V2000
  153.0627  142.7789  161.4421 C   0  0  0  0  0  0  0  0  0  0  0  0
  152.4482  142.4557  160.0915 C   0  0  0  0  0  0  0  0  0  0  0  0
  152.8732  141.2971  159.4027 C   0  0  0  0  0  0  0  0  0  0  0  0
  152.3263  140.9607  158.1450 C   0  0  0  0  0  0  0  0  0  0  0  0
  152.5900  139.8908  157.3067 N   0  0  0  0  0  0  0  0  0  0  0  0
  151.7649  140.1355  156.2926 C   0  0  0  0  0  0  0  0  0  0  0  0
  150.9977  141.2395  156.3747 N   0  0  0  0  0  0  0  0  0  0  0  0
  150.0309  141.7121  155.3997 C   0  0  0  0  0  0  0  0  0  0  0  0
  149.2547  140.5604  154.7334 C   0  0  2  0  0  0  0  0  0  0  0  0
  150.0882  139.9408  153.7733 O   0  0  0  0  0  0  0  0  0  0  0  0
  147.9878  141.0637  154.0227 C   0  0  0  0  0  0  0  0  0  0  0  0
  147.5361  140.1131  153.0111 N   0  0  0  0  0  0  0  0  0  0  0  0
  146.8814  138.9387  153.5757 C   0  0  0  0  0  0  0  0  0  0  0  0
  146.4203  137.9973  152.5142 C   0  0  0  0  0  0  0  0  0  0  0  0
  145.8872  136.7439  152.6784 C   0  0  0  0  0  0  0  0  0  0  0  0
  145.5459  136.1133  151.4460 C   0  0  0  0  0  0  0  0  0  0  0  0
  145.8231  136.8945  150.3557 C   0  0  0  0  0  0  0  0  0  0  0  0
  146.5110  138.4253  150.8242 S   0  0  0  0  0  0  0  0  0  0  0  0
  151.3351  141.8224  157.5908 C   0  0  0  0  0  0  0  0  0  0  0  0
  150.9036  142.9774  158.2662 C   0  0  0  0  0  0  0  0  0  0  0  0
  151.4601  143.2986  159.5220 C   0  0  0  0  0  0  0  0  0  0  0  0
  150.9862  144.5471  160.2445 C   0  0  0  0  0  0  0  0  0  0  0  0
  153.8060  142.0350  161.7299 H   0  0  0  0  0  0  0  0  0  0  0  0
  152.2947  142.8011  162.2155 H   0  0  0  0  0  0  0  0  0  0  0  0
  153.5564  143.7504  161.4147 H   0  0  0  0  0  0  0  0  0  0  0  0
  153.6250  140.6540  159.8362 H   0  0  0  0  0  0  0  0  0  0  0  0
  151.7126  139.4731  155.4407 H   0  0  0  0  0  0  0  0  0  0  0  0
  149.3413  142.3866  155.9089 H   0  0  0  0  0  0  0  0  0  0  0  0
  150.5520  142.3078  154.6487 H   0  0  0  0  0  0  0  0  0  0  0  0
  148.9871  139.8261  155.4951 H   0  0  0  0  0  0  0  0  0  0  0  0
  149.6744  140.0191  152.9271 H   0  0  0  0  0  0  0  0  0  0  0  0
  147.1956  141.1908  154.7618 H   0  0  0  0  0  0  0  0  0  0  0  0
  148.1597  142.0477  153.5839 H   0  0  0  0  0  0  0  0  0  0  0  0
  148.3316  139.8176  152.4542 H   0  0  0  0  0  0  0  0  0  0  0  0
  147.5633  138.4227  154.2528 H   0  0  0  0  0  0  0  0  0  0  0  0
  146.0247  139.2446  154.1770 H   0  0  0  0  0  0  0  0  0  0  0  0
  145.7304  136.2634  153.6327 H   0  0  0  0  0  0  0  0  0  0  0  0
  145.1145  135.1242  151.4030 H   0  0  0  0  0  0  0  0  0  0  0  0
  145.6660  136.6660  149.3118 H   0  0  0  0  0  0  0  0  0  0  0  0
  150.1494  143.6093  157.8209 H   0  0  0  0  0  0  0  0  0  0  0  0
  150.2413  145.0870  159.6592 H   0  0  0  0  0  0  0  0  0  0  0  0
  151.8210  145.2236  160.4285 H   0  0  0  0  0  0  0  0  0  0  0  0
  150.5344  144.2849  161.2014 H   0  0  0  0  0  0  0  0  0  0  0  0
  1  2  1  0  0  0  0
  1 23  1  0  0  0  0
  1 24  1  0  0  0  0
  1 25  1  0  0  0  0
  2 21  1  0  0  0  0
  2  3  2  0  0  0  0
  3  4  1  0  0  0  0
  3 26  1  0  0  0  0
  4 19  2  0  0  0  0
  4  5  1  0  0  0  0
  5  6  2  0  0  0  0
  6  7  1  0  0  0  0
  6 27  1  0  0  0  0
  7  8  1  0  0  0  0
  7 19  1  0  0  0  0
  8  9  1  0  0  0  0
  8 28  1  0  0  0  0
  8 29  1  0  0  0  0
  9 10  1  0  0  0  0
  9 11  1  0  0  0  0
  9 30  1  0  0  0  0
 10 31  1  0  0  0  0
 11 12  1  0  0  0  0
 11 32  1  0  0  0  0
 11 33  1  0  0  0  0
 12 13  1  0  0  0  0
 12 34  1  0  0  0  0
 13 14  1  0  0  0  0
 13 35  1  0  0  0  0
 13 36  1  0  0  0  0
 14 18  1  0  0  0  0
 14 15  2  0  0  0  0
 15 16  1  0  0  0  0
 15 37  1  0  0  0  0
 16 17  2  0  0  0  0
 16 38  1  0  0  0  0
 17 18  1  0  0  0  0
 17 39  1  0  0  0  0
 19 20  1  0  0  0  0
 20 21  2  0  0  0  0
 20 40  1  0  0  0  0
 21 22  1  0  0  0  0
 22 41  1  0  0  0  0
 22 42  1  0  0  0  0
 22 43  1  0  0  0  0
M  END
> <s_m_source_file>
AV-unprocessed.smi

> <i_m_source_file_index>
1224

> <i_lp_mmshare_version>
43012

> <i_f3d_flags>
0

> <s_epik_input>
W0NIM11jKFtjSF0xKWMoW0NIM10pW2NIXWMoYzEyKW4oW2NIXW4yKVtDSDJdW0NASF0oW09IXSlbQ0gyXVtOSF1bQ0gyXWMzW2NIXVtjSF1bY0hdczM=

> <s_epik_cmdline>
J2VwaWtfcHl0aG9uJywgJy1waCcsICc3LjAnLCAnLXRuJywgJzgnLCAnLW1hJywgJzIwMCcsICctbWV0YWxfYmluZGluZycsICctaW1hZScsICc8aW5maWxlLm1hZT4nLCAnLW9tYWUnLCAnPG91dGZpbGUubWFlPic=

> <r_epik_Ionization_Penalty>
1.55566

> <r_epik_Ionization_Penalty_Charging>
0

> <r_epik_Ionization_Penalty_Neutral>
1.55566

> <r_epik_State_Penalty>
1.63945

> <r_epik_Charging_Adjusted_Penalty>
1.63945

> <i_epik_Tot_Q>
0

> <i_epik_Tot_abs_Q>
0

> <r_epik_Metal_State_Penalty>
1.52326

> <b_epik_Metal_Only>
0

> <s_lp_Force_Field>
OPLS_2005

> <r_lp_Energy>
13.7285

> <b_lp_Chiralities_Consistent>
1

> <s_lp_Variant>
AV-unprocessed.smi:1224-5

> <Gold.Version>
5.8.1

> <Gold.Id.Protein>
6NUR|6NUR_protein|mol2

> <Gold.PLP.Fitness>
60.4838

> <Gold.PLP.PLP>
-47.4063

> <Gold.PLP.part.hbond>
-4.0000

> <Gold.PLP.part.metal>
0.0000

> <Gold.PLP.part.buried>
4.0346

> <Gold.PLP.part.nonpolar>
-46.7180

> <Gold.PLP.part.repulsive>
0.0000

> <Gold.PLP.ligand.clash>
0.0000

> <Gold.PLP.ligand.torsion>
0.7625

> <Gold.PLP.Chemscore.Hbond>
3.8480

> <Gold.PLP.Chemscore.CHOScore>
0.9910

> <Gold.PLP.Chemscore.Metal>
0.0000

> <Gold.Chemscore.Hbonds>
donor molecule, donor type, donor heavy atom, donor atom, acceptor molecule, acceptor atom, score
      L1  H    10    31       P1  7957  1.00
      L1  H    12    34       P1  7957  1.00
      P1  H  7989  7998       L1    10  0.85
      P1  H  7997  8008       L1     5  1.00
      L1  C    17    39       P1  7921  1.00

> <Gold.PLP.Chemscore.Internal.Correction>
0.0855

> <Gold.Rescore>
     Score         DG    S(hbond)    S(metal)    S(lipo)     H(rot)  DE(clash)    DE(int)     intcor
     21.93     -23.66       2.66        0.00     130.28       2.32       0.76       0.97       ----

> <Gold.Chemscore.Fitness>
21.9307

> <Gold.Chemscore.DG>
-23.6584

> <Gold.Chemscore.ZeroCoef>
-5.4800

> <Gold.Chemscore.Hbond>
2.6551

> <Gold.Chemscore.Metal>
0.0000

> <Gold.Chemscore.Lipo>
130.2807

> <Gold.Chemscore.Internal_Hbond>
0.0000

> <Gold.Chemscore.DEClash>
0.7600

> <Gold.Chemscore.DEInternal>
0.9677

> <Gold.Chemscore.Rot>
2.3173

> <Gold.Chemscore.Internal.Correction>
   9.000000E+99

> <Gold.Chemscore.Hbonds>
donor molecule, donor type, donor heavy atom, donor atom, acceptor molecule, acceptor atom, score
      L1  H    10    31       P1  7957  0.98
      L1  H    12    34       P1  7957  0.98
      P1  H  7989  7998       L1    10  0.18
      P1  H  7997  8008       L1     5  0.39

> <Gold.Chemscore.Hbond.Weighted>
-8.8679

> <Gold.Chemscore.Metal.Weighted>
-0.0000

> <Gold.Chemscore.Lipo.Weighted>
-15.2428

> <Gold.Chemscore.Internal_Hbond.Weighted>
0.0000

> <Gold.Chemscore.DEClash.Weighted>
0.7600

> <Gold.Chemscore.DEInternal.Weighted>
0.9677

> <Gold.Chemscore.Rot.Weighted>
5.9324

> <Gold.Chemscore.Internal.Correction.Weighted>
   9.000000E+99

> <Gold.Protein.RotatedTorsions>
[ 6907 6896 6895 6894 ] final   22.65 input  -60.11 | X-H torsion
[ 7974 7965 7964 7962 ] final -133.13 input  175.53 | X-H torsion
[ 8008 7997 7996 7995 ] final  -59.77 input   59.86 | X-H torsion
[ 10167 10162 10161 10158 ] final  159.08 input  -65.29 | X-H torsion
[ 10718 10713 10712 10709 ] final   94.48 input   66.30 | X-H torsion
[ 10763 10752 10751 10750 ] final  -16.82 input  -60.55 | X-H torsion
[ 11005 11000 10999 10996 ] final    9.34 input  -57.11 | X-H torsion

> <Gold.Protein.ActiveResidues>
 VAL166  LYS551  ARG553  GLY616  TRP617  ASP618  TYR619  PRO620  LYS621  CYS622 
 ASP623  PHE694  ASN695  SER759  ASP760  ASP761  ALA762  ILE779  LEU786  VAL792 
 PHE793  MET794  SER795  GLU796  ALA797  LYS798  CYS799  TRP800  GLU811  SER814 

> <Gold.Protein.RotatedAtoms>
  151.9304  135.0259  160.0528 H   0  0  0  0  0  0  0  0  0  0  0  0  # atno 6907 bound_to 6896
  152.2123  133.4916  159.5125 H   0  0  0  0  0  0  0  0  0  0  0  0  # atno 6908 bound_to 6896
  150.6979  134.1367  159.4132 H   0  0  0  0  0  0  0  0  0  0  0  0  # atno 6909 bound_to 6896
  144.9221  140.7027  143.4959 H   0  0  0  0  0  0  0  0  0  0  0  0  # atno 7974 bound_to 7965
  154.4367  140.1054  156.6168 H   0  0  0  0  0  0  0  0  0  0  0  0  # atno 8008 bound_to 7997
  155.5750  140.3490  155.4506 H   0  0  0  0  0  0  0  0  0  0  0  0  # atno 8009 bound_to 7997
  156.0361  140.1271  157.0195 H   0  0  0  0  0  0  0  0  0  0  0  0  # atno 8010 bound_to 7997
  139.4830  144.4763  151.8506 H   0  0  0  0  0  0  0  0  0  0  0  0  # atno 10167 bound_to 10162
  157.6947  131.0514  150.4193 H   0  0  0  0  0  0  0  0  0  0  0  0  # atno 10718 bound_to 10713
  153.5644  135.7009  153.5532 H   0  0  0  0  0  0  0  0  0  0  0  0  # atno 10763 bound_to 10752
  153.3400  135.4023  155.1564 H   0  0  0  0  0  0  0  0  0  0  0  0  # atno 10764 bound_to 10752
  154.8643  135.3740  154.5163 H   0  0  0  0  0  0  0  0  0  0  0  0  # atno 10765 bound_to 10752
  140.5268  134.0505  155.7861 H   0  0  0  0  0  0  0  0  0  0  0  0  # atno 11005 bound_to 11000
  145.3279  139.1768  143.4553 LP  0  0  0  0  0  0  0  0  0  0  0  0  # atno 17320 bound_to 7965
  146.3209  140.3305  142.8640 LP  0  0  0  0  0  0  0  0  0  0  0  0  # atno 17321 bound_to 7965
  140.4236  144.2210  150.5887 LP  0  0  0  0  0  0  0  0  0  0  0  0  # atno 17342 bound_to 10162
  140.4849  143.2366  151.8902 LP  0  0  0  0  0  0  0  0  0  0  0  0  # atno 17343 bound_to 10162
  156.4570  130.4024  149.6600 LP  0  0  0  0  0  0  0  0  0  0  0  0  # atno 17370 bound_to 10713
  156.3729  130.7539  151.2524 LP  0  0  0  0  0  0  0  0  0  0  0  0  # atno 17371 bound_to 10713
  141.1303  133.9313  157.2549 LP  0  0  0  0  0  0  0  0  0  0  0  0  # atno 17394 bound_to 11000
  139.9575  135.0162  156.9170 LP  0  0  0  0  0  0  0  0  0  0  0  0  # atno 17395 bound_to 11000

$$$$
