AV-unprocessed.smi:101|AV-procd|sdf|921|dock6
  -GOLD-   2262017423D 1   1.00000     0.00000
 Structure written by MMmdl.
 44 46  0  0  0  0  0  0  0  0  1 V2000
  147.6975  135.5831  158.6381 C   0  0  0  0  0  0  0  0  0  0  0  0
  147.1036  136.2098  157.3871 C   0  0  0  0  0  0  0  0  0  0  0  0
  147.8134  137.0439  156.5845 C   0  0  0  0  0  0  0  0  0  0  0  0
  147.2983  137.6316  155.4346 N   0  0  0  0  0  0  0  0  0  0  0  0
  148.1192  138.5498  154.5449 C   0  0  2  0  0  0  0  0  0  0  0  0
  149.4283  138.6234  155.0268 O   0  0  0  0  0  0  0  0  0  0  0  0
  149.6428  139.8860  155.6469 C   0  0  1  0  0  0  0  0  0  0  0  0
  151.1401  140.2002  155.7543 C   0  0  0  0  0  0  0  0  0  0  0  0
  151.3057  141.2192  156.7260 O   0  0  0  0  0  0  0  0  0  0  0  0
  152.1128  141.0263  157.7848 C   0  0  0  0  0  0  0  0  0  0  0  0
  152.7790  140.0040  157.9591 O   0  0  0  0  0  0  0  0  0  0  0  0
  152.1116  142.1825  158.7273 C   0  0  0  0  0  0  0  0  0  0  0  0
  152.4773  141.9764  160.0781 C   0  0  0  0  0  0  0  0  0  0  0  0
  152.4815  143.0486  160.9915 C   0  0  0  0  0  0  0  0  0  0  0  0
  152.1212  144.3402  160.5650 C   0  0  0  0  0  0  0  0  0  0  0  0
  151.7571  144.5587  159.2236 C   0  0  0  0  0  0  0  0  0  0  0  0
  151.7513  143.4878  158.3087 C   0  0  0  0  0  0  0  0  0  0  0  0
  148.8094  140.8374  154.7858 C   0  0  1  0  0  0  0  0  0  0  0  0
  149.4936  141.1725  153.5921 O   0  0  0  0  0  0  0  0  0  0  0  0
  147.5722  140.0005  154.4820 C   0  0  2  0  0  0  0  0  0  0  0  0
  146.5690  140.2785  155.4445 O   0  0  0  0  0  0  0  0  0  0  0  0
  145.9673  137.3568  155.0589 C   0  0  0  0  0  0  0  0  0  0  0  0
  145.4459  137.8453  154.0570 O   0  0  0  0  0  0  0  0  0  0  0  0
  145.2382  136.5018  155.8826 N   0  0  0  0  0  0  0  0  0  0  0  0
  145.7140  135.8929  157.0460 C   0  0  0  0  0  0  0  0  0  0  0  0
  144.9719  135.1553  157.6926 O   0  0  0  0  0  0  0  0  0  0  0  0
  144.2843  136.3054  155.6166 H   0  0  0  0  0  0  0  0  0  0  0  0
  148.7383  135.8747  158.7832 H   0  0  0  0  0  0  0  0  0  0  0  0
  147.6622  134.4950  158.5737 H   0  0  0  0  0  0  0  0  0  0  0  0
  147.1372  135.8924  159.5211 H   0  0  0  0  0  0  0  0  0  0  0  0
  148.8336  137.2482  156.8706 H   0  0  0  0  0  0  0  0  0  0  0  0
  148.1570  138.0594  153.5702 H   0  0  0  0  0  0  0  0  0  0  0  0
  149.2060  139.8692  156.6468 H   0  0  0  0  0  0  0  0  0  0  0  0
  151.7048  139.3070  156.0257 H   0  0  0  0  0  0  0  0  0  0  0  0
  151.5193  140.5586  154.7966 H   0  0  0  0  0  0  0  0  0  0  0  0
  152.7565  140.9933  160.4293 H   0  0  0  0  0  0  0  0  0  0  0  0
  152.7606  142.8787  162.0211 H   0  0  0  0  0  0  0  0  0  0  0  0
  152.1235  145.1618  161.2660 H   0  0  0  0  0  0  0  0  0  0  0  0
  151.4810  145.5497  158.8946 H   0  0  0  0  0  0  0  0  0  0  0  0
  151.4655  143.6910  157.2868 H   0  0  0  0  0  0  0  0  0  0  0  0
  148.5740  141.7639  155.3117 H   0  0  0  0  0  0  0  0  0  0  0  0
  149.2959  140.5205  152.9373 H   0  0  0  0  0  0  0  0  0  0  0  0
  147.1646  140.2010  153.4901 H   0  0  0  0  0  0  0  0  0  0  0  0
  145.7533  139.9130  155.1368 H   0  0  0  0  0  0  0  0  0  0  0  0
  1  2  1  0  0  0  0
  1 28  1  0  0  0  0
  1 29  1  0  0  0  0
  1 30  1  0  0  0  0
  2 25  1  0  0  0  0
  2  3  2  0  0  0  0
  3  4  1  0  0  0  0
  3 31  1  0  0  0  0
  4  5  1  0  0  0  0
  4 22  1  0  0  0  0
  5 20  1  0  0  0  0
  5  6  1  0  0  0  0
  5 32  1  0  0  0  0
  6  7  1  0  0  0  0
  7  8  1  0  0  0  0
  7 18  1  0  0  0  0
  7 33  1  0  0  0  0
  8  9  1  0  0  0  0
  8 34  1  0  0  0  0
  8 35  1  0  0  0  0
  9 10  1  0  0  0  0
 10 11  2  0  0  0  0
 10 12  1  0  0  0  0
 12 17  1  0  0  0  0
 12 13  2  0  0  0  0
 13 14  1  0  0  0  0
 13 36  1  0  0  0  0
 14 15  2  0  0  0  0
 14 37  1  0  0  0  0
 15 16  1  0  0  0  0
 15 38  1  0  0  0  0
 16 17  2  0  0  0  0
 16 39  1  0  0  0  0
 17 40  1  0  0  0  0
 18 19  1  0  0  0  0
 18 20  1  0  0  0  0
 18 41  1  0  0  0  0
 19 42  1  0  0  0  0
 20 21  1  0  0  0  0
 20 43  1  0  0  0  0
 21 44  1  0  0  0  0
 22 23  2  0  0  0  0
 22 24  1  0  0  0  0
 24 27  1  0  0  0  0
 24 25  1  0  0  0  0
 25 26  2  0  0  0  0
M  END
> <s_m_source_file>
AV-unprocessed.smi

> <i_m_source_file_index>
101

> <i_lp_mmshare_version>
43012

> <i_f3d_flags>
0

> <s_epik_input>
Tz1jMVtuSF1jKD1PKW4oW2NIXWMxW0NIM10pW0NAQEhdMk9bQ0BIXShbQ0BASF0oW09IXSlbQ0BIXTJbT0hdKVtDSDJdT0MoPU8pYzNbY0hdW2NIXVtjSF1bY0hdW2NIXTM=

> <s_epik_cmdline>
J2VwaWtfcHl0aG9uJywgJy1waCcsICc3LjAnLCAnLXRuJywgJzgnLCAnLW1hJywgJzIwMCcsICctbWV0YWxfYmluZGluZycsICctaW1hZScsICc8aW5maWxlLm1hZT4nLCAnLW9tYWUnLCAnPG91dGZpbGUubWFlPic=

> <r_lp_tautomer_probability>
0.999537

> <r_epik_Ionization_Penalty>
0.00263537

> <r_epik_Ionization_Penalty_Charging>
0.00263428

> <r_epik_Ionization_Penalty_Neutral>
1.09111e-06

> <r_epik_State_Penalty>
0.00183335

> <r_epik_Charging_Adjusted_Penalty>
0.00446763

> <i_epik_Tot_Q>
0

> <i_epik_Tot_abs_Q>
0

> <r_epik_Metal_State_Penalty>
1.00528

> <b_epik_Metal_Only>
0

> <s_epik_Chemistry_Notes>
This compound has an ester and may undergo hydrolysis at high or low pH. This compound contains an acetal/aminal-like group ( X-CH(R)-Y where X, Y are N, S, or O) that may be acid/base labile, releasing an aldehyde.

> <s_lp_Force_Field>
OPLS_2005

> <r_lp_Energy>
37.3052

> <b_lp_Chiralities_Consistent>
1

> <s_lp_Variant>
AV-unprocessed.smi:101-9

> <Gold.Version>
5.8.1

> <Gold.Id.Protein>
6NUR|6NUR_protein|mol2

> <Gold.PLP.Fitness>
43.8289

> <Gold.PLP.PLP>
-36.6098

> <Gold.PLP.part.hbond>
-4.0000

> <Gold.PLP.part.metal>
0.0000

> <Gold.PLP.part.buried>
-4.4313

> <Gold.PLP.part.nonpolar>
-27.1072

> <Gold.PLP.part.repulsive>
0.2495

> <Gold.PLP.ligand.clash>
0.0000

> <Gold.PLP.ligand.torsion>
0.8210

> <Gold.PLP.Chemscore.Hbond>
2.9064

> <Gold.PLP.Chemscore.CHOScore>
0.0000

> <Gold.PLP.Chemscore.Metal>
0.0000

> <Gold.Chemscore.Hbonds>
donor molecule, donor type, donor heavy atom, donor atom, acceptor molecule, acceptor atom, score
      L1  H    19    42       P1  7957  0.86
      P1  H  7989  7998       L1    19  0.12
      P1  H  7997  8010       L1    11  1.00
      P1  H  8011  8017       L1    19  0.59

> <Gold.PLP.Chemscore.Internal.Correction>
0.1420

> <Gold.Rescore>
     Score         DG    S(hbond)    S(metal)    S(lipo)     H(rot)  DE(clash)    DE(int)     intcor
     14.16     -15.89       2.25        0.00      97.35       3.32       0.85       0.89       ----

> <Gold.Chemscore.Fitness>
14.1562

> <Gold.Chemscore.DG>
-15.8934

> <Gold.Chemscore.ZeroCoef>
-5.4800

> <Gold.Chemscore.Hbond>
2.2503

> <Gold.Chemscore.Metal>
0.0000

> <Gold.Chemscore.Lipo>
97.3451

> <Gold.Chemscore.Internal_Hbond>
0.0000

> <Gold.Chemscore.DEClash>
0.8509

> <Gold.Chemscore.DEInternal>
0.8863

> <Gold.Chemscore.Rot>
3.3172

> <Gold.Chemscore.Internal.Correction>
   9.000000E+99

> <Gold.Chemscore.Hbonds>
donor molecule, donor type, donor heavy atom, donor atom, acceptor molecule, acceptor atom, score
      L1  H    19    42       P1  7957  0.85
      P1  H  7989  7998       L1    19  0.01
      P1  H  7997  8010       L1    11  0.73
      P1  H  8011  8017       L1    19  0.04

> <Gold.Chemscore.Hbond.Weighted>
-7.5161

> <Gold.Chemscore.Metal.Weighted>
-0.0000

> <Gold.Chemscore.Lipo.Weighted>
-11.3894

> <Gold.Chemscore.Internal_Hbond.Weighted>
0.0000

> <Gold.Chemscore.DEClash.Weighted>
0.8509

> <Gold.Chemscore.DEInternal.Weighted>
0.8863

> <Gold.Chemscore.Rot.Weighted>
8.4920

> <Gold.Chemscore.Internal.Correction.Weighted>
   9.000000E+99

> <Gold.Protein.RotatedTorsions>
[ 6907 6896 6895 6894 ] final  -44.55 input  -60.11 | X-H torsion
[ 7974 7965 7964 7962 ] final   65.66 input  175.53 | X-H torsion
[ 8008 7997 7996 7995 ] final   43.93 input   59.86 | X-H torsion
[ 10167 10162 10161 10158 ] final  132.86 input  -65.29 | X-H torsion
[ 10718 10713 10712 10709 ] final  -28.09 input   66.30 | X-H torsion
[ 10763 10752 10751 10750 ] final   72.71 input  -60.55 | X-H torsion
[ 11005 11000 10999 10996 ] final  -19.14 input  -57.11 | X-H torsion

> <Gold.Protein.ActiveResidues>
 VAL166  LYS551  ARG553  GLY616  TRP617  ASP618  TYR619  PRO620  LYS621  CYS622 
 ASP623  PHE694  ASN695  SER759  ASP760  ASP761  ALA762  ILE779  LEU786  VAL792 
 PHE793  MET794  SER795  GLU796  ALA797  LYS798  CYS799  TRP800  GLU811  SER814 

> <Gold.Protein.RotatedAtoms>
  150.9316  134.8731  159.7554 H   0  0  0  0  0  0  0  0  0  0  0  0  # atno 6907 bound_to 6896
  152.5040  134.4070  159.9446 H   0  0  0  0  0  0  0  0  0  0  0  0  # atno 6908 bound_to 6896
  151.4097  133.3691  159.2777 H   0  0  0  0  0  0  0  0  0  0  0  0  # atno 6909 bound_to 6896
  145.8358  139.3166  143.0960 H   0  0  0  0  0  0  0  0  0  0  0  0  # atno 7974 bound_to 7965
  155.3110  140.3391  155.4244 H   0  0  0  0  0  0  0  0  0  0  0  0  # atno 8008 bound_to 7997
  156.1956  140.1713  156.8043 H   0  0  0  0  0  0  0  0  0  0  0  0  # atno 8009 bound_to 7997
  154.5494  140.0708  156.8627 H   0  0  0  0  0  0  0  0  0  0  0  0  # atno 8010 bound_to 7997
  139.5321  144.6642  151.4913 H   0  0  0  0  0  0  0  0  0  0  0  0  # atno 10167 bound_to 10162
  156.4297  130.4442  149.7126 H   0  0  0  0  0  0  0  0  0  0  0  0  # atno 10718 bound_to 10713
  153.0476  135.5090  154.7785 H   0  0  0  0  0  0  0  0  0  0  0  0  # atno 10763 bound_to 10752
  154.6673  135.2947  154.9791 H   0  0  0  0  0  0  0  0  0  0  0  0  # atno 10764 bound_to 10752
  154.0621  135.6689  153.4866 H   0  0  0  0  0  0  0  0  0  0  0  0  # atno 10765 bound_to 10752
  140.8338  133.7977  155.9786 H   0  0  0  0  0  0  0  0  0  0  0  0  # atno 11005 bound_to 11000
  145.9520  140.8901  143.0254 LP  0  0  0  0  0  0  0  0  0  0  0  0  # atno 17320 bound_to 7965
  144.6736  140.1693  143.7415 LP  0  0  0  0  0  0  0  0  0  0  0  0  # atno 17321 bound_to 7965
  140.6506  143.8704  150.6782 LP  0  0  0  0  0  0  0  0  0  0  0  0  # atno 17342 bound_to 10162
  140.2068  143.3915  152.1749 LP  0  0  0  0  0  0  0  0  0  0  0  0  # atno 17343 bound_to 10162
  156.4034  130.7686  151.2695 LP  0  0  0  0  0  0  0  0  0  0  0  0  # atno 17370 bound_to 10713
  157.7508  131.0233  150.3828 LP  0  0  0  0  0  0  0  0  0  0  0  0  # atno 17371 bound_to 10713
  140.8970  134.2426  157.5063 LP  0  0  0  0  0  0  0  0  0  0  0  0  # atno 17394 bound_to 11000
  139.8704  134.9688  156.4645 LP  0  0  0  0  0  0  0  0  0  0  0  0  # atno 17395 bound_to 11000

$$$$
