#       Name:                AV-unprocessed.smi:361
#       Creating user name   scv26
#       Creation time:       Thu Mar 26 22:35:56 2020


#       File generated by GOLD software.
#

@<TRIPOS>MOLECULE
AV-unprocessed.smi:361
    40    41     1
SMALL
NO_CHARGES


@<TRIPOS>ATOM
      1 ****        -5.7605   0.8368   2.9192 C.3            1 S1                 0.0000
      2 ****        -5.0760   0.1989   1.6997 C.3            1 S1                 0.0000
      3 ****        -3.5510   0.3545   1.6929 C.2            1 S1                 0.0000
      4 ****        -2.9738   0.8916   2.6393 O.2            1 S1                 0.0000
      5 ****        -2.9333  -0.1340   0.6011 N.am           1 S1                 0.0000
      6 ****        -1.5448  -0.1381   0.3013 C.ar           1 S1                 0.0000
      7 ****        -1.1996  -0.7326  -0.9306 C.ar           1 S1                 0.0000
      8 ****         0.1518  -0.7852  -1.3217 C.ar           1 S1                 0.0000
      9 ****         1.1452  -0.2378  -0.4752 C.ar           1 S1                 0.0000
     10 ****         2.5194  -0.2552  -0.7987 N.3            1 S1                 0.0000
     11 ****         2.9555  -1.0787  -1.9226 C.3            1 S1                 0.0000
     12 ****         4.4875  -1.2166  -1.9226 C.3            1 S1                 0.0000
     13 ****         5.0846   0.0756  -1.9250 O.3            1 S1                 0.0000
     14 ****         4.7362   0.8210  -0.7629 C.3            1 S1                 0.0000
     15 ****         3.2122   1.0283  -0.7113 C.3            1 S1                 0.0000
     16 ****         0.6978   0.3313   0.7394 C.ar           1 S1                 0.0000
     17 ****        -0.5966   0.3818   1.1165 N.ar           1 S1                 0.0000
     18 ****        -6.8405   0.6990   2.8696 H              1 S1                 0.0000
     19 ****        -5.5683   1.9091   2.9686 H              1 S1                 0.0000
     20 ****        -5.4148   0.3877   3.8510 H              1 S1                 0.0000
     21 ****        -5.3163  -0.8641   1.6628 H              1 S1                 0.0000
     22 ****        -5.4760   0.6431   0.7875 H              1 S1                 0.0000
     23 ****        -3.5295  -0.5521  -0.0979 H              1 S1                 0.0000
     24 ****        -1.9606  -1.1460  -1.5765 H              1 S1                 0.0000
     25 ****         0.3980  -1.2378  -2.2702 H              1 S1                 0.0000
     26 ****         2.5057  -2.0703  -1.8615 H              1 S1                 0.0000
     27 ****         2.6237  -0.6225  -2.8563 H              1 S1                 0.0000
     28 ****         4.8269  -1.7852  -1.0552 H              1 S1                 0.0000
     29 ****         4.8155  -1.7611  -2.8081 H              1 S1                 0.0000
     30 ****         5.0887   0.3056   0.1320 H              1 S1                 0.0000
     31 ****         5.2441   1.7850  -0.7944 H              1 S1                 0.0000
     32 ****         2.8938   1.6565  -1.5443 H              1 S1                 0.0000
     33 ****         2.9597   1.5634   0.2029 H              1 S1                 0.0000
     34 ****         1.3956   0.7472   1.4507 H              1 S1                 0.0000
     35 ****        -3.5004   1.2298   3.4193 LP             1 S1                 0.0000
     36 ****        -1.9787   0.9895   2.6276 LP             1 S1                 0.0000
     37 ****         2.8454  -0.7864  -0.0167 LP             1 S1                 0.0000
     38 ****         4.7743   0.5741  -2.7344 LP             1 S1                 0.0000
     39 ****         6.0788  -0.0272  -1.9576 LP             1 S1                 0.0000
     40 ****        -0.8531   0.7987   1.9886 LP             1 S1                 0.0000
@<TRIPOS>BOND
    1    1    2 1     
    2    1   18 1     
    3    1   19 1     
    4    1   20 1     
    5    2    3 1     
    6    2   21 1     
    7    2   22 1     
    8    3    4 2     
    9    3    5 am    
   10    5    6 1     
   11    5   23 1     
   12    6   17 ar    
   13    6    7 ar    
   14    7    8 ar    
   15    7   24 1     
   16    8    9 ar    
   17    8   25 1     
   18    9   10 1     
   19    9   16 ar    
   20   10   15 1     
   21   10   11 1     
   22   11   12 1     
   23   11   26 1     
   24   11   27 1     
   25   12   13 1     
   26   12   28 1     
   27   12   29 1     
   28   13   14 1     
   29   14   15 1     
   30   14   30 1     
   31   14   31 1     
   32   15   32 1     
   33   15   33 1     
   34   16   17 ar    
   35   16   34 1     
   36    4   35 1     
   37    4   36 1     
   38   10   37 1     
   39   13   38 1     
   40   13   39 1     
   41   17   40 1     
@<TRIPOS>SUBSTRUCTURE
      1 S1             1
@<TRIPOS>SET
LONE_PAIRS      STATIC     ATOMS    <user>   **** ""
6 35 36 37 38 39 40
DONOR_HYDROGENS      STATIC     ATOMS    <user>   **** ""
1 23
ATOM$BLUE        STATIC     ATOMS    COLORGROUP SYSTEM
6 35 36 37 38 39 40
ATOM$RED        STATIC     ATOMS    COLORGROUP SYSTEM
1 23
