AV-unprocessed.smi:820|AV-procd|sdf|3836|dock10
  -GOLD-   22720 1283D 1   1.00000     0.00000
 Structure written by MMmdl.
 32 33  0  0  0  0  0  0  0  0  1 V2000
  153.3341  141.9191  161.9859 C   0  0  0  0  0  0  0  0  0  0  0  0
  153.7740  141.5754  160.5601 C   0  0  0  0  0  0  0  0  0  0  0  0
  153.0214  142.6941  159.3454 S   0  0  0  0  0  0  0  0  0  0  0  0
  151.8887  141.7551  158.3643 C   0  0  0  0  0  0  0  0  0  0  0  0
  151.6952  140.3694  158.5449 C   0  0  0  0  0  0  0  0  0  0  0  0
  150.7702  139.7124  157.7106 C   0  0  0  0  0  0  0  0  0  0  0  0
  150.0699  140.4644  156.7360 C   0  0  0  0  0  0  0  0  0  0  0  0
  149.1293  139.9162  155.8223 N   0  0  0  0  0  0  0  0  0  0  0  0
  148.8988  140.2519  154.5382 C   0  0  0  0  0  0  0  0  0  0  0  0
  149.5268  141.1198  153.9306 O   0  0  0  0  0  0  0  0  0  0  0  0
  147.8327  139.4420  153.9604 C   0  0  0  0  0  0  0  0  0  0  0  0
  147.3822  139.7241  152.7159 C   0  0  0  0  0  0  0  0  0  0  0  0
  146.4125  138.9964  152.0728 O   0  0  0  0  0  0  0  0  0  0  0  0
  146.0860  137.7611  152.6982 C   0  0  0  0  0  0  0  0  0  0  0  0
  146.0282  137.9334  154.2228 C   0  0  0  0  0  0  0  0  0  0  0  0
  147.2702  138.4311  154.7093 O   0  0  0  0  0  0  0  0  0  0  0  0
  150.3556  141.8428  156.6383 C   0  0  0  0  0  0  0  0  0  0  0  0
  151.2392  142.4832  157.4329 N   0  0  0  0  0  0  0  0  0  0  0  0
  153.7940  141.2443  162.7083 H   0  0  0  0  0  0  0  0  0  0  0  0
  152.2524  141.8363  162.0937 H   0  0  0  0  0  0  0  0  0  0  0  0
  153.6206  142.9372  162.2510 H   0  0  0  0  0  0  0  0  0  0  0  0
  154.8593  141.6433  160.4803 H   0  0  0  0  0  0  0  0  0  0  0  0
  153.4919  140.5492  160.3230 H   0  0  0  0  0  0  0  0  0  0  0  0
  152.2346  139.8091  159.2926 H   0  0  0  0  0  0  0  0  0  0  0  0
  150.6301  138.6492  157.8265 H   0  0  0  0  0  0  0  0  0  0  0  0
  148.5957  139.1317  156.1687 H   0  0  0  0  0  0  0  0  0  0  0  0
  147.7623  140.5174  152.0879 H   0  0  0  0  0  0  0  0  0  0  0  0
  145.1272  137.4096  152.3167 H   0  0  0  0  0  0  0  0  0  0  0  0
  146.8330  137.0134  152.4281 H   0  0  0  0  0  0  0  0  0  0  0  0
  145.2303  138.6240  154.4998 H   0  0  0  0  0  0  0  0  0  0  0  0
  145.8115  136.9811  154.7069 H   0  0  0  0  0  0  0  0  0  0  0  0
  149.8567  142.4547  155.9008 H   0  0  0  0  0  0  0  0  0  0  0  0
  1  2  1  0  0  0  0
  1 19  1  0  0  0  0
  1 20  1  0  0  0  0
  1 21  1  0  0  0  0
  2  3  1  0  0  0  0
  2 22  1  0  0  0  0
  2 23  1  0  0  0  0
  3  4  1  0  0  0  0
  4 18  1  0  0  0  0
  4  5  2  0  0  0  0
  5  6  1  0  0  0  0
  5 24  1  0  0  0  0
  6  7  2  0  0  0  0
  6 25  1  0  0  0  0
  7  8  1  0  0  0  0
  7 17  1  0  0  0  0
  8  9  1  0  0  0  0
  8 26  1  0  0  0  0
  9 10  2  0  0  0  0
  9 11  1  0  0  0  0
 11 16  1  0  0  0  0
 11 12  2  0  0  0  0
 12 13  1  0  0  0  0
 12 27  1  0  0  0  0
 13 14  1  0  0  0  0
 14 15  1  0  0  0  0
 14 28  1  0  0  0  0
 14 29  1  0  0  0  0
 15 16  1  0  0  0  0
 15 30  1  0  0  0  0
 15 31  1  0  0  0  0
 17 18  2  0  0  0  0
 17 32  1  0  0  0  0
M  END
> <s_m_source_file>
AV-unprocessed.smi

> <i_m_source_file_index>
820

> <i_lp_mmshare_version>
43012

> <i_f3d_flags>
0

> <s_epik_input>
W0NIM11bQ0gyXVNjMVtjSF1bY0hdYyhbY0hdbjEpW05IXUMoPU8pQzI9W0NIXU9bQ0gyXVtDSDJdTzI=

> <s_epik_cmdline>
J2VwaWtfcHl0aG9uJywgJy1waCcsICc3LjAnLCAnLXRuJywgJzgnLCAnLW1hJywgJzIwMCcsICctbWV0YWxfYmluZGluZycsICctaW1hZScsICc8aW5maWxlLm1hZT4nLCAnLW9tYWUnLCAnPG91dGZpbGUubWFlPic=

> <r_lp_tautomer_probability>
1

> <r_epik_Ionization_Penalty>
8.32294e-05

> <r_epik_Ionization_Penalty_Charging>
0

> <r_epik_Ionization_Penalty_Neutral>
8.32294e-05

> <r_epik_State_Penalty>
-0

> <r_epik_Charging_Adjusted_Penalty>
0

> <i_epik_Tot_Q>
0

> <i_epik_Tot_abs_Q>
0

> <r_epik_Metal_State_Penalty>
0.0397586

> <b_epik_Metal_Only>
0

> <s_lp_Force_Field>
OPLS_2005

> <r_lp_Energy>
6.19244

> <b_lp_Chiralities_Consistent>
1

> <s_lp_Variant>
AV-unprocessed.smi:820-1

> <Gold.Version>
5.8.1

> <Gold.Id.Protein>
6NUR|6NUR_protein|mol2

> <Gold.PLP.Fitness>
36.2930

> <Gold.PLP.PLP>
-29.0562

> <Gold.PLP.part.hbond>
-2.0000

> <Gold.PLP.part.metal>
0.0000

> <Gold.PLP.part.buried>
-1.6019

> <Gold.PLP.part.nonpolar>
-26.8561

> <Gold.PLP.part.repulsive>
1.6104

> <Gold.PLP.ligand.clash>
0.0000

> <Gold.PLP.ligand.torsion>
0.6267

> <Gold.PLP.Chemscore.Hbond>
1.1105

> <Gold.PLP.Chemscore.CHOScore>
1.7183

> <Gold.PLP.Chemscore.Metal>
0.0000

> <Gold.Chemscore.Hbonds>
donor molecule, donor type, donor heavy atom, donor atom, acceptor molecule, acceptor atom, score
      P1  H  7989  7998       L1    10  0.28
      P1  H  8011  8017       L1    10  0.77
      L1  C    12    27       P1  7957  0.68
      L1  C    17    32       P1  8028  1.00

> <Gold.PLP.Chemscore.Internal.Correction>
0.0038

> <Gold.Rescore>
     Score         DG    S(hbond)    S(metal)    S(lipo)     H(rot)  DE(clash)    DE(int)     intcor
     12.43     -15.86       1.01        0.00      85.02       1.14       1.62       1.82       ----

> <Gold.Chemscore.Fitness>
12.4267

> <Gold.Chemscore.DG>
-15.8618

> <Gold.Chemscore.ZeroCoef>
-5.4800

> <Gold.Chemscore.Hbond>
1.0061

> <Gold.Chemscore.Metal>
0.0000

> <Gold.Chemscore.Lipo>
85.0203

> <Gold.Chemscore.Internal_Hbond>
0.0000

> <Gold.Chemscore.DEClash>
1.6183

> <Gold.Chemscore.DEInternal>
1.8168

> <Gold.Chemscore.Rot>
1.1429

> <Gold.Chemscore.Internal.Correction>
   9.000000E+99

> <Gold.Chemscore.Hbonds>
donor molecule, donor type, donor heavy atom, donor atom, acceptor molecule, acceptor atom, score
      P1  H  7989  7998       L1    10  0.27
      P1  H  8011  8017       L1    10  0.74

> <Gold.Chemscore.Hbond.Weighted>
-3.3603

> <Gold.Chemscore.Metal.Weighted>
-0.0000

> <Gold.Chemscore.Lipo.Weighted>
-9.9474

> <Gold.Chemscore.Internal_Hbond.Weighted>
0.0000

> <Gold.Chemscore.DEClash.Weighted>
1.6183

> <Gold.Chemscore.DEInternal.Weighted>
1.8168

> <Gold.Chemscore.Rot.Weighted>
2.9259

> <Gold.Chemscore.Internal.Correction.Weighted>
   9.000000E+99

> <Gold.Protein.RotatedTorsions>
[ 6907 6896 6895 6894 ] final   30.69 input  -60.11 | X-H torsion
[ 7974 7965 7964 7962 ] final    6.04 input  175.53 | X-H torsion
[ 8008 7997 7996 7995 ] final -161.07 input   59.86 | X-H torsion
[ 10167 10162 10161 10158 ] final  -25.37 input  -65.29 | X-H torsion
[ 10718 10713 10712 10709 ] final  -14.82 input   66.30 | X-H torsion
[ 10763 10752 10751 10750 ] final  108.93 input  -60.55 | X-H torsion
[ 11005 11000 10999 10996 ] final -117.32 input  -57.11 | X-H torsion

> <Gold.Protein.ActiveResidues>
 VAL166  LYS551  ARG553  GLY616  TRP617  ASP618  TYR619  PRO620  LYS621  CYS622 
 ASP623  PHE694  ASN695  SER759  ASP760  ASP761  ALA762  ILE779  LEU786  VAL792 
 PHE793  MET794  SER795  GLU796  ALA797  LYS798  CYS799  TRP800  GLU811  SER814 

> <Gold.Protein.RotatedAtoms>
  152.0496  134.9662  160.0574 H   0  0  0  0  0  0  0  0  0  0  0  0  # atno 6907 bound_to 6896
  152.1068  133.4274  159.4621 H   0  0  0  0  0  0  0  0  0  0  0  0  # atno 6908 bound_to 6896
  150.6841  134.2614  159.4594 H   0  0  0  0  0  0  0  0  0  0  0  0  # atno 6909 bound_to 6896
  146.2437  140.0293  142.8391 H   0  0  0  0  0  0  0  0  0  0  0  0  # atno 7974 bound_to 7965
  155.7868  140.0872  157.2030 H   0  0  0  0  0  0  0  0  0  0  0  0  # atno 8008 bound_to 7997
  154.3987  140.1497  156.3174 H   0  0  0  0  0  0  0  0  0  0  0  0  # atno 8009 bound_to 7997
  155.8599  140.3430  155.5752 H   0  0  0  0  0  0  0  0  0  0  0  0  # atno 8010 bound_to 7997
  140.7286  143.4271  151.0860 H   0  0  0  0  0  0  0  0  0  0  0  0  # atno 10167 bound_to 10162
  156.6105  130.4848  149.6203 H   0  0  0  0  0  0  0  0  0  0  0  0  # atno 10718 bound_to 10713
  153.4276  135.3796  155.2150 H   0  0  0  0  0  0  0  0  0  0  0  0  # atno 10763 bound_to 10752
  154.8748  135.3832  154.4308 H   0  0  0  0  0  0  0  0  0  0  0  0  # atno 10764 bound_to 10752
  153.4836  135.7088  153.5987 H   0  0  0  0  0  0  0  0  0  0  0  0  # atno 10765 bound_to 10752
  141.0363  133.9905  157.3066 H   0  0  0  0  0  0  0  0  0  0  0  0  # atno 11005 bound_to 11000
  145.1170  140.9439  143.4623 LP  0  0  0  0  0  0  0  0  0  0  0  0  # atno 17320 bound_to 7965
  145.0519  139.3174  143.5924 LP  0  0  0  0  0  0  0  0  0  0  0  0  # atno 17321 bound_to 7965
  139.7923  143.8201  152.3153 LP  0  0  0  0  0  0  0  0  0  0  0  0  # atno 17342 bound_to 10162
  139.8189  144.7304  150.9599 LP  0  0  0  0  0  0  0  0  0  0  0  0  # atno 17343 bound_to 10162
  156.2394  130.6842  151.1541 LP  0  0  0  0  0  0  0  0  0  0  0  0  # atno 17370 bound_to 10713
  157.7255  131.0652  150.5948 LP  0  0  0  0  0  0  0  0  0  0  0  0  # atno 17371 bound_to 10713
  139.9243  135.0201  156.8177 LP  0  0  0  0  0  0  0  0  0  0  0  0  # atno 17394 bound_to 11000
  140.6317  133.9900  155.7665 LP  0  0  0  0  0  0  0  0  0  0  0  0  # atno 17395 bound_to 11000

$$$$
