AV-unprocessed.smi:155|AV-procd|sdf|1272|dock2
  -GOLD-   2262018533D 1   1.00000     0.00000
 Structure written by MMmdl.
 63 66  0  0  0  0  0  0  0  0  2 V2000
  145.0679  130.9039  151.4101 C   0  0  0  0  0  0  0  0  0  0  0  0
  145.2453  132.1808  150.7314 N   0  0  0  0  0  0  0  0  0  0  0  0
  144.2204  132.2954  149.6991 C   0  0  0  0  0  0  0  0  0  0  0  0
  145.1469  133.2615  151.7131 C   0  0  0  0  0  0  0  0  0  0  0  0
  146.5155  133.9106  152.0068 C   0  0  0  0  0  0  0  0  0  0  0  0
  146.3657  135.2727  152.5780 N   0  3  1  0  0  0  0  0  0  0  0  0
  145.4764  136.1329  151.7553 C   0  0  0  0  0  0  0  0  0  0  0  0
  145.1499  137.5060  152.3759 C   0  0  0  0  0  0  0  0  0  0  0  0
  146.3265  138.1859  153.0930 C   0  0  0  0  0  0  0  0  0  0  0  0
  146.4505  137.7257  154.4749 N   0  0  0  0  0  0  0  0  0  0  0  0
  147.0466  138.6207  155.2904 C   0  0  0  0  0  0  0  0  0  0  0  0
  146.3382  139.0612  156.3585 N   0  0  0  0  0  0  0  0  0  0  0  0
  146.8832  139.9465  157.1994 C   0  0  0  0  0  0  0  0  0  0  0  0
  148.0973  140.5014  157.1573 N   0  0  0  0  0  0  0  0  0  0  0  0
  148.8127  140.0498  156.0872 C   0  0  0  0  0  0  0  0  0  0  0  0
  148.3682  139.1158  155.1108 C   0  0  0  0  0  0  0  0  0  0  0  0
  149.3711  138.8907  154.1752 N   0  0  0  0  0  0  0  0  0  0  0  0
  150.3531  139.6531  154.5745 C   0  0  0  0  0  0  0  0  0  0  0  0
  150.1007  140.3858  155.7124 N   0  0  0  0  0  0  0  0  0  0  0  0
  151.0049  141.3095  156.3742 C   0  0  0  0  0  0  0  0  0  0  0  0
  150.3798  141.9468  157.6304 C   0  0  2  0  0  0  0  0  0  0  0  0
  149.3140  142.7919  157.2405 O   0  0  0  0  0  0  0  0  0  0  0  0
  151.4020  142.7709  158.4345 C   0  0  1  0  0  0  0  0  0  0  0  0
  151.9273  144.0126  157.7119 C   0  0  0  0  0  0  0  0  0  0  0  0
  152.3534  144.9330  158.8449 C   0  0  0  0  0  0  0  0  0  0  0  0
  151.6696  144.3431  160.0814 C   0  0  0  0  0  0  0  0  0  0  0  0
  150.7924  143.3437  159.5810 O   0  0  0  0  0  0  0  0  0  0  0  0
  146.9041  136.3631  154.7398 C   0  0  0  0  0  0  0  0  0  0  0  0
  146.0642  135.2878  154.0319 C   0  0  0  0  0  0  0  0  0  0  0  0
  145.8400  130.7599  152.1669 H   0  0  0  0  0  0  0  0  0  0  0  0
  145.1449  130.0774  150.7027 H   0  0  0  0  0  0  0  0  0  0  0  0
  144.0946  130.8447  151.8999 H   0  0  0  0  0  0  0  0  0  0  0  0
  144.3415  133.2041  149.1111 H   0  0  0  0  0  0  0  0  0  0  0  0
  143.2185  132.2982  150.1311 H   0  0  0  0  0  0  0  0  0  0  0  0
  144.2859  131.4567  149.0051 H   0  0  0  0  0  0  0  0  0  0  0  0
  144.4424  134.0151  151.3577 H   0  0  0  0  0  0  0  0  0  0  0  0
  144.7276  132.8708  152.6405 H   0  0  0  0  0  0  0  0  0  0  0  0
  147.0927  133.2777  152.6805 H   0  0  0  0  0  0  0  0  0  0  0  0
  147.1053  133.9718  151.0909 H   0  0  0  0  0  0  0  0  0  0  0  0
  145.9651  136.2862  150.7922 H   0  0  0  0  0  0  0  0  0  0  0  0
  144.5436  135.6055  151.5494 H   0  0  0  0  0  0  0  0  0  0  0  0
  144.8027  138.1584  151.5741 H   0  0  0  0  0  0  0  0  0  0  0  0
  144.3046  137.4214  153.0606 H   0  0  0  0  0  0  0  0  0  0  0  0
  147.2567  138.0219  152.5474 H   0  0  0  0  0  0  0  0  0  0  0  0
  146.1535  139.2636  153.0971 H   0  0  0  0  0  0  0  0  0  0  0  0
  146.2575  140.2546  158.0242 H   0  0  0  0  0  0  0  0  0  0  0  0
  151.2937  139.7053  154.0449 H   0  0  0  0  0  0  0  0  0  0  0  0
  151.9123  140.7643  156.6366 H   0  0  0  0  0  0  0  0  0  0  0  0
  151.3002  142.0806  155.6611 H   0  0  0  0  0  0  0  0  0  0  0  0
  149.9699  141.1621  158.2680 H   0  0  0  0  0  0  0  0  0  0  0  0
  149.6010  143.3148  156.5076 H   0  0  0  0  0  0  0  0  0  0  0  0
  152.2363  142.1428  158.7538 H   0  0  0  0  0  0  0  0  0  0  0  0
  152.7406  143.7857  157.0219 H   0  0  0  0  0  0  0  0  0  0  0  0
  151.1256  144.4841  157.1423 H   0  0  0  0  0  0  0  0  0  0  0  0
  153.4365  144.9342  158.9707 H   0  0  0  0  0  0  0  0  0  0  0  0
  152.0366  145.9590  158.6559 H   0  0  0  0  0  0  0  0  0  0  0  0
  152.4038  143.8784  160.7410 H   0  0  0  0  0  0  0  0  0  0  0  0
  151.1226  145.0917  160.6549 H   0  0  0  0  0  0  0  0  0  0  0  0
  147.9540  136.2618  154.4600 H   0  0  0  0  0  0  0  0  0  0  0  0
  146.8539  136.1873  155.8159 H   0  0  0  0  0  0  0  0  0  0  0  0
  144.9967  135.4125  154.2196 H   0  0  0  0  0  0  0  0  0  0  0  0
  146.3258  134.3270  154.4752 H   0  0  0  0  0  0  0  0  0  0  0  0
  147.2838  135.6864  152.4943 H   0  0  0  0  0  0  0  0  0  0  0  0
  1  2  1  0  0  0  0
  1 30  1  0  0  0  0
  1 31  1  0  0  0  0
  1 32  1  0  0  0  0
  2  3  1  0  0  0  0
  2  4  1  0  0  0  0
  3 33  1  0  0  0  0
  3 34  1  0  0  0  0
  3 35  1  0  0  0  0
  4  5  1  0  0  0  0
  4 36  1  0  0  0  0
  4 37  1  0  0  0  0
  5  6  1  0  0  0  0
  5 38  1  0  0  0  0
  5 39  1  0  0  0  0
  6 29  1  0  0  0  0
  6  7  1  0  0  0  0
  6 63  1  0  0  0  0
  7  8  1  0  0  0  0
  7 40  1  0  0  0  0
  7 41  1  0  0  0  0
  8  9  1  0  0  0  0
  8 42  1  0  0  0  0
  8 43  1  0  0  0  0
  9 10  1  0  0  0  0
  9 44  1  0  0  0  0
  9 45  1  0  0  0  0
 10 11  1  0  0  0  0
 10 28  1  0  0  0  0
 11 16  1  0  0  0  0
 11 12  2  0  0  0  0
 12 13  1  0  0  0  0
 13 14  2  0  0  0  0
 13 46  1  0  0  0  0
 14 15  1  0  0  0  0
 15 19  1  0  0  0  0
 15 16  2  0  0  0  0
 16 17  1  0  0  0  0
 17 18  2  0  0  0  0
 18 19  1  0  0  0  0
 18 47  1  0  0  0  0
 19 20  1  0  0  0  0
 20 21  1  0  0  0  0
 20 48  1  0  0  0  0
 20 49  1  0  0  0  0
 21 22  1  0  0  0  0
 21 23  1  0  0  0  0
 21 50  1  0  0  0  0
 22 51  1  0  0  0  0
 23 27  1  0  0  0  0
 23 24  1  0  0  0  0
 23 52  1  0  0  0  0
 24 25  1  0  0  0  0
 24 53  1  0  0  0  0
 24 54  1  0  0  0  0
 25 26  1  0  0  0  0
 25 55  1  0  0  0  0
 25 56  1  0  0  0  0
 26 27  1  0  0  0  0
 26 57  1  0  0  0  0
 26 58  1  0  0  0  0
 28 29  1  0  0  0  0
 28 59  1  0  0  0  0
 28 60  1  0  0  0  0
 29 61  1  0  0  0  0
 29 62  1  0  0  0  0
M  CHG  1   6   1
M  END
> <s_m_source_file>
AV-unprocessed.smi

> <i_m_source_file_index>
155

> <i_lp_mmshare_version>
43012

> <i_f3d_flags>
0

> <s_epik_input>
W0NIM11OKFtDSDNdKVtDSDJdW0NIMl1OMVtDSDJdW0NIMl1bQ0gyXU4oW0NIMl1bQ0gyXTEpYyhuW2NIXW4yKWMoYzIzKW5bY0hdbjNbQ0gyXVtDQEhdKFtPSF0pW0NAQEhdNFtDSDJdW0NIMl1bQ0gyXU80

> <s_epik_cmdline>
J2VwaWtfcHl0aG9uJywgJy1waCcsICc3LjAnLCAnLXRuJywgJzgnLCAnLW1hJywgJzIwMCcsICctbWV0YWxfYmluZGluZycsICctaW1hZScsICc8aW5maWxlLm1hZT4nLCAnLW9tYWUnLCAnPG91dGZpbGUubWFlPic=

> <r_epik_Ionization_Penalty>
0.0619615

> <r_epik_Ionization_Penalty_Charging>
0.0161638

> <r_epik_Ionization_Penalty_Neutral>
0.0457976

> <r_epik_State_Penalty>
0.403408

> <r_epik_Charging_Adjusted_Penalty>
0.419572

> <i_epik_Tot_Q>
1

> <i_epik_Tot_abs_Q>
1

> <r_epik_Metal_State_Penalty>
0.404222

> <b_epik_Metal_Only>
0

> <s_lp_Force_Field>
OPLS_2005

> <r_lp_Energy>
54.952

> <b_lp_Chiralities_Consistent>
1

> <s_lp_Variant>
AV-unprocessed.smi:155-6

> <Gold.Version>
5.8.1

> <Gold.Id.Protein>
6NUR|6NUR_protein|mol2

> <Gold.PLP.Fitness>
51.3811

> <Gold.PLP.PLP>
-44.5199

> <Gold.PLP.part.hbond>
-2.4722

> <Gold.PLP.part.metal>
0.0000

> <Gold.PLP.part.buried>
-4.8544

> <Gold.PLP.part.nonpolar>
-37.7375

> <Gold.PLP.part.repulsive>
0.7294

> <Gold.PLP.ligand.clash>
0.2627

> <Gold.PLP.ligand.torsion>
1.2003

> <Gold.PLP.Chemscore.Hbond>
3.0000

> <Gold.PLP.Chemscore.CHOScore>
0.0000

> <Gold.PLP.Chemscore.Metal>
0.0000

> <Gold.Chemscore.Hbonds>
donor molecule, donor type, donor heavy atom, donor atom, acceptor molecule, acceptor atom, score
      L1  H     6    63       P1  7948  2.00
      L1  H    22    51       P1  8028  0.66

> <Gold.PLP.Chemscore.Internal.Correction>
0.5244

> <Gold.Rescore>
     Score         DG    S(hbond)    S(metal)    S(lipo)     H(rot)  DE(clash)    DE(int)     intcor
     13.97     -17.49       1.90        0.00     111.95       2.91       0.28       3.24       ----

> <Gold.Chemscore.Fitness>
13.9672

> <Gold.Chemscore.DG>
-17.4911

> <Gold.Chemscore.ZeroCoef>
-5.4800

> <Gold.Chemscore.Hbond>
1.9041

> <Gold.Chemscore.Metal>
0.0000

> <Gold.Chemscore.Lipo>
111.9525

> <Gold.Chemscore.Internal_Hbond>
0.0000

> <Gold.Chemscore.DEClash>
0.2813

> <Gold.Chemscore.DEInternal>
3.2425

> <Gold.Chemscore.Rot>
2.9090

> <Gold.Chemscore.Internal.Correction>
   9.000000E+99

> <Gold.Chemscore.Hbonds>
donor molecule, donor type, donor heavy atom, donor atom, acceptor molecule, acceptor atom, score
      L1  H     6    63       P1  7948  1.00
      L1  H    22    51       P1  8028  0.66

> <Gold.Chemscore.Hbond.Weighted>
-6.3596

> <Gold.Chemscore.Metal.Weighted>
-0.0000

> <Gold.Chemscore.Lipo.Weighted>
-13.0984

> <Gold.Chemscore.Internal_Hbond.Weighted>
0.0000

> <Gold.Chemscore.DEClash.Weighted>
0.2813

> <Gold.Chemscore.DEInternal.Weighted>
3.2425

> <Gold.Chemscore.Rot.Weighted>
7.4470

> <Gold.Chemscore.Internal.Correction.Weighted>
   9.000000E+99

> <Gold.Protein.RotatedTorsions>
[ 6907 6896 6895 6894 ] final -157.31 input  -60.11 | X-H torsion
[ 7974 7965 7964 7962 ] final  161.67 input  175.53 | X-H torsion
[ 8008 7997 7996 7995 ] final  -33.07 input   59.86 | X-H torsion
[ 10167 10162 10161 10158 ] final  113.84 input  -65.29 | X-H torsion
[ 10718 10713 10712 10709 ] final  -14.16 input   66.30 | X-H torsion
[ 10763 10752 10751 10750 ] final  -54.20 input  -60.55 | X-H torsion
[ 11005 11000 10999 10996 ] final  126.11 input  -57.11 | X-H torsion

> <Gold.Protein.ActiveResidues>
 VAL166  LYS551  ARG553  GLY616  TRP617  ASP618  TYR619  PRO620  LYS621  CYS622 
 ASP623  PHE694  ASN695  SER759  ASP760  ASP761  ALA762  ILE779  LEU786  VAL792 
 PHE793  MET794  SER795  GLU796  ALA797  LYS798  CYS799  TRP800  GLU811  SER814 

> <Gold.Protein.RotatedAtoms>
  151.3010  133.4122  159.2639 H   0  0  0  0  0  0  0  0  0  0  0  0  # atno 6907 bound_to 6896
  151.0195  134.9459  159.8062 H   0  0  0  0  0  0  0  0  0  0  0  0  # atno 6908 bound_to 6896
  152.5321  134.2973  159.9118 H   0  0  0  0  0  0  0  0  0  0  0  0  # atno 6909 bound_to 6896
  144.7674  139.7930  143.6310 H   0  0  0  0  0  0  0  0  0  0  0  0  # atno 7974 bound_to 7965
  154.4160  140.1720  156.1829 H   0  0  0  0  0  0  0  0  0  0  0  0  # atno 8008 bound_to 7997
  155.9667  140.3389  155.6515 H   0  0  0  0  0  0  0  0  0  0  0  0  # atno 8009 bound_to 7997
  155.6678  140.0708  157.2522 H   0  0  0  0  0  0  0  0  0  0  0  0  # atno 8010 bound_to 7997
  139.6432  144.7125  151.2195 H   0  0  0  0  0  0  0  0  0  0  0  0  # atno 10167 bound_to 10162
  156.6199  130.4872  149.6169 H   0  0  0  0  0  0  0  0  0  0  0  0  # atno 10718 bound_to 10713
  154.1710  135.6459  153.5009 H   0  0  0  0  0  0  0  0  0  0  0  0  # atno 10763 bound_to 10752
  153.0084  135.5383  154.6613 H   0  0  0  0  0  0  0  0  0  0  0  0  # atno 10764 bound_to 10752
  154.5952  135.2938  155.0566 H   0  0  0  0  0  0  0  0  0  0  0  0  # atno 10765 bound_to 10752
  139.9440  134.9632  156.8659 H   0  0  0  0  0  0  0  0  0  0  0  0  # atno 11005 bound_to 11000
  146.1793  139.4978  142.9877 LP  0  0  0  0  0  0  0  0  0  0  0  0  # atno 17320 bound_to 7965
  145.6427  141.0281  143.1803 LP  0  0  0  0  0  0  0  0  0  0  0  0  # atno 17321 bound_to 7965
  140.7501  143.6276  150.8454 LP  0  0  0  0  0  0  0  0  0  0  0  0  # atno 17342 bound_to 10162
  139.9916  143.5841  152.2908 LP  0  0  0  0  0  0  0  0  0  0  0  0  # atno 17343 bound_to 10162
  156.2320  130.6800  151.1473 LP  0  0  0  0  0  0  0  0  0  0  0  0  # atno 17370 bound_to 10713
  157.7231  131.0668  150.6052 LP  0  0  0  0  0  0  0  0  0  0  0  0  # atno 17371 bound_to 10713
  140.5881  134.0288  155.7489 LP  0  0  0  0  0  0  0  0  0  0  0  0  # atno 17394 bound_to 11000
  141.1084  133.9656  157.2955 LP  0  0  0  0  0  0  0  0  0  0  0  0  # atno 17395 bound_to 11000

$$$$
