AV-unprocessed.smi:4|AV-procd|sdf|34|dock9
  -GOLD-   2262015143D 1   1.00000     0.00000
 Structure written by MMmdl.
 43 44  0  0  0  0  0  0  0  0  1 V2000
  153.2774  131.6172  155.9229 C   0  0  0  0  0  0  0  0  0  0  0  0
  152.2894  130.4233  155.8614 C   0  0  0  0  0  0  0  0  0  0  0  0
  152.8156  129.5147  154.7195 C   0  0  0  0  0  0  0  0  0  0  0  0
  152.4135  129.7111  157.2327 C   0  0  0  0  0  0  0  0  0  0  0  0
  150.8966  130.8509  155.6100 N   0  0  0  0  0  0  0  0  0  0  0  0
  150.1010  130.3517  154.5749 C   0  0  0  0  0  0  0  0  0  0  0  0
  148.8199  130.7297  154.3318 C   0  0  0  0  0  0  0  0  0  0  0  0
  148.0238  130.1678  153.1619 C   0  0  0  0  0  0  0  0  0  0  0  0
  147.5330  131.2311  152.2895 N   0  0  0  0  0  0  0  0  0  0  0  0
  146.2489  130.9164  151.6691 C   0  0  0  0  0  0  0  0  0  0  0  0
  145.8324  131.9965  150.6668 C   0  0  0  0  0  0  0  0  0  0  0  0
  146.7190  131.8556  149.5739 O   0  0  0  0  0  0  0  0  0  0  0  0
  144.3495  132.0325  150.2542 C   0  0  0  0  0  0  0  0  0  0  0  0
  144.3868  133.5599  150.3212 C   0  0  0  0  0  0  0  0  0  0  0  0
  145.6476  133.4381  151.1774 C   0  0  0  0  0  0  0  0  0  0  0  0
  148.1981  131.7466  155.1806 C   0  0  0  0  0  0  0  0  0  0  0  0
  147.0552  132.1834  155.0552 O   0  0  0  0  0  0  0  0  0  0  0  0
  149.0114  132.2310  156.2024 N   0  0  0  0  0  0  0  0  0  0  0  0
  150.3228  131.8387  156.4608 C   0  0  0  0  0  0  0  0  0  0  0  0
  150.9093  132.3689  157.4029 O   0  0  0  0  0  0  0  0  0  0  0  0
  148.6139  132.9318  156.8108 H   0  0  0  0  0  0  0  0  0  0  0  0
  154.2989  131.2778  156.0993 H   0  0  0  0  0  0  0  0  0  0  0  0
  153.0391  132.3044  156.7361 H   0  0  0  0  0  0  0  0  0  0  0  0
  153.2965  132.1795  154.9882 H   0  0  0  0  0  0  0  0  0  0  0  0
  152.6688  129.9820  153.7449 H   0  0  0  0  0  0  0  0  0  0  0  0
  152.3445  128.5341  154.6894 H   0  0  0  0  0  0  0  0  0  0  0  0
  153.8840  129.3251  154.8287 H   0  0  0  0  0  0  0  0  0  0  0  0
  153.4572  129.5144  157.4804 H   0  0  0  0  0  0  0  0  0  0  0  0
  151.9111  128.7461  157.2680 H   0  0  0  0  0  0  0  0  0  0  0  0
  152.0023  130.3263  158.0339 H   0  0  0  0  0  0  0  0  0  0  0  0
  150.4875  129.6110  153.8952 H   0  0  0  0  0  0  0  0  0  0  0  0
  148.6579  129.4796  152.6018 H   0  0  0  0  0  0  0  0  0  0  0  0
  147.1860  129.5798  153.5385 H   0  0  0  0  0  0  0  0  0  0  0  0
  148.2135  131.4020  151.5552 H   0  0  0  0  0  0  0  0  0  0  0  0
  146.2957  129.9421  151.1799 H   0  0  0  0  0  0  0  0  0  0  0  0
  145.4920  130.8220  152.4488 H   0  0  0  0  0  0  0  0  0  0  0  0
  147.4960  131.4297  149.9022 H   0  0  0  0  0  0  0  0  0  0  0  0
  144.1387  131.6341  149.2610 H   0  0  0  0  0  0  0  0  0  0  0  0
  143.6859  131.5977  151.0033 H   0  0  0  0  0  0  0  0  0  0  0  0
  144.5789  134.0208  149.3512 H   0  0  0  0  0  0  0  0  0  0  0  0
  143.5350  134.0158  150.8268 H   0  0  0  0  0  0  0  0  0  0  0  0
  145.4339  133.4859  152.2467 H   0  0  0  0  0  0  0  0  0  0  0  0
  146.4460  134.1276  150.9012 H   0  0  0  0  0  0  0  0  0  0  0  0
  1  2  1  0  0  0  0
  1 22  1  0  0  0  0
  1 23  1  0  0  0  0
  1 24  1  0  0  0  0
  2  3  1  0  0  0  0
  2  4  1  0  0  0  0
  2  5  1  0  0  0  0
  3 25  1  0  0  0  0
  3 26  1  0  0  0  0
  3 27  1  0  0  0  0
  4 28  1  0  0  0  0
  4 29  1  0  0  0  0
  4 30  1  0  0  0  0
  5 19  1  0  0  0  0
  5  6  1  0  0  0  0
  6  7  2  0  0  0  0
  6 31  1  0  0  0  0
  7  8  1  0  0  0  0
  7 16  1  0  0  0  0
  8  9  1  0  0  0  0
  8 32  1  0  0  0  0
  8 33  1  0  0  0  0
  9 10  1  0  0  0  0
  9 34  1  0  0  0  0
 10 11  1  0  0  0  0
 10 35  1  0  0  0  0
 10 36  1  0  0  0  0
 11 15  1  0  0  0  0
 11 12  1  0  0  0  0
 11 13  1  0  0  0  0
 12 37  1  0  0  0  0
 13 14  1  0  0  0  0
 13 38  1  0  0  0  0
 13 39  1  0  0  0  0
 14 15  1  0  0  0  0
 14 40  1  0  0  0  0
 14 41  1  0  0  0  0
 15 42  1  0  0  0  0
 15 43  1  0  0  0  0
 16 17  2  0  0  0  0
 16 18  1  0  0  0  0
 18 21  1  0  0  0  0
 18 19  1  0  0  0  0
 19 20  2  0  0  0  0
M  END
> <s_m_source_file>
AV-unprocessed.smi

> <i_m_source_file_index>
4

> <i_lp_mmshare_version>
43012

> <i_f3d_flags>
0

> <s_epik_input>
W0NIM11DKFtDSDNdKShbQ0gzXSluMVtjSF1jKGMoPU8pW25IXWMxPU8pW0NIMl1bTkhdW0NIMl1DMihbT0hdKVtDSDJdW0NIMl1bQ0gyXTI=

> <s_epik_cmdline>
J2VwaWtfcHl0aG9uJywgJy1waCcsICc3LjAnLCAnLXRuJywgJzgnLCAnLW1hJywgJzIwMCcsICctbWV0YWxfYmluZGluZycsICctaW1hZScsICc8aW5maWxlLm1hZT4nLCAnLW9tYWUnLCAnPG91dGZpbGUubWFlPic=

> <r_lp_tautomer_probability>
0.999537

> <r_epik_Ionization_Penalty>
2.11381

> <r_epik_Ionization_Penalty_Charging>
0.000786845

> <r_epik_Ionization_Penalty_Neutral>
2.11303

> <r_epik_State_Penalty>
2.25008

> <r_epik_Charging_Adjusted_Penalty>
2.25087

> <i_epik_Tot_Q>
0

> <i_epik_Tot_abs_Q>
0

> <r_epik_Metal_State_Penalty>
2.75188

> <b_epik_Metal_Only>
0

> <s_lp_Force_Field>
OPLS_2005

> <r_lp_Energy>
31.2144

> <b_lp_Chiralities_Consistent>
1

> <s_lp_Variant>
AV-unprocessed.smi:4-2

> <Gold.Version>
5.8.1

> <Gold.Id.Protein>
6NUR|6NUR_protein|mol2

> <Gold.PLP.Fitness>
37.8389

> <Gold.PLP.PLP>
-29.6686

> <Gold.PLP.part.hbond>
-3.0000

> <Gold.PLP.part.metal>
0.0000

> <Gold.PLP.part.buried>
-4.0584

> <Gold.PLP.part.nonpolar>
-22.7751

> <Gold.PLP.part.repulsive>
0.0584

> <Gold.PLP.ligand.clash>
0.0000

> <Gold.PLP.ligand.torsion>
0.4753

> <Gold.PLP.Chemscore.Hbond>
3.0000

> <Gold.PLP.Chemscore.CHOScore>
0.0000

> <Gold.PLP.Chemscore.Metal>
0.0000

> <Gold.Chemscore.Hbonds>
donor molecule, donor type, donor heavy atom, donor atom, acceptor molecule, acceptor atom, score
      L1  H     9    34       P1 10747  0.96
      L1  H    12    37       P1 10747  1.00
      P1  H  6896  6909       L1    20  0.83

> <Gold.PLP.Chemscore.Internal.Correction>
0.1209

> <Gold.Rescore>
     Score         DG    S(hbond)    S(metal)    S(lipo)     H(rot)  DE(clash)    DE(int)     intcor
     14.86     -17.95       2.94        0.00      76.43       2.46       0.00       3.09       ----

> <Gold.Chemscore.Fitness>
14.8551

> <Gold.Chemscore.DG>
-17.9462

> <Gold.Chemscore.ZeroCoef>
-5.4800

> <Gold.Chemscore.Hbond>
2.9414

> <Gold.Chemscore.Metal>
0.0000

> <Gold.Chemscore.Lipo>
76.4319

> <Gold.Chemscore.Internal_Hbond>
0.0000

> <Gold.Chemscore.DEClash>
0.0000

> <Gold.Chemscore.DEInternal>
3.0912

> <Gold.Chemscore.Rot>
2.4612

> <Gold.Chemscore.Internal.Correction>
   9.000000E+99

> <Gold.Chemscore.Hbonds>
donor molecule, donor type, donor heavy atom, donor atom, acceptor molecule, acceptor atom, score
      L1  H     9    34       P1 10747  0.90
      L1  H    12    37       P1 10747  0.99
      P1  H  6896  6909       L1    20  0.80

> <Gold.Chemscore.Hbond.Weighted>
-9.8243

> <Gold.Chemscore.Metal.Weighted>
-0.0000

> <Gold.Chemscore.Lipo.Weighted>
-8.9425

> <Gold.Chemscore.Internal_Hbond.Weighted>
0.0000

> <Gold.Chemscore.DEClash.Weighted>
0.0000

> <Gold.Chemscore.DEInternal.Weighted>
3.0912

> <Gold.Chemscore.Rot.Weighted>
6.3006

> <Gold.Chemscore.Internal.Correction.Weighted>
   9.000000E+99

> <Gold.Protein.RotatedTorsions>
[ 6907 6896 6895 6894 ] final  -35.28 input  -60.11 | X-H torsion
[ 7974 7965 7964 7962 ] final -113.75 input  175.53 | X-H torsion
[ 8008 7997 7996 7995 ] final  116.87 input   59.86 | X-H torsion
[ 10167 10162 10161 10158 ] final  -54.66 input  -65.29 | X-H torsion
[ 10718 10713 10712 10709 ] final  126.09 input   66.30 | X-H torsion
[ 10763 10752 10751 10750 ] final -126.70 input  -60.55 | X-H torsion
[ 11005 11000 10999 10996 ] final   -9.42 input  -57.11 | X-H torsion

> <Gold.Protein.ActiveResidues>
 VAL166  LYS551  ARG553  GLY616  TRP617  ASP618  TYR619  PRO620  LYS621  CYS622 
 ASP623  PHE694  ASN695  SER759  ASP760  ASP761  ALA762  ILE779  LEU786  VAL792 
 PHE793  MET794  SER795  GLU796  ALA797  LYS798  CYS799  TRP800  GLU811  SER814 

> <Gold.Protein.RotatedAtoms>
  151.0418  134.9612  159.8165 H   0  0  0  0  0  0  0  0  0  0  0  0  # atno 6907 bound_to 6896
  152.5365  134.2649  159.8959 H   0  0  0  0  0  0  0  0  0  0  0  0  # atno 6908 bound_to 6896
  151.2661  133.4235  159.2652 H   0  0  0  0  0  0  0  0  0  0  0  0  # atno 6909 bound_to 6896
  145.1283  140.8709  143.3773 H   0  0  0  0  0  0  0  0  0  0  0  0  # atno 7974 bound_to 7965
  156.2463  140.2908  156.0590 H   0  0  0  0  0  0  0  0  0  0  0  0  # atno 8008 bound_to 7997
  155.1797  140.0404  157.2897 H   0  0  0  0  0  0  0  0  0  0  0  0  # atno 8009 bound_to 7997
  154.6268  140.2489  155.7488 H   0  0  0  0  0  0  0  0  0  0  0  0  # atno 8010 bound_to 7997
  140.6418  143.2512  151.4969 H   0  0  0  0  0  0  0  0  0  0  0  0  # atno 10167 bound_to 10162
  157.5448  131.1096  150.8799 H   0  0  0  0  0  0  0  0  0  0  0  0  # atno 10718 bound_to 10713
  154.8747  135.3986  154.3474 H   0  0  0  0  0  0  0  0  0  0  0  0  # atno 10763 bound_to 10752
  153.4264  135.7024  153.6265 H   0  0  0  0  0  0  0  0  0  0  0  0  # atno 10764 bound_to 10752
  153.4905  135.3749  155.2459 H   0  0  0  0  0  0  0  0  0  0  0  0  # atno 10765 bound_to 10752
  140.7340  133.8725  155.8915 H   0  0  0  0  0  0  0  0  0  0  0  0  # atno 11005 bound_to 11000
  145.0664  139.3065  143.5854 LP  0  0  0  0  0  0  0  0  0  0  0  0  # atno 17320 bound_to 7965
  146.3516  140.0123  142.8666 LP  0  0  0  0  0  0  0  0  0  0  0  0  # atno 17321 bound_to 7965
  139.5627  144.2117  152.1717 LP  0  0  0  0  0  0  0  0  0  0  0  0  # atno 17342 bound_to 10162
  140.1389  144.5220  150.6756 LP  0  0  0  0  0  0  0  0  0  0  0  0  # atno 17343 bound_to 10162
  156.9341  130.5360  149.5279 LP  0  0  0  0  0  0  0  0  0  0  0  0  # atno 17370 bound_to 10713
  156.0527  130.5593  150.9024 LP  0  0  0  0  0  0  0  0  0  0  0  0  # atno 17371 bound_to 10713
  140.9896  134.1296  157.4420 LP  0  0  0  0  0  0  0  0  0  0  0  0  # atno 17394 bound_to 11000
  139.8820  135.0036  156.6198 LP  0  0  0  0  0  0  0  0  0  0  0  0  # atno 17395 bound_to 11000

$$$$
