AV-unprocessed.smi:3314|AV-procd|sdf|12742|dock5
  -GOLD-   2272019 83D 1   1.00000     0.00000
 Structure written by MMmdl.
 38 39  0  0  0  0  0  0  0  0  2 V2000
  153.3122  140.8416  159.8114 C   0  0  0  0  0  0  0  0  0  0  0  0
  152.4812  141.8493  159.0443 C   0  0  0  0  0  0  0  0  0  0  0  0
  152.5419  143.2224  159.3610 C   0  0  0  0  0  0  0  0  0  0  0  0
  151.7612  144.1311  158.6188 C   0  0  0  0  0  0  0  0  0  0  0  0
  151.7769  145.6208  158.8894 C   0  0  0  0  0  0  0  0  0  0  0  0
  150.9673  143.6746  157.6248 N   0  3  0  0  0  0  0  0  0  0  0  0
  150.8614  142.3689  157.2852 C   0  0  0  0  0  0  0  0  0  0  0  0
  149.9937  142.0559  156.2034 N   0  0  0  0  0  0  0  0  0  0  0  0
  150.1205  141.1049  155.2590 C   0  0  0  0  0  0  0  0  0  0  0  0
  151.0519  140.3023  155.1952 O   0  0  0  0  0  0  0  0  0  0  0  0
  148.9913  141.0670  154.2214 C   0  0  1  0  0  0  0  0  0  0  0  0
  148.3266  139.6780  154.0864 C   0  0  0  0  0  0  0  0  0  0  0  0
  147.2215  139.7019  153.1376 N   0  0  0  0  0  0  0  0  0  0  0  0
  146.5989  138.3936  153.0049 C   0  0  0  0  0  0  0  0  0  0  0  0
  146.2573  140.7182  153.5358 C   0  0  0  0  0  0  0  0  0  0  0  0
  146.9167  142.1007  153.6773 C   0  0  0  0  0  0  0  0  0  0  0  0
  148.0015  142.0238  154.5983 O   0  0  0  0  0  0  0  0  0  0  0  0
  151.6388  141.4197  157.9967 C   0  0  0  0  0  0  0  0  0  0  0  0
  153.8932  141.3213  160.5997 H   0  0  0  0  0  0  0  0  0  0  0  0
  154.0044  140.3332  159.1398 H   0  0  0  0  0  0  0  0  0  0  0  0
  152.6678  140.0924  160.2722 H   0  0  0  0  0  0  0  0  0  0  0  0
  153.1810  143.5746  160.1578 H   0  0  0  0  0  0  0  0  0  0  0  0
  152.4282  145.8604  159.7304 H   0  0  0  0  0  0  0  0  0  0  0  0
  150.7732  145.9759  159.1247 H   0  0  0  0  0  0  0  0  0  0  0  0
  152.1380  146.1619  158.0144 H   0  0  0  0  0  0  0  0  0  0  0  0
  149.1392  142.5925  156.1647 H   0  0  0  0  0  0  0  0  0  0  0  0
  149.4166  141.3596  153.2595 H   0  0  0  0  0  0  0  0  0  0  0  0
  149.0684  138.9467  153.7623 H   0  0  0  0  0  0  0  0  0  0  0  0
  147.9651  139.3456  155.0614 H   0  0  0  0  0  0  0  0  0  0  0  0
  145.7986  138.4205  152.2647 H   0  0  0  0  0  0  0  0  0  0  0  0
  146.1743  138.0609  153.9530 H   0  0  0  0  0  0  0  0  0  0  0  0
  147.3271  137.6503  152.6789 H   0  0  0  0  0  0  0  0  0  0  0  0
  145.4519  140.7727  152.8024 H   0  0  0  0  0  0  0  0  0  0  0  0
  145.7972  140.4395  154.4853 H   0  0  0  0  0  0  0  0  0  0  0  0
  147.2768  142.4570  152.7111 H   0  0  0  0  0  0  0  0  0  0  0  0
  146.1926  142.8310  154.0384 H   0  0  0  0  0  0  0  0  0  0  0  0
  151.6171  140.3688  157.7532 H   0  0  0  0  0  0  0  0  0  0  0  0
  150.4152  144.3566  157.1041 H   0  0  0  0  0  0  0  0  0  0  0  0
  1  2  1  0  0  0  0
  1 19  1  0  0  0  0
  1 20  1  0  0  0  0
  1 21  1  0  0  0  0
  2 18  1  0  0  0  0
  2  3  2  0  0  0  0
  3  4  1  0  0  0  0
  3 22  1  0  0  0  0
  4  5  1  0  0  0  0
  4  6  2  0  0  0  0
  5 23  1  0  0  0  0
  5 24  1  0  0  0  0
  5 25  1  0  0  0  0
  6  7  1  0  0  0  0
  6 38  1  0  0  0  0
  7  8  1  0  0  0  0
  7 18  2  0  0  0  0
  8  9  1  0  0  0  0
  8 26  1  0  0  0  0
  9 10  2  0  0  0  0
  9 11  1  0  0  0  0
 11 17  1  0  0  0  0
 11 12  1  0  0  0  0
 11 27  1  0  0  0  0
 12 13  1  0  0  0  0
 12 28  1  0  0  0  0
 12 29  1  0  0  0  0
 13 14  1  0  0  0  0
 13 15  1  0  0  0  0
 14 30  1  0  0  0  0
 14 31  1  0  0  0  0
 14 32  1  0  0  0  0
 15 16  1  0  0  0  0
 15 33  1  0  0  0  0
 15 34  1  0  0  0  0
 16 17  1  0  0  0  0
 16 35  1  0  0  0  0
 16 36  1  0  0  0  0
 18 37  1  0  0  0  0
M  CHG  1   6   1
M  END
> <s_m_source_file>
AV-unprocessed.smi

> <i_m_source_file_index>
3314

> <i_lp_mmshare_version>
43012

> <i_f3d_flags>
0

> <s_epik_input>
W0NIM11jMVtjSF1jKFtDSDNdKW5jKFtjSF0xKVtOSF1DKD1PKVtDQEBIXTJbQ0gyXU4oW0NIM10pW0NIMl1bQ0gyXU8y

> <s_epik_cmdline>
J2VwaWtfcHl0aG9uJywgJy1waCcsICc3LjAnLCAnLXRuJywgJzgnLCAnLW1hJywgJzIwMCcsICctbWV0YWxfYmluZGluZycsICctaW1hZScsICc8aW5maWxlLm1hZT4nLCAnLW9tYWUnLCAnPG91dGZpbGUubWFlPic=

> <r_epik_Ionization_Penalty>
2.57421

> <r_epik_Ionization_Penalty_Charging>
1.80498

> <r_epik_Ionization_Penalty_Neutral>
0.76923

> <r_epik_State_Penalty>
2.63884

> <r_epik_Charging_Adjusted_Penalty>
4.44382

> <i_epik_Tot_Q>
1

> <i_epik_Tot_abs_Q>
1

> <r_epik_Metal_State_Penalty>
6.15142

> <b_epik_Metal_Only>
0

> <s_lp_Force_Field>
OPLS_2005

> <r_lp_Energy>
30.3211

> <b_lp_Chiralities_Consistent>
1

> <s_lp_Variant>
AV-unprocessed.smi:3314-12

> <Gold.Version>
5.8.1

> <Gold.Id.Protein>
6NUR|6NUR_protein|mol2

> <Gold.PLP.Fitness>
43.5452

> <Gold.PLP.PLP>
-35.5955

> <Gold.PLP.part.hbond>
-3.0000

> <Gold.PLP.part.metal>
0.0000

> <Gold.PLP.part.buried>
-0.8431

> <Gold.PLP.part.nonpolar>
-32.3496

> <Gold.PLP.part.repulsive>
1.2203

> <Gold.PLP.ligand.clash>
0.0000

> <Gold.PLP.ligand.torsion>
0.2953

> <Gold.PLP.Chemscore.Hbond>
2.8460

> <Gold.PLP.Chemscore.CHOScore>
0.0000

> <Gold.PLP.Chemscore.Metal>
0.0000

> <Gold.Chemscore.Hbonds>
donor molecule, donor type, donor heavy atom, donor atom, acceptor molecule, acceptor atom, score
      L1  H     6    38       P1  8028  1.61
      L1  H     8    26       P1  8028  0.33
      P1  H  7989  7998       L1    10  0.75

> <Gold.PLP.Chemscore.Internal.Correction>
0.0023

> <Gold.Rescore>
     Score         DG    S(hbond)    S(metal)    S(lipo)     H(rot)  DE(clash)    DE(int)     intcor
     17.17     -19.34       1.57        0.00      95.43       1.00       1.64       0.53       ----

> <Gold.Chemscore.Fitness>
17.1660

> <Gold.Chemscore.DG>
-19.3379

> <Gold.Chemscore.ZeroCoef>
-5.4800

> <Gold.Chemscore.Hbond>
1.5727

> <Gold.Chemscore.Metal>
0.0000

> <Gold.Chemscore.Lipo>
95.4271

> <Gold.Chemscore.Internal_Hbond>
0.0000

> <Gold.Chemscore.DEClash>
1.6434

> <Gold.Chemscore.DEInternal>
0.5285

> <Gold.Chemscore.Rot>
1.0000

> <Gold.Chemscore.Internal.Correction>
   9.000000E+99

> <Gold.Chemscore.Hbonds>
donor molecule, donor type, donor heavy atom, donor atom, acceptor molecule, acceptor atom, score
      L1  H     6    38       P1  8028  0.64
      L1  H     8    26       P1  8028  0.34
      P1  H  7989  7998       L1    10  0.09

> <Gold.Chemscore.Hbond.Weighted>
-5.2529

> <Gold.Chemscore.Metal.Weighted>
-0.0000

> <Gold.Chemscore.Lipo.Weighted>
-11.1650

> <Gold.Chemscore.Internal_Hbond.Weighted>
0.0000

> <Gold.Chemscore.DEClash.Weighted>
1.6434

> <Gold.Chemscore.DEInternal.Weighted>
0.5285

> <Gold.Chemscore.Rot.Weighted>
2.5600

> <Gold.Chemscore.Internal.Correction.Weighted>
   9.000000E+99

> <Gold.Protein.RotatedTorsions>
[ 6907 6896 6895 6894 ] final   -2.47 input  -60.11 | X-H torsion
[ 7974 7965 7964 7962 ] final   22.87 input  175.53 | X-H torsion
[ 8008 7997 7996 7995 ] final    0.86 input   59.86 | X-H torsion
[ 10167 10162 10161 10158 ] final -172.79 input  -65.29 | X-H torsion
[ 10718 10713 10712 10709 ] final -112.73 input   66.30 | X-H torsion
[ 10763 10752 10751 10750 ] final  173.33 input  -60.55 | X-H torsion
[ 11005 11000 10999 10996 ] final -155.60 input  -57.11 | X-H torsion

> <Gold.Protein.ActiveResidues>
 VAL166  LYS551  ARG553  GLY616  TRP617  ASP618  TYR619  PRO620  LYS621  CYS622 
 ASP623  PHE694  ASN695  SER759  ASP760  ASP761  ALA762  ILE779  LEU786  VAL792 
 PHE793  MET794  SER795  GLU796  ALA797  LYS798  CYS799  TRP800  GLU811  SER814 

> <Gold.Protein.RotatedAtoms>
  151.5294  135.1068  159.9898 H   0  0  0  0  0  0  0  0  0  0  0  0  # atno 6907 bound_to 6896
  152.4585  133.7769  159.6840 H   0  0  0  0  0  0  0  0  0  0  0  0  # atno 6908 bound_to 6896
  150.8538  133.7681  159.3041 H   0  0  0  0  0  0  0  0  0  0  0  0  # atno 6909 bound_to 6896
  146.2010  139.7824  142.8762 H   0  0  0  0  0  0  0  0  0  0  0  0  # atno 7974 bound_to 7965
  154.6729  140.2616  155.6988 H   0  0  0  0  0  0  0  0  0  0  0  0  # atno 8008 bound_to 7997
  156.2666  140.2825  156.1168 H   0  0  0  0  0  0  0  0  0  0  0  0  # atno 8009 bound_to 7997
  155.1142  140.0376  157.2722 H   0  0  0  0  0  0  0  0  0  0  0  0  # atno 8010 bound_to 7997
  139.5725  144.1609  152.1404 H   0  0  0  0  0  0  0  0  0  0  0  0  # atno 10167 bound_to 10162
  156.0723  130.5935  150.8547 H   0  0  0  0  0  0  0  0  0  0  0  0  # atno 10718 bound_to 10713
  154.4386  135.2761  155.1863 H   0  0  0  0  0  0  0  0  0  0  0  0  # atno 10763 bound_to 10752
  154.3739  135.6102  153.5758 H   0  0  0  0  0  0  0  0  0  0  0  0  # atno 10764 bound_to 10752
  152.9839  135.5864  154.4710 H   0  0  0  0  0  0  0  0  0  0  0  0  # atno 10765 bound_to 10752
  140.6847  134.4107  157.5224 H   0  0  0  0  0  0  0  0  0  0  0  0  # atno 11005 bound_to 11000
  145.3485  141.0302  143.3352 LP  0  0  0  0  0  0  0  0  0  0  0  0  # atno 17320 bound_to 7965
  144.8683  139.5075  143.6780 LP  0  0  0  0  0  0  0  0  0  0  0  0  # atno 17321 bound_to 7965
  140.1145  144.5428  150.6903 LP  0  0  0  0  0  0  0  0  0  0  0  0  # atno 17342 bound_to 10162
  140.7009  143.2434  151.4868 LP  0  0  0  0  0  0  0  0  0  0  0  0  # atno 17343 bound_to 10162
  157.5800  131.0946  150.9285 LP  0  0  0  0  0  0  0  0  0  0  0  0  # atno 17370 bound_to 10713
  156.9483  130.5410  149.5282 LP  0  0  0  0  0  0  0  0  0  0  0  0  # atno 17371 bound_to 10713
  139.8941  134.8714  156.2192 LP  0  0  0  0  0  0  0  0  0  0  0  0  # atno 17394 bound_to 11000
  141.0290  133.6999  156.1396 LP  0  0  0  0  0  0  0  0  0  0  0  0  # atno 17395 bound_to 11000

$$$$
