AV-unprocessed.smi:1683|AV-procd|sdf|6751|dock1
  -GOLD-   22720 7503D 1   1.00000     0.00000
 Structure written by MMmdl.
 37 38  0  0  0  0  0  0  0  0  2 V2000
  148.3571  139.0381  155.3384 O   0  0  0  0  0  0  0  0  0  0  0  0
  148.7736  139.1935  154.1907 C   0  0  0  0  0  0  0  0  0  0  0  0
  147.9721  139.3723  153.1309 N   0  0  0  0  0  0  0  0  0  0  0  0
  146.5132  139.3856  153.1743 C   0  0  0  0  0  0  0  0  0  0  0  0
  145.9077  137.9699  153.1023 C   0  0  2  0  0  0  0  0  0  0  0  0
  146.4459  137.0101  154.1579 C   0  0  0  0  0  0  0  0  0  0  0  0
  146.0784  135.6465  153.5808 C   0  0  0  0  0  0  0  0  0  0  0  0
  146.2423  135.7790  152.1155 N   0  3  1  0  0  0  0  0  0  0  0  0
  145.3515  134.9164  151.2999 C   0  0  0  0  0  0  0  0  0  0  0  0
  145.7346  133.4268  151.3636 C   0  0  0  0  0  0  0  0  0  0  0  0
  147.0550  133.2625  151.2907 F   0  0  0  0  0  0  0  0  0  0  0  0
  145.3120  132.9204  152.5210 F   0  0  0  0  0  0  0  0  0  0  0  0
  145.1515  132.7601  150.3675 F   0  0  0  0  0  0  0  0  0  0  0  0
  146.1619  137.2229  151.7843 C   0  0  0  0  0  0  0  0  0  0  0  0
  150.0677  139.2095  153.8330 N   0  0  0  0  0  0  0  0  0  0  0  0
  151.1938  139.0612  154.6809 C   0  0  0  0  0  0  0  0  0  0  0  0
  151.5997  139.8585  155.7914 C   0  0  0  0  0  0  0  0  0  0  0  0
  152.7172  139.3939  156.3323 N   0  0  0  0  0  0  0  0  0  0  0  0
  153.0277  138.3133  155.5813 N   0  0  0  0  0  0  0  0  0  0  0  0
  152.1286  138.0762  154.5651 C   0  0  0  0  0  0  0  0  0  0  0  0
  153.8469  137.7544  155.7737 H   0  0  0  0  0  0  0  0  0  0  0  0
  148.4022  139.4855  152.2244 H   0  0  0  0  0  0  0  0  0  0  0  0
  146.2102  139.8752  154.1003 H   0  0  0  0  0  0  0  0  0  0  0  0
  146.1284  140.0026  152.3604 H   0  0  0  0  0  0  0  0  0  0  0  0
  144.8279  138.0363  153.2470 H   0  0  0  0  0  0  0  0  0  0  0  0
  147.5303  137.1008  154.2411 H   0  0  0  0  0  0  0  0  0  0  0  0
  146.0147  137.1801  155.1449 H   0  0  0  0  0  0  0  0  0  0  0  0
  146.6979  134.8455  153.9847 H   0  0  0  0  0  0  0  0  0  0  0  0
  145.0376  135.4229  153.8213 H   0  0  0  0  0  0  0  0  0  0  0  0
  144.3115  135.0614  151.5967 H   0  0  0  0  0  0  0  0  0  0  0  0
  145.4252  135.2409  150.2607 H   0  0  0  0  0  0  0  0  0  0  0  0
  145.3827  137.4469  151.0541 H   0  0  0  0  0  0  0  0  0  0  0  0
  147.1153  137.5194  151.3453 H   0  0  0  0  0  0  0  0  0  0  0  0
  150.2696  139.3342  152.8519 H   0  0  0  0  0  0  0  0  0  0  0  0
  151.1409  140.7373  156.2197 H   0  0  0  0  0  0  0  0  0  0  0  0
  152.2304  137.2526  153.8738 H   0  0  0  0  0  0  0  0  0  0  0  0
  147.1909  135.5029  151.9044 H   0  0  0  0  0  0  0  0  0  0  0  0
  1  2  2  0  0  0  0
  2  3  1  0  0  0  0
  2 15  1  0  0  0  0
  3  4  1  0  0  0  0
  3 22  1  0  0  0  0
  4  5  1  0  0  0  0
  4 23  1  0  0  0  0
  4 24  1  0  0  0  0
  5 14  1  0  0  0  0
  5  6  1  0  0  0  0
  5 25  1  0  0  0  0
  6  7  1  0  0  0  0
  6 26  1  0  0  0  0
  6 27  1  0  0  0  0
  7  8  1  0  0  0  0
  7 28  1  0  0  0  0
  7 29  1  0  0  0  0
  8  9  1  0  0  0  0
  8 14  1  0  0  0  0
  8 37  1  0  0  0  0
  9 10  1  0  0  0  0
  9 30  1  0  0  0  0
  9 31  1  0  0  0  0
 10 11  1  0  0  0  0
 10 12  1  0  0  0  0
 10 13  1  0  0  0  0
 14 32  1  0  0  0  0
 14 33  1  0  0  0  0
 15 16  1  0  0  0  0
 15 34  1  0  0  0  0
 16 20  2  0  0  0  0
 16 17  1  0  0  0  0
 17 18  2  0  0  0  0
 17 35  1  0  0  0  0
 18 19  1  0  0  0  0
 19 21  1  0  0  0  0
 19 20  1  0  0  0  0
 20 36  1  0  0  0  0
M  CHG  1   8   1
M  END
> <s_m_source_file>
AV-unprocessed.smi

> <i_m_source_file_index>
1683

> <i_lp_mmshare_version>
43012

> <i_f3d_flags>
0

> <s_epik_input>
W2NIXTFbbkhdbltjSF1jMVtOSF1DKD1PKVtOSF1bQ0gyXVtDQEBIXTJbQ0gyXVtDSDJdTihbQ0gyXTIpW0NIMl1DKEYpKEYpRg==

> <s_epik_cmdline>
J2VwaWtfcHl0aG9uJywgJy1waCcsICc3LjAnLCAnLXRuJywgJzgnLCAnLW1hJywgJzIwMCcsICctbWV0YWxfYmluZGluZycsICctaW1hZScsICc8aW5maWxlLm1hZT4nLCAnLW9tYWUnLCAnPG91dGZpbGUubWFlPic=

> <r_lp_tautomer_probability>
0.5

> <r_epik_Ionization_Penalty>
0.641865

> <r_epik_Ionization_Penalty_Charging>
0.64182

> <r_epik_Ionization_Penalty_Neutral>
4.50685e-05

> <r_epik_State_Penalty>
0.65957

> <r_epik_Charging_Adjusted_Penalty>
1.30139

> <i_epik_Tot_Q>
1

> <i_epik_Tot_abs_Q>
1

> <r_epik_Metal_State_Penalty>
0.659571

> <b_epik_Metal_Only>
0

> <s_lp_Force_Field>
OPLS_2005

> <r_lp_Energy>
31.6125

> <b_lp_Chiralities_Consistent>
1

> <s_lp_Variant>
AV-unprocessed.smi:1683-5

> <Gold.Version>
5.8.1

> <Gold.Id.Protein>
6NUR|6NUR_protein|mol2

> <Gold.PLP.Fitness>
45.8882

> <Gold.PLP.PLP>
-31.0397

> <Gold.PLP.part.hbond>
-4.0000

> <Gold.PLP.part.metal>
0.0000

> <Gold.PLP.part.buried>
-1.3180

> <Gold.PLP.part.nonpolar>
-26.4894

> <Gold.PLP.part.repulsive>
0.4954

> <Gold.PLP.ligand.clash>
0.0000

> <Gold.PLP.ligand.torsion>
1.0560

> <Gold.PLP.Chemscore.Hbond>
4.6720

> <Gold.PLP.Chemscore.CHOScore>
0.8181

> <Gold.PLP.Chemscore.Metal>
0.0000

> <Gold.Chemscore.Hbonds>
donor molecule, donor type, donor heavy atom, donor atom, acceptor molecule, acceptor atom, score
      L1  H     3    22       P1  7957  1.00
      L1  H     8    37       P1  7948  1.66
      L1  H    15    34       P1  7957  0.93
      P1  H  7997  8008       L1    18  0.90
      L1  C    20    36       P1  7949  0.09

> <Gold.PLP.Chemscore.Internal.Correction>
0.4900

> <Gold.Rescore>
     Score         DG    S(hbond)    S(metal)    S(lipo)     H(rot)  DE(clash)    DE(int)     intcor
     17.30     -19.68       3.55        0.00      59.78       1.81       1.07       1.32       ----

> <Gold.Chemscore.Fitness>
17.2987

> <Gold.Chemscore.DG>
-19.6804

> <Gold.Chemscore.ZeroCoef>
-5.4800

> <Gold.Chemscore.Hbond>
3.5462

> <Gold.Chemscore.Metal>
0.0000

> <Gold.Chemscore.Lipo>
59.7768

> <Gold.Chemscore.Internal_Hbond>
0.0000

> <Gold.Chemscore.DEClash>
1.0665

> <Gold.Chemscore.DEInternal>
1.3152

> <Gold.Chemscore.Rot>
1.8116

> <Gold.Chemscore.Internal.Correction>
   9.000000E+99

> <Gold.Chemscore.Hbonds>
donor molecule, donor type, donor heavy atom, donor atom, acceptor molecule, acceptor atom, score
      L1  H     3    22       P1  7957  0.98
      L1  H     8    37       P1  7948  0.81
      L1  H    15    34       P1  7957  0.73
      P1  H  7997  8008       L1    18  0.18

> <Gold.Chemscore.Hbond.Weighted>
-11.8443

> <Gold.Chemscore.Metal.Weighted>
-0.0000

> <Gold.Chemscore.Lipo.Weighted>
-6.9939

> <Gold.Chemscore.Internal_Hbond.Weighted>
0.0000

> <Gold.Chemscore.DEClash.Weighted>
1.0665

> <Gold.Chemscore.DEInternal.Weighted>
1.3152

> <Gold.Chemscore.Rot.Weighted>
4.6378

> <Gold.Chemscore.Internal.Correction.Weighted>
   9.000000E+99

> <Gold.Protein.RotatedTorsions>
[ 6907 6896 6895 6894 ] final  132.09 input  -60.11 | X-H torsion
[ 7974 7965 7964 7962 ] final   62.72 input  175.53 | X-H torsion
[ 8008 7997 7996 7995 ] final  -49.46 input   59.86 | X-H torsion
[ 10167 10162 10161 10158 ] final -176.89 input  -65.29 | X-H torsion
[ 10718 10713 10712 10709 ] final -140.10 input   66.30 | X-H torsion
[ 10763 10752 10751 10750 ] final   71.85 input  -60.55 | X-H torsion
[ 11005 11000 10999 10996 ] final   89.98 input  -57.11 | X-H torsion

> <Gold.Protein.ActiveResidues>
 VAL166  LYS551  ARG553  GLY616  TRP617  ASP618  TYR619  PRO620  LYS621  CYS622 
 ASP623  PHE694  ASN695  SER759  ASP760  ASP761  ALA762  ILE779  LEU786  VAL792 
 PHE793  MET794  SER795  GLU796  ALA797  LYS798  CYS799  TRP800  GLU811  SER814 

> <Gold.Protein.RotatedAtoms>
  152.3359  133.6011  159.5841 H   0  0  0  0  0  0  0  0  0  0  0  0  # atno 6907 bound_to 6896
  150.7450  133.9796  159.3581 H   0  0  0  0  0  0  0  0  0  0  0  0  # atno 6908 bound_to 6896
  151.7666  135.0797  160.0404 H   0  0  0  0  0  0  0  0  0  0  0  0  # atno 6909 bound_to 6896
  145.8701  139.3372  143.0768 H   0  0  0  0  0  0  0  0  0  0  0  0  # atno 7974 bound_to 7965
  154.4044  140.1296  156.4506 H   0  0  0  0  0  0  0  0  0  0  0  0  # atno 8008 bound_to 7997
  155.7370  140.3490  155.5066 H   0  0  0  0  0  0  0  0  0  0  0  0  # atno 8009 bound_to 7997
  155.9074  140.1030  157.1295 H   0  0  0  0  0  0  0  0  0  0  0  0  # atno 8010 bound_to 7997
  139.5507  144.2117  152.1071 H   0  0  0  0  0  0  0  0  0  0  0  0  # atno 10167 bound_to 10162
  156.3183  130.7520  151.1612 H   0  0  0  0  0  0  0  0  0  0  0  0  # atno 10718 bound_to 10713
  153.0423  135.5121  154.7656 H   0  0  0  0  0  0  0  0  0  0  0  0  # atno 10763 bound_to 10752
  154.6583  135.2935  154.9902 H   0  0  0  0  0  0  0  0  0  0  0  0  # atno 10764 bound_to 10752
  154.0762  135.6670  153.4884 H   0  0  0  0  0  0  0  0  0  0  0  0  # atno 10765 bound_to 10752
  139.8864  134.8585  156.3220 H   0  0  0  0  0  0  0  0  0  0  0  0  # atno 11005 bound_to 11000
  145.9147  140.9156  143.0436 LP  0  0  0  0  0  0  0  0  0  0  0  0  # atno 17320 bound_to 7965
  144.6726  140.1208  143.7450 LP  0  0  0  0  0  0  0  0  0  0  0  0  # atno 17321 bound_to 7965
  140.1612  144.5024  150.6632 LP  0  0  0  0  0  0  0  0  0  0  0  0  # atno 17342 bound_to 10162
  140.6769  143.2309  151.5485 LP  0  0  0  0  0  0  0  0  0  0  0  0  # atno 17343 bound_to 10162
  157.7406  131.0514  150.5152 LP  0  0  0  0  0  0  0  0  0  0  0  0  # atno 17370 bound_to 10713
  156.5301  130.4183  149.6206 LP  0  0  0  0  0  0  0  0  0  0  0  0  # atno 17371 bound_to 10713
  140.9781  133.7285  156.0631 LP  0  0  0  0  0  0  0  0  0  0  0  0  # atno 17394 bound_to 11000
  140.7785  134.3752  157.5492 LP  0  0  0  0  0  0  0  0  0  0  0  0  # atno 17395 bound_to 11000

$$$$
