#       Name:                AV-unprocessed.smi:243
#       Creating user name   scv26
#       Creation time:       Thu Mar 26 20:47:33 2020


#       File generated by GOLD software.
#

@<TRIPOS>MOLECULE
AV-unprocessed.smi:243
    65    68     1
SMALL
NO_CHARGES


@<TRIPOS>ATOM
      1 ****        -5.8354  -0.2762  -0.2792 C.3            1 S1                 0.0000
      2 ****        -5.3710   0.7989  -1.2726 C.3            1 S1                 0.0000
      3 ****        -3.8943   0.9519  -1.2990 N.4            1 S1                 1.0000
      4 ****        -3.4199   1.5977  -2.5457 C.3            1 S1                 0.0000
      5 ****        -1.8905   1.5563  -2.6113 C.3            1 S1                 0.0000
      6 ****        -1.2509   2.2754  -1.4031 C.3            1 S1                 0.0000
      7 ****         0.2200   2.3249  -1.4843 N.pl3          1 S1                 0.0000
      8 ****         0.9190   3.5228  -1.0322 C.3            1 S1                 0.0000
      9 ****         0.9462   1.1774  -1.4730 C.ar           1 S1                 0.0000
     10 ****         0.9368   0.4061  -2.5897 N.ar           1 S1                 0.0000
     11 ****         1.6435  -0.7261  -2.6384 C.ar           1 S1                 0.0000
     12 ****         2.4210  -1.2636  -1.6979 N.ar           1 S1                 0.0000
     13 ****         2.4507  -0.4869  -0.5777 C.ar           1 S1                 0.0000
     14 ****         1.7601   0.7442  -0.3854 C.ar           1 S1                 0.0000
     15 ****         2.0527   1.2505   0.8756 N.2            1 S1                 0.0000
     16 ****         2.8598   0.3698   1.3992 C.2            1 S1                 0.0000
     17 ****         3.1397  -0.7150   0.6006 N.pl3          1 S1                 0.0000
     18 ****         3.9964  -1.8424   0.9321 C.3            1 S1                 0.0000
     19 ****         3.2389  -3.0462   1.5490 C.3            1 S1                 0.0000
     20 ****         2.2746  -3.5297   0.6330 O.3            1 S1                 0.0000
     21 ****         4.1795  -4.1748   1.9380 C.3            1 S1                 0.0000
     22 ****         4.6423  -3.7688   3.3364 C.3            1 S1                 0.0000
     23 ****         3.6076  -2.9497   3.8745 O.3            1 S1                 0.0000
     24 ****         2.5847  -2.7525   2.9044 C.3            1 S1                 0.0000
     25 ****        -1.8064   1.6711  -0.0811 C.3            1 S1                 0.0000
     26 ****        -1.3574   2.4284   1.1810 C.3            1 S1                 0.0000
     27 ****        -3.3528   1.6456  -0.1024 C.3            1 S1                 0.0000
     28 ****        -6.9104  -0.4363  -0.3644 H              1 S1                 0.0000
     29 ****        -5.6343   0.0040   0.7543 H              1 S1                 0.0000
     30 ****        -5.3444  -1.2305  -0.4725 H              1 S1                 0.0000
     31 ****        -5.7181   0.5035  -2.2637 H              1 S1                 0.0000
     32 ****        -5.8438   1.7573  -1.0531 H              1 S1                 0.0000
     33 ****        -3.8262   1.0751  -3.4128 H              1 S1                 0.0000
     34 ****        -3.7798   2.6268  -2.5951 H              1 S1                 0.0000
     35 ****        -1.5945   0.5085  -2.6441 H              1 S1                 0.0000
     36 ****        -1.5486   2.0117  -3.5415 H              1 S1                 0.0000
     37 ****        -1.5882   3.3120  -1.4467 H              1 S1                 0.0000
     38 ****         1.9584   3.5131  -1.3636 H              1 S1                 0.0000
     39 ****         0.9106   3.6189   0.0519 H              1 S1                 0.0000
     40 ****         0.4500   4.4129  -1.4522 H              1 S1                 0.0000
     41 ****         1.5774  -1.2805  -3.5630 H              1 S1                 0.0000
     42 ****         3.2699   0.4838   2.3923 H              1 S1                 0.0000
     43 ****         4.5161  -2.1520   0.0245 H              1 S1                 0.0000
     44 ****         4.7682  -1.4874   1.6160 H              1 S1                 0.0000
     45 ****         1.8354  -4.2705   1.0221 H              1 S1                 0.0000
     46 ****         3.6351  -5.1184   2.0053 H              1 S1                 0.0000
     47 ****         5.0039  -4.3180   1.2386 H              1 S1                 0.0000
     48 ****         4.8321  -4.6336   3.9724 H              1 S1                 0.0000
     49 ****         5.5596  -3.1813   3.2842 H              1 S1                 0.0000
     50 ****         2.1372  -1.7627   2.9812 H              1 S1                 0.0000
     51 ****         1.7971  -3.4792   3.1114 H              1 S1                 0.0000
     52 ****        -1.4572   0.6406   0.0027 H              1 S1                 0.0000
     53 ****        -1.5900   3.4914   1.1103 H              1 S1                 0.0000
     54 ****        -0.2907   2.3291   1.3593 H              1 S1                 0.0000
     55 ****        -1.8552   2.0397   2.0699 H              1 S1                 0.0000
     56 ****        -3.7452   2.6636  -0.0722 H              1 S1                 0.0000
     57 ****        -3.7072   1.1494   0.8004 H              1 S1                 0.0000
     58 ****        -3.5098   0.0178  -1.3007 H              1 S1                 0.0000
     59 ****         0.3963   0.6879  -3.3825 LP             1 S1                 0.0000
     60 ****         2.9181  -2.1251  -1.8009 LP             1 S1                 0.0000
     61 ****         1.7196   2.0984   1.2881 LP             1 S1                 0.0000
     62 ****         2.7256  -3.8117  -0.2138 LP             1 S1                 0.0000
     63 ****         1.6093  -2.8104   0.4327 LP             1 S1                 0.0000
     64 ****         3.9899  -2.0636   4.1366 LP             1 S1                 0.0000
     65 ****         3.2177  -3.3960   4.6800 LP             1 S1                 0.0000
@<TRIPOS>BOND
    1    1    2 1     
    2    1   28 1     
    3    1   29 1     
    4    1   30 1     
    5    2    3 1     
    6    2   31 1     
    7    2   32 1     
    8    3   27 1     
    9    3    4 1     
   10    3   58 1     
   11    4    5 1     
   12    4   33 1     
   13    4   34 1     
   14    5    6 1     
   15    5   35 1     
   16    5   36 1     
   17    6    7 1     
   18    6   25 1     
   19    6   37 1     
   20    7    8 1     
   21    7    9 1     
   22    8   38 1     
   23    8   39 1     
   24    8   40 1     
   25    9   14 ar    
   26    9   10 ar    
   27   10   11 ar    
   28   11   12 ar    
   29   11   41 1     
   30   12   13 ar    
   31   13   17 1     
   32   13   14 ar    
   33   14   15 1     
   34   15   16 2     
   35   16   17 1     
   36   16   42 1     
   37   17   18 1     
   38   18   19 1     
   39   18   43 1     
   40   18   44 1     
   41   19   24 1     
   42   19   20 1     
   43   19   21 1     
   44   20   45 1     
   45   21   22 1     
   46   21   46 1     
   47   21   47 1     
   48   22   23 1     
   49   22   48 1     
   50   22   49 1     
   51   23   24 1     
   52   24   50 1     
   53   24   51 1     
   54   25   26 1     
   55   25   27 1     
   56   25   52 1     
   57   26   53 1     
   58   26   54 1     
   59   26   55 1     
   60   27   56 1     
   61   27   57 1     
   62   10   59 1     
   63   12   60 1     
   64   15   61 1     
   65   20   62 1     
   66   20   63 1     
   67   23   64 1     
   68   23   65 1     
@<TRIPOS>SUBSTRUCTURE
      1 S1             1
@<TRIPOS>SET
LONE_PAIRS      STATIC     ATOMS    <user>   **** ""
7 59 60 61 62 63 64 65
DONOR_HYDROGENS      STATIC     ATOMS    <user>   **** ""
2 58 45
ATOM$BLUE        STATIC     ATOMS    COLORGROUP SYSTEM
7 59 60 61 62 63 64 65
ATOM$RED        STATIC     ATOMS    COLORGROUP SYSTEM
2 58 45
