AV-unprocessed.smi:831|AV-procd|sdf|3875|dock4
  -GOLD-   22720 1333D 1   1.00000     0.00000
 Structure written by MMmdl.
 50 51  0  0  0  0  0  0  0  0  1 V2000
  148.8057  130.1432  154.7979 C   0  0  0  0  0  0  0  0  0  0  0  0
  149.7351  131.3577  154.9495 C   0  0  0  0  0  0  0  0  0  0  0  0
  150.6615  131.1889  156.1625 C   0  0  0  0  0  0  0  0  0  0  0  0
  148.9361  132.6675  155.0424 C   0  0  0  0  0  0  0  0  0  0  0  0
  149.8416  133.7586  155.1638 O   0  0  0  0  0  0  0  0  0  0  0  0
  149.2406  135.0192  155.4428 C   0  0  1  0  0  0  0  0  0  0  0  0
  148.7924  134.9924  156.9116 C   0  0  0  0  0  0  0  0  0  0  0  0
  150.2604  136.1523  155.1975 C   0  0  0  0  0  0  0  0  0  0  0  0
  151.3231  136.1489  155.8161 O   0  0  0  0  0  0  0  0  0  0  0  0
  149.9938  137.1210  154.3052 N   0  0  0  0  0  0  0  0  0  0  0  0
  150.8395  138.2565  153.9536 C   0  0  0  0  0  0  0  0  0  0  0  0
  151.1433  139.1857  155.1194 C   0  0  0  0  0  0  0  0  0  0  0  0
  150.4672  140.4096  155.3123 C   0  0  0  0  0  0  0  0  0  0  0  0
  150.8065  141.2114  156.4188 C   0  0  0  0  0  0  0  0  0  0  0  0
  151.8120  140.7697  157.3112 C   0  0  0  0  0  0  0  0  0  0  0  0
  152.1710  141.5610  158.4239 N   0  0  0  0  0  0  0  0  0  0  0  0
  152.3822  140.8328  159.6727 C   0  0  0  0  0  0  0  0  0  0  0  0
  153.0532  141.7415  160.7171 C   0  0  0  0  0  0  0  0  0  0  0  0
  152.2837  142.9264  160.8914 O   0  0  0  0  0  0  0  0  0  0  0  0
  152.1888  143.6773  159.6856 C   0  0  0  0  0  0  0  0  0  0  0  0
  151.4835  142.8382  158.6068 C   0  0  0  0  0  0  0  0  0  0  0  0
  152.4479  139.5856  157.1313 N   0  0  0  0  0  0  0  0  0  0  0  0
  152.1205  138.8221  156.0677 C   0  0  0  0  0  0  0  0  0  0  0  0
  148.1435  130.0407  155.6583 H   0  0  0  0  0  0  0  0  0  0  0  0
  149.3772  129.2194  154.7057 H   0  0  0  0  0  0  0  0  0  0  0  0
  148.1814  130.2309  153.9082 H   0  0  0  0  0  0  0  0  0  0  0  0
  150.3661  131.4118  154.0616 H   0  0  0  0  0  0  0  0  0  0  0  0
  150.0927  131.1293  157.0910 H   0  0  0  0  0  0  0  0  0  0  0  0
  151.3534  132.0273  156.2493 H   0  0  0  0  0  0  0  0  0  0  0  0
  151.2577  130.2799  156.0777 H   0  0  0  0  0  0  0  0  0  0  0  0
  148.2960  132.7739  154.1657 H   0  0  0  0  0  0  0  0  0  0  0  0
  148.2853  132.6459  155.9178 H   0  0  0  0  0  0  0  0  0  0  0  0
  148.3462  135.1278  154.8306 H   0  0  0  0  0  0  0  0  0  0  0  0
  148.3250  135.9348  157.1993 H   0  0  0  0  0  0  0  0  0  0  0  0
  149.6300  134.8124  157.5866 H   0  0  0  0  0  0  0  0  0  0  0  0
  148.0622  134.2000  157.0773 H   0  0  0  0  0  0  0  0  0  0  0  0
  149.1122  137.0580  153.8172 H   0  0  0  0  0  0  0  0  0  0  0  0
  151.7865  137.8948  153.5508 H   0  0  0  0  0  0  0  0  0  0  0  0
  150.3501  138.8369  153.1699 H   0  0  0  0  0  0  0  0  0  0  0  0
  149.6951  140.7381  154.6327 H   0  0  0  0  0  0  0  0  0  0  0  0
  150.2839  142.1429  156.5773 H   0  0  0  0  0  0  0  0  0  0  0  0
  151.4172  140.4869  160.0454 H   0  0  0  0  0  0  0  0  0  0  0  0
  152.9998  139.9482  159.5246 H   0  0  0  0  0  0  0  0  0  0  0  0
  153.1276  141.2228  161.6730 H   0  0  0  0  0  0  0  0  0  0  0  0
  154.0701  141.9967  160.4142 H   0  0  0  0  0  0  0  0  0  0  0  0
  151.6247  144.5896  159.8788 H   0  0  0  0  0  0  0  0  0  0  0  0
  153.1831  143.9819  159.3545 H   0  0  0  0  0  0  0  0  0  0  0  0
  151.4664  143.3955  157.6694 H   0  0  0  0  0  0  0  0  0  0  0  0
  150.4481  142.6535  158.8965 H   0  0  0  0  0  0  0  0  0  0  0  0
  152.6592  137.8908  155.9707 H   0  0  0  0  0  0  0  0  0  0  0  0
  1  2  1  0  0  0  0
  1 24  1  0  0  0  0
  1 25  1  0  0  0  0
  1 26  1  0  0  0  0
  2  3  1  0  0  0  0
  2  4  1  0  0  0  0
  2 27  1  0  0  0  0
  3 28  1  0  0  0  0
  3 29  1  0  0  0  0
  3 30  1  0  0  0  0
  4  5  1  0  0  0  0
  4 31  1  0  0  0  0
  4 32  1  0  0  0  0
  5  6  1  0  0  0  0
  6  7  1  0  0  0  0
  6  8  1  0  0  0  0
  6 33  1  0  0  0  0
  7 34  1  0  0  0  0
  7 35  1  0  0  0  0
  7 36  1  0  0  0  0
  8  9  2  0  0  0  0
  8 10  1  0  0  0  0
 10 11  1  0  0  0  0
 10 37  1  0  0  0  0
 11 12  1  0  0  0  0
 11 38  1  0  0  0  0
 11 39  1  0  0  0  0
 12 23  1  0  0  0  0
 12 13  2  0  0  0  0
 13 14  1  0  0  0  0
 13 40  1  0  0  0  0
 14 15  2  0  0  0  0
 14 41  1  0  0  0  0
 15 16  1  0  0  0  0
 15 22  1  0  0  0  0
 16 21  1  0  0  0  0
 16 17  1  0  0  0  0
 17 18  1  0  0  0  0
 17 42  1  0  0  0  0
 17 43  1  0  0  0  0
 18 19  1  0  0  0  0
 18 44  1  0  0  0  0
 18 45  1  0  0  0  0
 19 20  1  0  0  0  0
 20 21  1  0  0  0  0
 20 46  1  0  0  0  0
 20 47  1  0  0  0  0
 21 48  1  0  0  0  0
 21 49  1  0  0  0  0
 22 23  2  0  0  0  0
 23 50  1  0  0  0  0
M  END
> <s_m_source_file>
AV-unprocessed.smi

> <i_m_source_file_index>
831

> <i_lp_mmshare_version>
43012

> <i_f3d_flags>
0

> <s_epik_input>
W0NIM11bQ0hdKFtDSDNdKVtDSDJdT1tDQEhdKFtDSDNdKUMoPU8pW05IXVtDSDJdYzFbY0hdW2NIXWMobltjSF0xKU4yW0NIMl1bQ0gyXU9bQ0gyXVtDSDJdMg==

> <s_epik_cmdline>
J2VwaWtfcHl0aG9uJywgJy1waCcsICc3LjAnLCAnLXRuJywgJzgnLCAnLW1hJywgJzIwMCcsICctbWV0YWxfYmluZGluZycsICctaW1hZScsICc8aW5maWxlLm1hZT4nLCAnLW9tYWUnLCAnPG91dGZpbGUubWFlPic=

> <r_lp_tautomer_probability>
1

> <r_epik_Ionization_Penalty>
0.00456501

> <r_epik_Ionization_Penalty_Charging>
0

> <r_epik_Ionization_Penalty_Neutral>
0.00456501

> <r_epik_State_Penalty>
0.00329791

> <r_epik_Charging_Adjusted_Penalty>
0.00329791

> <i_epik_Tot_Q>
0

> <i_epik_Tot_abs_Q>
0

> <r_epik_Metal_State_Penalty>
-0

> <b_epik_Metal_Only>
0

> <s_lp_Force_Field>
OPLS_2005

> <r_lp_Energy>
24.1479

> <b_lp_Chiralities_Consistent>
1

> <s_lp_Variant>
AV-unprocessed.smi:831-2

> <Gold.Version>
5.8.1

> <Gold.Id.Protein>
6NUR|6NUR_protein|mol2

> <Gold.PLP.Fitness>
49.1292

> <Gold.PLP.PLP>
-42.3698

> <Gold.PLP.part.hbond>
-3.8592

> <Gold.PLP.part.metal>
0.0000

> <Gold.PLP.part.buried>
-3.8365

> <Gold.PLP.part.nonpolar>
-33.7997

> <Gold.PLP.part.repulsive>
0.2567

> <Gold.PLP.ligand.clash>
0.0000

> <Gold.PLP.ligand.torsion>
0.6249

> <Gold.PLP.Chemscore.Hbond>
2.5440

> <Gold.PLP.Chemscore.CHOScore>
0.0000

> <Gold.PLP.Chemscore.Metal>
0.0000

> <Gold.Chemscore.Hbonds>
donor molecule, donor type, donor heavy atom, donor atom, acceptor molecule, acceptor atom, score
      L1  H    10    37       P1  7948  0.33
      P1  H  7997  8008       L1    22  0.84
      P1  H 10752 10765       L1     9  0.94

> <Gold.PLP.Chemscore.Internal.Correction>
0.3773

> <Gold.Rescore>
     Score         DG    S(hbond)    S(metal)    S(lipo)     H(rot)  DE(clash)    DE(int)     intcor
     16.36     -18.48       1.72        0.00     103.94       1.92       0.02       2.09       ----

> <Gold.Chemscore.Fitness>
16.3623

> <Gold.Chemscore.DG>
-18.4795

> <Gold.Chemscore.ZeroCoef>
-5.4800

> <Gold.Chemscore.Hbond>
1.7195

> <Gold.Chemscore.Metal>
0.0000

> <Gold.Chemscore.Lipo>
103.9405

> <Gold.Chemscore.Internal_Hbond>
0.0000

> <Gold.Chemscore.DEClash>
0.0238

> <Gold.Chemscore.DEInternal>
2.0934

> <Gold.Chemscore.Rot>
1.9159

> <Gold.Chemscore.Internal.Correction>
   9.000000E+99

> <Gold.Chemscore.Hbonds>
donor molecule, donor type, donor heavy atom, donor atom, acceptor molecule, acceptor atom, score
      L1  H    10    37       P1  7948  0.33
      P1  H  7997  8008       L1    22  0.22
      P1  H 10752 10765       L1     9  0.89

> <Gold.Chemscore.Hbond.Weighted>
-5.7432

> <Gold.Chemscore.Metal.Weighted>
-0.0000

> <Gold.Chemscore.Lipo.Weighted>
-12.1610

> <Gold.Chemscore.Internal_Hbond.Weighted>
0.0000

> <Gold.Chemscore.DEClash.Weighted>
0.0238

> <Gold.Chemscore.DEInternal.Weighted>
2.0934

> <Gold.Chemscore.Rot.Weighted>
4.9047

> <Gold.Chemscore.Internal.Correction.Weighted>
   9.000000E+99

> <Gold.Protein.RotatedTorsions>
[ 6907 6896 6895 6894 ] final   54.93 input  -60.11 | X-H torsion
[ 7974 7965 7964 7962 ] final  138.01 input  175.53 | X-H torsion
[ 8008 7997 7996 7995 ] final  -74.21 input   59.86 | X-H torsion
[ 10167 10162 10161 10158 ] final -136.93 input  -65.29 | X-H torsion
[ 10718 10713 10712 10709 ] final  -99.74 input   66.30 | X-H torsion
[ 10763 10752 10751 10750 ] final -156.85 input  -60.55 | X-H torsion
[ 11005 11000 10999 10996 ] final  112.68 input  -57.11 | X-H torsion

> <Gold.Protein.ActiveResidues>
 VAL166  LYS551  ARG553  GLY616  TRP617  ASP618  TYR619  PRO620  LYS621  CYS622 
 ASP623  PHE694  ASN695  SER759  ASP760  ASP761  ALA762  ILE779  LEU786  VAL792 
 PHE793  MET794  SER795  GLU796  ALA797  LYS798  CYS799  TRP800  GLU811  SER814 

> <Gold.Protein.RotatedAtoms>
  152.3488  134.7034  160.0242 H   0  0  0  0  0  0  0  0  0  0  0  0  # atno 6907 bound_to 6896
  151.7395  133.3316  159.3370 H   0  0  0  0  0  0  0  0  0  0  0  0  # atno 6908 bound_to 6896
  150.7526  134.6224  159.6188 H   0  0  0  0  0  0  0  0  0  0  0  0  # atno 6909 bound_to 6896
  144.9413  139.4927  143.5570 H   0  0  0  0  0  0  0  0  0  0  0  0  # atno 7974 bound_to 7965
  154.5311  140.0765  156.8346 H   0  0  0  0  0  0  0  0  0  0  0  0  # atno 8008 bound_to 7997
  155.3373  140.3405  155.4221 H   0  0  0  0  0  0  0  0  0  0  0  0  # atno 8009 bound_to 7997
  156.1782  140.1643  156.8310 H   0  0  0  0  0  0  0  0  0  0  0  0  # atno 8010 bound_to 7997
  139.8629  143.7055  152.2648 H   0  0  0  0  0  0  0  0  0  0  0  0  # atno 10167 bound_to 10162
  156.0142  130.5296  150.6715 H   0  0  0  0  0  0  0  0  0  0  0  0  # atno 10718 bound_to 10713
  154.7681  135.3137  154.8245 H   0  0  0  0  0  0  0  0  0  0  0  0  # atno 10763 bound_to 10752
  153.8987  135.6818  153.4760 H   0  0  0  0  0  0  0  0  0  0  0  0  # atno 10764 bound_to 10752
  153.1290  135.4788  154.9253 H   0  0  0  0  0  0  0  0  0  0  0  0  # atno 10765 bound_to 10752
  139.8933  134.9535  156.6623 H   0  0  0  0  0  0  0  0  0  0  0  0  # atno 11005 bound_to 11000
  146.3287  139.8434  142.8886 LP  0  0  0  0  0  0  0  0  0  0  0  0  # atno 17320 bound_to 7965
  145.2987  141.0188  143.3621 LP  0  0  0  0  0  0  0  0  0  0  0  0  # atno 17321 bound_to 7965
  139.7357  144.7572  151.0732 LP  0  0  0  0  0  0  0  0  0  0  0  0  # atno 17342 bound_to 10162
  140.7772  143.5034  150.9743 LP  0  0  0  0  0  0  0  0  0  0  0  0  # atno 17343 bound_to 10162
  157.4436  131.0864  151.0918 LP  0  0  0  0  0  0  0  0  0  0  0  0  # atno 17370 bound_to 10713
  157.1455  130.6161  149.5567 LP  0  0  0  0  0  0  0  0  0  0  0  0  # atno 17371 bound_to 10713
  140.7438  133.8955  155.8297 LP  0  0  0  0  0  0  0  0  0  0  0  0  # atno 17394 bound_to 11000
  141.0056  134.1090  157.4273 LP  0  0  0  0  0  0  0  0  0  0  0  0  # atno 17395 bound_to 11000

$$$$
