#       Name:                AV-unprocessed.smi:37
#       Creating user name   scv26
#       Creation time:       Thu Mar 26 16:13:53 2020


#       File generated by GOLD software.
#

@<TRIPOS>MOLECULE
AV-unprocessed.smi:37
    54    55     1
SMALL
NO_CHARGES


@<TRIPOS>ATOM
      1 ****        -5.1203   2.5620  -1.2665 C.3            1 S1                 0.0000
      2 ****        -3.6042   2.5104  -1.5094 C.3            1 S1                 0.0000
      3 ****        -3.0112   1.1046  -1.3915 C.2            1 S1                 0.0000
      4 ****        -3.6938   0.1215  -1.0974 O.2            1 S1                 0.0000
      5 ****        -1.6925   1.0952  -1.6391 O.3            1 S1                 0.0000
      6 ****        -0.9655  -0.1200  -1.5421 C.3            1 S1                 0.0000
      7 ****         0.5433   0.1746  -1.4910 C.3            1 S1                 0.0000
      8 ****         1.2232  -1.0627  -1.7050 O.3            1 S1                 0.0000
      9 ****         2.2380  -1.2058  -0.7629 C.3            1 S1                 0.0000
     10 ****         2.5235  -2.6701  -0.5246 N.am           1 S1                 0.0000
     11 ****         1.6459  -3.6708  -0.9257 C.2            1 S1                 0.0000
     12 ****         1.8854  -4.9863  -0.7127 C.2            1 S1                 0.0000
     13 ****         0.9877  -5.8987  -1.1222 F              1 S1                 0.0000
     14 ****         3.1042  -5.4223  -0.0371 C.2            1 S1                 0.0000
     15 ****         3.4105  -6.5897   0.1968 O.2            1 S1                 0.0000
     16 ****         3.9520  -4.3817   0.3537 N.am           1 S1                 0.0000
     17 ****         3.7158  -3.0221   0.1433 C.2            1 S1                 0.0000
     18 ****         4.5276  -2.1851   0.5360 O.2            1 S1                 0.0000
     19 ****         1.7434  -0.4873   0.4919 C.3            1 S1                 0.0000
     20 ****         0.4074  -1.5859   1.4985 Br             1 S1                 0.0000
     21 ****         1.0736   0.7204  -0.1476 C.3            1 S1                 0.0000
     22 ****         0.0723   1.3087   0.6758 O.3            1 S1                 0.0000
     23 ****         0.4069   2.1909   1.6312 C.2            1 S1                 0.0000
     24 ****         1.5524   2.5541   1.9040 O.2            1 S1                 0.0000
     25 ****        -0.8220   2.7135   2.3772 C.3            1 S1                 0.0000
     26 ****        -0.4818   3.6941   3.5089 C.3            1 S1                 0.0000
     27 ****         4.8052  -4.6362   0.8299 H              1 S1                 0.0000
     28 ****        -5.4903   3.5824  -1.3681 H              1 S1                 0.0000
     29 ****        -5.3750   2.2181  -0.2631 H              1 S1                 0.0000
     30 ****        -5.6602   1.9433  -1.9842 H              1 S1                 0.0000
     31 ****        -3.3791   2.8984  -2.5030 H              1 S1                 0.0000
     32 ****        -3.0965   3.1591  -0.7951 H              1 S1                 0.0000
     33 ****        -1.2700  -0.6926  -0.6651 H              1 S1                 0.0000
     34 ****        -1.1952  -0.7272  -2.4185 H              1 S1                 0.0000
     35 ****         0.8096   0.8583  -2.2980 H              1 S1                 0.0000
     36 ****         3.1538  -0.7747  -1.1746 H              1 S1                 0.0000
     37 ****         0.7209  -3.4105  -1.4190 H              1 S1                 0.0000
     38 ****         2.5646  -0.2323   1.1623 H              1 S1                 0.0000
     39 ****         1.8431   1.4576  -0.3841 H              1 S1                 0.0000
     40 ****        -1.4823   3.1980   1.6573 H              1 S1                 0.0000
     41 ****        -1.3684   1.8612   2.7818 H              1 S1                 0.0000
     42 ****        -1.3900   4.0369   4.0046 H              1 S1                 0.0000
     43 ****         0.0392   4.5743   3.1301 H              1 S1                 0.0000
     44 ****         0.1496   3.2255   4.2647 H              1 S1                 0.0000
     45 ****        -4.6734   0.2262  -0.9258 LP             1 S1                 0.0000
     46 ****        -3.2681  -0.7809  -1.0304 LP             1 S1                 0.0000
     47 ****         1.6181  -1.0711  -2.6237 LP             1 S1                 0.0000
     48 ****         0.5752  -1.8189  -1.6139 LP             1 S1                 0.0000
     49 ****         2.8015  -7.3320  -0.0826 LP             1 S1                 0.0000
     50 ****         4.2687  -6.7970   0.6664 LP             1 S1                 0.0000
     51 ****         4.3544  -1.2117   0.3858 LP             1 S1                 0.0000
     52 ****         5.3605  -2.4782   1.0053 LP             1 S1                 0.0000
     53 ****         2.3290   2.1843   1.3939 LP             1 S1                 0.0000
     54 ****         1.7054   3.2186   2.6355 LP             1 S1                 0.0000
@<TRIPOS>BOND
    1    1    2 1     
    2    1   28 1     
    3    1   29 1     
    4    1   30 1     
    5    2    3 1     
    6    2   31 1     
    7    2   32 1     
    8    3    4 2     
    9    3    5 1     
   10    5    6 1     
   11    6    7 1     
   12    6   33 1     
   13    6   34 1     
   14    7   21 1     
   15    7    8 1     
   16    7   35 1     
   17    8    9 1     
   18    9   10 1     
   19    9   19 1     
   20    9   36 1     
   21   10   17 1     
   22   10   11 1     
   23   11   12 2     
   24   11   37 1     
   25   12   13 1     
   26   12   14 1     
   27   14   15 2     
   28   14   16 1     
   29   16   27 1     
   30   16   17 1     
   31   17   18 2     
   32   19   20 1     
   33   19   21 1     
   34   19   38 1     
   35   21   22 1     
   36   21   39 1     
   37   22   23 1     
   38   23   24 2     
   39   23   25 1     
   40   25   26 1     
   41   25   40 1     
   42   25   41 1     
   43   26   42 1     
   44   26   43 1     
   45   26   44 1     
   46    4   45 1     
   47    4   46 1     
   48    8   47 1     
   49    8   48 1     
   50   15   49 1     
   51   15   50 1     
   52   18   51 1     
   53   18   52 1     
   54   24   53 1     
   55   24   54 1     
@<TRIPOS>SUBSTRUCTURE
      1 S1             1
@<TRIPOS>SET
LONE_PAIRS      STATIC     ATOMS    <user>   **** ""
10 45 46 47 48 49 50 51 52 53 54
DONOR_HYDROGENS      STATIC     ATOMS    <user>   **** ""
1 27
ATOM$BLUE        STATIC     ATOMS    COLORGROUP SYSTEM
10 45 46 47 48 49 50 51 52 53 54
ATOM$RED        STATIC     ATOMS    COLORGROUP SYSTEM
1 27
