AV-unprocessed.smi:3098|AV-procd|sdf|11801|dock1
  -GOLD-   2272017173D 1   1.00000     0.00000
 Structure written by MMmdl.
 29 30  0  0  0  0  0  0  0  0  1 V2000
  149.5923  138.5177  153.2059 N   0  0  0  0  0  0  0  0  0  0  0  0
  150.7677  138.1770  153.9824 C   0  0  0  0  0  0  0  0  0  0  0  0
  151.0153  139.1504  155.1164 C   0  0  0  0  0  0  0  0  0  0  0  0
  152.2362  139.1489  155.8202 C   0  0  0  0  0  0  0  0  0  0  0  0
  152.5055  139.9938  156.8378 N   0  0  0  0  0  0  0  0  0  0  0  0
  151.5594  140.8908  157.2124 C   0  0  0  0  0  0  0  0  0  0  0  0
  151.8505  141.7551  158.2872 N   0  0  0  0  0  0  0  0  0  0  0  0
  152.8828  141.2640  159.1945 C   0  0  0  0  0  0  0  0  0  0  0  0
  152.9279  142.1302  160.4651 C   0  0  0  0  0  0  0  0  0  0  0  0
  153.1133  143.4972  160.1100 O   0  0  0  0  0  0  0  0  0  0  0  0
  152.0485  143.9864  159.3006 C   0  0  0  0  0  0  0  0  0  0  0  0
  151.9820  143.1797  157.9928 C   0  0  0  0  0  0  0  0  0  0  0  0
  150.3060  140.9700  156.5571 C   0  0  0  0  0  0  0  0  0  0  0  0
  149.3799  141.8904  156.9202 F   0  0  0  0  0  0  0  0  0  0  0  0
  150.0326  140.0856  155.4960 C   0  0  0  0  0  0  0  0  0  0  0  0
  149.8541  139.1473  152.4605 H   0  0  0  0  0  0  0  0  0  0  0  0
  149.2372  137.6866  152.7548 H   0  0  0  0  0  0  0  0  0  0  0  0
  150.6532  137.1669  154.3763 H   0  0  0  0  0  0  0  0  0  0  0  0
  151.6368  138.1653  153.3240 H   0  0  0  0  0  0  0  0  0  0  0  0
  153.0194  138.4510  155.5631 H   0  0  0  0  0  0  0  0  0  0  0  0
  152.7099  140.2242  159.4696 H   0  0  0  0  0  0  0  0  0  0  0  0
  153.8466  141.2999  158.6849 H   0  0  0  0  0  0  0  0  0  0  0  0
  152.0113  142.0156  161.0461 H   0  0  0  0  0  0  0  0  0  0  0  0
  153.7519  141.8150  161.1053 H   0  0  0  0  0  0  0  0  0  0  0  0
  151.1047  143.9243  159.8453 H   0  0  0  0  0  0  0  0  0  0  0  0
  152.2222  145.0403  159.0834 H   0  0  0  0  0  0  0  0  0  0  0  0
  152.8868  143.3498  157.4075 H   0  0  0  0  0  0  0  0  0  0  0  0
  151.1360  143.5175  157.3929 H   0  0  0  0  0  0  0  0  0  0  0  0
  149.0842  140.1274  154.9810 H   0  0  0  0  0  0  0  0  0  0  0  0
  1  2  1  0  0  0  0
  1 16  1  0  0  0  0
  1 17  1  0  0  0  0
  2  3  1  0  0  0  0
  2 18  1  0  0  0  0
  2 19  1  0  0  0  0
  3 15  1  0  0  0  0
  3  4  2  0  0  0  0
  4  5  1  0  0  0  0
  4 20  1  0  0  0  0
  5  6  2  0  0  0  0
  6  7  1  0  0  0  0
  6 13  1  0  0  0  0
  7 12  1  0  0  0  0
  7  8  1  0  0  0  0
  8  9  1  0  0  0  0
  8 21  1  0  0  0  0
  8 22  1  0  0  0  0
  9 10  1  0  0  0  0
  9 23  1  0  0  0  0
  9 24  1  0  0  0  0
 10 11  1  0  0  0  0
 11 12  1  0  0  0  0
 11 25  1  0  0  0  0
 11 26  1  0  0  0  0
 12 27  1  0  0  0  0
 12 28  1  0  0  0  0
 13 14  1  0  0  0  0
 13 15  2  0  0  0  0
 15 29  1  0  0  0  0
M  END
> <s_m_source_file>
AV-unprocessed.smi

> <i_m_source_file_index>
3098

> <i_lp_mmshare_version>
43012

> <i_f3d_flags>
0

> <s_epik_input>
W05IMl1bQ0gyXWMxW2NIXW5jKGMoRilbY0hdMSlOMltDSDJdW0NIMl1PW0NIMl1bQ0gyXTI=

> <s_epik_cmdline>
J2VwaWtfcHl0aG9uJywgJy1waCcsICc3LjAnLCAnLXRuJywgJzgnLCAnLW1hJywgJzIwMCcsICctbWV0YWxfYmluZGluZycsICctaW1hZScsICc8aW5maWxlLm1hZT4nLCAnLW9tYWUnLCAnPG91dGZpbGUubWFlPic=

> <r_lp_tautomer_probability>
1

> <r_epik_Ionization_Penalty>
1.30159

> <r_epik_Ionization_Penalty_Charging>
0

> <r_epik_Ionization_Penalty_Neutral>
1.30159

> <r_epik_State_Penalty>
1.37556

> <r_epik_Charging_Adjusted_Penalty>
1.37556

> <i_epik_Tot_Q>
0

> <i_epik_Tot_abs_Q>
0

> <r_epik_Metal_State_Penalty>
1.37554

> <b_epik_Metal_Only>
0

> <s_lp_Force_Field>
OPLS_2005

> <r_lp_Energy>
18.215

> <b_lp_Chiralities_Consistent>
1

> <s_lp_Variant>
AV-unprocessed.smi:3098-2

> <Gold.Version>
5.8.1

> <Gold.Id.Protein>
6NUR|6NUR_protein|mol2

> <Gold.PLP.Fitness>
39.4228

> <Gold.PLP.PLP>
-31.1928

> <Gold.PLP.part.hbond>
-3.0000

> <Gold.PLP.part.metal>
0.0000

> <Gold.PLP.part.buried>
-4.0707

> <Gold.PLP.part.nonpolar>
-24.8449

> <Gold.PLP.part.repulsive>
0.0000

> <Gold.PLP.ligand.clash>
0.0000

> <Gold.PLP.ligand.torsion>
0.5106

> <Gold.PLP.Chemscore.Hbond>
3.0000

> <Gold.PLP.Chemscore.CHOScore>
0.0000

> <Gold.PLP.Chemscore.Metal>
0.0000

> <Gold.Chemscore.Hbonds>
donor molecule, donor type, donor heavy atom, donor atom, acceptor molecule, acceptor atom, score
      L1  H     1    16       P1  7957  1.00
      L1  H     1    17       P1  7948  1.00
      P1  H  7997  8009       L1     5  0.95

> <Gold.PLP.Chemscore.Internal.Correction>
0.2513

> <Gold.Rescore>
     Score         DG    S(hbond)    S(metal)    S(lipo)     H(rot)  DE(clash)    DE(int)     intcor
     18.34     -19.02       2.31        0.00      78.55       1.32       0.24       0.44       ----

> <Gold.Chemscore.Fitness>
18.3422

> <Gold.Chemscore.DG>
-19.0248

> <Gold.Chemscore.ZeroCoef>
-5.4800

> <Gold.Chemscore.Hbond>
2.3117

> <Gold.Chemscore.Metal>
0.0000

> <Gold.Chemscore.Lipo>
78.5508

> <Gold.Chemscore.Internal_Hbond>
0.0000

> <Gold.Chemscore.DEClash>
0.2407

> <Gold.Chemscore.DEInternal>
0.4418

> <Gold.Chemscore.Rot>
1.3151

> <Gold.Chemscore.Internal.Correction>
   9.000000E+99

> <Gold.Chemscore.Hbonds>
donor molecule, donor type, donor heavy atom, donor atom, acceptor molecule, acceptor atom, score
      L1  H     1    16       P1  7957  0.76
      L1  H     1    17       P1  7948  0.96
      P1  H  7997  8009       L1     5  0.21

> <Gold.Chemscore.Hbond.Weighted>
-7.7209

> <Gold.Chemscore.Metal.Weighted>
-0.0000

> <Gold.Chemscore.Lipo.Weighted>
-9.1904

> <Gold.Chemscore.Internal_Hbond.Weighted>
0.0000

> <Gold.Chemscore.DEClash.Weighted>
0.2407

> <Gold.Chemscore.DEInternal.Weighted>
0.4418

> <Gold.Chemscore.Rot.Weighted>
3.3666

> <Gold.Chemscore.Internal.Correction.Weighted>
   9.000000E+99

> <Gold.Protein.RotatedTorsions>
[ 6907 6896 6895 6894 ] final  161.84 input  -60.11 | X-H torsion
[ 7974 7965 7964 7962 ] final  113.79 input  175.53 | X-H torsion
[ 8008 7997 7996 7995 ] final  178.36 input   59.86 | X-H torsion
[ 10167 10162 10161 10158 ] final -161.96 input  -65.29 | X-H torsion
[ 10718 10713 10712 10709 ] final   58.19 input   66.30 | X-H torsion
[ 10763 10752 10751 10750 ] final  141.12 input  -60.55 | X-H torsion
[ 11005 11000 10999 10996 ] final  124.41 input  -57.11 | X-H torsion

> <Gold.Protein.ActiveResidues>
 VAL166  LYS551  ARG553  GLY616  TRP617  ASP618  TYR619  PRO620  LYS621  CYS622 
 ASP623  PHE694  ASN695  SER759  ASP760  ASP761  ALA762  ILE779  LEU786  VAL792 
 PHE793  MET794  SER795  GLU796  ALA797  LYS798  CYS799  TRP800  GLU811  SER814 

> <Gold.Protein.RotatedAtoms>
  151.9495  133.3662  159.3994 H   0  0  0  0  0  0  0  0  0  0  0  0  # atno 6907 bound_to 6896
  150.6983  134.4354  159.5277 H   0  0  0  0  0  0  0  0  0  0  0  0  # atno 6908 bound_to 6896
  152.2025  134.8575  160.0557 H   0  0  0  0  0  0  0  0  0  0  0  0  # atno 6909 bound_to 6896
  145.2126  139.2899  143.4260 H   0  0  0  0  0  0  0  0  0  0  0  0  # atno 7974 bound_to 7965
  156.0555  140.1335  157.0002 H   0  0  0  0  0  0  0  0  0  0  0  0  # atno 8008 bound_to 7997
  154.4455  140.1002  156.6510 H   0  0  0  0  0  0  0  0  0  0  0  0  # atno 8009 bound_to 7997
  155.5458  140.3462  155.4459 H   0  0  0  0  0  0  0  0  0  0  0  0  # atno 8010 bound_to 7997
  139.6426  144.0230  152.2104 H   0  0  0  0  0  0  0  0  0  0  0  0  # atno 10167 bound_to 10162
  157.5576  130.8812  149.9060 H   0  0  0  0  0  0  0  0  0  0  0  0  # atno 10718 bound_to 10713
  153.9341  135.2987  155.3445 H   0  0  0  0  0  0  0  0  0  0  0  0  # atno 10763 bound_to 10752
  154.7511  135.4979  153.9295 H   0  0  0  0  0  0  0  0  0  0  0  0  # atno 10764 bound_to 10752
  153.1076  135.6751  153.9663 H   0  0  0  0  0  0  0  0  0  0  0  0  # atno 10765 bound_to 10752
  139.9357  134.9639  156.8406 H   0  0  0  0  0  0  0  0  0  0  0  0  # atno 11005 bound_to 11000
  146.3394  140.2406  142.8595 LP  0  0  0  0  0  0  0  0  0  0  0  0  # atno 17320 bound_to 7965
  144.9842  140.8487  143.5379 LP  0  0  0  0  0  0  0  0  0  0  0  0  # atno 17321 bound_to 7965
  139.9924  144.6352  150.7802 LP  0  0  0  0  0  0  0  0  0  0  0  0  # atno 17342 bound_to 10162
  140.7499  143.2946  151.3239 LP  0  0  0  0  0  0  0  0  0  0  0  0  # atno 17343 bound_to 10162
  156.0633  130.3696  150.0934 LP  0  0  0  0  0  0  0  0  0  0  0  0  # atno 17370 bound_to 10713
  156.9101  130.9649  151.3564 LP  0  0  0  0  0  0  0  0  0  0  0  0  # atno 17371 bound_to 10713
  140.6081  134.0108  155.7565 LP  0  0  0  0  0  0  0  0  0  0  0  0  # atno 17394 bound_to 11000
  141.0970  133.9828  157.3143 LP  0  0  0  0  0  0  0  0  0  0  0  0  # atno 17395 bound_to 11000

$$$$
