AV-unprocessed.smi:1033|AV-procd|sdf|4512|dock6
  -GOLD-   22720 2523D 1   1.00000     0.00000
 Structure written by MMmdl.
 57 59  0  0  0  0  0  0  0  0  3 V2000
  152.3977  142.9191  160.6743 C   0  0  0  0  0  0  0  0  0  0  0  0
  152.0315  142.2430  159.3648 C   0  0  0  0  0  0  0  0  0  0  0  0
  152.7383  141.0856  158.9687 C   0  0  0  0  0  0  0  0  0  0  0  0
  152.4273  140.4254  157.7604 C   0  0  0  0  0  0  0  0  0  0  0  0
  152.9816  139.2950  157.1857 N   0  0  0  0  0  0  0  0  0  0  0  0
  152.2672  139.1827  156.0703 C   0  0  0  0  0  0  0  0  0  0  0  0
  151.3246  140.1187  155.8450 N   0  0  0  0  0  0  0  0  0  0  0  0
  150.4388  140.2102  154.6985 C   0  0  0  0  0  0  0  0  0  0  0  0
  149.5547  138.9577  154.5286 C   0  0  2  0  0  0  0  0  0  0  0  0
  150.2913  138.0046  153.7899 O   0  0  0  0  0  0  0  0  0  0  0  0
  148.2243  139.2378  153.7933 C   0  0  0  0  0  0  0  0  0  0  0  0
  147.4577  138.0006  153.4938 N   0  3  2  0  0  0  0  0  0  0  0  0
  146.3397  138.2493  152.5498 C   0  0  0  0  0  0  0  0  0  0  0  0
  145.6270  136.9365  152.1747 C   0  0  0  0  0  0  0  0  0  0  0  0
  145.1394  136.2111  153.3743 N   0  3  2  0  0  0  0  0  0  0  0  0
  143.9070  136.7994  153.9654 C   0  0  0  0  0  0  0  0  0  0  0  0
  142.7503  136.9027  152.9508 C   0  0  1  0  0  0  0  0  0  0  0  0
  141.7202  135.7829  153.1465 C   0  0  0  0  0  0  0  0  0  0  0  0
  142.0830  138.1369  153.1219 O   0  0  0  0  0  0  0  0  0  0  0  0
  146.2439  135.9812  154.3431 C   0  0  0  0  0  0  0  0  0  0  0  0
  146.9873  137.2836  154.7081 C   0  0  0  0  0  0  0  0  0  0  0  0
  151.3841  140.9616  156.9497 C   0  0  0  0  0  0  0  0  0  0  0  0
  150.6717  142.1113  157.3342 C   0  0  0  0  0  0  0  0  0  0  0  0
  150.9940  142.7571  158.5461 C   0  0  0  0  0  0  0  0  0  0  0  0
  150.2179  143.9966  158.9549 C   0  0  0  0  0  0  0  0  0  0  0  0
  153.2154  142.4003  161.1753 H   0  0  0  0  0  0  0  0  0  0  0  0
  151.5435  142.9283  161.3517 H   0  0  0  0  0  0  0  0  0  0  0  0
  152.7124  143.9479  160.4988 H   0  0  0  0  0  0  0  0  0  0  0  0
  153.5272  140.6925  159.5933 H   0  0  0  0  0  0  0  0  0  0  0  0
  152.4473  138.3792  155.3710 H   0  0  0  0  0  0  0  0  0  0  0  0
  149.8169  141.0995  154.8140 H   0  0  0  0  0  0  0  0  0  0  0  0
  151.0492  140.3697  153.8084 H   0  0  0  0  0  0  0  0  0  0  0  0
  149.3619  138.5394  155.5153 H   0  0  0  0  0  0  0  0  0  0  0  0
  149.7721  137.7298  153.0485 H   0  0  0  0  0  0  0  0  0  0  0  0
  147.5883  139.9093  154.3717 H   0  0  0  0  0  0  0  0  0  0  0  0
  148.4521  139.7622  152.8637 H   0  0  0  0  0  0  0  0  0  0  0  0
  145.6341  138.9532  152.9943 H   0  0  0  0  0  0  0  0  0  0  0  0
  146.7229  138.7185  151.6430 H   0  0  0  0  0  0  0  0  0  0  0  0
  144.8051  137.1271  151.4834 H   0  0  0  0  0  0  0  0  0  0  0  0
  146.3236  136.2874  151.6422 H   0  0  0  0  0  0  0  0  0  0  0  0
  143.5975  136.2141  154.8313 H   0  0  0  0  0  0  0  0  0  0  0  0
  144.1194  137.8001  154.3452 H   0  0  0  0  0  0  0  0  0  0  0  0
  143.1207  136.8502  151.9277 H   0  0  0  0  0  0  0  0  0  0  0  0
  142.1755  134.8030  153.0018 H   0  0  0  0  0  0  0  0  0  0  0  0
  140.9010  135.8721  152.4321 H   0  0  0  0  0  0  0  0  0  0  0  0
  141.2903  135.8057  154.1486 H   0  0  0  0  0  0  0  0  0  0  0  0
  142.6217  138.8324  152.7774 H   0  0  0  0  0  0  0  0  0  0  0  0
  145.8777  135.4898  155.2438 H   0  0  0  0  0  0  0  0  0  0  0  0
  146.9493  135.2842  153.8883 H   0  0  0  0  0  0  0  0  0  0  0  0
  147.8313  137.0325  155.3493 H   0  0  0  0  0  0  0  0  0  0  0  0
  146.3428  137.9407  155.2932 H   0  0  0  0  0  0  0  0  0  0  0  0
  149.8809  142.4918  156.7051 H   0  0  0  0  0  0  0  0  0  0  0  0
  149.4555  144.2505  158.2179 H   0  0  0  0  0  0  0  0  0  0  0  0
  150.8872  144.8514  159.0528 H   0  0  0  0  0  0  0  0  0  0  0  0
  149.7183  143.8365  159.9106 H   0  0  0  0  0  0  0  0  0  0  0  0
  144.8543  135.3009  153.0405 H   0  0  0  0  0  0  0  0  0  0  0  0
  148.1003  137.3852  153.0145 H   0  0  0  0  0  0  0  0  0  0  0  0
  1  2  1  0  0  0  0
  1 26  1  0  0  0  0
  1 27  1  0  0  0  0
  1 28  1  0  0  0  0
  2 24  1  0  0  0  0
  2  3  2  0  0  0  0
  3  4  1  0  0  0  0
  3 29  1  0  0  0  0
  4 22  2  0  0  0  0
  4  5  1  0  0  0  0
  5  6  2  0  0  0  0
  6  7  1  0  0  0  0
  6 30  1  0  0  0  0
  7  8  1  0  0  0  0
  7 22  1  0  0  0  0
  8  9  1  0  0  0  0
  8 31  1  0  0  0  0
  8 32  1  0  0  0  0
  9 10  1  0  0  0  0
  9 11  1  0  0  0  0
  9 33  1  0  0  0  0
 10 34  1  0  0  0  0
 11 12  1  0  0  0  0
 11 35  1  0  0  0  0
 11 36  1  0  0  0  0
 12 21  1  0  0  0  0
 12 13  1  0  0  0  0
 12 57  1  0  0  0  0
 13 14  1  0  0  0  0
 13 37  1  0  0  0  0
 13 38  1  0  0  0  0
 14 15  1  0  0  0  0
 14 39  1  0  0  0  0
 14 40  1  0  0  0  0
 15 16  1  0  0  0  0
 15 20  1  0  0  0  0
 15 56  1  0  0  0  0
 16 17  1  0  0  0  0
 16 41  1  0  0  0  0
 16 42  1  0  0  0  0
 17 18  1  0  0  0  0
 17 19  1  0  0  0  0
 17 43  1  0  0  0  0
 18 44  1  0  0  0  0
 18 45  1  0  0  0  0
 18 46  1  0  0  0  0
 19 47  1  0  0  0  0
 20 21  1  0  0  0  0
 20 48  1  0  0  0  0
 20 49  1  0  0  0  0
 21 50  1  0  0  0  0
 21 51  1  0  0  0  0
 22 23  1  0  0  0  0
 23 24  2  0  0  0  0
 23 52  1  0  0  0  0
 24 25  1  0  0  0  0
 25 53  1  0  0  0  0
 25 54  1  0  0  0  0
 25 55  1  0  0  0  0
M  CHG  1  12   1
M  CHG  1  15   1
M  END
> <s_m_source_file>
AV-unprocessed.smi

> <i_m_source_file_index>
1033

> <i_lp_mmshare_version>
43012

> <i_f3d_flags>
0

> <s_epik_input>
W0NIM11jKFtjSF0xKWMoW0NIM10pW2NIXWMoYzEyKW4oW2NIXW4yKVtDSDJdW0NASF0oW09IXSlbQ0gyXU4zW0NIMl1bQ0gyXU4oW0NIMl1bQ0gyXTMpW0NIMl1bQ0BIXShbQ0gzXSlbT0hd

> <s_epik_cmdline>
J2VwaWtfcHl0aG9uJywgJy1waCcsICc3LjAnLCAnLXRuJywgJzgnLCAnLW1hJywgJzIwMCcsICctbWV0YWxfYmluZGluZycsICctaW1hZScsICc8aW5maWxlLm1hZT4nLCAnLW9tYWUnLCAnPG91dGZpbGUubWFlPic=

> <r_epik_Ionization_Penalty>
3.16016

> <r_epik_Ionization_Penalty_Charging>
3.07679

> <r_epik_Ionization_Penalty_Neutral>
0.083365

> <r_epik_State_Penalty>
2.09701

> <r_epik_Charging_Adjusted_Penalty>
5.1738

> <i_epik_Tot_Q>
2

> <i_epik_Tot_abs_Q>
2

> <r_epik_Metal_State_Penalty>
2.02534

> <b_epik_Metal_Only>
0

> <s_lp_Force_Field>
OPLS_2005

> <r_lp_Energy>
31.6916

> <b_lp_Chiralities_Consistent>
1

> <s_lp_Variant>
AV-unprocessed.smi:1033-23

> <Gold.Version>
5.8.1

> <Gold.Id.Protein>
6NUR|6NUR_protein|mol2

> <Gold.PLP.Fitness>
54.7534

> <Gold.PLP.PLP>
-42.1934

> <Gold.PLP.part.hbond>
-4.5090

> <Gold.PLP.part.metal>
0.0000

> <Gold.PLP.part.buried>
-2.1507

> <Gold.PLP.part.nonpolar>
-35.7895

> <Gold.PLP.part.repulsive>
0.0173

> <Gold.PLP.ligand.clash>
0.0000

> <Gold.PLP.ligand.torsion>
0.9575

> <Gold.PLP.Chemscore.Hbond>
4.8000

> <Gold.PLP.Chemscore.CHOScore>
0.0000

> <Gold.PLP.Chemscore.Metal>
0.0000

> <Gold.Chemscore.Hbonds>
donor molecule, donor type, donor heavy atom, donor atom, acceptor molecule, acceptor atom, score
      L1  H    10    34       P1  7948  0.99
      L1  H    12    57       P1  7948  2.00
      L1  H    19    47       P1 10175  1.00
      P1  H  7997  8008       L1     5  0.72

> <Gold.PLP.Chemscore.Internal.Correction>
0.0751

> <Gold.Rescore>
     Score         DG    S(hbond)    S(metal)    S(lipo)     H(rot)  DE(clash)    DE(int)     intcor
     19.38     -21.02       2.87        0.00     119.71       3.14       0.48       1.16       ----

> <Gold.Chemscore.Fitness>
19.3805

> <Gold.Chemscore.DG>
-21.0241

> <Gold.Chemscore.ZeroCoef>
-5.4800

> <Gold.Chemscore.Hbond>
2.8655

> <Gold.Chemscore.Metal>
0.0000

> <Gold.Chemscore.Lipo>
119.7142

> <Gold.Chemscore.Internal_Hbond>
0.0000

> <Gold.Chemscore.DEClash>
0.4846

> <Gold.Chemscore.DEInternal>
1.1591

> <Gold.Chemscore.Rot>
3.1380

> <Gold.Chemscore.Internal.Correction>
   9.000000E+99

> <Gold.Chemscore.Hbonds>
donor molecule, donor type, donor heavy atom, donor atom, acceptor molecule, acceptor atom, score
      L1  H    10    34       P1  7948  0.49
      L1  H    12    57       P1  7948  1.00
      L1  H    19    47       P1 10175  1.00
      P1  H  7997  8008       L1     5  0.02

> <Gold.Chemscore.Hbond.Weighted>
-9.5707

> <Gold.Chemscore.Metal.Weighted>
-0.0000

> <Gold.Chemscore.Lipo.Weighted>
-14.0066

> <Gold.Chemscore.Internal_Hbond.Weighted>
0.0000

> <Gold.Chemscore.DEClash.Weighted>
0.4846

> <Gold.Chemscore.DEInternal.Weighted>
1.1591

> <Gold.Chemscore.Rot.Weighted>
8.0332

> <Gold.Chemscore.Internal.Correction.Weighted>
   9.000000E+99

> <Gold.Protein.RotatedTorsions>
[ 6907 6896 6895 6894 ] final   -2.25 input  -60.11 | X-H torsion
[ 7974 7965 7964 7962 ] final  -15.56 input  175.53 | X-H torsion
[ 8008 7997 7996 7995 ] final  -52.34 input   59.86 | X-H torsion
[ 10167 10162 10161 10158 ] final   45.22 input  -65.29 | X-H torsion
[ 10718 10713 10712 10709 ] final  -71.57 input   66.30 | X-H torsion
[ 10763 10752 10751 10750 ] final -106.20 input  -60.55 | X-H torsion
[ 11005 11000 10999 10996 ] final  119.46 input  -57.11 | X-H torsion

> <Gold.Protein.ActiveResidues>
 VAL166  LYS551  ARG553  GLY616  TRP617  ASP618  TYR619  PRO620  LYS621  CYS622 
 ASP623  PHE694  ASN695  SER759  ASP760  ASP761  ALA762  ILE779  LEU786  VAL792 
 PHE793  MET794  SER795  GLU796  ALA797  LYS798  CYS799  TRP800  GLU811  SER814 

> <Gold.Protein.RotatedAtoms>
  151.5329  135.1068  159.9906 H   0  0  0  0  0  0  0  0  0  0  0  0  # atno 6907 bound_to 6896
  152.4570  133.7739  159.6824 H   0  0  0  0  0  0  0  0  0  0  0  0  # atno 6908 bound_to 6896
  150.8517  133.7711  159.3048 H   0  0  0  0  0  0  0  0  0  0  0  0  # atno 6909 bound_to 6896
  146.2026  140.3511  142.8418 H   0  0  0  0  0  0  0  0  0  0  0  0  # atno 7974 bound_to 7965
  154.4104  140.1226  156.4976 H   0  0  0  0  0  0  0  0  0  0  0  0  # atno 8008 bound_to 7997
  155.6928  140.3495  155.4881 H   0  0  0  0  0  0  0  0  0  0  0  0  # atno 8009 bound_to 7997
  155.9454  140.1095  157.1011 H   0  0  0  0  0  0  0  0  0  0  0  0  # atno 8010 bound_to 7997
  140.3264  144.2643  150.6174 H   0  0  0  0  0  0  0  0  0  0  0  0  # atno 10167 bound_to 10162
  156.0357  130.4354  150.2463 H   0  0  0  0  0  0  0  0  0  0  0  0  # atno 10718 bound_to 10713
  154.7997  135.4721  154.0245 H   0  0  0  0  0  0  0  0  0  0  0  0  # atno 10763 bound_to 10752
  153.1760  135.6833  153.8549 H   0  0  0  0  0  0  0  0  0  0  0  0  # atno 10764 bound_to 10752
  153.8115  135.3216  155.3379 H   0  0  0  0  0  0  0  0  0  0  0  0  # atno 10765 bound_to 10752
  139.9147  134.9628  156.7659 H   0  0  0  0  0  0  0  0  0  0  0  0  # atno 11005 bound_to 11000
  144.8719  140.7283  143.6042 LP  0  0  0  0  0  0  0  0  0  0  0  0  # atno 17320 bound_to 7965
  145.3430  139.1727  143.4475 LP  0  0  0  0  0  0  0  0  0  0  0  0  # atno 17321 bound_to 7965
  140.5437  143.2218  151.8042 LP  0  0  0  0  0  0  0  0  0  0  0  0  # atno 17342 bound_to 10162
  139.4864  144.4567  151.9590 LP  0  0  0  0  0  0  0  0  0  0  0  0  # atno 17343 bound_to 10162
  157.0562  131.0077  151.3237 LP  0  0  0  0  0  0  0  0  0  0  0  0  # atno 17370 bound_to 10713
  157.5104  130.7935  149.7699 LP  0  0  0  0  0  0  0  0  0  0  0  0  # atno 17371 bound_to 10713
  140.6660  133.9602  155.7830 LP  0  0  0  0  0  0  0  0  0  0  0  0  # atno 17394 bound_to 11000
  141.0611  134.0345  157.3657 LP  0  0  0  0  0  0  0  0  0  0  0  0  # atno 17395 bound_to 11000

$$$$
