#       Name:                AV-unprocessed.smi:514
#       Creating user name   scv26
#       Creation time:       Thu Mar 26 23:24:35 2020


#       File generated by GOLD software.
#

@<TRIPOS>MOLECULE
AV-unprocessed.smi:514
    53    55     1
SMALL
NO_CHARGES


@<TRIPOS>ATOM
      1 ****        -4.2474   2.7552  -0.2723 C.3            1 S1                 0.0000
      2 ****        -3.5830   2.0179   0.8920 C.3            1 S1                 0.0000
      3 ****        -2.1952   1.9184   0.6273 O.3            1 S1                 0.0000
      4 ****        -1.4773   1.2322   1.6372 C.3            1 S1                 0.0000
      5 ****         0.0270   1.1804   1.2971 C.3            1 S1                 0.0000
      6 ****         0.3039   0.5327   0.0152 N.pl3          1 S1                 0.0000
      7 ****         0.7053  -0.7482  -0.2510 C.2            1 S1                 0.0000
      8 ****         0.9678  -1.7222   0.7280 N.pl3          1 S1                 0.0000
      9 ****         1.9203  -2.8169   0.5198 C.3            1 S1                 0.0000
     10 ****         2.9802  -2.8695   1.6355 C.3            1 S1                 0.0000
     11 ****         2.3375  -2.9990   2.9585 N.4            1 S1                 1.0000
     12 ****         1.2962  -1.9764   3.1820 C.3            1 S1                 0.0000
     13 ****         0.2985  -1.9609   2.0090 C.3            1 S1                 0.0000
     14 ****         0.8852  -0.9992  -1.5520 N.2            1 S1                 0.0000
     15 ****         0.5905   0.2046  -2.1651 C.2            1 S1                 0.0000
     16 ****         0.2655   1.1445  -1.2443 C.2            1 S1                 0.0000
     17 ****        -0.0375   2.5347  -1.6256 C.2            1 S1                 0.0000
     18 ****        -0.2711   3.4292  -0.8162 O.2            1 S1                 0.0000
     19 ****        -0.0243   2.7361  -2.9654 N.am           1 S1                 0.0000
     20 ****         0.2673   1.8238  -3.9411 C.2            1 S1                 0.0000
     21 ****         0.2186   2.1553  -5.1254 O.2            1 S1                 0.0000
     22 ****         0.6084   0.5562  -3.5440 N.am           1 S1                 0.0000
     23 ****         0.9521  -0.4712  -4.5292 C.3            1 S1                 0.0000
     24 ****        -0.2498   3.6687  -3.2793 H              1 S1                 0.0000
     25 ****        -5.3210   2.8533  -0.1108 H              1 S1                 0.0000
     26 ****        -4.0963   2.2202  -1.2101 H              1 S1                 0.0000
     27 ****        -3.8329   3.7568  -0.3883 H              1 S1                 0.0000
     28 ****        -3.7511   2.5604   1.8232 H              1 S1                 0.0000
     29 ****        -4.0197   1.0244   1.0016 H              1 S1                 0.0000
     30 ****        -1.6161   1.7338   2.5959 H              1 S1                 0.0000
     31 ****        -1.8934   0.2305   1.7347 H              1 S1                 0.0000
     32 ****         0.4333   2.1905   1.2723 H              1 S1                 0.0000
     33 ****         0.5879   0.6865   2.0867 H              1 S1                 0.0000
     34 ****         1.3767  -3.7615   0.4690 H              1 S1                 0.0000
     35 ****         2.4267  -2.7065  -0.4393 H              1 S1                 0.0000
     36 ****         3.6568  -3.7102   1.4814 H              1 S1                 0.0000
     37 ****         3.5863  -1.9627   1.6201 H              1 S1                 0.0000
     38 ****         1.9011  -3.9085   3.0076 H              1 S1                 0.0000
     39 ****         0.7811  -2.1889   4.1189 H              1 S1                 0.0000
     40 ****         1.7723  -1.0014   3.2919 H              1 S1                 0.0000
     41 ****        -0.4839  -1.2362   2.1957 H              1 S1                 0.0000
     42 ****        -0.2150  -2.9220   1.9559 H              1 S1                 0.0000
     43 ****         0.0480  -0.9719  -4.8763 H              1 S1                 0.0000
     44 ****         1.6140  -1.2270  -4.1061 H              1 S1                 0.0000
     45 ****         1.4669  -0.0564  -5.3969 H              1 S1                 0.0000
     46 ****         3.0383  -2.9318   3.6827 H              1 S1                 0.0000
     47 ****        -1.8213   2.8422   0.5447 LP             1 S1                 0.0000
     48 ****        -2.0715   1.4304  -0.2367 LP             1 S1                 0.0000
     49 ****         1.1671  -1.8572  -1.9813 LP             1 S1                 0.0000
     50 ****        -0.2619   3.2315   0.1640 LP             1 S1                 0.0000
     51 ****        -0.4704   4.3550  -1.1377 LP             1 S1                 0.0000
     52 ****        -0.0339   3.0908  -5.3728 LP             1 S1                 0.0000
     53 ****         0.4316   1.4893  -5.8402 LP             1 S1                 0.0000
@<TRIPOS>BOND
    1    1    2 1     
    2    1   25 1     
    3    1   26 1     
    4    1   27 1     
    5    2    3 1     
    6    2   28 1     
    7    2   29 1     
    8    3    4 1     
    9    4    5 1     
   10    4   30 1     
   11    4   31 1     
   12    5    6 1     
   13    5   32 1     
   14    5   33 1     
   15    6   16 1     
   16    6    7 1     
   17    7    8 1     
   18    7   14 2     
   19    8   13 1     
   20    8    9 1     
   21    9   10 1     
   22    9   34 1     
   23    9   35 1     
   24   10   11 1     
   25   10   36 1     
   26   10   37 1     
   27   11   12 1     
   28   11   38 1     
   29   11   46 1     
   30   12   13 1     
   31   12   39 1     
   32   12   40 1     
   33   13   41 1     
   34   13   42 1     
   35   14   15 1     
   36   15   22 1     
   37   15   16 2     
   38   16   17 1     
   39   17   18 2     
   40   17   19 1     
   41   19   24 1     
   42   19   20 1     
   43   20   21 2     
   44   20   22 1     
   45   22   23 1     
   46   23   43 1     
   47   23   44 1     
   48   23   45 1     
   49    3   47 1     
   50    3   48 1     
   51   14   49 1     
   52   18   50 1     
   53   18   51 1     
   54   21   52 1     
   55   21   53 1     
@<TRIPOS>SUBSTRUCTURE
      1 S1             1
@<TRIPOS>SET
LONE_PAIRS      STATIC     ATOMS    <user>   **** ""
7 47 48 49 50 51 52 53
DONOR_HYDROGENS      STATIC     ATOMS    <user>   **** ""
3 38 46 24
ATOM$BLUE        STATIC     ATOMS    COLORGROUP SYSTEM
7 47 48 49 50 51 52 53
ATOM$RED        STATIC     ATOMS    COLORGROUP SYSTEM
3 38 46 24
