AV-unprocessed.smi:1987|AV-procd|sdf|8056|dock3
  -GOLD-   2272010263D 1   1.00000     0.00000
 Structure written by MMmdl.
 37 39  0  0  0  0  0  0  0  0  2 V2000
  151.3195  135.7592  155.6433 O   0  0  0  0  0  0  0  0  0  0  0  0
  150.4850  136.5436  155.1928 C   0  0  0  0  0  0  0  0  0  0  0  0
  150.9321  137.7443  154.3606 C   0  0  0  0  0  0  0  0  0  0  0  0
  151.4145  138.8039  155.2260 N   0  0  0  0  0  0  0  0  0  0  0  0
  152.3379  138.7969  156.1894 C   0  0  0  0  0  0  0  0  0  0  0  0
  152.5028  140.0005  156.7166 N   0  0  0  0  0  0  0  0  0  0  0  0
  151.6038  140.7808  156.0086 N   0  0  0  0  0  0  0  0  0  0  0  0
  150.9554  140.0766  155.1223 N   0  0  0  0  0  0  0  0  0  0  0  0
  149.1619  136.3946  155.3584 N   0  0  0  0  0  0  0  0  0  0  0  0
  148.5189  135.2528  155.9971 C   0  0  0  0  0  0  0  0  0  0  0  0
  148.0891  134.1914  154.9649 C   0  0  2  0  0  0  0  0  0  0  0  0
  149.2322  133.5803  154.1555 C   0  0  0  0  0  0  0  0  0  0  0  0
  148.5036  132.9921  152.9511 C   0  0  0  0  0  0  0  0  0  0  0  0
  147.4056  133.9374  152.6550 N   0  3  1  0  0  0  0  0  0  0  0  0
  146.2092  133.3003  152.0645 C   0  0  0  0  0  0  0  0  0  0  0  0
  146.3424  133.0171  150.5874 C   0  0  0  0  0  0  0  0  0  0  0  0
  145.4923  134.1751  151.0642 C   0  0  0  0  0  0  0  0  0  0  0  0
  147.1328  134.7173  153.8857 C   0  0  0  0  0  0  0  0  0  0  0  0
  151.7209  137.4549  153.6644 H   0  0  0  0  0  0  0  0  0  0  0  0
  150.0977  138.1229  153.7686 H   0  0  0  0  0  0  0  0  0  0  0  0
  152.8905  137.9202  156.4945 H   0  0  0  0  0  0  0  0  0  0  0  0
  148.5538  137.0955  154.9590 H   0  0  0  0  0  0  0  0  0  0  0  0
  149.1873  134.8140  156.7398 H   0  0  0  0  0  0  0  0  0  0  0  0
  147.6490  135.6208  156.5418 H   0  0  0  0  0  0  0  0  0  0  0  0
  147.5812  133.3769  155.4847 H   0  0  0  0  0  0  0  0  0  0  0  0
  149.9272  134.3560  153.8311 H   0  0  0  0  0  0  0  0  0  0  0  0
  149.7961  132.8311  154.7130 H   0  0  0  0  0  0  0  0  0  0  0  0
  149.1578  132.8550  152.0897 H   0  0  0  0  0  0  0  0  0  0  0  0
  148.0918  132.0174  153.2185 H   0  0  0  0  0  0  0  0  0  0  0  0
  145.6498  132.6246  152.7097 H   0  0  0  0  0  0  0  0  0  0  0  0
  147.2867  133.2533  150.1001 H   0  0  0  0  0  0  0  0  0  0  0  0
  145.8216  132.1464  150.1939 H   0  0  0  0  0  0  0  0  0  0  0  0
  144.4125  134.0660  150.9846 H   0  0  0  0  0  0  0  0  0  0  0  0
  145.8717  135.1812  150.8941 H   0  0  0  0  0  0  0  0  0  0  0  0
  146.0931  134.6412  154.2081 H   0  0  0  0  0  0  0  0  0  0  0  0
  147.3302  135.7670  153.6652 H   0  0  0  0  0  0  0  0  0  0  0  0
  147.7624  134.5955  151.9768 H   0  0  0  0  0  0  0  0  0  0  0  0
  1  2  2  0  0  0  0
  2  3  1  0  0  0  0
  2  9  1  0  0  0  0
  3  4  1  0  0  0  0
  3 19  1  0  0  0  0
  3 20  1  0  0  0  0
  4  8  1  0  0  0  0
  4  5  1  0  0  0  0
  5  6  2  0  0  0  0
  5 21  1  0  0  0  0
  6  7  1  0  0  0  0
  7  8  2  0  0  0  0
  9 10  1  0  0  0  0
  9 22  1  0  0  0  0
 10 11  1  0  0  0  0
 10 23  1  0  0  0  0
 10 24  1  0  0  0  0
 11 18  1  0  0  0  0
 11 12  1  0  0  0  0
 11 25  1  0  0  0  0
 12 13  1  0  0  0  0
 12 26  1  0  0  0  0
 12 27  1  0  0  0  0
 13 14  1  0  0  0  0
 13 28  1  0  0  0  0
 13 29  1  0  0  0  0
 14 15  1  0  0  0  0
 14 18  1  0  0  0  0
 14 37  1  0  0  0  0
 15 17  1  0  0  0  0
 15 16  1  0  0  0  0
 15 30  1  0  0  0  0
 16 17  1  0  0  0  0
 16 31  1  0  0  0  0
 16 32  1  0  0  0  0
 17 33  1  0  0  0  0
 17 34  1  0  0  0  0
 18 35  1  0  0  0  0
 18 36  1  0  0  0  0
M  CHG  1  14   1
M  END
> <s_m_source_file>
AV-unprocessed.smi

> <i_m_source_file_index>
1987

> <i_lp_mmshare_version>
43012

> <i_f3d_flags>
0

> <s_epik_input>
bjFubltjSF1uMVtDSDJdQyg9TylbTkhdW0NIMl1bQ0BASF0yW0NIMl1bQ0gyXU4oW0NIMl0yKVtDSF0zW0NIMl1bQ0gyXTM=

> <s_epik_cmdline>
J2VwaWtfcHl0aG9uJywgJy1waCcsICc3LjAnLCAnLXRuJywgJzgnLCAnLW1hJywgJzIwMCcsICctbWV0YWxfYmluZGluZycsICctaW1hZScsICc8aW5maWxlLm1hZT4nLCAnLW9tYWUnLCAnPG91dGZpbGUubWFlPic=

> <r_lp_tautomer_probability>
1

> <r_epik_Ionization_Penalty>
0.000242849

> <r_epik_Ionization_Penalty_Charging>
0.000241326

> <r_epik_Ionization_Penalty_Neutral>
1.52322e-06

> <r_epik_State_Penalty>
-0

> <r_epik_Charging_Adjusted_Penalty>
0.000241326

> <i_epik_Tot_Q>
1

> <i_epik_Tot_abs_Q>
1

> <r_epik_Metal_State_Penalty>
-0

> <b_epik_Metal_Only>
0

> <s_lp_Force_Field>
OPLS_2005

> <r_lp_Energy>
38.2804

> <b_lp_Chiralities_Consistent>
1

> <s_lp_Variant>
AV-unprocessed.smi:1987-3

> <Gold.Version>
5.8.1

> <Gold.Id.Protein>
6NUR|6NUR_protein|mol2

> <Gold.PLP.Fitness>
41.6756

> <Gold.PLP.PLP>
-28.6495

> <Gold.PLP.part.hbond>
-4.1206

> <Gold.PLP.part.metal>
0.0000

> <Gold.PLP.part.buried>
-2.9210

> <Gold.PLP.part.nonpolar>
-22.1072

> <Gold.PLP.part.repulsive>
0.1301

> <Gold.PLP.ligand.clash>
0.0000

> <Gold.PLP.ligand.torsion>
1.1222

> <Gold.PLP.Chemscore.Hbond>
4.6640

> <Gold.PLP.Chemscore.CHOScore>
0.0000

> <Gold.PLP.Chemscore.Metal>
0.0000

> <Gold.Chemscore.Hbonds>
donor molecule, donor type, donor heavy atom, donor atom, acceptor molecule, acceptor atom, score
      L1  H    14    37       P1  7948  1.66
      P1  H  7989  7998       L1     8  1.00
      P1  H  7997  8010       L1     6  0.99
      P1  H 10752 10763       L1     1  1.00

> <Gold.PLP.Chemscore.Internal.Correction>
1.2785

> <Gold.Rescore>
     Score         DG    S(hbond)    S(metal)    S(lipo)     H(rot)  DE(clash)    DE(int)     intcor
     11.82     -13.95       2.94        0.00      45.91       2.62       0.95       1.18       ----

> <Gold.Chemscore.Fitness>
11.8203

> <Gold.Chemscore.DG>
-13.9479

> <Gold.Chemscore.ZeroCoef>
-5.4800

> <Gold.Chemscore.Hbond>
2.9387

> <Gold.Chemscore.Metal>
0.0000

> <Gold.Chemscore.Lipo>
45.9074

> <Gold.Chemscore.Internal_Hbond>
0.0000

> <Gold.Chemscore.DEClash>
0.9481

> <Gold.Chemscore.DEInternal>
1.1795

> <Gold.Chemscore.Rot>
2.6244

> <Gold.Chemscore.Internal.Correction>
   9.000000E+99

> <Gold.Chemscore.Hbonds>
donor molecule, donor type, donor heavy atom, donor atom, acceptor molecule, acceptor atom, score
      L1  H    14    37       P1  7948  0.32
      P1  H  7989  7998       L1     8  0.18
      P1  H  7997  8010       L1     6  0.24
      P1  H 10752 10763       L1     1  0.86

> <Gold.Chemscore.Hbond.Weighted>
-9.8153

> <Gold.Chemscore.Metal.Weighted>
-0.0000

> <Gold.Chemscore.Lipo.Weighted>
-5.3712

> <Gold.Chemscore.Internal_Hbond.Weighted>
0.0000

> <Gold.Chemscore.DEClash.Weighted>
0.9481

> <Gold.Chemscore.DEInternal.Weighted>
1.1795

> <Gold.Chemscore.Rot.Weighted>
6.7186

> <Gold.Chemscore.Internal.Correction.Weighted>
   9.000000E+99

> <Gold.Protein.RotatedTorsions>
[ 6907 6896 6895 6894 ] final  165.97 input  -60.11 | X-H torsion
[ 7974 7965 7964 7962 ] final  -11.92 input  175.53 | X-H torsion
[ 8008 7997 7996 7995 ] final   53.04 input   59.86 | X-H torsion
[ 10167 10162 10161 10158 ] final -126.02 input  -65.29 | X-H torsion
[ 10718 10713 10712 10709 ] final -123.88 input   66.30 | X-H torsion
[ 10763 10752 10751 10750 ] final   56.07 input  -60.55 | X-H torsion
[ 11005 11000 10999 10996 ] final -122.70 input  -57.11 | X-H torsion

> <Gold.Protein.ActiveResidues>
 VAL166  LYS551  ARG553  GLY616  TRP617  ASP618  TYR619  PRO620  LYS621  CYS622 
 ASP623  PHE694  ASN695  SER759  ASP760  ASP761  ALA762  ILE779  LEU786  VAL792 
 PHE793  MET794  SER795  GLU796  ALA797  LYS798  CYS799  TRP800  GLU811  SER814 

> <Gold.Protein.RotatedAtoms>
  151.8862  133.3506  159.3782 H   0  0  0  0  0  0  0  0  0  0  0  0  # atno 6907 bound_to 6896
  150.7115  134.4969  159.5552 H   0  0  0  0  0  0  0  0  0  0  0  0  # atno 6908 bound_to 6896
  152.2530  134.8113  160.0494 H   0  0  0  0  0  0  0  0  0  0  0  0  # atno 6909 bound_to 6896
  146.2170  140.2982  142.8373 H   0  0  0  0  0  0  0  0  0  0  0  0  # atno 7974 bound_to 7965
  155.4617  140.3462  155.4313 H   0  0  0  0  0  0  0  0  0  0  0  0  # atno 8008 bound_to 7997
  156.1157  140.1473  156.9306 H   0  0  0  0  0  0  0  0  0  0  0  0  # atno 8009 bound_to 7997
  154.4787  140.0876  156.7304 H   0  0  0  0  0  0  0  0  0  0  0  0  # atno 8010 bound_to 7997
  139.9759  143.5795  152.2396 H   0  0  0  0  0  0  0  0  0  0  0  0  # atno 10167 bound_to 10162
  156.1540  130.6554  150.9954 H   0  0  0  0  0  0  0  0  0  0  0  0  # atno 10718 bound_to 10713
  152.9826  135.5689  154.5169 H   0  0  0  0  0  0  0  0  0  0  0  0  # atno 10763 bound_to 10752
  154.4663  135.2783  155.1677 H   0  0  0  0  0  0  0  0  0  0  0  0  # atno 10764 bound_to 10752
  154.3244  135.6262  153.5576 H   0  0  0  0  0  0  0  0  0  0  0  0  # atno 10765 bound_to 10752
  140.9975  134.0450  157.3579 H   0  0  0  0  0  0  0  0  0  0  0  0  # atno 11005 bound_to 11000
  144.9077  140.7719  143.5827 LP  0  0  0  0  0  0  0  0  0  0  0  0  # atno 17320 bound_to 7965
  145.2911  139.1883  143.4740 LP  0  0  0  0  0  0  0  0  0  0  0  0  # atno 17321 bound_to 7965
  139.6446  144.7657  151.2270 LP  0  0  0  0  0  0  0  0  0  0  0  0  # atno 17342 bound_to 10162
  140.7506  143.6260  150.8468 LP  0  0  0  0  0  0  0  0  0  0  0  0  # atno 17343 bound_to 10162
  157.6680  131.0867  150.7682 LP  0  0  0  0  0  0  0  0  0  0  0  0  # atno 17370 bound_to 10713
  156.7749  130.4840  149.5411 LP  0  0  0  0  0  0  0  0  0  0  0  0  # atno 17371 bound_to 10713
  139.9022  135.0168  156.7321 LP  0  0  0  0  0  0  0  0  0  0  0  0  # atno 17394 bound_to 11000
  140.6942  133.9363  155.7985 LP  0  0  0  0  0  0  0  0  0  0  0  0  # atno 17395 bound_to 11000

$$$$
