#       Name:                AV-unprocessed.smi:1
#       Creating user name   scv26
#       Creation time:       Thu Mar 26 15:10:25 2020


#       File generated by GOLD software.
#

@<TRIPOS>MOLECULE
AV-unprocessed.smi:1
    66    71     1
SMALL
NO_CHARGES


@<TRIPOS>ATOM
      1 ****        -4.5196   2.8459   0.9851 O.2            1 S1                 0.0000
      2 ****        -4.8155   1.6479   0.9996 C.2            1 S1                 0.0000
      3 ****        -3.9759   0.5443   1.0768 N.2            1 S1                 0.0000
      4 ****        -2.6895   0.7075   1.1494 C.2            1 S1                 0.0000
      5 ****        -1.8807   1.8507   1.1664 N.pl3          1 S1                 0.0000
      6 ****        -0.4808   1.8663   1.2553 C.2            1 S1                 0.0000
      7 ****         0.2737   0.8034   1.3358 N.2            1 S1                 0.0000
      8 ****        -0.4772  -0.3634   1.3192 C.2            1 S1                 0.0000
      9 ****        -1.8464  -0.5051   1.2342 C.2            1 S1                 0.0000
     10 ****        -2.2074  -1.8475   1.2430 N.2            1 S1                 0.0000
     11 ****        -1.0322  -2.4632   1.3336 C.2            1 S1                 0.0000
     12 ****         0.0436  -1.6559   1.3904 N.pl3          1 S1                 0.0000
     13 ****         1.4684  -2.1071   1.4823 C.3            1 S1                 0.0000
     14 ****         2.1829  -1.5991   0.3944 O.3            1 S1                 0.0000
     15 ****         3.2155  -0.7196   0.8328 C.3            1 S1                 0.0000
     16 ****         4.4187  -0.7671  -0.1160 C.3            1 S1                 0.0000
     17 ****         4.0800  -0.1043  -1.3227 O.3            1 S1                 0.0000
     18 ****         4.9745  -0.0301  -2.3264 C.2            1 S1                 0.0000
     19 ****         6.1136  -0.4966  -2.2609 O.2            1 S1                 0.0000
     20 ****         4.4406   0.6752  -3.5273 C.ar           1 S1                 0.0000
     21 ****         5.2710   0.8395  -4.6606 C.ar           1 S1                 0.0000
     22 ****         4.7931   1.4969  -5.8108 C.ar           1 S1                 0.0000
     23 ****         3.4788   1.9983  -5.8418 C.ar           1 S1                 0.0000
     24 ****         2.6431   1.8419  -4.7207 C.ar           1 S1                 0.0000
     25 ****         3.1192   1.1849  -3.5693 C.ar           1 S1                 0.0000
     26 ****         3.5152  -1.1743   2.2601 C.3            1 S1                 0.0000
     27 ****         4.3776  -2.3001   2.2735 O.3            1 S1                 0.0000
     28 ****         3.8029  -3.3903   3.4008 S.o2           1 S1                 0.0000
     29 ****         3.5765  -4.6763   2.7239 O.2            1 S1                 0.0000
     30 ****         4.6175  -3.2682   4.6193 O.2            1 S1                 0.0000
     31 ****         2.3179  -2.6794   3.6915 O.3            1 S1                 0.0000
     32 ****         2.1412  -1.6152   2.7726 C.3            1 S1                 0.0000
     33 ****        -6.2608   1.2838   0.8979 C.ar           1 S1                 0.0000
     34 ****        -6.8870   1.2188  -0.3649 C.ar           1 S1                 0.0000
     35 ****        -8.2484   0.8698  -0.4608 C.ar           1 S1                 0.0000
     36 ****        -8.9863   0.5829   0.7039 C.ar           1 S1                 0.0000
     37 ****        -8.3630   0.6443   1.9653 C.ar           1 S1                 0.0000
     38 ****        -7.0017   0.9933   2.0630 C.ar           1 S1                 0.0000
     39 ****        -0.0470   2.8672   1.2528 H              1 S1                 0.0000
     40 ****        -0.9520  -3.5400   1.3605 H              1 S1                 0.0000
     41 ****         1.4268  -3.1946   1.4050 H              1 S1                 0.0000
     42 ****         2.8231   0.2961   0.8702 H              1 S1                 0.0000
     43 ****         5.2709  -0.2615   0.3405 H              1 S1                 0.0000
     44 ****         4.7127  -1.7988  -0.3145 H              1 S1                 0.0000
     45 ****         6.2834   0.4620  -4.6606 H              1 S1                 0.0000
     46 ****         5.4362   1.6154  -6.6704 H              1 S1                 0.0000
     47 ****         3.1126   2.5011  -6.7247 H              1 S1                 0.0000
     48 ****         1.6337   2.2256  -4.7435 H              1 S1                 0.0000
     49 ****         2.4510   1.0810  -2.7269 H              1 S1                 0.0000
     50 ****         3.9534  -0.3818   2.8678 H              1 S1                 0.0000
     51 ****         1.5926  -0.7827   3.2135 H              1 S1                 0.0000
     52 ****        -6.3272   1.4364  -1.2630 H              1 S1                 0.0000
     53 ****        -8.7266   0.8215  -1.4280 H              1 S1                 0.0000
     54 ****       -10.0299   0.3152   0.6294 H              1 S1                 0.0000
     55 ****        -8.9289   0.4235   2.8582 H              1 S1                 0.0000
     56 ****        -6.5298   1.0365   3.0340 H              1 S1                 0.0000
     57 ****        -2.3499   2.7435   1.1103 H              1 S1                 0.0000
     58 ****        -3.5604   3.1247   1.0329 LP             1 S1                 0.0000
     59 ****        -5.2390   3.5380   0.9256 LP             1 S1                 0.0000
     60 ****        -4.3626  -0.3779   1.0765 LP             1 S1                 0.0000
     61 ****         1.2713   0.8275   1.4014 LP             1 S1                 0.0000
     62 ****        -3.1217  -2.2494   1.1936 LP             1 S1                 0.0000
     63 ****         1.5573  -1.0979  -0.2034 LP             1 S1                 0.0000
     64 ****         2.5919  -2.3580  -0.1123 LP             1 S1                 0.0000
     65 ****         6.4167  -0.9609  -1.4287 LP             1 S1                 0.0000
     66 ****         6.7347  -0.4107  -3.0399 LP             1 S1                 0.0000
@<TRIPOS>BOND
    1    1    2 2     
    2    2    3 1     
    3    2   33 1     
    4    3    4 2     
    5    4    9 1     
    6    4    5 1     
    7    5    6 1     
    8    5   57 1     
    9    6    7 2     
   10    6   39 1     
   11    7    8 1     
   12    8   12 1     
   13    8    9 2     
   14    9   10 1     
   15   10   11 2     
   16   11   12 1     
   17   11   40 1     
   18   12   13 1     
   19   13   32 1     
   20   13   14 1     
   21   13   41 1     
   22   14   15 1     
   23   15   16 1     
   24   15   26 1     
   25   15   42 1     
   26   16   17 1     
   27   16   43 1     
   28   16   44 1     
   29   17   18 1     
   30   18   19 2     
   31   18   20 1     
   32   20   25 ar    
   33   20   21 ar    
   34   21   22 ar    
   35   21   45 1     
   36   22   23 ar    
   37   22   46 1     
   38   23   24 ar    
   39   23   47 1     
   40   24   25 ar    
   41   24   48 1     
   42   25   49 1     
   43   26   32 1     
   44   26   27 1     
   45   26   50 1     
   46   27   28 1     
   47   28   29 2     
   48   28   30 2     
   49   28   31 1     
   50   31   32 1     
   51   32   51 1     
   52   33   38 ar    
   53   33   34 ar    
   54   34   35 ar    
   55   34   52 1     
   56   35   36 ar    
   57   35   53 1     
   58   36   37 ar    
   59   36   54 1     
   60   37   38 ar    
   61   37   55 1     
   62   38   56 1     
   63    1   58 1     
   64    1   59 1     
   65    3   60 1     
   66    7   61 1     
   67   10   62 1     
   68   14   63 1     
   69   14   64 1     
   70   19   65 1     
   71   19   66 1     
@<TRIPOS>SUBSTRUCTURE
      1 S1             1
@<TRIPOS>SET
LONE_PAIRS      STATIC     ATOMS    <user>   **** ""
11 58 59 60 61 62 63 64 65 66 29 30
DONOR_HYDROGENS      STATIC     ATOMS    <user>   **** ""
1 57
ATOM$BLUE        STATIC     ATOMS    COLORGROUP SYSTEM
11 58 59 60 61 62 63 64 65 66 29 30
ATOM$RED        STATIC     ATOMS    COLORGROUP SYSTEM
1 57
