AV-unprocessed.smi:322|AV-procd|sdf|2337|dock3
  -GOLD-   2262022243D 1   1.00000     0.00000
 Structure written by MMmdl.
 44 46  0  0  0  0  0  0  0  0  2 V2000
  149.5977  140.9334  153.5300 O   0  0  0  0  0  0  0  0  0  0  0  0
  149.0568  140.8608  154.8304 C   0  0  0  0  0  0  0  0  0  0  0  0
  149.9999  141.3773  155.8661 C   0  0  0  0  0  0  0  0  0  0  0  0
  150.1927  142.6883  156.1858 N   0  3  0  0  0  0  0  0  0  0  0  0
  151.1435  142.7924  157.2018 C   0  0  0  0  0  0  0  0  0  0  0  0
  151.6661  143.9064  157.8516 C   0  0  0  0  0  0  0  0  0  0  0  0
  152.6293  143.6610  158.8522 C   0  0  0  0  0  0  0  0  0  0  0  0
  153.0378  142.3499  159.1732 C   0  0  0  0  0  0  0  0  0  0  0  0
  152.5006  141.2283  158.5077 C   0  0  0  0  0  0  0  0  0  0  0  0
  151.5498  141.4803  157.5194 C   0  0  0  0  0  0  0  0  0  0  0  0
  150.8207  140.6412  156.6703 N   0  0  0  0  0  0  0  0  0  0  0  0
  151.0187  139.1859  156.7603 C   0  0  0  0  0  0  0  0  0  0  0  0
  152.0813  138.6620  155.7740 C   0  0  2  0  0  0  0  0  0  0  0  0
  152.3541  139.6691  154.8194 O   0  0  0  0  0  0  0  0  0  0  0  0
  151.6061  137.4019  155.0358 C   0  0  0  0  0  0  0  0  0  0  0  0
  150.9170  136.5652  155.9540 O   0  0  0  0  0  0  0  0  0  0  0  0
  149.7638  135.9408  155.4080 C   0  0  0  0  0  0  0  0  0  0  0  0
  149.9158  134.4375  155.2488 C   0  0  0  0  0  0  0  0  0  0  0  0
  150.8683  133.7369  156.0187 C   0  0  0  0  0  0  0  0  0  0  0  0
  151.0061  132.3425  155.8773 C   0  0  0  0  0  0  0  0  0  0  0  0
  150.1871  131.6419  154.9703 C   0  0  0  0  0  0  0  0  0  0  0  0
  150.3552  129.9335  154.7968 Cl  0  0  0  0  0  0  0  0  0  0  0  0
  149.2294  132.3369  154.2061 C   0  0  0  0  0  0  0  0  0  0  0  0
  149.0921  133.7317  154.3468 C   0  0  0  0  0  0  0  0  0  0  0  0
  149.2123  140.2482  153.0051 H   0  0  0  0  0  0  0  0  0  0  0  0
  148.1273  141.4292  154.8651 H   0  0  0  0  0  0  0  0  0  0  0  0
  148.8062  139.8234  155.0534 H   0  0  0  0  0  0  0  0  0  0  0  0
  151.3550  144.9116  157.6075 H   0  0  0  0  0  0  0  0  0  0  0  0
  153.0637  144.4950  159.3844 H   0  0  0  0  0  0  0  0  0  0  0  0
  153.7785  142.2010  159.9455 H   0  0  0  0  0  0  0  0  0  0  0  0
  152.8201  140.2278  158.7596 H   0  0  0  0  0  0  0  0  0  0  0  0
  151.2871  138.9413  157.7889 H   0  0  0  0  0  0  0  0  0  0  0  0
  150.0576  138.7050  156.5741 H   0  0  0  0  0  0  0  0  0  0  0  0
  152.9988  138.4379  156.3188 H   0  0  0  0  0  0  0  0  0  0  0  0
  153.2911  139.7492  154.7301 H   0  0  0  0  0  0  0  0  0  0  0  0
  150.9096  137.6804  154.2434 H   0  0  0  0  0  0  0  0  0  0  0  0
  152.4446  136.8894  154.5611 H   0  0  0  0  0  0  0  0  0  0  0  0
  148.9312  136.1217  156.0881 H   0  0  0  0  0  0  0  0  0  0  0  0
  149.4946  136.4077  154.4592 H   0  0  0  0  0  0  0  0  0  0  0  0
  151.4982  134.2687  156.7168 H   0  0  0  0  0  0  0  0  0  0  0  0
  151.7395  131.8117  156.4664 H   0  0  0  0  0  0  0  0  0  0  0  0
  148.5985  131.8015  153.5119 H   0  0  0  0  0  0  0  0  0  0  0  0
  148.3544  134.2570  153.7581 H   0  0  0  0  0  0  0  0  0  0  0  0
  149.7033  143.4541  155.7410 H   0  0  0  0  0  0  0  0  0  0  0  0
  1  2  1  0  0  0  0
  1 25  1  0  0  0  0
  2  3  1  0  0  0  0
  2 26  1  0  0  0  0
  2 27  1  0  0  0  0
  3 11  1  0  0  0  0
  3  4  2  0  0  0  0
  4  5  1  0  0  0  0
  4 44  1  0  0  0  0
  5 10  2  0  0  0  0
  5  6  1  0  0  0  0
  6  7  2  0  0  0  0
  6 28  1  0  0  0  0
  7  8  1  0  0  0  0
  7 29  1  0  0  0  0
  8  9  2  0  0  0  0
  8 30  1  0  0  0  0
  9 10  1  0  0  0  0
  9 31  1  0  0  0  0
 10 11  1  0  0  0  0
 11 12  1  0  0  0  0
 12 13  1  0  0  0  0
 12 32  1  0  0  0  0
 12 33  1  0  0  0  0
 13 14  1  0  0  0  0
 13 15  1  0  0  0  0
 13 34  1  0  0  0  0
 14 35  1  0  0  0  0
 15 16  1  0  0  0  0
 15 36  1  0  0  0  0
 15 37  1  0  0  0  0
 16 17  1  0  0  0  0
 17 18  1  0  0  0  0
 17 38  1  0  0  0  0
 17 39  1  0  0  0  0
 18 24  1  0  0  0  0
 18 19  2  0  0  0  0
 19 20  1  0  0  0  0
 19 40  1  0  0  0  0
 20 21  2  0  0  0  0
 20 41  1  0  0  0  0
 21 22  1  0  0  0  0
 21 23  1  0  0  0  0
 23 24  2  0  0  0  0
 23 42  1  0  0  0  0
 24 43  1  0  0  0  0
M  CHG  1   4   1
M  END
> <s_m_source_file>
AV-unprocessed.smi

> <i_m_source_file_index>
322

> <i_lp_mmshare_version>
43012

> <i_f3d_flags>
0

> <s_epik_input>
W2NIXTFbY0hdW2NIXVtjSF1jKGMxMiluKGMobjIpW0NIMl1bT0hdKVtDSDJdW0NASF0oW09IXSlbQ0gyXU9bQ0gyXWMzW2NIXVtjSF1jKENsKVtjSF1bY0hdMw==

> <s_epik_cmdline>
J2VwaWtfcHl0aG9uJywgJy1waCcsICc3LjAnLCAnLXRuJywgJzgnLCAnLW1hJywgJzIwMCcsICctbWV0YWxfYmluZGluZycsICctaW1hZScsICc8aW5maWxlLm1hZT4nLCAnLW9tYWUnLCAnPG91dGZpbGUubWFlPic=

> <r_epik_Ionization_Penalty>
1.34314

> <r_epik_Ionization_Penalty_Charging>
1.34228

> <r_epik_Ionization_Penalty_Neutral>
0.000856898

> <r_epik_State_Penalty>
1.41963

> <r_epik_Charging_Adjusted_Penalty>
2.76191

> <i_epik_Tot_Q>
1

> <i_epik_Tot_abs_Q>
1

> <r_epik_Metal_State_Penalty>
5.45585

> <b_epik_Metal_Only>
0

> <s_lp_Force_Field>
OPLS_2005

> <r_lp_Energy>
17.7001

> <b_lp_Chiralities_Consistent>
1

> <s_lp_Variant>
AV-unprocessed.smi:322-3

> <Gold.Version>
5.8.1

> <Gold.Id.Protein>
6NUR|6NUR_protein|mol2

> <Gold.PLP.Fitness>
60.6229

> <Gold.PLP.PLP>
-52.6369

> <Gold.PLP.part.hbond>
-4.6579

> <Gold.PLP.part.metal>
0.0000

> <Gold.PLP.part.buried>
-5.7013

> <Gold.PLP.part.nonpolar>
-42.9539

> <Gold.PLP.part.repulsive>
0.1622

> <Gold.PLP.ligand.clash>
0.0000

> <Gold.PLP.ligand.torsion>
2.4422

> <Gold.PLP.Chemscore.Hbond>
4.2480

> <Gold.PLP.Chemscore.CHOScore>
0.0000

> <Gold.PLP.Chemscore.Metal>
0.0000

> <Gold.Chemscore.Hbonds>
donor molecule, donor type, donor heavy atom, donor atom, acceptor molecule, acceptor atom, score
      L1  H     1    25       P1  7957  0.45
      L1  H     4    44       P1  8028  1.89
      P1  H  7989  7998       L1    14  0.70
      P1  H  8011  8017       L1     1  1.00

> <Gold.PLP.Chemscore.Internal.Correction>
0.1265

> <Gold.Rescore>
     Score         DG    S(hbond)    S(metal)    S(lipo)     H(rot)  DE(clash)    DE(int)     intcor
     18.78     -21.00       2.61        0.00     128.83       3.24       0.04       2.18       ----

> <Gold.Chemscore.Fitness>
18.7763

> <Gold.Chemscore.DG>
-20.9967

> <Gold.Chemscore.ZeroCoef>
-5.4800

> <Gold.Chemscore.Hbond>
2.6150

> <Gold.Chemscore.Metal>
0.0000

> <Gold.Chemscore.Lipo>
128.8269

> <Gold.Chemscore.Internal_Hbond>
0.0000

> <Gold.Chemscore.DEClash>
0.0382

> <Gold.Chemscore.DEInternal>
2.1821

> <Gold.Chemscore.Rot>
3.2383

> <Gold.Chemscore.Internal.Correction>
   9.000000E+99

> <Gold.Chemscore.Hbonds>
donor molecule, donor type, donor heavy atom, donor atom, acceptor molecule, acceptor atom, score
      L1  H     1    25       P1  7957  0.44
      L1  H     4    44       P1  8028  0.89
      P1  H  7989  7998       L1    14  0.28
      P1  H  8011  8017       L1     1  0.49

> <Gold.Chemscore.Hbond.Weighted>
-8.7340

> <Gold.Chemscore.Metal.Weighted>
-0.0000

> <Gold.Chemscore.Lipo.Weighted>
-15.0727

> <Gold.Chemscore.Internal_Hbond.Weighted>
0.0000

> <Gold.Chemscore.DEClash.Weighted>
0.0382

> <Gold.Chemscore.DEInternal.Weighted>
2.1821

> <Gold.Chemscore.Rot.Weighted>
8.2901

> <Gold.Chemscore.Internal.Correction.Weighted>
   9.000000E+99

> <Gold.Protein.RotatedTorsions>
[ 6907 6896 6895 6894 ] final   53.22 input  -60.11 | X-H torsion
[ 7974 7965 7964 7962 ] final -179.58 input  175.53 | X-H torsion
[ 8008 7997 7996 7995 ] final  157.28 input   59.86 | X-H torsion
[ 10167 10162 10161 10158 ] final  111.49 input  -65.29 | X-H torsion
[ 10718 10713 10712 10709 ] final  130.83 input   66.30 | X-H torsion
[ 10763 10752 10751 10750 ] final   70.15 input  -60.55 | X-H torsion
[ 11005 11000 10999 10996 ] final  166.44 input  -57.11 | X-H torsion

> <Gold.Protein.ActiveResidues>
 VAL166  LYS551  ARG553  GLY616  TRP617  ASP618  TYR619  PRO620  LYS621  CYS622 
 ASP623  PHE694  ASN695  SER759  ASP760  ASP761  ALA762  ILE779  LEU786  VAL792 
 PHE793  MET794  SER795  GLU796  ALA797  LYS798  CYS799  TRP800  GLU811  SER814 

> <Gold.Protein.RotatedAtoms>
  152.3315  134.7253  160.0288 H   0  0  0  0  0  0  0  0  0  0  0  0  # atno 6907 bound_to 6896
  151.7668  133.3332  159.3441 H   0  0  0  0  0  0  0  0  0  0  0  0  # atno 6908 bound_to 6896
  150.7426  134.5987  159.6069 H   0  0  0  0  0  0  0  0  0  0  0  0  # atno 6909 bound_to 6896
  144.7137  140.0696  143.6430 H   0  0  0  0  0  0  0  0  0  0  0  0  # atno 7974 bound_to 7965
  156.2373  140.1889  156.7084 H   0  0  0  0  0  0  0  0  0  0  0  0  # atno 8008 bound_to 7997
  154.6131  140.0619  156.9546 H   0  0  0  0  0  0  0  0  0  0  0  0  # atno 8009 bound_to 7997
  155.1984  140.3290  155.4350 H   0  0  0  0  0  0  0  0  0  0  0  0  # atno 8010 bound_to 7997
  139.6607  144.7128  151.1871 H   0  0  0  0  0  0  0  0  0  0  0  0  # atno 10167 bound_to 10162
  157.5025  131.1094  150.9407 H   0  0  0  0  0  0  0  0  0  0  0  0  # atno 10718 bound_to 10713
  153.0326  135.5184  154.7398 H   0  0  0  0  0  0  0  0  0  0  0  0  # atno 10763 bound_to 10752
  154.6401  135.2911  155.0116 H   0  0  0  0  0  0  0  0  0  0  0  0  # atno 10764 bound_to 10752
  154.1037  135.6632  153.4925 H   0  0  0  0  0  0  0  0  0  0  0  0  # atno 10765 bound_to 10752
  140.2665  134.7861  157.3637 H   0  0  0  0  0  0  0  0  0  0  0  0  # atno 11005 bound_to 11000
  145.9794  139.2930  143.1051 LP  0  0  0  0  0  0  0  0  0  0  0  0  # atno 17320 bound_to 7965
  145.9027  140.9232  143.0494 LP  0  0  0  0  0  0  0  0  0  0  0  0  # atno 17321 bound_to 7965
  140.7579  143.5999  150.8710 LP  0  0  0  0  0  0  0  0  0  0  0  0  # atno 17342 bound_to 10162
  139.9656  143.6114  152.2989 LP  0  0  0  0  0  0  0  0  0  0  0  0  # atno 17343 bound_to 10162
  157.0073  130.5623  149.5317 LP  0  0  0  0  0  0  0  0  0  0  0  0  # atno 17370 bound_to 10713
  156.0238  130.5332  150.8350 LP  0  0  0  0  0  0  0  0  0  0  0  0  # atno 17371 bound_to 10713
  140.1414  134.4967  155.8028 LP  0  0  0  0  0  0  0  0  0  0  0  0  # atno 17394 bound_to 11000
  141.2183  133.6827  156.7217 LP  0  0  0  0  0  0  0  0  0  0  0  0  # atno 17395 bound_to 11000

$$$$
