AV-unprocessed.smi:677|AV-procd|sdf|3312|dock6
  -GOLD-   22720 0273D 1   1.00000     0.00000
 Structure written by MMmdl.
 44 45  0  0  0  0  0  0  0  0  2 V2000
  143.9886  132.2482  150.7871 C   0  0  0  0  0  0  0  0  0  0  0  0
  144.1315  133.5798  151.4934 C   0  0  0  0  0  0  0  0  0  0  0  0
  144.6658  134.7200  150.8556 C   0  0  0  0  0  0  0  0  0  0  0  0
  144.7691  135.9277  151.5769 C   0  0  0  0  0  0  0  0  0  0  0  0
  144.3364  135.9716  152.9209 C   0  0  0  0  0  0  0  0  0  0  0  0
  144.4423  137.2534  153.7272 C   0  0  0  0  0  0  0  0  0  0  0  0
  145.8173  137.8886  153.5209 C   0  0  0  0  0  0  0  0  0  0  0  0
  146.8337  137.2501  153.7937 O   0  0  0  0  0  0  0  0  0  0  0  0
  145.8338  139.1327  153.0177 N   0  0  0  0  0  0  0  0  0  0  0  0
  147.0335  139.9046  152.7074 C   0  0  0  0  0  0  0  0  0  0  0  0
  148.0052  139.9816  153.9033 C   0  0  0  0  0  0  0  0  0  0  0  0
  148.6589  141.3668  154.0746 C   0  0  0  0  0  0  0  0  0  0  0  0
  149.6837  141.3642  155.2229 C   0  0  0  0  0  0  0  0  0  0  0  0
  150.7223  140.3628  154.9812 N   0  0  0  0  0  0  0  0  0  0  0  0
  151.7065  140.4373  156.0560 C   0  0  0  0  0  0  0  0  0  0  0  0
  151.1220  140.1628  157.3796 C   0  0  0  0  0  0  0  0  0  0  0  0
  150.6623  139.9466  158.4193 N   0  0  0  0  0  0  0  0  0  0  0  0
  150.1199  139.0284  154.9407 C   0  0  0  0  0  0  0  0  0  0  0  0
  149.1213  138.9318  153.7745 C   0  0  0  0  0  0  0  0  0  0  0  0
  143.8104  134.7992  153.5058 C   0  0  0  0  0  0  0  0  0  0  0  0
  143.7289  133.6621  152.7812 N   0  3  0  0  0  0  0  0  0  0  0  0
  144.3435  132.3084  149.7579 H   0  0  0  0  0  0  0  0  0  0  0  0
  142.9434  131.9379  150.7693 H   0  0  0  0  0  0  0  0  0  0  0  0
  144.5675  131.4814  151.3027 H   0  0  0  0  0  0  0  0  0  0  0  0
  144.9941  134.6728  149.8275 H   0  0  0  0  0  0  0  0  0  0  0  0
  145.1790  136.8080  151.1033 H   0  0  0  0  0  0  0  0  0  0  0  0
  143.6495  137.9441  153.4350 H   0  0  0  0  0  0  0  0  0  0  0  0
  144.2997  137.0390  154.7870 H   0  0  0  0  0  0  0  0  0  0  0  0
  144.9479  139.5787  152.8280 H   0  0  0  0  0  0  0  0  0  0  0  0
  147.5268  139.4132  151.8682 H   0  0  0  0  0  0  0  0  0  0  0  0
  146.7776  140.9070  152.3596 H   0  0  0  0  0  0  0  0  0  0  0  0
  147.4414  139.7597  154.8109 H   0  0  0  0  0  0  0  0  0  0  0  0
  149.1492  141.6649  153.1467 H   0  0  0  0  0  0  0  0  0  0  0  0
  147.9009  142.1228  154.2799 H   0  0  0  0  0  0  0  0  0  0  0  0
  150.1429  142.3503  155.2989 H   0  0  0  0  0  0  0  0  0  0  0  0
  149.1881  141.1681  156.1751 H   0  0  0  0  0  0  0  0  0  0  0  0
  152.4869  139.6925  155.8966 H   0  0  0  0  0  0  0  0  0  0  0  0
  152.1872  141.4164  156.0807 H   0  0  0  0  0  0  0  0  0  0  0  0
  150.8959  138.2745  154.8076 H   0  0  0  0  0  0  0  0  0  0  0  0
  149.6224  138.8109  155.8872 H   0  0  0  0  0  0  0  0  0  0  0  0
  148.6899  137.9308  153.7464 H   0  0  0  0  0  0  0  0  0  0  0  0
  149.6519  139.0654  152.8303 H   0  0  0  0  0  0  0  0  0  0  0  0
  143.4606  134.7352  154.5261 H   0  0  0  0  0  0  0  0  0  0  0  0
  143.3479  132.8273  153.2270 H   0  0  0  0  0  0  0  0  0  0  0  0
  1  2  1  0  0  0  0
  1 22  1  0  0  0  0
  1 23  1  0  0  0  0
  1 24  1  0  0  0  0
  2 21  1  0  0  0  0
  2  3  2  0  0  0  0
  3  4  1  0  0  0  0
  3 25  1  0  0  0  0
  4  5  2  0  0  0  0
  4 26  1  0  0  0  0
  5  6  1  0  0  0  0
  5 20  1  0  0  0  0
  6  7  1  0  0  0  0
  6 27  1  0  0  0  0
  6 28  1  0  0  0  0
  7  8  2  0  0  0  0
  7  9  1  0  0  0  0
  9 10  1  0  0  0  0
  9 29  1  0  0  0  0
 10 11  1  0  0  0  0
 10 30  1  0  0  0  0
 10 31  1  0  0  0  0
 11 19  1  0  0  0  0
 11 12  1  0  0  0  0
 11 32  1  0  0  0  0
 12 13  1  0  0  0  0
 12 33  1  0  0  0  0
 12 34  1  0  0  0  0
 13 14  1  0  0  0  0
 13 35  1  0  0  0  0
 13 36  1  0  0  0  0
 14 15  1  0  0  0  0
 14 18  1  0  0  0  0
 15 16  1  0  0  0  0
 15 37  1  0  0  0  0
 15 38  1  0  0  0  0
 16 17  3  0  0  0  0
 18 19  1  0  0  0  0
 18 39  1  0  0  0  0
 18 40  1  0  0  0  0
 19 41  1  0  0  0  0
 19 42  1  0  0  0  0
 20 21  2  0  0  0  0
 20 43  1  0  0  0  0
 21 44  1  0  0  0  0
M  CHG  1  21   1
M  END
> <s_m_source_file>
AV-unprocessed.smi

> <i_m_source_file_index>
677

> <i_lp_mmshare_version>
43012

> <i_f3d_flags>
0

> <s_epik_input>
W0NIM11jMVtjSF1bY0hdYyhbY0hdbjEpW0NIMl1DKD1PKVtOSF1bQ0gyXVtDSF0yW0NIMl1bQ0gyXU4oW0NIMl1DI04pW0NIMl1bQ0gyXTI=

> <s_epik_cmdline>
J2VwaWtfcHl0aG9uJywgJy1waCcsICc3LjAnLCAnLXRuJywgJzgnLCAnLW1hJywgJzIwMCcsICctbWV0YWxfYmluZGluZycsICctaW1hZScsICc8aW5maWxlLm1hZT4nLCAnLW9tYWUnLCAnPG91dGZpbGUubWFlPic=

> <r_epik_Ionization_Penalty>
2.12868

> <r_epik_Ionization_Penalty_Charging>
2.12771

> <r_epik_Ionization_Penalty_Neutral>
0.000970756

> <r_epik_State_Penalty>
2.26584

> <r_epik_Charging_Adjusted_Penalty>
4.39355

> <i_epik_Tot_Q>
1

> <i_epik_Tot_abs_Q>
1

> <r_epik_Metal_State_Penalty>
2.28211

> <b_epik_Metal_Only>
0

> <s_lp_Force_Field>
OPLS_2005

> <r_lp_Energy>
22.0212

> <b_lp_Chiralities_Consistent>
1

> <s_lp_Variant>
AV-unprocessed.smi:677-2

> <Gold.Version>
5.8.1

> <Gold.Id.Protein>
6NUR|6NUR_protein|mol2

> <Gold.PLP.Fitness>
45.1471

> <Gold.PLP.PLP>
-34.5992

> <Gold.PLP.part.hbond>
-3.0000

> <Gold.PLP.part.metal>
0.0000

> <Gold.PLP.part.buried>
-1.3954

> <Gold.PLP.part.nonpolar>
-31.0473

> <Gold.PLP.part.repulsive>
0.5938

> <Gold.PLP.ligand.clash>
0.0000

> <Gold.PLP.ligand.torsion>
0.7459

> <Gold.PLP.Chemscore.Hbond>
4.0000

> <Gold.PLP.Chemscore.CHOScore>
0.0000

> <Gold.PLP.Chemscore.Metal>
0.0000

> <Gold.Chemscore.Hbonds>
donor molecule, donor type, donor heavy atom, donor atom, acceptor molecule, acceptor atom, score
      L1  H     9    29       P1 10175  1.00
      L1  H    21    44       P1 10957  2.00
      P1  H  7989  7998       L1    14  1.00

> <Gold.PLP.Chemscore.Internal.Correction>
0.0397

> <Gold.Rescore>
     Score         DG    S(hbond)    S(metal)    S(lipo)     H(rot)  DE(clash)    DE(int)     intcor
     14.86     -17.68       2.30        0.00      79.15       1.86       0.47       2.34       ----

> <Gold.Chemscore.Fitness>
14.8612

> <Gold.Chemscore.DG>
-17.6756

> <Gold.Chemscore.ZeroCoef>
-5.4800

> <Gold.Chemscore.Hbond>
2.3041

> <Gold.Chemscore.Metal>
0.0000

> <Gold.Chemscore.Lipo>
79.1477

> <Gold.Chemscore.Internal_Hbond>
0.0000

> <Gold.Chemscore.DEClash>
0.4694

> <Gold.Chemscore.DEInternal>
2.3450

> <Gold.Chemscore.Rot>
1.8595

> <Gold.Chemscore.Internal.Correction>
   9.000000E+99

> <Gold.Chemscore.Hbonds>
donor molecule, donor type, donor heavy atom, donor atom, acceptor molecule, acceptor atom, score
      L1  H     9    29       P1 10175  0.98
      L1  H    21    44       P1 10957  0.47
      P1  H  7989  7998       L1    14  0.25

> <Gold.Chemscore.Hbond.Weighted>
-7.6957

> <Gold.Chemscore.Metal.Weighted>
-0.0000

> <Gold.Chemscore.Lipo.Weighted>
-9.2603

> <Gold.Chemscore.Internal_Hbond.Weighted>
0.0000

> <Gold.Chemscore.DEClash.Weighted>
0.4694

> <Gold.Chemscore.DEInternal.Weighted>
2.3450

> <Gold.Chemscore.Rot.Weighted>
4.7603

> <Gold.Chemscore.Internal.Correction.Weighted>
   9.000000E+99

> <Gold.Protein.RotatedTorsions>
[ 6907 6896 6895 6894 ] final   -0.28 input  -60.11 | X-H torsion
[ 7974 7965 7964 7962 ] final -105.70 input  175.53 | X-H torsion
[ 8008 7997 7996 7995 ] final   22.96 input   59.86 | X-H torsion
[ 10167 10162 10161 10158 ] final   17.29 input  -65.29 | X-H torsion
[ 10718 10713 10712 10709 ] final  152.92 input   66.30 | X-H torsion
[ 10763 10752 10751 10750 ] final    1.97 input  -60.55 | X-H torsion
[ 11005 11000 10999 10996 ] final   67.93 input  -57.11 | X-H torsion

> <Gold.Protein.ActiveResidues>
 VAL166  LYS551  ARG553  GLY616  TRP617  ASP618  TYR619  PRO620  LYS621  CYS622 
 ASP623  PHE694  ASN695  SER759  ASP760  ASP761  ALA762  ILE779  LEU786  VAL792 
 PHE793  MET794  SER795  GLU796  ALA797  LYS798  CYS799  TRP800  GLU811  SER814 

> <Gold.Protein.RotatedAtoms>
  151.5648  135.1064  159.9981 H   0  0  0  0  0  0  0  0  0  0  0  0  # atno 6907 bound_to 6896
  152.4429  133.7477  159.6687 H   0  0  0  0  0  0  0  0  0  0  0  0  # atno 6908 bound_to 6896
  150.8338  133.7978  159.3111 H   0  0  0  0  0  0  0  0  0  0  0  0  # atno 6909 bound_to 6896
  145.2272  140.9157  143.3225 H   0  0  0  0  0  0  0  0  0  0  0  0  # atno 7974 bound_to 7965
  154.9736  140.3093  155.4977 H   0  0  0  0  0  0  0  0  0  0  0  0  # atno 8008 bound_to 7997
  156.2962  140.2279  156.4770 H   0  0  0  0  0  0  0  0  0  0  0  0  # atno 8009 bound_to 7997
  154.7853  140.0443  157.1148 H   0  0  0  0  0  0  0  0  0  0  0  0  # atno 8010 bound_to 7997
  140.5737  143.9114  150.6733 H   0  0  0  0  0  0  0  0  0  0  0  0  # atno 10167 bound_to 10162
  157.2515  131.0780  151.1727 H   0  0  0  0  0  0  0  0  0  0  0  0  # atno 10718 bound_to 10713
  153.3014  135.6956  153.7200 H   0  0  0  0  0  0  0  0  0  0  0  0  # atno 10763 bound_to 10752
  153.6113  135.3444  155.2980 H   0  0  0  0  0  0  0  0  0  0  0  0  # atno 10764 bound_to 10752
  154.8551  135.4364  154.2126 H   0  0  0  0  0  0  0  0  0  0  0  0  # atno 10765 bound_to 10752
  139.9741  134.6851  156.0388 H   0  0  0  0  0  0  0  0  0  0  0  0  # atno 11005 bound_to 11000
  144.9710  139.3880  143.6309 LP  0  0  0  0  0  0  0  0  0  0  0  0  # atno 17320 bound_to 7965
  146.3362  139.8808  142.8824 LP  0  0  0  0  0  0  0  0  0  0  0  0  # atno 17321 bound_to 7965
  140.2595  143.3534  152.1335 LP  0  0  0  0  0  0  0  0  0  0  0  0  # atno 17342 bound_to 10162
  139.5131  144.6927  151.5716 LP  0  0  0  0  0  0  0  0  0  0  0  0  # atno 17343 bound_to 10162
  157.3273  130.6967  149.6304 LP  0  0  0  0  0  0  0  0  0  0  0  0  # atno 17370 bound_to 10713
  155.9666  130.4318  150.4934 LP  0  0  0  0  0  0  0  0  0  0  0  0  # atno 17371 bound_to 10713
  141.1419  133.6563  156.3756 LP  0  0  0  0  0  0  0  0  0  0  0  0  # atno 17394 bound_to 11000
  140.5231  134.6285  157.5325 LP  0  0  0  0  0  0  0  0  0  0  0  0  # atno 17395 bound_to 11000

$$$$
