AV-unprocessed.smi:653|AV-procd|sdf|3209|dock4
  -GOLD-   22720 0143D 1   1.00000     0.00000
 Structure written by MMmdl.
 45 46  0  0  0  0  0  0  0  0  2 V2000
  143.8221  131.7727  151.0077 C   0  0  0  0  0  0  0  0  0  0  0  0
  143.8837  133.2163  151.4605 C   0  0  0  0  0  0  0  0  0  0  0  0
  144.4897  134.2232  150.6791 C   0  0  0  0  0  0  0  0  0  0  0  0
  144.5090  135.5494  151.1586 C   0  0  0  0  0  0  0  0  0  0  0  0
  143.9210  135.8431  152.4089 C   0  0  0  0  0  0  0  0  0  0  0  0
  143.9271  137.2604  152.9532 C   0  0  0  0  0  0  0  0  0  0  0  0
  145.1934  137.5096  153.7736 C   0  0  0  0  0  0  0  0  0  0  0  0
  145.6935  136.5909  154.4225 O   0  0  0  0  0  0  0  0  0  0  0  0
  145.6986  138.7524  153.7337 N   0  0  0  0  0  0  0  0  0  0  0  0
  146.9020  139.2039  154.4264 C   0  0  0  0  0  0  0  0  0  0  0  0
  147.6594  140.2937  153.6278 C   0  0  1  0  0  0  0  0  0  0  0  0
  146.7991  141.5094  153.3115 C   0  0  0  0  0  0  0  0  0  0  0  0
  146.9199  142.3606  154.5766 C   0  0  0  0  0  0  0  0  0  0  0  0
  148.0926  141.9036  155.2455 O   0  0  0  0  0  0  0  0  0  0  0  0
  148.7895  140.9852  154.4115 C   0  0  1  0  0  0  0  0  0  0  0  0
  149.7471  140.0888  155.2296 C   0  0  0  0  0  0  0  0  0  0  0  0
  150.8185  140.9321  155.9398 C   0  0  0  0  0  0  0  0  0  0  0  0
  150.4216  139.0221  154.3498 C   0  0  0  0  0  0  0  0  0  0  0  0
  143.3279  134.7949  153.1457 C   0  0  0  0  0  0  0  0  0  0  0  0
  143.3308  133.5375  152.6519 N   0  3  0  0  0  0  0  0  0  0  0  0
  144.6307  131.5501  150.3108 H   0  0  0  0  0  0  0  0  0  0  0  0
  142.8740  131.5758  150.5065 H   0  0  0  0  0  0  0  0  0  0  0  0
  143.9110  131.0941  151.8567 H   0  0  0  0  0  0  0  0  0  0  0  0
  144.9345  133.9845  149.7239 H   0  0  0  0  0  0  0  0  0  0  0  0
  144.9717  136.3306  150.5729 H   0  0  0  0  0  0  0  0  0  0  0  0
  143.8521  137.9740  152.1311 H   0  0  0  0  0  0  0  0  0  0  0  0
  143.0529  137.4175  153.5862 H   0  0  0  0  0  0  0  0  0  0  0  0
  145.2144  139.4414  153.1764 H   0  0  0  0  0  0  0  0  0  0  0  0
  146.6740  139.5509  155.4357 H   0  0  0  0  0  0  0  0  0  0  0  0
  147.5307  138.3230  154.5487 H   0  0  0  0  0  0  0  0  0  0  0  0
  148.0476  139.8525  152.7089 H   0  0  0  0  0  0  0  0  0  0  0  0
  147.2324  142.0493  152.4684 H   0  0  0  0  0  0  0  0  0  0  0  0
  145.7668  141.2815  153.0496 H   0  0  0  0  0  0  0  0  0  0  0  0
  146.9912  143.4230  154.3423 H   0  0  0  0  0  0  0  0  0  0  0  0
  146.0612  142.2142  155.2326 H   0  0  0  0  0  0  0  0  0  0  0  0
  149.3830  141.5751  153.7097 H   0  0  0  0  0  0  0  0  0  0  0  0
  149.1765  139.5796  156.0065 H   0  0  0  0  0  0  0  0  0  0  0  0
  151.4268  141.4858  155.2239 H   0  0  0  0  0  0  0  0  0  0  0  0
  151.4876  140.3035  156.5282 H   0  0  0  0  0  0  0  0  0  0  0  0
  150.3684  141.6537  156.6218 H   0  0  0  0  0  0  0  0  0  0  0  0
  151.0163  139.4809  153.5594 H   0  0  0  0  0  0  0  0  0  0  0  0
  149.6918  138.3668  153.8754 H   0  0  0  0  0  0  0  0  0  0  0  0
  151.0863  138.3908  154.9404 H   0  0  0  0  0  0  0  0  0  0  0  0
  142.8579  134.9229  154.1099 H   0  0  0  0  0  0  0  0  0  0  0  0
  142.8968  132.7970  153.2035 H   0  0  0  0  0  0  0  0  0  0  0  0
  1  2  1  0  0  0  0
  1 21  1  0  0  0  0
  1 22  1  0  0  0  0
  1 23  1  0  0  0  0
  2 20  1  0  0  0  0
  2  3  2  0  0  0  0
  3  4  1  0  0  0  0
  3 24  1  0  0  0  0
  4  5  2  0  0  0  0
  4 25  1  0  0  0  0
  5  6  1  0  0  0  0
  5 19  1  0  0  0  0
  6  7  1  0  0  0  0
  6 26  1  0  0  0  0
  6 27  1  0  0  0  0
  7  8  2  0  0  0  0
  7  9  1  0  0  0  0
  9 10  1  0  0  0  0
  9 28  1  0  0  0  0
 10 11  1  0  0  0  0
 10 29  1  0  0  0  0
 10 30  1  0  0  0  0
 11 15  1  0  0  0  0
 11 12  1  0  0  0  0
 11 31  1  0  0  0  0
 12 13  1  0  0  0  0
 12 32  1  0  0  0  0
 12 33  1  0  0  0  0
 13 14  1  0  0  0  0
 13 34  1  0  0  0  0
 13 35  1  0  0  0  0
 14 15  1  0  0  0  0
 15 16  1  0  0  0  0
 15 36  1  0  0  0  0
 16 17  1  0  0  0  0
 16 18  1  0  0  0  0
 16 37  1  0  0  0  0
 17 38  1  0  0  0  0
 17 39  1  0  0  0  0
 17 40  1  0  0  0  0
 18 41  1  0  0  0  0
 18 42  1  0  0  0  0
 18 43  1  0  0  0  0
 19 20  2  0  0  0  0
 19 44  1  0  0  0  0
 20 45  1  0  0  0  0
M  CHG  1  20   1
M  END
> <s_m_source_file>
AV-unprocessed.smi

> <i_m_source_file_index>
653

> <i_lp_mmshare_version>
43012

> <i_f3d_flags>
0

> <s_epik_input>
W0NIM11jMVtjSF1bY0hdYyhbY0hdbjEpW0NIMl1DKD1PKVtOSF1bQ0gyXVtDQEBIXTJbQ0gyXVtDSDJdT1tDQEhdMltDSF0oW0NIM10pW0NIM10=

> <s_epik_cmdline>
J2VwaWtfcHl0aG9uJywgJy1waCcsICc3LjAnLCAnLXRuJywgJzgnLCAnLW1hJywgJzIwMCcsICctbWV0YWxfYmluZGluZycsICctaW1hZScsICc8aW5maWxlLm1hZT4nLCAnLW9tYWUnLCAnPG91dGZpbGUubWFlPic=

> <r_epik_Ionization_Penalty>
2.12486

> <r_epik_Ionization_Penalty_Charging>
2.12486

> <r_epik_Ionization_Penalty_Neutral>
9.0873e-08

> <r_epik_State_Penalty>
2.26279

> <r_epik_Charging_Adjusted_Penalty>
4.38765

> <i_epik_Tot_Q>
1

> <i_epik_Tot_abs_Q>
1

> <r_epik_Metal_State_Penalty>
2.27914

> <b_epik_Metal_Only>
0

> <s_lp_Force_Field>
OPLS_2005

> <r_lp_Energy>
28.2902

> <b_lp_Chiralities_Consistent>
1

> <s_lp_Variant>
AV-unprocessed.smi:653-6

> <Gold.Version>
5.8.1

> <Gold.Id.Protein>
6NUR|6NUR_protein|mol2

> <Gold.PLP.Fitness>
43.9756

> <Gold.PLP.PLP>
-36.8481

> <Gold.PLP.part.hbond>
-2.0000

> <Gold.PLP.part.metal>
0.0000

> <Gold.PLP.part.buried>
-5.0333

> <Gold.PLP.part.nonpolar>
-31.8862

> <Gold.PLP.part.repulsive>
0.9813

> <Gold.PLP.ligand.clash>
0.0000

> <Gold.PLP.ligand.torsion>
0.9583

> <Gold.PLP.Chemscore.Hbond>
3.0000

> <Gold.PLP.Chemscore.CHOScore>
0.0000

> <Gold.PLP.Chemscore.Metal>
0.0000

> <Gold.Chemscore.Hbonds>
donor molecule, donor type, donor heavy atom, donor atom, acceptor molecule, acceptor atom, score
      L1  H     9    28       P1 10175  1.00
      L1  H    20    45       P1 10957  2.00

> <Gold.PLP.Chemscore.Internal.Correction>
0.0441

> <Gold.Rescore>
     Score         DG    S(hbond)    S(metal)    S(lipo)     H(rot)  DE(clash)    DE(int)     intcor
     15.94     -18.28       1.88        0.00      90.10       1.57       1.39       0.96       ----

> <Gold.Chemscore.Fitness>
15.9357

> <Gold.Chemscore.DG>
-18.2835

> <Gold.Chemscore.ZeroCoef>
-5.4800

> <Gold.Chemscore.Hbond>
1.8806

> <Gold.Chemscore.Metal>
0.0000

> <Gold.Chemscore.Lipo>
90.1020

> <Gold.Chemscore.Internal_Hbond>
0.0000

> <Gold.Chemscore.DEClash>
1.3861

> <Gold.Chemscore.DEInternal>
0.9617

> <Gold.Chemscore.Rot>
1.5701

> <Gold.Chemscore.Internal.Correction>
   9.000000E+99

> <Gold.Chemscore.Hbonds>
donor molecule, donor type, donor heavy atom, donor atom, acceptor molecule, acceptor atom, score
      L1  H     9    28       P1 10175  0.97
      L1  H    20    45       P1 10957  0.44

> <Gold.Chemscore.Hbond.Weighted>
-6.2812

> <Gold.Chemscore.Metal.Weighted>
-0.0000

> <Gold.Chemscore.Lipo.Weighted>
-10.5419

> <Gold.Chemscore.Internal_Hbond.Weighted>
0.0000

> <Gold.Chemscore.DEClash.Weighted>
1.3861

> <Gold.Chemscore.DEInternal.Weighted>
0.9617

> <Gold.Chemscore.Rot.Weighted>
4.0196

> <Gold.Chemscore.Internal.Correction.Weighted>
   9.000000E+99

> <Gold.Protein.RotatedTorsions>
[ 6907 6896 6895 6894 ] final  155.12 input  -60.11 | X-H torsion
[ 7974 7965 7964 7962 ] final -130.05 input  175.53 | X-H torsion
[ 8008 7997 7996 7995 ] final  -36.74 input   59.86 | X-H torsion
[ 10167 10162 10161 10158 ] final   21.75 input  -65.29 | X-H torsion
[ 10718 10713 10712 10709 ] final  113.65 input   66.30 | X-H torsion
[ 10763 10752 10751 10750 ] final  -28.91 input  -60.55 | X-H torsion
[ 11005 11000 10999 10996 ] final -139.78 input  -57.11 | X-H torsion

> <Gold.Protein.ActiveResidues>
 VAL166  LYS551  ARG553  GLY616  TRP617  ASP618  TYR619  PRO620  LYS621  CYS622 
 ASP623  PHE694  ASN695  SER759  ASP760  ASP761  ALA762  ILE779  LEU786  VAL792 
 PHE793  MET794  SER795  GLU796  ALA797  LYS798  CYS799  TRP800  GLU811  SER814 

> <Gold.Protein.RotatedAtoms>
  152.0488  133.4009  159.4367 H   0  0  0  0  0  0  0  0  0  0  0  0  # atno 6907 bound_to 6896
  150.6871  134.3332  159.4845 H   0  0  0  0  0  0  0  0  0  0  0  0  # atno 6908 bound_to 6896
  152.1139  134.9254  160.0616 H   0  0  0  0  0  0  0  0  0  0  0  0  # atno 6909 bound_to 6896
  144.9512  140.7347  143.4786 H   0  0  0  0  0  0  0  0  0  0  0  0  # atno 7974 bound_to 7965
  154.4067  140.1622  156.2424 H   0  0  0  0  0  0  0  0  0  0  0  0  # atno 8008 bound_to 7997
  155.9190  140.3422  155.6135 H   0  0  0  0  0  0  0  0  0  0  0  0  # atno 8009 bound_to 7997
  155.7245  140.0772  157.2307 H   0  0  0  0  0  0  0  0  0  0  0  0  # atno 8010 bound_to 7997
  140.5402  143.9690  150.6515 H   0  0  0  0  0  0  0  0  0  0  0  0  # atno 10167 bound_to 10162
  157.6326  131.0987  150.7072 H   0  0  0  0  0  0  0  0  0  0  0  0  # atno 10718 bound_to 10713
  153.7560  135.6922  153.4935 H   0  0  0  0  0  0  0  0  0  0  0  0  # atno 10763 bound_to 10752
  153.1970  135.4450  155.0219 H   0  0  0  0  0  0  0  0  0  0  0  0  # atno 10764 bound_to 10752
  154.8170  135.3403  154.7078 H   0  0  0  0  0  0  0  0  0  0  0  0  # atno 10765 bound_to 10752
  140.8487  134.2313  157.4772 H   0  0  0  0  0  0  0  0  0  0  0  0  # atno 11005 bound_to 11000
  145.2840  139.1908  143.4775 LP  0  0  0  0  0  0  0  0  0  0  0  0  # atno 17320 bound_to 7965
  146.3322  140.2807  142.8610 LP  0  0  0  0  0  0  0  0  0  0  0  0  # atno 17321 bound_to 7965
  140.3088  143.3211  152.0899 LP  0  0  0  0  0  0  0  0  0  0  0  0  # atno 17342 bound_to 10162
  139.4986  144.6649  151.6379 LP  0  0  0  0  0  0  0  0  0  0  0  0  # atno 17343 bound_to 10162
  156.7409  130.4739  149.5478 LP  0  0  0  0  0  0  0  0  0  0  0  0  # atno 17370 bound_to 10713
  156.1540  130.6329  151.0633 LP  0  0  0  0  0  0  0  0  0  0  0  0  # atno 17371 bound_to 10713
  139.8704  134.9672  156.4589 LP  0  0  0  0  0  0  0  0  0  0  0  0  # atno 17394 bound_to 11000
  140.8815  133.7914  155.9471 LP  0  0  0  0  0  0  0  0  0  0  0  0  # atno 17395 bound_to 11000

$$$$
