AV-unprocessed.smi:2164|AV-procd|sdf|8811|dock2
  -GOLD-   2272012 03D 1   1.00000     0.00000
 Structure written by MMmdl.
 39 41  0  0  0  0  0  0  0  0  3 V2000
  150.3829  145.3734  160.4342 O   0  0  0  0  0  0  0  0  0  0  0  0
  150.8614  144.4271  159.7954 C   0  0  0  0  0  0  0  0  0  0  0  0
  150.5454  144.1144  158.5017 N   0  5  0  0  0  0  0  0  0  0  0  0
  149.8950  142.8794  158.0671 C   0  0  0  0  0  0  0  0  0  0  0  0
  150.7235  142.2255  156.9439 C   0  0  0  0  0  0  0  0  0  0  0  0
  149.9867  141.1120  156.2129 C   0  0  0  0  0  0  0  0  0  0  0  0
  150.6065  139.8608  155.9878 C   0  0  0  0  0  0  0  0  0  0  0  0
  149.9017  138.8513  155.3000 C   0  0  0  0  0  0  0  0  0  0  0  0
  148.5924  139.1141  154.8485 C   0  0  0  0  0  0  0  0  0  0  0  0
  148.0327  140.3225  155.0755 N   0  3  0  0  0  0  0  0  0  0  0  0
  148.6745  141.3158  155.7284 C   0  0  0  0  0  0  0  0  0  0  0  0
  151.8455  143.5647  160.4664 C   0  0  0  0  0  0  0  0  0  0  0  0
  152.4359  142.5078  159.8664 C   0  0  0  0  0  0  0  0  0  0  0  0
  153.3713  141.6833  160.4972 N   0  0  0  0  0  0  0  0  0  0  0  0
  153.8578  140.5164  159.7699 C   0  0  0  0  0  0  0  0  0  0  0  0
  155.3497  140.3332  160.0001 C   0  0  0  0  0  0  0  0  0  0  0  0
  155.5596  140.0147  161.7935 S   0  0  0  0  0  0  0  0  0  0  0  0
  154.8155  138.7904  162.1287 O   0  0  0  0  0  0  0  0  0  0  0  0
  156.9944  140.0942  162.1071 O   0  0  0  0  0  0  0  0  0  0  0  0
  154.7610  141.3392  162.4399 N   0  0  0  0  0  0  0  0  0  0  0  0
  153.8118  141.9679  161.8149 C   0  0  0  0  0  0  0  0  0  0  0  0
  153.1493  143.0791  162.4774 C   0  0  0  0  0  0  0  0  0  0  0  0
  152.2259  143.8311  161.8446 C   0  0  0  0  0  0  0  0  0  0  0  0
  149.7907  142.1691  158.8883 H   0  0  0  0  0  0  0  0  0  0  0  0
  148.8849  143.0631  157.6984 H   0  0  0  0  0  0  0  0  0  0  0  0
  151.0202  142.9808  156.2145 H   0  0  0  0  0  0  0  0  0  0  0  0
  151.6495  141.8195  157.3539 H   0  0  0  0  0  0  0  0  0  0  0  0
  151.6104  139.6757  156.3422 H   0  0  0  0  0  0  0  0  0  0  0  0
  150.3598  137.8893  155.1228 H   0  0  0  0  0  0  0  0  0  0  0  0
  147.9809  138.4004  154.3160 H   0  0  0  0  0  0  0  0  0  0  0  0
  148.1223  142.2365  155.8492 H   0  0  0  0  0  0  0  0  0  0  0  0
  152.2242  142.2213  158.8462 H   0  0  0  0  0  0  0  0  0  0  0  0
  153.3043  139.6343  160.0934 H   0  0  0  0  0  0  0  0  0  0  0  0
  153.6749  140.6266  158.7006 H   0  0  0  0  0  0  0  0  0  0  0  0
  155.7429  139.4823  159.4444 H   0  0  0  0  0  0  0  0  0  0  0  0
  155.9181  141.2211  159.7211 H   0  0  0  0  0  0  0  0  0  0  0  0
  153.3864  143.3408  163.4986 H   0  0  0  0  0  0  0  0  0  0  0  0
  151.7702  144.6445  162.3899 H   0  0  0  0  0  0  0  0  0  0  0  0
  147.0845  140.4936  154.7400 H   0  0  0  0  0  0  0  0  0  0  0  0
  1  2  2  0  0  0  0
  2  3  1  0  0  0  0
  2 12  1  0  0  0  0
  3  4  1  0  0  0  0
  4  5  1  0  0  0  0
  4 24  1  0  0  0  0
  4 25  1  0  0  0  0
  5  6  1  0  0  0  0
  5 26  1  0  0  0  0
  5 27  1  0  0  0  0
  6 11  1  0  0  0  0
  6  7  2  0  0  0  0
  7  8  1  0  0  0  0
  7 28  1  0  0  0  0
  8  9  2  0  0  0  0
  8 29  1  0  0  0  0
  9 10  1  0  0  0  0
  9 30  1  0  0  0  0
 10 11  2  0  0  0  0
 10 39  1  0  0  0  0
 11 31  1  0  0  0  0
 12 23  1  0  0  0  0
 12 13  2  0  0  0  0
 13 14  1  0  0  0  0
 13 32  1  0  0  0  0
 14 21  1  0  0  0  0
 14 15  1  0  0  0  0
 15 16  1  0  0  0  0
 15 33  1  0  0  0  0
 15 34  1  0  0  0  0
 16 17  1  0  0  0  0
 16 35  1  0  0  0  0
 16 36  1  0  0  0  0
 17 18  2  0  0  0  0
 17 19  2  0  0  0  0
 17 20  1  0  0  0  0
 20 21  2  0  0  0  0
 21 22  1  0  0  0  0
 22 23  2  0  0  0  0
 22 37  1  0  0  0  0
 23 38  1  0  0  0  0
M  CHG  1   3  -1
M  CHG  1  10   1
M  END
> <s_m_source_file>
AV-unprocessed.smi

> <i_m_source_file_index>
2164

> <i_lp_mmshare_version>
43012

> <i_f3d_flags>
0

> <s_epik_input>
W0NIMl0xW0NIMl1TKD1PKSg9TylOPUMoTjEyKVtDSF09W0NIXUMoPVtDSF0yKUMoPU8pW05IXVtDSDJdW0NIMl1jM1tjSF1bY0hdW2NIXW5bY0hdMw==

> <s_epik_cmdline>
J2VwaWtfcHl0aG9uJywgJy1waCcsICc3LjAnLCAnLXRuJywgJzgnLCAnLW1hJywgJzIwMCcsICctbWV0YWxfYmluZGluZycsICctaW1hZScsICc8aW5maWxlLm1hZT4nLCAnLW9tYWUnLCAnPG91dGZpbGUubWFlPic=

> <r_epik_Ionization_Penalty>
6.83439

> <r_epik_Ionization_Penalty_Charging>
6.83439

> <r_epik_Ionization_Penalty_Neutral>
0

> <r_epik_State_Penalty>
7.45298

> <r_epik_Charging_Adjusted_Penalty>
14.2874

> <i_epik_Tot_Q>
0

> <i_epik_Tot_abs_Q>
2

> <r_epik_Metal_State_Penalty>
3.5959

> <b_epik_Metal_Only>
1

> <s_lp_Force_Field>
OPLS_2005

> <r_lp_Energy>
30.4634

> <b_lp_Chiralities_Consistent>
1

> <s_lp_Variant>
AV-unprocessed.smi:2164-4

> <Gold.Version>
5.8.1

> <Gold.Id.Protein>
6NUR|6NUR_protein|mol2

> <Gold.PLP.Fitness>
50.6637

> <Gold.PLP.PLP>
-52.1167

> <Gold.PLP.part.hbond>
-2.9453

> <Gold.PLP.part.metal>
0.0000

> <Gold.PLP.part.buried>
-3.3587

> <Gold.PLP.part.nonpolar>
-44.0164

> <Gold.PLP.part.repulsive>
0.4949

> <Gold.PLP.ligand.clash>
0.0000

> <Gold.PLP.ligand.torsion>
0.7849

> <Gold.PLP.Chemscore.Hbond>
0.0000

> <Gold.PLP.Chemscore.CHOScore>
0.0000

> <Gold.PLP.Chemscore.Metal>
0.0000

> <Gold.PLP.Chemscore.Internal.Correction>
0.1169

> <Gold.Rescore>
     Score         DG    S(hbond)    S(metal)    S(lipo)     H(rot)  DE(clash)    DE(int)     intcor
     12.42     -14.54       0.00        0.00     110.52       1.51       0.99       1.13       ----

> <Gold.Chemscore.Fitness>
12.4209

> <Gold.Chemscore.DG>
-14.5429

> <Gold.Chemscore.ZeroCoef>
-5.4800

> <Gold.Chemscore.Hbond>
0.0000

> <Gold.Chemscore.Metal>
0.0000

> <Gold.Chemscore.Lipo>
110.5206

> <Gold.Chemscore.Internal_Hbond>
0.0000

> <Gold.Chemscore.DEClash>
0.9911

> <Gold.Chemscore.DEInternal>
1.1309

> <Gold.Chemscore.Rot>
1.5109

> <Gold.Chemscore.Internal.Correction>
   9.000000E+99

> <Gold.Chemscore.Hbond.Weighted>
-0.0000

> <Gold.Chemscore.Metal.Weighted>
-0.0000

> <Gold.Chemscore.Lipo.Weighted>
-12.9309

> <Gold.Chemscore.Internal_Hbond.Weighted>
0.0000

> <Gold.Chemscore.DEClash.Weighted>
0.9911

> <Gold.Chemscore.DEInternal.Weighted>
1.1309

> <Gold.Chemscore.Rot.Weighted>
3.8680

> <Gold.Chemscore.Internal.Correction.Weighted>
   9.000000E+99

> <Gold.Protein.RotatedTorsions>
[ 6907 6896 6895 6894 ] final   -5.11 input  -60.11 | X-H torsion
[ 7974 7965 7964 7962 ] final  -42.50 input  175.53 | X-H torsion
[ 8008 7997 7996 7995 ] final -121.52 input   59.86 | X-H torsion
[ 10167 10162 10161 10158 ] final  -34.74 input  -65.29 | X-H torsion
[ 10718 10713 10712 10709 ] final  152.62 input   66.30 | X-H torsion
[ 10763 10752 10751 10750 ] final -179.71 input  -60.55 | X-H torsion
[ 11005 11000 10999 10996 ] final   89.99 input  -57.11 | X-H torsion

> <Gold.Protein.ActiveResidues>
 VAL166  LYS551  ARG553  GLY616  TRP617  ASP618  TYR619  PRO620  LYS621  CYS622 
 ASP623  PHE694  ASN695  SER759  ASP760  ASP761  ALA762  ILE779  LEU786  VAL792 
 PHE793  MET794  SER795  GLU796  ALA797  LYS798  CYS799  TRP800  GLU811  SER814 

> <Gold.Protein.RotatedAtoms>
  151.4869  135.1055  159.9792 H   0  0  0  0  0  0  0  0  0  0  0  0  # atno 6907 bound_to 6896
  152.4757  133.8128  159.7023 H   0  0  0  0  0  0  0  0  0  0  0  0  # atno 6908 bound_to 6896
  150.8793  133.7333  159.2963 H   0  0  0  0  0  0  0  0  0  0  0  0  # atno 6909 bound_to 6896
  146.0109  140.6965  142.9224 H   0  0  0  0  0  0  0  0  0  0  0  0  # atno 7974 bound_to 7965
  155.1494  140.0403  157.2817 H   0  0  0  0  0  0  0  0  0  0  0  0  # atno 8008 bound_to 7997
  154.6415  140.2548  155.7290 H   0  0  0  0  0  0  0  0  0  0  0  0  # atno 8009 bound_to 7997
  156.2535  140.2854  156.0811 H   0  0  0  0  0  0  0  0  0  0  0  0  # atno 8010 bound_to 7997
  140.7179  143.3527  151.2123 H   0  0  0  0  0  0  0  0  0  0  0  0  # atno 10167 bound_to 10162
  157.2554  131.0787  151.1702 H   0  0  0  0  0  0  0  0  0  0  0  0  # atno 10718 bound_to 10713
  154.5316  135.2800  155.1175 H   0  0  0  0  0  0  0  0  0  0  0  0  # atno 10763 bound_to 10752
  154.2693  135.6306  153.5308 H   0  0  0  0  0  0  0  0  0  0  0  0  # atno 10764 bound_to 10752
  152.9958  135.5624  154.5831 H   0  0  0  0  0  0  0  0  0  0  0  0  # atno 10765 bound_to 10752
  139.8864  134.8586  156.3220 H   0  0  0  0  0  0  0  0  0  0  0  0  # atno 11005 bound_to 11000
  144.6953  140.3397  143.7201 LP  0  0  0  0  0  0  0  0  0  0  0  0  # atno 17320 bound_to 7965
  145.7343  139.1745  143.2412 LP  0  0  0  0  0  0  0  0  0  0  0  0  # atno 17321 bound_to 7965
  139.7061  143.9453  152.2927 LP  0  0  0  0  0  0  0  0  0  0  0  0  # atno 17342 bound_to 10162
  139.9162  144.6827  150.8509 LP  0  0  0  0  0  0  0  0  0  0  0  0  # atno 17343 bound_to 10162
  157.3233  130.6948  149.6282 LP  0  0  0  0  0  0  0  0  0  0  0  0  # atno 17370 bound_to 10713
  155.9665  130.4329  150.4982 LP  0  0  0  0  0  0  0  0  0  0  0  0  # atno 17371 bound_to 10713
  140.9780  133.7285  156.0631 LP  0  0  0  0  0  0  0  0  0  0  0  0  # atno 17394 bound_to 11000
  140.7786  134.3752  157.5492 LP  0  0  0  0  0  0  0  0  0  0  0  0  # atno 17395 bound_to 11000

$$$$
