AV-unprocessed.smi:1093|AV-procd|sdf|4744|dock2
  -GOLD-   22720 3283D 1   1.00000     0.00000
 Structure written by MMmdl.
 47 48  0  0  0  0  0  0  0  0  2 V2000
  145.1354  131.2543  151.6536 C   0  0  0  0  0  0  0  0  0  0  0  0
  146.3757  132.1291  151.8857 C   0  0  0  0  0  0  0  0  0  0  0  0
  146.0440  133.5746  151.9357 N   0  3  1  0  0  0  0  0  0  0  0  0
  145.3079  134.0315  150.7282 C   0  0  0  0  0  0  0  0  0  0  0  0
  145.1156  135.5583  150.7374 C   0  0  0  0  0  0  0  0  0  0  0  0
  144.4348  136.0318  152.0328 C   0  0  0  0  0  0  0  0  0  0  0  0
  145.1806  135.5059  153.2722 C   0  0  2  0  0  0  0  0  0  0  0  0
  146.4784  136.1714  153.3930 N   0  0  0  0  0  0  0  0  0  0  0  0
  146.8122  137.0536  154.3460 C   0  0  0  0  0  0  0  0  0  0  0  0
  146.0487  137.3959  155.2484 O   0  0  0  0  0  0  0  0  0  0  0  0
  148.0776  137.4788  154.1929 N   0  0  0  0  0  0  0  0  0  0  0  0
  148.8025  138.3981  154.9977 C   0  0  0  0  0  0  0  0  0  0  0  0
  148.6029  138.5725  156.3864 C   0  0  0  0  0  0  0  0  0  0  0  0
  149.3734  139.5309  157.0724 C   0  0  0  0  0  0  0  0  0  0  0  0
  150.3228  140.3020  156.3566 C   0  0  0  0  0  0  0  0  0  0  0  0
  151.1215  141.2743  157.0010 N   0  0  0  0  0  0  0  0  0  0  0  0
  151.1614  142.6388  156.4851 C   0  0  0  0  0  0  0  0  0  0  0  0
  151.8424  140.9387  158.2227 C   0  0  0  0  0  0  0  0  0  0  0  0
  150.4986  140.1380  155.0226 N   0  0  0  0  0  0  0  0  0  0  0  0
  149.7571  139.2205  154.3689 C   0  0  0  0  0  0  0  0  0  0  0  0
  145.3298  133.9712  153.1784 C   0  0  0  0  0  0  0  0  0  0  0  0
  145.3978  130.1976  151.7048 H   0  0  0  0  0  0  0  0  0  0  0  0
  144.6853  131.4272  150.6764 H   0  0  0  0  0  0  0  0  0  0  0  0
  144.3743  131.4414  152.4116 H   0  0  0  0  0  0  0  0  0  0  0  0
  146.8179  131.8282  152.8364 H   0  0  0  0  0  0  0  0  0  0  0  0
  147.1307  131.9427  151.1206 H   0  0  0  0  0  0  0  0  0  0  0  0
  145.8571  133.7478  149.8297 H   0  0  0  0  0  0  0  0  0  0  0  0
  144.3401  133.5299  150.6803 H   0  0  0  0  0  0  0  0  0  0  0  0
  146.0841  136.0477  150.6291 H   0  0  0  0  0  0  0  0  0  0  0  0
  144.5225  135.8628  149.8745 H   0  0  0  0  0  0  0  0  0  0  0  0
  144.3746  137.1206  152.0534 H   0  0  0  0  0  0  0  0  0  0  0  0
  143.4063  135.6689  152.0510 H   0  0  0  0  0  0  0  0  0  0  0  0
  144.5907  135.7522  154.1569 H   0  0  0  0  0  0  0  0  0  0  0  0
  147.1679  135.9538  152.6881 H   0  0  0  0  0  0  0  0  0  0  0  0
  148.6066  137.0479  153.4489 H   0  0  0  0  0  0  0  0  0  0  0  0
  147.8686  138.0040  156.9356 H   0  0  0  0  0  0  0  0  0  0  0  0
  149.2171  139.6568  158.1329 H   0  0  0  0  0  0  0  0  0  0  0  0
  150.1676  143.0869  156.5126 H   0  0  0  0  0  0  0  0  0  0  0  0
  151.5183  142.6487  155.4548 H   0  0  0  0  0  0  0  0  0  0  0  0
  151.8285  143.2685  157.0738 H   0  0  0  0  0  0  0  0  0  0  0  0
  152.5605  140.1396  158.0372 H   0  0  0  0  0  0  0  0  0  0  0  0
  151.1499  140.6137  158.9996 H   0  0  0  0  0  0  0  0  0  0  0  0
  152.3933  141.7973  158.6067 H   0  0  0  0  0  0  0  0  0  0  0  0
  149.9392  139.1370  153.3074 H   0  0  0  0  0  0  0  0  0  0  0  0
  144.3453  133.5008  153.1935 H   0  0  0  0  0  0  0  0  0  0  0  0
  145.8550  133.5988  154.0569 H   0  0  0  0  0  0  0  0  0  0  0  0
  146.9255  134.0676  151.9332 H   0  0  0  0  0  0  0  0  0  0  0  0
  1  2  1  0  0  0  0
  1 22  1  0  0  0  0
  1 23  1  0  0  0  0
  1 24  1  0  0  0  0
  2  3  1  0  0  0  0
  2 25  1  0  0  0  0
  2 26  1  0  0  0  0
  3 21  1  0  0  0  0
  3  4  1  0  0  0  0
  3 47  1  0  0  0  0
  4  5  1  0  0  0  0
  4 27  1  0  0  0  0
  4 28  1  0  0  0  0
  5  6  1  0  0  0  0
  5 29  1  0  0  0  0
  5 30  1  0  0  0  0
  6  7  1  0  0  0  0
  6 31  1  0  0  0  0
  6 32  1  0  0  0  0
  7  8  1  0  0  0  0
  7 21  1  0  0  0  0
  7 33  1  0  0  0  0
  8  9  1  0  0  0  0
  8 34  1  0  0  0  0
  9 10  2  0  0  0  0
  9 11  1  0  0  0  0
 11 12  1  0  0  0  0
 11 35  1  0  0  0  0
 12 20  1  0  0  0  0
 12 13  2  0  0  0  0
 13 14  1  0  0  0  0
 13 36  1  0  0  0  0
 14 15  2  0  0  0  0
 14 37  1  0  0  0  0
 15 16  1  0  0  0  0
 15 19  1  0  0  0  0
 16 17  1  0  0  0  0
 16 18  1  0  0  0  0
 17 38  1  0  0  0  0
 17 39  1  0  0  0  0
 17 40  1  0  0  0  0
 18 41  1  0  0  0  0
 18 42  1  0  0  0  0
 18 43  1  0  0  0  0
 19 20  2  0  0  0  0
 20 44  1  0  0  0  0
 21 45  1  0  0  0  0
 21 46  1  0  0  0  0
M  CHG  1   3   1
M  END
> <s_m_source_file>
AV-unprocessed.smi

> <i_m_source_file_index>
1093

> <i_lp_mmshare_version>
43012

> <i_f3d_flags>
0

> <s_epik_input>
W0NIM11bQ0gyXU4xW0NIMl1bQ0gyXVtDSDJdW0NASF0oW0NIMl0xKVtOSF1DKD1PKVtOSF1jMltjSF1bY0hdYyhOKFtDSDNdKVtDSDNdKW5bY0hdMg==

> <s_epik_cmdline>
J2VwaWtfcHl0aG9uJywgJy1waCcsICc3LjAnLCAnLXRuJywgJzgnLCAnLW1hJywgJzIwMCcsICctbWV0YWxfYmluZGluZycsICctaW1hZScsICc8aW5maWxlLm1hZT4nLCAnLW9tYWUnLCAnPG91dGZpbGUubWFlPic=

> <r_lp_tautomer_probability>
1

> <r_epik_Ionization_Penalty>
0.489418

> <r_epik_Ionization_Penalty_Charging>
0.00268196

> <r_epik_Ionization_Penalty_Neutral>
0.486736

> <r_epik_State_Penalty>
0.491157

> <r_epik_Charging_Adjusted_Penalty>
0.493839

> <i_epik_Tot_Q>
1

> <i_epik_Tot_abs_Q>
1

> <r_epik_Metal_State_Penalty>
0.266953

> <b_epik_Metal_Only>
0

> <s_lp_Force_Field>
OPLS_2005

> <r_lp_Energy>
27.6013

> <b_lp_Chiralities_Consistent>
1

> <s_lp_Variant>
AV-unprocessed.smi:1093-7

> <Gold.Version>
5.8.1

> <Gold.Id.Protein>
6NUR|6NUR_protein|mol2

> <Gold.PLP.Fitness>
37.2508

> <Gold.PLP.PLP>
-27.6455

> <Gold.PLP.part.hbond>
-3.0000

> <Gold.PLP.part.metal>
0.0000

> <Gold.PLP.part.buried>
-4.1684

> <Gold.PLP.part.nonpolar>
-20.7341

> <Gold.PLP.part.repulsive>
0.1022

> <Gold.PLP.ligand.clash>
0.0000

> <Gold.PLP.ligand.torsion>
1.2219

> <Gold.PLP.Chemscore.Hbond>
3.0000

> <Gold.PLP.Chemscore.CHOScore>
1.0000

> <Gold.PLP.Chemscore.Metal>
0.0000

> <Gold.Chemscore.Hbonds>
donor molecule, donor type, donor heavy atom, donor atom, acceptor molecule, acceptor atom, score
      L1  H     8    34       P1  7948  1.00
      L1  H    11    35       P1  7948  1.00
      P1  H  7989  7998       L1    19  0.99
      L1  C    20    44       P1  7957  1.00

> <Gold.PLP.Chemscore.Internal.Correction>
0.0490

> <Gold.Rescore>
     Score         DG    S(hbond)    S(metal)    S(lipo)     H(rot)  DE(clash)    DE(int)     intcor
     16.28     -18.60       2.43        0.00      68.52       1.18       0.32       1.99       ----

> <Gold.Chemscore.Fitness>
16.2823

> <Gold.Chemscore.DG>
-18.5968

> <Gold.Chemscore.ZeroCoef>
-5.4800

> <Gold.Chemscore.Hbond>
2.4345

> <Gold.Chemscore.Metal>
0.0000

> <Gold.Chemscore.Lipo>
68.5248

> <Gold.Chemscore.Internal_Hbond>
0.0000

> <Gold.Chemscore.DEClash>
0.3246

> <Gold.Chemscore.DEInternal>
1.9899

> <Gold.Chemscore.Rot>
1.1842

> <Gold.Chemscore.Internal.Correction>
   9.000000E+99

> <Gold.Chemscore.Hbonds>
donor molecule, donor type, donor heavy atom, donor atom, acceptor molecule, acceptor atom, score
      L1  H     8    34       P1  7948  0.94
      L1  H    11    35       P1  7948  1.00
      P1  H  7989  7998       L1    19  0.28

> <Gold.Chemscore.Hbond.Weighted>
-8.1311

> <Gold.Chemscore.Metal.Weighted>
-0.0000

> <Gold.Chemscore.Lipo.Weighted>
-8.0174

> <Gold.Chemscore.Internal_Hbond.Weighted>
0.0000

> <Gold.Chemscore.DEClash.Weighted>
0.3246

> <Gold.Chemscore.DEInternal.Weighted>
1.9899

> <Gold.Chemscore.Rot.Weighted>
3.0317

> <Gold.Chemscore.Internal.Correction.Weighted>
   9.000000E+99

> <Gold.Protein.RotatedTorsions>
[ 6907 6896 6895 6894 ] final   30.56 input  -60.11 | X-H torsion
[ 7974 7965 7964 7962 ] final  158.09 input  175.53 | X-H torsion
[ 8008 7997 7996 7995 ] final    2.20 input   59.86 | X-H torsion
[ 10167 10162 10161 10158 ] final   58.96 input  -65.29 | X-H torsion
[ 10718 10713 10712 10709 ] final  -64.20 input   66.30 | X-H torsion
[ 10763 10752 10751 10750 ] final  -68.88 input  -60.55 | X-H torsion
[ 11005 11000 10999 10996 ] final   33.71 input  -57.11 | X-H torsion

> <Gold.Protein.ActiveResidues>
 VAL166  LYS551  ARG553  GLY616  TRP617  ASP618  TYR619  PRO620  LYS621  CYS622 
 ASP623  PHE694  ASN695  SER759  ASP760  ASP761  ALA762  ILE779  LEU786  VAL792 
 PHE793  MET794  SER795  GLU796  ALA797  LYS798  CYS799  TRP800  GLU811  SER814 

> <Gold.Protein.RotatedAtoms>
  152.0477  134.9673  160.0574 H   0  0  0  0  0  0  0  0  0  0  0  0  # atno 6907 bound_to 6896
  152.1086  133.4284  159.4629 H   0  0  0  0  0  0  0  0  0  0  0  0  # atno 6908 bound_to 6896
  150.6842  134.2594  159.4586 H   0  0  0  0  0  0  0  0  0  0  0  0  # atno 6909 bound_to 6896
  144.7866  139.7430  143.6238 H   0  0  0  0  0  0  0  0  0  0  0  0  # atno 7974 bound_to 7965
  154.6888  140.2648  155.6833 H   0  0  0  0  0  0  0  0  0  0  0  0  # atno 8008 bound_to 7997
  156.2724  140.2795  156.1382 H   0  0  0  0  0  0  0  0  0  0  0  0  # atno 8009 bound_to 7997
  155.0926  140.0373  157.2663 H   0  0  0  0  0  0  0  0  0  0  0  0  # atno 8010 bound_to 7997
  140.1816  144.4176  150.6613 H   0  0  0  0  0  0  0  0  0  0  0  0  # atno 10167 bound_to 10162
  156.0744  130.4230  150.1386 H   0  0  0  0  0  0  0  0  0  0  0  0  # atno 10718 bound_to 10713
  154.3954  135.6043  153.5867 H   0  0  0  0  0  0  0  0  0  0  0  0  # atno 10763 bound_to 10752
  152.9787  135.5893  154.4248 H   0  0  0  0  0  0  0  0  0  0  0  0  # atno 10764 bound_to 10752
  154.4038  135.2843  155.2058 H   0  0  0  0  0  0  0  0  0  0  0  0  # atno 10765 bound_to 10752
  140.2603  134.3200  155.7860 H   0  0  0  0  0  0  0  0  0  0  0  0  # atno 11005 bound_to 11000
  146.2100  139.5449  142.9687 LP  0  0  0  0  0  0  0  0  0  0  0  0  # atno 17320 bound_to 7965
  145.5906  141.0370  143.2072 LP  0  0  0  0  0  0  0  0  0  0  0  0  # atno 17321 bound_to 7965
  140.6516  143.2226  151.6064 LP  0  0  0  0  0  0  0  0  0  0  0  0  # atno 17342 bound_to 10162
  139.5294  144.2962  152.1111 LP  0  0  0  0  0  0  0  0  0  0  0  0  # atno 17343 bound_to 10162
  156.9430  130.9750  151.3512 LP  0  0  0  0  0  0  0  0  0  0  0  0  # atno 17370 bound_to 10713
  157.5831  130.8391  149.8551 LP  0  0  0  0  0  0  0  0  0  0  0  0  # atno 17371 bound_to 10713
  141.2191  133.7406  156.9177 LP  0  0  0  0  0  0  0  0  0  0  0  0  # atno 17394 bound_to 11000
  140.1471  134.9255  157.2544 LP  0  0  0  0  0  0  0  0  0  0  0  0  # atno 17395 bound_to 11000

$$$$
