#       Name:                AV-unprocessed.smi:378
#       Creating user name   scv26
#       Creation time:       Thu Mar 26 22:39:46 2020


#       File generated by GOLD software.
#

@<TRIPOS>MOLECULE
AV-unprocessed.smi:378
    42    43     1
SMALL
NO_CHARGES


@<TRIPOS>ATOM
      1 ****        -3.7180  -3.3780  -1.9467 N.1            1 S1                 0.0000
      2 ****        -3.9828  -2.2812  -1.6907 C.1            1 S1                 0.0000
      3 ****        -4.3191  -0.8862  -1.3664 C.3            1 S1                 0.0000
      4 ****        -3.7845   0.1192  -2.3982 C.3            1 S1                 0.0000
      5 ****        -2.3269   0.1275  -2.4449 N.am           1 S1                 0.0000
      6 ****        -1.5321   0.6826  -1.5183 C.2            1 S1                 0.0000
      7 ****        -1.9652   1.2709  -0.5262 O.2            1 S1                 0.0000
      8 ****        -0.0212   0.5525  -1.7645 C.3            1 S1                 0.0000
      9 ****         0.7940   0.8190  -0.5589 N.am           1 S1                 0.0000
     10 ****         1.2645   2.1372  -0.3283 C.2            1 S1                 0.0000
     11 ****         1.0275   3.0454  -1.1269 O.2            1 S1                 0.0000
     12 ****         2.0188   2.3283   0.9083 C.2            1 S1                 0.0000
     13 ****         2.4805   3.6467   1.1926 C.1            1 S1                 0.0000
     14 ****         2.8671   4.7084   1.4440 N.1            1 S1                 0.0000
     15 ****         2.2573   1.2963   1.7437 C.2            1 S1                 0.0000
     16 ****         1.8242   0.0149   1.4817 N.am           1 S1                 0.0000
     17 ****         1.9507  -1.0320   2.4562 C.3            1 S1                 0.0000
     18 ****         3.3227  -1.3676   2.9989 C.3            1 S1                 0.0000
     19 ****         2.6172  -2.3436   2.0891 C.3            1 S1                 0.0000
     20 ****         1.0317  -0.2470   0.3426 C.2            1 S1                 0.0000
     21 ****         0.5501  -1.3651   0.1423 O.2            1 S1                 0.0000
     22 ****        -5.4055  -0.8182  -1.3110 H              1 S1                 0.0000
     23 ****        -3.9363  -0.6664  -0.3695 H              1 S1                 0.0000
     24 ****        -4.1615  -0.1316  -3.3901 H              1 S1                 0.0000
     25 ****        -4.1508   1.1219  -2.1713 H              1 S1                 0.0000
     26 ****        -1.8912  -0.3332  -3.2311 H              1 S1                 0.0000
     27 ****         0.1900  -0.4451  -2.1540 H              1 S1                 0.0000
     28 ****         0.2497   1.2187  -2.5848 H              1 S1                 0.0000
     29 ****         2.8133   1.4777   2.6525 H              1 S1                 0.0000
     30 ****         1.1310  -1.1019   3.1692 H              1 S1                 0.0000
     31 ****         4.1803  -0.8367   2.5899 H              1 S1                 0.0000
     32 ****         3.3952  -1.6256   4.0534 H              1 S1                 0.0000
     33 ****         2.2161  -3.2508   2.5363 H              1 S1                 0.0000
     34 ****         3.0128  -2.4572   1.0814 H              1 S1                 0.0000
     35 ****        -3.4891  -4.3259  -2.1680 LP             1 S1                 0.0000
     36 ****        -2.9517   1.3510  -0.3835 LP             1 S1                 0.0000
     37 ****        -1.3302   1.6681   0.1363 LP             1 S1                 0.0000
     38 ****         0.4958   2.8587  -1.9529 LP             1 S1                 0.0000
     39 ****         1.3669   3.9690  -0.9488 LP             1 S1                 0.0000
     40 ****         3.2011   5.6256   1.6611 LP             1 S1                 0.0000
     41 ****        -0.0166  -1.5281  -0.6653 LP             1 S1                 0.0000
     42 ****         0.7265  -2.1084   0.7876 LP             1 S1                 0.0000
@<TRIPOS>BOND
    1    1    2 3     
    2    2    3 1     
    3    3    4 1     
    4    3   22 1     
    5    3   23 1     
    6    4    5 1     
    7    4   24 1     
    8    4   25 1     
    9    5    6 am    
   10    5   26 1     
   11    6    7 2     
   12    6    8 1     
   13    8    9 1     
   14    8   27 1     
   15    8   28 1     
   16    9   20 am    
   17    9   10 am    
   18   10   11 2     
   19   10   12 1     
   20   12   13 1     
   21   12   15 2     
   22   13   14 3     
   23   15   16 1     
   24   15   29 1     
   25   16   17 1     
   26   16   20 am    
   27   17   19 1     
   28   17   18 1     
   29   17   30 1     
   30   18   19 1     
   31   18   31 1     
   32   18   32 1     
   33   19   33 1     
   34   19   34 1     
   35   20   21 2     
   36    1   35 1     
   37    7   36 1     
   38    7   37 1     
   39   11   38 1     
   40   11   39 1     
   41   14   40 1     
   42   21   41 1     
   43   21   42 1     
@<TRIPOS>SUBSTRUCTURE
      1 S1             1
@<TRIPOS>SET
LONE_PAIRS      STATIC     ATOMS    <user>   **** ""
8 35 36 37 38 39 40 41 42
DONOR_HYDROGENS      STATIC     ATOMS    <user>   **** ""
1 26
ATOM$BLUE        STATIC     ATOMS    COLORGROUP SYSTEM
8 35 36 37 38 39 40 41 42
ATOM$RED        STATIC     ATOMS    COLORGROUP SYSTEM
1 26
