AV-unprocessed.smi:1019|AV-procd|sdf|4446|dock8
  -GOLD-   22720 2413D 1   1.00000     0.00000
 Structure written by MMmdl.
 44 46  0  0  0  0  0  0  0  0  2 V2000
  148.9160  137.2257  155.3248 C   0  0  0  0  0  0  0  0  0  0  0  0
  150.1249  137.1591  154.4727 N   0  3  2  0  0  0  0  0  0  0  0  0
  151.0860  136.1318  154.9439 C   0  0  0  0  0  0  0  0  0  0  0  0
  150.4087  134.7884  155.1563 C   0  0  0  0  0  0  0  0  0  0  0  0
  149.7376  134.1614  154.0849 C   0  0  0  0  0  0  0  0  0  0  0  0
  149.1222  132.9083  154.2711 C   0  0  0  0  0  0  0  0  0  0  0  0
  149.1711  132.2795  155.5302 C   0  0  0  0  0  0  0  0  0  0  0  0
  149.8340  132.9048  156.6038 C   0  0  0  0  0  0  0  0  0  0  0  0
  150.4510  134.1571  156.4179 C   0  0  0  0  0  0  0  0  0  0  0  0
  150.7375  138.4944  154.2450 C   0  0  0  0  0  0  0  0  0  0  0  0
  151.5702  138.9494  155.4576 C   0  0  1  0  0  0  0  0  0  0  0  0
  152.5999  139.8003  154.9949 O   0  0  0  0  0  0  0  0  0  0  0  0
  150.7209  139.6918  156.5105 C   0  0  0  0  0  0  0  0  0  0  0  0
  151.5242  140.2384  157.5886 N   0  0  0  0  0  0  0  0  0  0  0  0
  152.3219  139.5523  158.4295 C   0  0  0  0  0  0  0  0  0  0  0  0
  152.9754  140.2482  159.3547 N   0  0  0  0  0  0  0  0  0  0  0  0
  152.5523  141.5383  159.0845 C   0  0  0  0  0  0  0  0  0  0  0  0
  152.8796  142.7608  159.7133 C   0  0  0  0  0  0  0  0  0  0  0  0
  152.3162  143.9711  159.2587 C   0  0  0  0  0  0  0  0  0  0  0  0
  151.4190  143.9780  158.1709 C   0  0  0  0  0  0  0  0  0  0  0  0
  151.0777  142.7726  157.5278 C   0  0  0  0  0  0  0  0  0  0  0  0
  151.6418  141.5668  157.9848 C   0  0  0  0  0  0  0  0  0  0  0  0
  149.1719  137.5192  156.3436 H   0  0  0  0  0  0  0  0  0  0  0  0
  148.4188  136.2560  155.3640 H   0  0  0  0  0  0  0  0  0  0  0  0
  148.1985  137.9465  154.9317 H   0  0  0  0  0  0  0  0  0  0  0  0
  151.9157  136.0431  154.2407 H   0  0  0  0  0  0  0  0  0  0  0  0
  151.5165  136.4368  155.8988 H   0  0  0  0  0  0  0  0  0  0  0  0
  149.6974  134.6365  153.1156 H   0  0  0  0  0  0  0  0  0  0  0  0
  148.6124  132.4288  153.4482 H   0  0  0  0  0  0  0  0  0  0  0  0
  148.6992  131.3182  155.6732 H   0  0  0  0  0  0  0  0  0  0  0  0
  149.8693  132.4229  157.5699 H   0  0  0  0  0  0  0  0  0  0  0  0
  150.9595  134.6284  157.2464 H   0  0  0  0  0  0  0  0  0  0  0  0
  151.3532  138.4594  153.3443 H   0  0  0  0  0  0  0  0  0  0  0  0
  149.9750  139.2478  154.0478 H   0  0  0  0  0  0  0  0  0  0  0  0
  152.0519  138.0864  155.9184 H   0  0  0  0  0  0  0  0  0  0  0  0
  153.0492  139.3757  154.2797 H   0  0  0  0  0  0  0  0  0  0  0  0
  150.1551  140.5015  156.0477 H   0  0  0  0  0  0  0  0  0  0  0  0
  149.9864  139.0166  156.9509 H   0  0  0  0  0  0  0  0  0  0  0  0
  152.4305  138.4800  158.3570 H   0  0  0  0  0  0  0  0  0  0  0  0
  153.5659  142.7672  160.5472 H   0  0  0  0  0  0  0  0  0  0  0  0
  152.5742  144.8992  159.7475 H   0  0  0  0  0  0  0  0  0  0  0  0
  150.9931  144.9105  157.8303 H   0  0  0  0  0  0  0  0  0  0  0  0
  150.3917  142.7768  156.6941 H   0  0  0  0  0  0  0  0  0  0  0  0
  149.8140  136.8348  153.5681 H   0  0  0  0  0  0  0  0  0  0  0  0
  1  2  1  0  0  0  0
  1 23  1  0  0  0  0
  1 24  1  0  0  0  0
  1 25  1  0  0  0  0
  2  3  1  0  0  0  0
  2 10  1  0  0  0  0
  2 44  1  0  0  0  0
  3  4  1  0  0  0  0
  3 26  1  0  0  0  0
  3 27  1  0  0  0  0
  4  9  1  0  0  0  0
  4  5  2  0  0  0  0
  5  6  1  0  0  0  0
  5 28  1  0  0  0  0
  6  7  2  0  0  0  0
  6 29  1  0  0  0  0
  7  8  1  0  0  0  0
  7 30  1  0  0  0  0
  8  9  2  0  0  0  0
  8 31  1  0  0  0  0
  9 32  1  0  0  0  0
 10 11  1  0  0  0  0
 10 33  1  0  0  0  0
 10 34  1  0  0  0  0
 11 12  1  0  0  0  0
 11 13  1  0  0  0  0
 11 35  1  0  0  0  0
 12 36  1  0  0  0  0
 13 14  1  0  0  0  0
 13 37  1  0  0  0  0
 13 38  1  0  0  0  0
 14 22  1  0  0  0  0
 14 15  1  0  0  0  0
 15 16  2  0  0  0  0
 15 39  1  0  0  0  0
 16 17  1  0  0  0  0
 17 22  2  0  0  0  0
 17 18  1  0  0  0  0
 18 19  2  0  0  0  0
 18 40  1  0  0  0  0
 19 20  1  0  0  0  0
 19 41  1  0  0  0  0
 20 21  2  0  0  0  0
 20 42  1  0  0  0  0
 21 22  1  0  0  0  0
 21 43  1  0  0  0  0
M  CHG  1   2   1
M  END
> <s_m_source_file>
AV-unprocessed.smi

> <i_m_source_file_index>
1019

> <i_lp_mmshare_version>
43012

> <i_f3d_flags>
0

> <s_epik_input>
W2NIXTFbY0hdW2NIXVtjSF1bY0hdYzFbQ0gyXU4oW0NIM10pW0NIMl1bQ0BIXShbT0hdKVtDSDJdbihbY0hdbjIpYyhjMjMpW2NIXVtjSF1bY0hdW2NIXTM=

> <s_epik_cmdline>
J2VwaWtfcHl0aG9uJywgJy1waCcsICc3LjAnLCAnLXRuJywgJzgnLCAnLW1hJywgJzIwMCcsICctbWV0YWxfYmluZGluZycsICctaW1hZScsICc8aW5maWxlLm1hZT4nLCAnLW9tYWUnLCAnPG91dGZpbGUubWFlPic=

> <r_epik_Ionization_Penalty>
0.0996557

> <r_epik_Ionization_Penalty_Charging>
0.0475377

> <r_epik_Ionization_Penalty_Neutral>
0.0521179

> <r_epik_State_Penalty>
0.0851777

> <r_epik_Charging_Adjusted_Penalty>
0.132715

> <i_epik_Tot_Q>
1

> <i_epik_Tot_abs_Q>
1

> <r_epik_Metal_State_Penalty>
0.0423478

> <b_epik_Metal_Only>
0

> <s_lp_Force_Field>
OPLS_2005

> <r_lp_Energy>
16.6774

> <b_lp_Chiralities_Consistent>
1

> <s_lp_Variant>
AV-unprocessed.smi:1019-4

> <Gold.Version>
5.8.1

> <Gold.Id.Protein>
6NUR|6NUR_protein|mol2

> <Gold.PLP.Fitness>
51.9401

> <Gold.PLP.PLP>
-43.0699

> <Gold.PLP.part.hbond>
-3.1397

> <Gold.PLP.part.metal>
0.0000

> <Gold.PLP.part.buried>
-2.6801

> <Gold.PLP.part.nonpolar>
-36.6144

> <Gold.PLP.part.repulsive>
0.0454

> <Gold.PLP.ligand.clash>
0.0000

> <Gold.PLP.ligand.torsion>
0.4866

> <Gold.PLP.Chemscore.Hbond>
3.1307

> <Gold.PLP.Chemscore.CHOScore>
0.0000

> <Gold.PLP.Chemscore.Metal>
0.0000

> <Gold.Chemscore.Hbonds>
donor molecule, donor type, donor heavy atom, donor atom, acceptor molecule, acceptor atom, score
      L1  H     2    44       P1  7948  2.00
      P1  H  7989  7998       L1    12  0.11
      P1  H  7997  8009       L1    12  0.54

> <Gold.PLP.Chemscore.Internal.Correction>
0.4514

> <Gold.Rescore>
     Score         DG    S(hbond)    S(metal)    S(lipo)     H(rot)  DE(clash)    DE(int)     intcor
     16.92     -17.73       1.31        0.00     118.97       2.36       0.36       0.45       ----

> <Gold.Chemscore.Fitness>
16.9201

> <Gold.Chemscore.DG>
-17.7291

> <Gold.Chemscore.ZeroCoef>
-5.4800

> <Gold.Chemscore.Hbond>
1.3100

> <Gold.Chemscore.Metal>
0.0000

> <Gold.Chemscore.Lipo>
118.9695

> <Gold.Chemscore.Internal_Hbond>
0.0000

> <Gold.Chemscore.DEClash>
0.3556

> <Gold.Chemscore.DEInternal>
0.4533

> <Gold.Chemscore.Rot>
2.3616

> <Gold.Chemscore.Internal.Correction>
   9.000000E+99

> <Gold.Chemscore.Hbonds>
donor molecule, donor type, donor heavy atom, donor atom, acceptor molecule, acceptor atom, score
      L1  H     2    44       P1  7948  0.44
      P1  H  7997  8009       L1    12  0.05

> <Gold.Chemscore.Hbond.Weighted>
-4.3754

> <Gold.Chemscore.Metal.Weighted>
-0.0000

> <Gold.Chemscore.Lipo.Weighted>
-13.9194

> <Gold.Chemscore.Internal_Hbond.Weighted>
0.0000

> <Gold.Chemscore.DEClash.Weighted>
0.3556

> <Gold.Chemscore.DEInternal.Weighted>
0.4533

> <Gold.Chemscore.Rot.Weighted>
6.0457

> <Gold.Chemscore.Internal.Correction.Weighted>
   9.000000E+99

> <Gold.Protein.RotatedTorsions>
[ 6907 6896 6895 6894 ] final  149.40 input  -60.11 | X-H torsion
[ 7974 7965 7964 7962 ] final -118.63 input  175.53 | X-H torsion
[ 8008 7997 7996 7995 ] final -145.54 input   59.86 | X-H torsion
[ 10167 10162 10161 10158 ] final   96.17 input  -65.29 | X-H torsion
[ 10718 10713 10712 10709 ] final   20.07 input   66.30 | X-H torsion
[ 10763 10752 10751 10750 ] final -147.00 input  -60.55 | X-H torsion
[ 11005 11000 10999 10996 ] final   99.35 input  -57.11 | X-H torsion

> <Gold.Protein.ActiveResidues>
 VAL166  LYS551  ARG553  GLY616  TRP617  ASP618  TYR619  PRO620  LYS621  CYS622 
 ASP623  PHE694  ASN695  SER759  ASP760  ASP761  ALA762  ILE779  LEU786  VAL792 
 PHE793  MET794  SER795  GLU796  ALA797  LYS798  CYS799  TRP800  GLU811  SER814 

> <Gold.Protein.RotatedAtoms>
  152.1285  133.4394  159.4709 H   0  0  0  0  0  0  0  0  0  0  0  0  # atno 6907 bound_to 6896
  150.6876  134.2449  159.4496 H   0  0  0  0  0  0  0  0  0  0  0  0  # atno 6908 bound_to 6896
  152.0331  134.9755  160.0623 H   0  0  0  0  0  0  0  0  0  0  0  0  # atno 6909 bound_to 6896
  145.0716  140.8363  143.4092 H   0  0  0  0  0  0  0  0  0  0  0  0  # atno 7974 bound_to 7965
  155.5448  140.0611  157.2862 H   0  0  0  0  0  0  0  0  0  0  0  0  # atno 8008 bound_to 7997
  154.4440  140.1913  156.0671 H   0  0  0  0  0  0  0  0  0  0  0  0  # atno 8009 bound_to 7997
  156.0559  140.3278  155.7408 H   0  0  0  0  0  0  0  0  0  0  0  0  # atno 8010 bound_to 7997
  139.7919  144.6848  150.9881 H   0  0  0  0  0  0  0  0  0  0  0  0  # atno 10167 bound_to 10162
  157.1193  130.6542  149.5919 H   0  0  0  0  0  0  0  0  0  0  0  0  # atno 10718 bound_to 10713
  154.8308  135.3371  154.6750 H   0  0  0  0  0  0  0  0  0  0  0  0  # atno 10763 bound_to 10752
  153.7370  135.6948  153.4980 H   0  0  0  0  0  0  0  0  0  0  0  0  # atno 10764 bound_to 10752
  153.2271  135.4429  155.0506 H   0  0  0  0  0  0  0  0  0  0  0  0  # atno 10765 bound_to 10752
  139.8771  134.9091  156.4593 H   0  0  0  0  0  0  0  0  0  0  0  0  # atno 11005 bound_to 11000
  145.1285  139.2647  143.5551 LP  0  0  0  0  0  0  0  0  0  0  0  0  # atno 17320 bound_to 7965
  146.3529  140.0929  142.8611 LP  0  0  0  0  0  0  0  0  0  0  0  0  # atno 17321 bound_to 7965
  140.7820  143.4372  151.0606 LP  0  0  0  0  0  0  0  0  0  0  0  0  # atno 17342 bound_to 10162
  139.8048  143.8033  152.3166 LP  0  0  0  0  0  0  0  0  0  0  0  0  # atno 17343 bound_to 10162
  155.9832  130.4850  150.6921 LP  0  0  0  0  0  0  0  0  0  0  0  0  # atno 17370 bound_to 10713
  157.4491  131.0870  151.0865 LP  0  0  0  0  0  0  0  0  0  0  0  0  # atno 17371 bound_to 10713
  140.8876  133.7872  155.9535 LP  0  0  0  0  0  0  0  0  0  0  0  0  # atno 17394 bound_to 11000
  140.8788  134.2636  157.5154 LP  0  0  0  0  0  0  0  0  0  0  0  0  # atno 17395 bound_to 11000

$$$$
