#       Name:                AV-unprocessed.smi:2225
#       Creating user name   scv26
#       Creation time:       Fri Mar 27 12:20:55 2020


#       File generated by GOLD software.
#

@<TRIPOS>MOLECULE
AV-unprocessed.smi:2225
    39    40     1
SMALL
NO_CHARGES


@<TRIPOS>ATOM
      1 ****        -0.5585   1.9296   2.5830 O.2            1 S1                 0.0000
      2 ****        -0.0934   1.2943   1.6375 C.2            1 S1                 0.0000
      3 ****         1.3684   1.5377   1.2229 C.3            1 S1                 0.0000
      4 ****         1.8096   0.8039   0.0219 N.am           1 S1                 0.0000
      5 ****         2.4597  -0.4251   0.2329 C.2            1 S1                 0.0000
      6 ****         2.9062  -1.1714  -0.7862 C.2            1 S1                 0.0000
      7 ****         2.7077  -0.6814  -2.1284 C.2            1 S1                 0.0000
      8 ****         2.0797   0.4938  -2.3635 C.2            1 S1                 0.0000
      9 ****         1.8666   1.0297  -3.7775 C.3            1 S1                 0.0000
     10 ****         0.5645   1.1484  -4.0399 F              1 S1                 0.0000
     11 ****         2.4309   2.2300  -3.9160 F              1 S1                 0.0000
     12 ****         2.3963   0.2225  -4.6978 F              1 S1                 0.0000
     13 ****         1.5835   1.3044  -1.2325 C.2            1 S1                 0.0000
     14 ****         0.9913   2.3722  -1.3963 O.2            1 S1                 0.0000
     15 ****        -0.8109   0.3909   0.9488 N.am           1 S1                 0.0000
     16 ****        -2.2058   0.0498   1.2088 C.3            1 S1                 0.0000
     17 ****        -2.3551  -0.8939   2.4021 C.3            1 S1                 0.0000
     18 ****        -3.2631  -2.0009   1.8783 C.3            1 S1                 0.0000
     19 ****        -2.9173  -2.0757   0.5067 O.3            1 S1                 0.0000
     20 ****        -2.7997  -0.7417   0.0347 C.3            1 S1                 0.0000
     21 ****         1.5141   2.6108   1.0860 H              1 S1                 0.0000
     22 ****         2.0030   1.2789   2.0717 H              1 S1                 0.0000
     23 ****         2.5641  -0.7210   1.2669 H              1 S1                 0.0000
     24 ****         3.4005  -2.1151  -0.6076 H              1 S1                 0.0000
     25 ****         3.0753  -1.2769  -2.9507 H              1 S1                 0.0000
     26 ****        -0.3589  -0.0945   0.1874 H              1 S1                 0.0000
     27 ****        -2.7871   0.9616   1.3580 H              1 S1                 0.0000
     28 ****        -1.3918  -1.3223   2.6838 H              1 S1                 0.0000
     29 ****        -2.7676  -0.3991   3.2819 H              1 S1                 0.0000
     30 ****        -3.1067  -2.9517   2.3880 H              1 S1                 0.0000
     31 ****        -4.3138  -1.7236   1.9770 H              1 S1                 0.0000
     32 ****        -3.7946  -0.3664  -0.2094 H              1 S1                 0.0000
     33 ****        -2.1963  -0.6967  -0.8729 H              1 S1                 0.0000
     34 ****         0.0116   2.5919   3.0691 LP             1 S1                 0.0000
     35 ****        -1.5066   1.7835   2.8654 LP             1 S1                 0.0000
     36 ****         0.6660   2.8900  -0.6051 LP             1 S1                 0.0000
     37 ****         0.8358   2.7211  -2.3205 LP             1 S1                 0.0000
     38 ****        -3.6308  -2.5582  -0.0015 LP             1 S1                 0.0000
     39 ****        -2.0473  -2.5565   0.3976 LP             1 S1                 0.0000
@<TRIPOS>BOND
    1    1    2 2     
    2    2    3 1     
    3    2   15 am    
    4    3    4 1     
    5    3   21 1     
    6    3   22 1     
    7    4   13 am    
    8    4    5 1     
    9    5    6 2     
   10    5   23 1     
   11    6    7 1     
   12    6   24 1     
   13    7    8 2     
   14    7   25 1     
   15    8    9 1     
   16    8   13 1     
   17    9   10 1     
   18    9   11 1     
   19    9   12 1     
   20   13   14 2     
   21   15   16 1     
   22   15   26 1     
   23   16   20 1     
   24   16   17 1     
   25   16   27 1     
   26   17   18 1     
   27   17   28 1     
   28   17   29 1     
   29   18   19 1     
   30   18   30 1     
   31   18   31 1     
   32   19   20 1     
   33   20   32 1     
   34   20   33 1     
   35    1   34 1     
   36    1   35 1     
   37   14   36 1     
   38   14   37 1     
   39   19   38 1     
   40   19   39 1     
@<TRIPOS>SUBSTRUCTURE
      1 S1             1
@<TRIPOS>SET
LONE_PAIRS      STATIC     ATOMS    <user>   **** ""
6 34 35 36 37 38 39
DONOR_HYDROGENS      STATIC     ATOMS    <user>   **** ""
1 26
ATOM$BLUE        STATIC     ATOMS    COLORGROUP SYSTEM
6 34 35 36 37 38 39
ATOM$RED        STATIC     ATOMS    COLORGROUP SYSTEM
1 26
