AV-unprocessed.smi:1468|AV-procd|sdf|5957|dock2
  -GOLD-   22720 6 43D 1   1.00000     0.00000
 Structure written by MMmdl.
 35 36  0  0  0  0  0  0  0  0  1 V2000
  151.4354  140.3252  155.4218 O   0  0  0  0  0  0  0  0  0  0  0  0
  150.4157  140.5608  156.0692 C   0  0  0  0  0  0  0  0  0  0  0  0
  149.0840  139.9365  155.6476 C   0  0  0  0  0  0  0  0  0  0  0  0
  148.2118  140.9110  155.0152 N   0  0  0  0  0  0  0  0  0  0  0  0
  148.2736  141.4128  153.7328 C   0  0  0  0  0  0  0  0  0  0  0  0
  147.2421  142.2962  153.5929 C   0  0  0  0  0  0  0  0  0  0  0  0
  146.5878  142.2693  154.8587 C   0  0  0  0  0  0  0  0  0  0  0  0
  145.3711  143.0403  155.2986 C   0  0  0  0  0  0  0  0  0  0  0  0
  144.9403  143.8270  154.3125 F   0  0  0  0  0  0  0  0  0  0  0  0
  144.3944  142.1965  155.6317 F   0  0  0  0  0  0  0  0  0  0  0  0
  145.6691  143.7990  156.3532 F   0  0  0  0  0  0  0  0  0  0  0  0
  147.1772  141.4362  155.7061 N   0  0  0  0  0  0  0  0  0  0  0  0
  150.3951  141.3424  157.1608 N   0  0  0  0  0  0  0  0  0  0  0  0
  151.5535  142.0162  157.7390 C   0  0  0  0  0  0  0  0  0  0  0  0
  151.7221  141.6247  159.2215 C   0  0  0  0  0  0  0  0  0  0  0  0
  152.8937  142.3782  159.8713 C   0  0  0  0  0  0  0  0  0  0  0  0
  152.7308  143.8985  159.7200 C   0  0  0  0  0  0  0  0  0  0  0  0
  152.5647  144.2946  158.2442 C   0  0  0  0  0  0  0  0  0  0  0  0
  151.3935  143.5412  157.5919 C   0  0  0  0  0  0  0  0  0  0  0  0
  149.2598  139.1213  154.9445 H   0  0  0  0  0  0  0  0  0  0  0  0
  148.5872  139.5071  156.5192 H   0  0  0  0  0  0  0  0  0  0  0  0
  149.0384  141.1030  153.0355 H   0  0  0  0  0  0  0  0  0  0  0  0
  146.9903  142.8741  152.7161 H   0  0  0  0  0  0  0  0  0  0  0  0
  149.5091  141.4794  157.6260 H   0  0  0  0  0  0  0  0  0  0  0  0
  152.4500  141.7178  157.1916 H   0  0  0  0  0  0  0  0  0  0  0  0
  150.8042  141.8453  159.7683 H   0  0  0  0  0  0  0  0  0  0  0  0
  151.8843  140.5500  159.3121 H   0  0  0  0  0  0  0  0  0  0  0  0
  152.9651  142.1145  160.9270 H   0  0  0  0  0  0  0  0  0  0  0  0
  153.8300  142.0627  159.4095 H   0  0  0  0  0  0  0  0  0  0  0  0
  151.8612  144.2315  160.2884 H   0  0  0  0  0  0  0  0  0  0  0  0
  153.5940  144.4094  160.1476 H   0  0  0  0  0  0  0  0  0  0  0  0
  152.4051  145.3702  158.1641 H   0  0  0  0  0  0  0  0  0  0  0  0
  153.4858  144.0773  157.7020 H   0  0  0  0  0  0  0  0  0  0  0  0
  151.3267  143.8097  156.5368 H   0  0  0  0  0  0  0  0  0  0  0  0
  150.4576  143.8618  158.0519 H   0  0  0  0  0  0  0  0  0  0  0  0
  1  2  2  0  0  0  0
  2  3  1  0  0  0  0
  2 13  1  0  0  0  0
  3  4  1  0  0  0  0
  3 20  1  0  0  0  0
  3 21  1  0  0  0  0
  4 12  1  0  0  0  0
  4  5  1  0  0  0  0
  5  6  2  0  0  0  0
  5 22  1  0  0  0  0
  6  7  1  0  0  0  0
  6 23  1  0  0  0  0
  7  8  1  0  0  0  0
  7 12  2  0  0  0  0
  8  9  1  0  0  0  0
  8 10  1  0  0  0  0
  8 11  1  0  0  0  0
 13 14  1  0  0  0  0
 13 24  1  0  0  0  0
 14 19  1  0  0  0  0
 14 15  1  0  0  0  0
 14 25  1  0  0  0  0
 15 16  1  0  0  0  0
 15 26  1  0  0  0  0
 15 27  1  0  0  0  0
 16 17  1  0  0  0  0
 16 28  1  0  0  0  0
 16 29  1  0  0  0  0
 17 18  1  0  0  0  0
 17 30  1  0  0  0  0
 17 31  1  0  0  0  0
 18 19  1  0  0  0  0
 18 32  1  0  0  0  0
 18 33  1  0  0  0  0
 19 34  1  0  0  0  0
 19 35  1  0  0  0  0
M  END
> <s_m_source_file>
AV-unprocessed.smi

> <i_m_source_file_index>
1468

> <i_lp_mmshare_version>
43012

> <i_f3d_flags>
0

> <s_epik_input>
W0NIMl0xW0NIMl1bQ0gyXVtDSDJdW0NIMl1bQ0hdMVtOSF1DKD1PKVtDSDJdbjJbY0hdW2NIXWMobjIpQyhGKShGKUY=

> <s_epik_cmdline>
J2VwaWtfcHl0aG9uJywgJy1waCcsICc3LjAnLCAnLXRuJywgJzgnLCAnLW1hJywgJzIwMCcsICctbWV0YWxfYmluZGluZycsICctaW1hZScsICc8aW5maWxlLm1hZT4nLCAnLW9tYWUnLCAnPG91dGZpbGUubWFlPic=

> <r_lp_tautomer_probability>
1

> <r_epik_Ionization_Penalty>
8.28732e-08

> <r_epik_Ionization_Penalty_Charging>
0

> <r_epik_Ionization_Penalty_Neutral>
8.28732e-08

> <r_epik_State_Penalty>
-0

> <r_epik_Charging_Adjusted_Penalty>
0

> <i_epik_Tot_Q>
0

> <i_epik_Tot_abs_Q>
0

> <r_epik_Metal_State_Penalty>
-0

> <b_epik_Metal_Only>
0

> <s_lp_Force_Field>
OPLS_2005

> <r_lp_Energy>
10.9617

> <b_lp_Chiralities_Consistent>
1

> <s_lp_Variant>
AV-unprocessed.smi:1468-1

> <Gold.Version>
5.8.1

> <Gold.Id.Protein>
6NUR|6NUR_protein|mol2

> <Gold.PLP.Fitness>
44.1469

> <Gold.PLP.PLP>
-39.3377

> <Gold.PLP.part.hbond>
-1.0000

> <Gold.PLP.part.metal>
0.0000

> <Gold.PLP.part.buried>
-5.7306

> <Gold.PLP.part.nonpolar>
-32.6933

> <Gold.PLP.part.repulsive>
0.1127

> <Gold.PLP.ligand.clash>
0.0000

> <Gold.PLP.ligand.torsion>
0.4464

> <Gold.PLP.Chemscore.Hbond>
0.8960

> <Gold.PLP.Chemscore.CHOScore>
1.0000

> <Gold.PLP.Chemscore.Metal>
0.0000

> <Gold.Chemscore.Hbonds>
donor molecule, donor type, donor heavy atom, donor atom, acceptor molecule, acceptor atom, score
      P1  H  7989  7998       L1     1  0.93
      L1  C     5    22       P1  7957  1.00

> <Gold.PLP.Chemscore.Internal.Correction>
0.0139

> <Gold.Rescore>
     Score         DG    S(hbond)    S(metal)    S(lipo)     H(rot)  DE(clash)    DE(int)     intcor
     15.16     -15.53       0.93        0.00      93.40       1.56       0.03       0.34       ----

> <Gold.Chemscore.Fitness>
15.1576

> <Gold.Chemscore.DG>
-15.5319

> <Gold.Chemscore.ZeroCoef>
-5.4800

> <Gold.Chemscore.Hbond>
0.9304

> <Gold.Chemscore.Metal>
0.0000

> <Gold.Chemscore.Lipo>
93.4045

> <Gold.Chemscore.Internal_Hbond>
0.0000

> <Gold.Chemscore.DEClash>
0.0333

> <Gold.Chemscore.DEInternal>
0.3410

> <Gold.Chemscore.Rot>
1.5563

> <Gold.Chemscore.Internal.Correction>
   9.000000E+99

> <Gold.Chemscore.Hbonds>
donor molecule, donor type, donor heavy atom, donor atom, acceptor molecule, acceptor atom, score
      P1  H  7989  7998       L1     1  0.85

> <Gold.Chemscore.Hbond.Weighted>
-3.1077

> <Gold.Chemscore.Metal.Weighted>
-0.0000

> <Gold.Chemscore.Lipo.Weighted>
-10.9283

> <Gold.Chemscore.Internal_Hbond.Weighted>
0.0000

> <Gold.Chemscore.DEClash.Weighted>
0.0333

> <Gold.Chemscore.DEInternal.Weighted>
0.3410

> <Gold.Chemscore.Rot.Weighted>
3.9841

> <Gold.Chemscore.Internal.Correction.Weighted>
   9.000000E+99

> <Gold.Protein.RotatedTorsions>
[ 6907 6896 6895 6894 ] final  -85.50 input  -60.11 | X-H torsion
[ 7974 7965 7964 7962 ] final  103.87 input  175.53 | X-H torsion
[ 8008 7997 7996 7995 ] final  159.91 input   59.86 | X-H torsion
[ 10167 10162 10161 10158 ] final   -6.86 input  -65.29 | X-H torsion
[ 10718 10713 10712 10709 ] final  100.93 input   66.30 | X-H torsion
[ 10763 10752 10751 10750 ] final   37.96 input  -60.55 | X-H torsion
[ 11005 11000 10999 10996 ] final  -61.21 input  -57.11 | X-H torsion

> <Gold.Protein.ActiveResidues>
 VAL166  LYS551  ARG553  GLY616  TRP617  ASP618  TYR619  PRO620  LYS621  CYS622 
 ASP623  PHE694  ASN695  SER759  ASP760  ASP761  ALA762  ILE779  LEU786  VAL792 
 PHE793  MET794  SER795  GLU796  ALA797  LYS798  CYS799  TRP800  GLU811  SER814 

> <Gold.Protein.RotatedAtoms>
  150.6870  134.3196  159.4780 H   0  0  0  0  0  0  0  0  0  0  0  0  # atno 6907 bound_to 6896
  152.1072  134.9297  160.0577 H   0  0  0  0  0  0  0  0  0  0  0  0  # atno 6908 bound_to 6896
  152.0553  133.4003  159.4431 H   0  0  0  0  0  0  0  0  0  0  0  0  # atno 6909 bound_to 6896
  145.3402  139.2464  143.3613 H   0  0  0  0  0  0  0  0  0  0  0  0  # atno 7974 bound_to 7965
  156.2207  140.1818  156.7482 H   0  0  0  0  0  0  0  0  0  0  0  0  # atno 8008 bound_to 7997
  154.5861  140.0658  156.9202 H   0  0  0  0  0  0  0  0  0  0  0  0  # atno 8009 bound_to 7997
  155.2416  140.3322  155.4294 H   0  0  0  0  0  0  0  0  0  0  0  0  # atno 8010 bound_to 7997
  140.7010  143.6146  150.8670 H   0  0  0  0  0  0  0  0  0  0  0  0  # atno 10167 bound_to 10162
  157.6842  131.0712  150.5175 H   0  0  0  0  0  0  0  0  0  0  0  0  # atno 10718 bound_to 10713
  153.0018  135.6263  154.2228 H   0  0  0  0  0  0  0  0  0  0  0  0  # atno 10763 bound_to 10752
  154.1971  135.2806  155.3005 H   0  0  0  0  0  0  0  0  0  0  0  0  # atno 10764 bound_to 10752
  154.5713  135.5675  153.7157 H   0  0  0  0  0  0  0  0  0  0  0  0  # atno 10765 bound_to 10752
  141.1316  133.6628  156.5340 H   0  0  0  0  0  0  0  0  0  0  0  0  # atno 11005 bound_to 11000
  146.3010  140.3998  142.8704 LP  0  0  0  0  0  0  0  0  0  0  0  0  # atno 17320 bound_to 7965
  144.8796  140.7382  143.5995 LP  0  0  0  0  0  0  0  0  0  0  0  0  # atno 17321 bound_to 7965
  139.9868  143.5890  152.2924 LP  0  0  0  0  0  0  0  0  0  0  0  0  # atno 17342 bound_to 10162
  139.6531  144.7661  151.2109 LP  0  0  0  0  0  0  0  0  0  0  0  0  # atno 17343 bound_to 10162
  156.5489  130.4227  149.6117 LP  0  0  0  0  0  0  0  0  0  0  0  0  # atno 17370 bound_to 10713
  156.2920  130.7129  151.1980 LP  0  0  0  0  0  0  0  0  0  0  0  0  # atno 17371 bound_to 10713
  140.4193  134.7202  157.4881 LP  0  0  0  0  0  0  0  0  0  0  0  0  # atno 17394 bound_to 11000
  140.0371  134.6321  155.9029 LP  0  0  0  0  0  0  0  0  0  0  0  0  # atno 17395 bound_to 11000

$$$$
