AV-unprocessed.smi:1448|AV-procd|sdf|5894|dock2
  -GOLD-   22720 5573D 1   1.00000     0.00000
 Structure written by MMmdl.
 49 50  0  0  0  0  0  0  0  0  2 V2000
  150.6477  142.1359  156.3622 C   0  0  0  0  0  0  0  0  0  0  0  0
  150.5923  140.7808  155.7204 C   0  0  0  0  0  0  0  0  0  0  0  0
  149.4402  139.9942  155.4285 C   0  0  0  0  0  0  0  0  0  0  0  0
  149.9775  138.8743  154.8549 C   0  0  0  0  0  0  0  0  0  0  0  0
  149.3437  137.7724  154.3724 N   0  0  0  0  0  0  0  0  0  0  0  0
  148.2468  137.1593  154.8500 C   0  0  0  0  0  0  0  0  0  0  0  0
  147.6014  137.5154  155.8354 O   0  0  0  0  0  0  0  0  0  0  0  0
  147.9390  136.0777  154.1196 N   0  0  0  0  0  0  0  0  0  0  0  0
  146.8077  135.1779  154.3503 C   0  0  0  0  0  0  0  0  0  0  0  0
  146.7558  133.9723  153.3560 C   0  0  0  0  0  0  0  0  0  0  0  0
  146.3643  134.5013  151.9943 N   0  3  0  0  0  0  0  0  0  0  0  0
  145.1924  135.4126  151.9439 C   0  0  0  0  0  0  0  0  0  0  0  0
  146.2628  133.4792  150.9193 C   0  0  0  0  0  0  0  0  0  0  0  0
  148.1463  133.2688  153.2963 C   0  0  0  0  0  0  0  0  0  0  0  0
  148.5556  132.5702  154.6084 C   0  0  0  0  0  0  0  0  0  0  0  0
  147.4876  131.5781  155.0871 C   0  0  0  0  0  0  0  0  0  0  0  0
  146.1154  132.2530  155.2064 C   0  0  0  0  0  0  0  0  0  0  0  0
  145.7189  132.9211  153.8773 C   0  0  0  0  0  0  0  0  0  0  0  0
  151.3475  139.0076  154.8168 N   0  0  0  0  0  0  0  0  0  0  0  0
  152.3482  138.0922  154.3038 C   0  0  0  0  0  0  0  0  0  0  0  0
  151.7232  140.1878  155.3551 N   0  0  0  0  0  0  0  0  0  0  0  0
  149.6471  142.5144  156.5711 H   0  0  0  0  0  0  0  0  0  0  0  0
  151.1461  142.8576  155.7145 H   0  0  0  0  0  0  0  0  0  0  0  0
  151.1926  142.1012  157.3059 H   0  0  0  0  0  0  0  0  0  0  0  0
  148.4043  140.2333  155.6154 H   0  0  0  0  0  0  0  0  0  0  0  0
  149.7690  137.3566  153.5568 H   0  0  0  0  0  0  0  0  0  0  0  0
  148.5266  135.8643  153.3264 H   0  0  0  0  0  0  0  0  0  0  0  0
  146.8039  134.8392  155.3862 H   0  0  0  0  0  0  0  0  0  0  0  0
  145.9123  135.7910  154.2733 H   0  0  0  0  0  0  0  0  0  0  0  0
  144.3046  134.9432  152.3687 H   0  0  0  0  0  0  0  0  0  0  0  0
  144.9618  135.6889  150.9143 H   0  0  0  0  0  0  0  0  0  0  0  0
  145.3863  136.3475  152.4691 H   0  0  0  0  0  0  0  0  0  0  0  0
  145.3587  132.8787  151.0251 H   0  0  0  0  0  0  0  0  0  0  0  0
  147.1173  132.8056  150.8962 H   0  0  0  0  0  0  0  0  0  0  0  0
  146.2210  133.9655  149.9441 H   0  0  0  0  0  0  0  0  0  0  0  0
  148.1433  132.5226  152.5009 H   0  0  0  0  0  0  0  0  0  0  0  0
  148.9305  133.9808  153.0393 H   0  0  0  0  0  0  0  0  0  0  0  0
  149.4995  132.0443  154.4613 H   0  0  0  0  0  0  0  0  0  0  0  0
  148.7465  133.3095  155.3861 H   0  0  0  0  0  0  0  0  0  0  0  0
  147.4247  130.7458  154.3849 H   0  0  0  0  0  0  0  0  0  0  0  0
  147.7792  131.1500  156.0467 H   0  0  0  0  0  0  0  0  0  0  0  0
  145.3680  131.5061  155.4758 H   0  0  0  0  0  0  0  0  0  0  0  0
  146.1186  132.9757  156.0217 H   0  0  0  0  0  0  0  0  0  0  0  0
  144.7271  133.3644  153.9701 H   0  0  0  0  0  0  0  0  0  0  0  0
  145.6151  132.1018  153.1664 H   0  0  0  0  0  0  0  0  0  0  0  0
  152.2337  137.1187  154.7806 H   0  0  0  0  0  0  0  0  0  0  0  0
  153.3523  138.4675  154.5057 H   0  0  0  0  0  0  0  0  0  0  0  0
  152.2226  137.9794  153.2267 H   0  0  0  0  0  0  0  0  0  0  0  0
  147.1443  135.0824  151.7215 H   0  0  0  0  0  0  0  0  0  0  0  0
  1  2  1  0  0  0  0
  1 22  1  0  0  0  0
  1 23  1  0  0  0  0
  1 24  1  0  0  0  0
  2 21  2  0  0  0  0
  2  3  1  0  0  0  0
  3  4  2  0  0  0  0
  3 25  1  0  0  0  0
  4  5  1  0  0  0  0
  4 19  1  0  0  0  0
  5  6  1  0  0  0  0
  5 26  1  0  0  0  0
  6  7  2  0  0  0  0
  6  8  1  0  0  0  0
  8  9  1  0  0  0  0
  8 27  1  0  0  0  0
  9 10  1  0  0  0  0
  9 28  1  0  0  0  0
  9 29  1  0  0  0  0
 10 18  1  0  0  0  0
 10 11  1  0  0  0  0
 10 14  1  0  0  0  0
 11 12  1  0  0  0  0
 11 13  1  0  0  0  0
 11 49  1  0  0  0  0
 12 30  1  0  0  0  0
 12 31  1  0  0  0  0
 12 32  1  0  0  0  0
 13 33  1  0  0  0  0
 13 34  1  0  0  0  0
 13 35  1  0  0  0  0
 14 15  1  0  0  0  0
 14 36  1  0  0  0  0
 14 37  1  0  0  0  0
 15 16  1  0  0  0  0
 15 38  1  0  0  0  0
 15 39  1  0  0  0  0
 16 17  1  0  0  0  0
 16 40  1  0  0  0  0
 16 41  1  0  0  0  0
 17 18  1  0  0  0  0
 17 42  1  0  0  0  0
 17 43  1  0  0  0  0
 18 44  1  0  0  0  0
 18 45  1  0  0  0  0
 19 20  1  0  0  0  0
 19 21  1  0  0  0  0
 20 46  1  0  0  0  0
 20 47  1  0  0  0  0
 20 48  1  0  0  0  0
M  CHG  1  11   1
M  END
> <s_m_source_file>
AV-unprocessed.smi

> <i_m_source_file_index>
1448

> <i_lp_mmshare_version>
43012

> <i_f3d_flags>
0

> <s_epik_input>
W0NIM11jMVtjSF1jKG4objEpW0NIM10pW05IXUMoPU8pW05IXVtDSDJdQzIoTihbQ0gzXSlbQ0gzXSlbQ0gyXVtDSDJdW0NIMl1bQ0gyXVtDSDJdMg==

> <s_epik_cmdline>
J2VwaWtfcHl0aG9uJywgJy1waCcsICc3LjAnLCAnLXRuJywgJzgnLCAnLW1hJywgJzIwMCcsICctbWV0YWxfYmluZGluZycsICctaW1hZScsICc8aW5maWxlLm1hZT4nLCAnLW9tYWUnLCAnPG91dGZpbGUubWFlPic=

> <r_lp_tautomer_probability>
1

> <r_epik_Ionization_Penalty>
0.00238996

> <r_epik_Ionization_Penalty_Charging>
0.00230992

> <r_epik_Ionization_Penalty_Neutral>
8.00361e-05

> <r_epik_State_Penalty>
0.00159337

> <r_epik_Charging_Adjusted_Penalty>
0.00390329

> <i_epik_Tot_Q>
1

> <i_epik_Tot_abs_Q>
1

> <r_epik_Metal_State_Penalty>
-0

> <b_epik_Metal_Only>
0

> <s_lp_Force_Field>
OPLS_2005

> <r_lp_Energy>
34.408

> <b_lp_Chiralities_Consistent>
1

> <s_lp_Variant>
AV-unprocessed.smi:1448-1

> <Gold.Version>
5.8.1

> <Gold.Id.Protein>
6NUR|6NUR_protein|mol2

> <Gold.PLP.Fitness>
41.3250

> <Gold.PLP.PLP>
-31.7545

> <Gold.PLP.part.hbond>
-3.6016

> <Gold.PLP.part.metal>
0.0000

> <Gold.PLP.part.buried>
-3.8713

> <Gold.PLP.part.nonpolar>
-25.7322

> <Gold.PLP.part.repulsive>
0.0762

> <Gold.PLP.ligand.clash>
0.0000

> <Gold.PLP.ligand.torsion>
0.4597

> <Gold.PLP.Chemscore.Hbond>
3.4244

> <Gold.PLP.Chemscore.CHOScore>
0.0000

> <Gold.PLP.Chemscore.Metal>
0.0000

> <Gold.Chemscore.Hbonds>
donor molecule, donor type, donor heavy atom, donor atom, acceptor molecule, acceptor atom, score
      L1  H     5    26       P1  7948  0.47
      L1  H     8    27       P1  7948  0.98
      L1  H    11    49       P1  7948  1.62
      P1  H  7989  7998       L1    21  0.18

> <Gold.PLP.Chemscore.Internal.Correction>
0.2166

> <Gold.Rescore>
     Score         DG    S(hbond)    S(metal)    S(lipo)     H(rot)  DE(clash)    DE(int)     intcor
     15.73     -16.15       2.18        0.00      61.28       1.47       0.01       0.41       ----

> <Gold.Chemscore.Fitness>
15.7292

> <Gold.Chemscore.DG>
-16.1542

> <Gold.Chemscore.ZeroCoef>
-5.4800

> <Gold.Chemscore.Hbond>
2.1780

> <Gold.Chemscore.Metal>
0.0000

> <Gold.Chemscore.Lipo>
61.2793

> <Gold.Chemscore.Internal_Hbond>
0.0000

> <Gold.Chemscore.DEClash>
0.0121

> <Gold.Chemscore.DEInternal>
0.4129

> <Gold.Chemscore.Rot>
1.4727

> <Gold.Chemscore.Internal.Correction>
   9.000000E+99

> <Gold.Chemscore.Hbonds>
donor molecule, donor type, donor heavy atom, donor atom, acceptor molecule, acceptor atom, score
      L1  H     5    26       P1  7948  0.33
      L1  H     8    27       P1  7948  0.90
      L1  H    11    49       P1  7948  0.76

> <Gold.Chemscore.Hbond.Weighted>
-7.2745

> <Gold.Chemscore.Metal.Weighted>
-0.0000

> <Gold.Chemscore.Lipo.Weighted>
-7.1697

> <Gold.Chemscore.Internal_Hbond.Weighted>
0.0000

> <Gold.Chemscore.DEClash.Weighted>
0.0121

> <Gold.Chemscore.DEInternal.Weighted>
0.4129

> <Gold.Chemscore.Rot.Weighted>
3.7700

> <Gold.Chemscore.Internal.Correction.Weighted>
   9.000000E+99

> <Gold.Protein.RotatedTorsions>
[ 6907 6896 6895 6894 ] final  106.69 input  -60.11 | X-H torsion
[ 7974 7965 7964 7962 ] final   86.18 input  175.53 | X-H torsion
[ 8008 7997 7996 7995 ] final  -87.62 input   59.86 | X-H torsion
[ 10167 10162 10161 10158 ] final   92.40 input  -65.29 | X-H torsion
[ 10718 10713 10712 10709 ] final  -46.63 input   66.30 | X-H torsion
[ 10763 10752 10751 10750 ] final   40.00 input  -60.55 | X-H torsion
[ 11005 11000 10999 10996 ] final  -62.28 input  -57.11 | X-H torsion

> <Gold.Protein.ActiveResidues>
 VAL166  LYS551  ARG553  GLY616  TRP617  ASP618  TYR619  PRO620  LYS621  CYS622 
 ASP623  PHE694  ASN695  SER759  ASP760  ASP761  ALA762  ILE779  LEU786  VAL792 
 PHE793  MET794  SER795  GLU796  ALA797  LYS798  CYS799  TRP800  GLU811  SER814 

> <Gold.Protein.RotatedAtoms>
  152.5184  133.9343  159.7595 H   0  0  0  0  0  0  0  0  0  0  0  0  # atno 6907 bound_to 6896
  150.9687  133.6359  159.2748 H   0  0  0  0  0  0  0  0  0  0  0  0  # atno 6908 bound_to 6896
  151.3578  135.0903  159.9477 H   0  0  0  0  0  0  0  0  0  0  0  0  # atno 6909 bound_to 6896
  145.5756  139.2319  143.2381 H   0  0  0  0  0  0  0  0  0  0  0  0  # atno 7974 bound_to 7965
  154.6653  140.0563  157.0107 H   0  0  0  0  0  0  0  0  0  0  0  0  # atno 8008 bound_to 7997
  155.1168  140.3243  155.4489 H   0  0  0  0  0  0  0  0  0  0  0  0  # atno 8009 bound_to 7997
  156.2635  140.2004  156.6291 H   0  0  0  0  0  0  0  0  0  0  0  0  # atno 8010 bound_to 7997
  139.8280  144.6700  150.9435 H   0  0  0  0  0  0  0  0  0  0  0  0  # atno 10167 bound_to 10162
  156.2164  130.4163  149.9049 H   0  0  0  0  0  0  0  0  0  0  0  0  # atno 10718 bound_to 10713
  152.9949  135.6204  154.2556 H   0  0  0  0  0  0  0  0  0  0  0  0  # atno 10763 bound_to 10752
  154.2293  135.2793  155.2897 H   0  0  0  0  0  0  0  0  0  0  0  0  # atno 10764 bound_to 10752
  154.5463  135.5746  153.6941 H   0  0  0  0  0  0  0  0  0  0  0  0  # atno 10765 bound_to 10752
  141.1354  133.6638  156.5503 H   0  0  0  0  0  0  0  0  0  0  0  0  # atno 11005 bound_to 11000
  146.1753  140.6583  142.9214 LP  0  0  0  0  0  0  0  0  0  0  0  0  # atno 17320 bound_to 7965
  144.7417  140.4960  143.6864 LP  0  0  0  0  0  0  0  0  0  0  0  0  # atno 17321 bound_to 7965
  140.7809  143.4027  151.1122 LP  0  0  0  0  0  0  0  0  0  0  0  0  # atno 17342 bound_to 10162
  139.7683  143.8532  152.3115 LP  0  0  0  0  0  0  0  0  0  0  0  0  # atno 17343 bound_to 10162
  156.6710  130.8820  151.3562 LP  0  0  0  0  0  0  0  0  0  0  0  0  # atno 17370 bound_to 10713
  157.7065  130.9391  150.0948 LP  0  0  0  0  0  0  0  0  0  0  0  0  # atno 17371 bound_to 10713
  140.4069  134.7307  157.4813 LP  0  0  0  0  0  0  0  0  0  0  0  0  # atno 17394 bound_to 11000
  140.0455  134.6205  155.8926 LP  0  0  0  0  0  0  0  0  0  0  0  0  # atno 17395 bound_to 11000

$$$$
