#       Name:                AV-unprocessed.smi:791
#       Creating user name   scv26
#       Creation time:       Fri Mar 27 01:18:06 2020


#       File generated by GOLD software.
#

@<TRIPOS>MOLECULE
AV-unprocessed.smi:791
    34    36     1
SMALL
NO_CHARGES


@<TRIPOS>ATOM
      1 ****        -3.1435   0.1503   1.0297 C.3            1 S1                 0.0000
      2 ****        -3.6443  -0.5192  -0.2613 C.3            1 S1                 0.0000
      3 ****        -3.0880   0.1585  -1.4530 N.4            1 S1                 1.0000
      4 ****        -1.6086   0.1690  -1.4749 C.3            1 S1                 0.0000
      5 ****        -1.0445   0.8313  -0.2021 C.3            1 S1                 0.0000
      6 ****         0.4526   0.8696  -0.2066 C.2            1 S1                 0.0000
      7 ****         1.1106   2.0205  -0.2795 N.2            1 S1                 0.0000
      8 ****         2.4562   1.6263  -0.2758 O.3            1 S1                 0.0000
      9 ****         2.4451   0.2755  -0.1847 C.2            1 S1                 0.0000
     10 ****         3.7437  -0.4564  -0.1887 C.3            1 S1                 0.0000
     11 ****         4.0358  -1.5245   0.8407 C.3            1 S1                 0.0000
     12 ****         4.7721  -0.2098   0.8909 C.3            1 S1                 0.0000
     13 ****         1.2240  -0.2527  -0.1660 N.2            1 S1                 0.0000
     14 ****        -1.6079   0.1787   1.0750 C.3            1 S1                 0.0000
     15 ****        -3.5319  -0.3795   1.9001 H              1 S1                 0.0000
     16 ****        -3.5311   1.1683   1.0889 H              1 S1                 0.0000
     17 ****        -3.3578  -1.5716  -0.2799 H              1 S1                 0.0000
     18 ****        -4.7329  -0.4846  -0.3077 H              1 S1                 0.0000
     19 ****        -3.4246  -0.3075  -2.2835 H              1 S1                 0.0000
     20 ****        -1.2491  -0.8571  -1.5652 H              1 S1                 0.0000
     21 ****        -1.2725   0.7042  -2.3635 H              1 S1                 0.0000
     22 ****        -1.3923   1.8664  -0.2047 H              1 S1                 0.0000
     23 ****         4.0978  -0.6128  -1.2056 H              1 S1                 0.0000
     24 ****         3.2869  -1.7084   1.6087 H              1 S1                 0.0000
     25 ****         4.5918  -2.3999   0.5117 H              1 S1                 0.0000
     26 ****         5.8196  -0.2093   0.5968 H              1 S1                 0.0000
     27 ****         4.5109   0.4821   1.6893 H              1 S1                 0.0000
     28 ****        -1.2702   0.7206   1.9592 H              1 S1                 0.0000
     29 ****        -1.2314  -0.8407   1.1715 H              1 S1                 0.0000
     30 ****        -3.4160   1.1139  -1.4606 H              1 S1                 0.0000
     31 ****         0.7362   2.9465  -0.3259 LP             1 S1                 0.0000
     32 ****         2.9333   2.0242   0.5078 LP             1 S1                 0.0000
     33 ****         2.9057   1.9146  -1.1213 LP             1 S1                 0.0000
     34 ****         0.9474  -1.2131  -0.1315 LP             1 S1                 0.0000
@<TRIPOS>BOND
    1    1   14 1     
    2    1    2 1     
    3    1   15 1     
    4    1   16 1     
    5    2    3 1     
    6    2   17 1     
    7    2   18 1     
    8    3    4 1     
    9    3   19 1     
   10    3   30 1     
   11    4    5 1     
   12    4   20 1     
   13    4   21 1     
   14    5    6 1     
   15    5   14 1     
   16    5   22 1     
   17    6   13 1     
   18    6    7 2     
   19    7    8 1     
   20    8    9 1     
   21    9   10 1     
   22    9   13 2     
   23   10   12 1     
   24   10   11 1     
   25   10   23 1     
   26   11   12 1     
   27   11   24 1     
   28   11   25 1     
   29   12   26 1     
   30   12   27 1     
   31   14   28 1     
   32   14   29 1     
   33    7   31 1     
   34    8   32 1     
   35    8   33 1     
   36   13   34 1     
@<TRIPOS>SUBSTRUCTURE
      1 S1             1
@<TRIPOS>SET
LONE_PAIRS      STATIC     ATOMS    <user>   **** ""
4 31 32 33 34
DONOR_HYDROGENS      STATIC     ATOMS    <user>   **** ""
2 19 30
ATOM$BLUE        STATIC     ATOMS    COLORGROUP SYSTEM
4 31 32 33 34
ATOM$RED        STATIC     ATOMS    COLORGROUP SYSTEM
2 19 30
