AV-unprocessed.smi:1033|AV-procd|sdf|4510|dock6
  -GOLD-   22720 2513D 1   1.00000     0.00000
 Structure written by MMmdl.
 57 59  0  0  0  0  0  0  0  0  3 V2000
  153.1458  142.6386  161.4047 C   0  0  0  0  0  0  0  0  0  0  0  0
  152.5310  142.3511  160.0462 C   0  0  0  0  0  0  0  0  0  0  0  0
  152.8708  141.1532  159.3776 C   0  0  0  0  0  0  0  0  0  0  0  0
  152.3204  140.8481  158.1136 C   0  0  0  0  0  0  0  0  0  0  0  0
  152.5081  139.7507  157.2906 N   0  0  0  0  0  0  0  0  0  0  0  0
  151.7222  140.0493  156.2600 C   0  0  0  0  0  0  0  0  0  0  0  0
  151.0398  141.2093  156.3222 N   0  0  0  0  0  0  0  0  0  0  0  0
  150.1180  141.7443  155.3368 C   0  0  0  0  0  0  0  0  0  0  0  0
  149.2867  140.6371  154.6617 C   0  0  2  0  0  0  0  0  0  0  0  0
  148.8472  141.0911  153.3960 O   0  0  0  0  0  0  0  0  0  0  0  0
  148.0562  140.2446  155.5027 C   0  0  0  0  0  0  0  0  0  0  0  0
  148.0983  138.8288  155.9525 N   0  3  2  0  0  0  0  0  0  0  0  0
  146.7426  138.2610  156.1595 C   0  0  0  0  0  0  0  0  0  0  0  0
  146.8077  136.7672  156.5403 C   0  0  0  0  0  0  0  0  0  0  0  0
  147.6941  136.5197  157.7082 N   0  3  2  0  0  0  0  0  0  0  0  0
  147.0990  136.8646  159.0282 C   0  0  0  0  0  0  0  0  0  0  0  0
  147.9730  136.3926  160.2069 C   0  0  2  0  0  0  0  0  0  0  0  0
  147.8865  134.8759  160.4208 C   0  0  0  0  0  0  0  0  0  0  0  0
  147.5377  137.0302  161.3906 O   0  0  0  0  0  0  0  0  0  0  0  0
  149.0397  137.1075  157.4908 C   0  0  0  0  0  0  0  0  0  0  0  0
  148.9604  138.6056  157.1422 C   0  0  0  0  0  0  0  0  0  0  0  0
  151.4118  141.7807  157.5338 C   0  0  0  0  0  0  0  0  0  0  0  0
  151.0680  142.9774  158.1873 C   0  0  0  0  0  0  0  0  0  0  0  0
  151.6284  143.2674  159.4486 C   0  0  0  0  0  0  0  0  0  0  0  0
  151.2534  144.5633  160.1458 C   0  0  0  0  0  0  0  0  0  0  0  0
  153.8043  141.8299  161.7230 H   0  0  0  0  0  0  0  0  0  0  0  0
  152.3684  142.7531  162.1604 H   0  0  0  0  0  0  0  0  0  0  0  0
  153.7343  143.5558  161.3711 H   0  0  0  0  0  0  0  0  0  0  0  0
  153.5597  140.4563  159.8318 H   0  0  0  0  0  0  0  0  0  0  0  0
  151.6314  139.3827  155.4146 H   0  0  0  0  0  0  0  0  0  0  0  0
  149.4623  142.4547  155.8418 H   0  0  0  0  0  0  0  0  0  0  0  0
  150.6824  142.3121  154.5952 H   0  0  0  0  0  0  0  0  0  0  0  0
  149.9303  139.7722  154.5064 H   0  0  0  0  0  0  0  0  0  0  0  0
  148.8968  140.3713  152.7841 H   0  0  0  0  0  0  0  0  0  0  0  0
  147.9631  140.8960  156.3729 H   0  0  0  0  0  0  0  0  0  0  0  0
  147.1612  140.4116  154.9006 H   0  0  0  0  0  0  0  0  0  0  0  0
  146.2223  138.8324  156.9293 H   0  0  0  0  0  0  0  0  0  0  0  0
  146.1586  138.3684  155.2445 H   0  0  0  0  0  0  0  0  0  0  0  0
  145.8061  136.3778  156.7183 H   0  0  0  0  0  0  0  0  0  0  0  0
  147.2017  136.2014  155.6950 H   0  0  0  0  0  0  0  0  0  0  0  0
  146.9754  137.9461  159.1051 H   0  0  0  0  0  0  0  0  0  0  0  0
  146.0964  136.4435  159.1065 H   0  0  0  0  0  0  0  0  0  0  0  0
  149.0173  136.6561  160.0424 H   0  0  0  0  0  0  0  0  0  0  0  0
  148.2305  134.3361  159.5379 H   0  0  0  0  0  0  0  0  0  0  0  0
  146.8636  134.5586  160.6267 H   0  0  0  0  0  0  0  0  0  0  0  0
  148.5084  134.5611  161.2598 H   0  0  0  0  0  0  0  0  0  0  0  0
  147.4318  136.3785  162.0674 H   0  0  0  0  0  0  0  0  0  0  0  0
  149.6725  136.9473  158.3646 H   0  0  0  0  0  0  0  0  0  0  0  0
  149.5189  136.5712  156.6703 H   0  0  0  0  0  0  0  0  0  0  0  0
  149.9686  138.9739  156.9579 H   0  0  0  0  0  0  0  0  0  0  0  0
  148.5706  139.1721  157.9894 H   0  0  0  0  0  0  0  0  0  0  0  0
  150.3799  143.6667  157.7211 H   0  0  0  0  0  0  0  0  0  0  0  0
  150.5463  145.1443  159.5530 H   0  0  0  0  0  0  0  0  0  0  0  0
  152.1385  145.1787  160.3085 H   0  0  0  0  0  0  0  0  0  0  0  0
  150.7908  144.3590  161.1115 H   0  0  0  0  0  0  0  0  0  0  0  0
  147.8379  135.5199  157.7504 H   0  0  0  0  0  0  0  0  0  0  0  0
  148.5079  138.3095  155.1882 H   0  0  0  0  0  0  0  0  0  0  0  0
  1  2  1  0  0  0  0
  1 26  1  0  0  0  0
  1 27  1  0  0  0  0
  1 28  1  0  0  0  0
  2 24  1  0  0  0  0
  2  3  2  0  0  0  0
  3  4  1  0  0  0  0
  3 29  1  0  0  0  0
  4 22  2  0  0  0  0
  4  5  1  0  0  0  0
  5  6  2  0  0  0  0
  6  7  1  0  0  0  0
  6 30  1  0  0  0  0
  7  8  1  0  0  0  0
  7 22  1  0  0  0  0
  8  9  1  0  0  0  0
  8 31  1  0  0  0  0
  8 32  1  0  0  0  0
  9 10  1  0  0  0  0
  9 11  1  0  0  0  0
  9 33  1  0  0  0  0
 10 34  1  0  0  0  0
 11 12  1  0  0  0  0
 11 35  1  0  0  0  0
 11 36  1  0  0  0  0
 12 21  1  0  0  0  0
 12 13  1  0  0  0  0
 12 57  1  0  0  0  0
 13 14  1  0  0  0  0
 13 37  1  0  0  0  0
 13 38  1  0  0  0  0
 14 15  1  0  0  0  0
 14 39  1  0  0  0  0
 14 40  1  0  0  0  0
 15 16  1  0  0  0  0
 15 20  1  0  0  0  0
 15 56  1  0  0  0  0
 16 17  1  0  0  0  0
 16 41  1  0  0  0  0
 16 42  1  0  0  0  0
 17 18  1  0  0  0  0
 17 19  1  0  0  0  0
 17 43  1  0  0  0  0
 18 44  1  0  0  0  0
 18 45  1  0  0  0  0
 18 46  1  0  0  0  0
 19 47  1  0  0  0  0
 20 21  1  0  0  0  0
 20 48  1  0  0  0  0
 20 49  1  0  0  0  0
 21 50  1  0  0  0  0
 21 51  1  0  0  0  0
 22 23  1  0  0  0  0
 23 24  2  0  0  0  0
 23 52  1  0  0  0  0
 24 25  1  0  0  0  0
 25 53  1  0  0  0  0
 25 54  1  0  0  0  0
 25 55  1  0  0  0  0
M  CHG  1  12   1
M  CHG  1  15   1
M  END
> <s_m_source_file>
AV-unprocessed.smi

> <i_m_source_file_index>
1033

> <i_lp_mmshare_version>
43012

> <i_f3d_flags>
0

> <s_epik_input>
W0NIM11jKFtjSF0xKWMoW0NIM10pW2NIXWMoYzEyKW4oW2NIXW4yKVtDSDJdW0NASF0oW09IXSlbQ0gyXU4zW0NIMl1bQ0gyXU4oW0NIMl1bQ0gyXTMpW0NIMl1bQ0BIXShbQ0gzXSlbT0hd

> <s_epik_cmdline>
J2VwaWtfcHl0aG9uJywgJy1waCcsICc3LjAnLCAnLXRuJywgJzgnLCAnLW1hJywgJzIwMCcsICctbWV0YWxfYmluZGluZycsICctaW1hZScsICc8aW5maWxlLm1hZT4nLCAnLW9tYWUnLCAnPG91dGZpbGUubWFlPic=

> <r_epik_Ionization_Penalty>
3.16016

> <r_epik_Ionization_Penalty_Charging>
3.07679

> <r_epik_Ionization_Penalty_Neutral>
0.083365

> <r_epik_State_Penalty>
2.09701

> <r_epik_Charging_Adjusted_Penalty>
5.1738

> <i_epik_Tot_Q>
2

> <i_epik_Tot_abs_Q>
2

> <r_epik_Metal_State_Penalty>
2.02534

> <b_epik_Metal_Only>
0

> <s_lp_Force_Field>
OPLS_2005

> <r_lp_Energy>
28.3009

> <b_lp_Chiralities_Consistent>
1

> <s_lp_Variant>
AV-unprocessed.smi:1033-21

> <Gold.Version>
5.8.1

> <Gold.Id.Protein>
6NUR|6NUR_protein|mol2

> <Gold.PLP.Fitness>
53.1494

> <Gold.PLP.PLP>
-42.7603

> <Gold.PLP.part.hbond>
-5.2799

> <Gold.PLP.part.metal>
0.0000

> <Gold.PLP.part.buried>
-5.0191

> <Gold.PLP.part.nonpolar>
-31.9404

> <Gold.PLP.part.repulsive>
0.0131

> <Gold.PLP.ligand.clash>
0.0000

> <Gold.PLP.ligand.torsion>
1.7207

> <Gold.PLP.Chemscore.Hbond>
4.5440

> <Gold.PLP.Chemscore.CHOScore>
0.0000

> <Gold.PLP.Chemscore.Metal>
0.0000

> <Gold.Chemscore.Hbonds>
donor molecule, donor type, donor heavy atom, donor atom, acceptor molecule, acceptor atom, score
      L1  H    10    34       P1  7957  0.75
      P1  H  6931  6943       L1    19  1.00
      P1  H  6934  6947       L1    19  0.80
      P1  H  7997  8008       L1     5  1.00
      P1  H  8011  8017       L1    10  0.90

> <Gold.PLP.Chemscore.Internal.Correction>
0.1985

> <Gold.Rescore>
     Score         DG    S(hbond)    S(metal)    S(lipo)     H(rot)  DE(clash)    DE(int)     intcor
     17.76     -19.75       2.85        0.00     109.37       3.14       0.10       1.89       ----

> <Gold.Chemscore.Fitness>
17.7576

> <Gold.Chemscore.DG>
-19.7492

> <Gold.Chemscore.ZeroCoef>
-5.4800

> <Gold.Chemscore.Hbond>
2.8463

> <Gold.Chemscore.Metal>
0.0000

> <Gold.Chemscore.Lipo>
109.3663

> <Gold.Chemscore.Internal_Hbond>
0.0000

> <Gold.Chemscore.DEClash>
0.0980

> <Gold.Chemscore.DEInternal>
1.8935

> <Gold.Chemscore.Rot>
3.1380

> <Gold.Chemscore.Internal.Correction>
   9.000000E+99

> <Gold.Chemscore.Hbonds>
donor molecule, donor type, donor heavy atom, donor atom, acceptor molecule, acceptor atom, score
      L1  H    10    34       P1  7957  0.76
      P1  H  6931  6943       L1    19  0.32
      P1  H  6934  6947       L1    19  0.50
      P1  H  7997  8008       L1     5  0.14
      P1  H  8011  8017       L1    10  0.17

> <Gold.Chemscore.Hbond.Weighted>
-9.5065

> <Gold.Chemscore.Metal.Weighted>
-0.0000

> <Gold.Chemscore.Lipo.Weighted>
-12.7959

> <Gold.Chemscore.Internal_Hbond.Weighted>
0.0000

> <Gold.Chemscore.DEClash.Weighted>
0.0980

> <Gold.Chemscore.DEInternal.Weighted>
1.8935

> <Gold.Chemscore.Rot.Weighted>
8.0332

> <Gold.Chemscore.Internal.Correction.Weighted>
   9.000000E+99

> <Gold.Protein.RotatedTorsions>
[ 6907 6896 6895 6894 ] final -103.42 input  -60.11 | X-H torsion
[ 7974 7965 7964 7962 ] final   70.23 input  175.53 | X-H torsion
[ 8008 7997 7996 7995 ] final  -61.09 input   59.86 | X-H torsion
[ 10167 10162 10161 10158 ] final -166.11 input  -65.29 | X-H torsion
[ 10718 10713 10712 10709 ] final -120.22 input   66.30 | X-H torsion
[ 10763 10752 10751 10750 ] final    5.79 input  -60.55 | X-H torsion
[ 11005 11000 10999 10996 ] final  -75.96 input  -57.11 | X-H torsion

> <Gold.Protein.ActiveResidues>
 VAL166  LYS551  ARG553  GLY616  TRP617  ASP618  TYR619  PRO620  LYS621  CYS622 
 ASP623  PHE694  ASN695  SER759  ASP760  ASP761  ALA762  ILE779  LEU786  VAL792 
 PHE793  MET794  SER795  GLU796  ALA797  LYS798  CYS799  TRP800  GLU811  SER814 

> <Gold.Protein.RotatedAtoms>
  150.7239  134.0432  159.3772 H   0  0  0  0  0  0  0  0  0  0  0  0  # atno 6907 bound_to 6896
  151.8406  135.0589  160.0457 H   0  0  0  0  0  0  0  0  0  0  0  0  # atno 6908 bound_to 6896
  152.2865  133.5484  159.5567 H   0  0  0  0  0  0  0  0  0  0  0  0  # atno 6909 bound_to 6896
  145.7807  139.2886  143.1267 H   0  0  0  0  0  0  0  0  0  0  0  0  # atno 7974 bound_to 7965
  154.4430  140.1025  156.6376 H   0  0  0  0  0  0  0  0  0  0  0  0  # atno 8008 bound_to 7997
  155.5536  140.3486  155.4456 H   0  0  0  0  0  0  0  0  0  0  0  0  # atno 8009 bound_to 7997
  156.0511  140.1304  157.0039 H   0  0  0  0  0  0  0  0  0  0  0  0  # atno 8010 bound_to 7997
  139.6137  144.0764  152.1866 H   0  0  0  0  0  0  0  0  0  0  0  0  # atno 10167 bound_to 10162
  156.1241  130.6346  150.9513 H   0  0  0  0  0  0  0  0  0  0  0  0  # atno 10718 bound_to 10713
  153.2552  135.6917  153.7636 H   0  0  0  0  0  0  0  0  0  0  0  0  # atno 10763 bound_to 10752
  153.6716  135.3343  155.3155 H   0  0  0  0  0  0  0  0  0  0  0  0  # atno 10764 bound_to 10752
  154.8409  135.4501  154.1523 H   0  0  0  0  0  0  0  0  0  0  0  0  # atno 10765 bound_to 10752
  141.1650  133.6966  156.7596 H   0  0  0  0  0  0  0  0  0  0  0  0  # atno 11005 bound_to 11000
  146.0077  140.8464  142.9987 LP  0  0  0  0  0  0  0  0  0  0  0  0  # atno 17320 bound_to 7965
  144.6797  140.2444  143.7339 LP  0  0  0  0  0  0  0  0  0  0  0  0  # atno 17321 bound_to 7965
  140.0388  144.6023  150.7427 LP  0  0  0  0  0  0  0  0  0  0  0  0  # atno 17342 bound_to 10162
  140.7336  143.2719  151.3861 LP  0  0  0  0  0  0  0  0  0  0  0  0  # atno 17343 bound_to 10162
  157.6423  131.0908  150.8225 LP  0  0  0  0  0  0  0  0  0  0  0  0  # atno 17370 bound_to 10713
  156.8317  130.5018  149.5331 LP  0  0  0  0  0  0  0  0  0  0  0  0  # atno 17371 bound_to 10713
  140.2544  134.8516  157.3698 LP  0  0  0  0  0  0  0  0  0  0  0  0  # atno 17394 bound_to 11000
  140.1672  134.4654  155.7855 LP  0  0  0  0  0  0  0  0  0  0  0  0  # atno 17395 bound_to 11000

$$$$
