AV-unprocessed.smi:810|AV-procd|sdf|3810|dock1
  -GOLD-   22720 1253D 1   1.00000     0.00000
 Structure written by MMmdl.
 34 35  0  0  0  0  0  0  0  0  1 V2000
  151.1679  141.2668  156.9631 O   0  0  0  0  0  0  0  0  0  0  0  0
  150.4002  142.1782  156.6562 C   0  0  0  0  0  0  0  0  0  0  0  0
  150.2351  143.3202  157.3452 N   0  0  0  0  0  0  0  0  0  0  0  0
  150.8407  143.7078  158.5709 C   0  0  0  0  0  0  0  0  0  0  0  0
  151.8944  142.9135  159.0682 C   0  0  0  0  0  0  0  0  0  0  0  0
  152.5258  143.2852  160.2702 C   0  0  0  0  0  0  0  0  0  0  0  0
  152.0825  144.4493  160.9270 C   0  0  0  0  0  0  0  0  0  0  0  0
  151.0865  145.2297  160.4576 N   0  0  0  0  0  0  0  0  0  0  0  0
  150.4834  144.8662  159.3052 C   0  0  0  0  0  0  0  0  0  0  0  0
  149.6273  142.1594  155.5611 N   0  0  0  0  0  0  0  0  0  0  0  0
  149.5599  141.0712  154.5886 C   0  0  1  0  0  0  0  0  0  0  0  0
  149.5918  139.7177  155.3251 C   0  0  0  0  0  0  0  0  0  0  0  0
  150.2558  138.5890  154.5183 C   0  0  0  0  0  0  0  0  0  0  0  0
  149.6110  138.4497  153.2709 O   0  0  0  0  0  0  0  0  0  0  0  0
  148.3448  141.1632  153.6810 C   0  0  0  0  0  0  0  0  0  0  0  0
  147.1755  142.0511  154.0351 C   0  0  0  0  0  0  0  0  0  0  0  0
  147.0226  140.5480  154.0744 C   0  0  0  0  0  0  0  0  0  0  0  0
  149.6376  144.0140  156.9199 H   0  0  0  0  0  0  0  0  0  0  0  0
  152.2146  142.0275  158.5394 H   0  0  0  0  0  0  0  0  0  0  0  0
  153.3312  142.6931  160.6787 H   0  0  0  0  0  0  0  0  0  0  0  0
  152.5442  144.7649  161.8509 H   0  0  0  0  0  0  0  0  0  0  0  0
  149.7141  145.5431  158.9679 H   0  0  0  0  0  0  0  0  0  0  0  0
  149.0353  142.9583  155.3864 H   0  0  0  0  0  0  0  0  0  0  0  0
  150.4487  141.1130  153.9554 H   0  0  0  0  0  0  0  0  0  0  0  0
  150.1030  139.8338  156.2820 H   0  0  0  0  0  0  0  0  0  0  0  0
  148.5695  139.4200  155.5632 H   0  0  0  0  0  0  0  0  0  0  0  0
  151.3105  138.8073  154.3484 H   0  0  0  0  0  0  0  0  0  0  0  0
  150.2002  137.6379  155.0484 H   0  0  0  0  0  0  0  0  0  0  0  0
  149.9094  139.1396  152.6981 H   0  0  0  0  0  0  0  0  0  0  0  0
  148.5910  141.1190  152.6216 H   0  0  0  0  0  0  0  0  0  0  0  0
  147.2073  142.5766  154.9875 H   0  0  0  0  0  0  0  0  0  0  0  0
  146.6878  142.5864  153.2229 H   0  0  0  0  0  0  0  0  0  0  0  0
  146.4333  140.0802  153.2886 H   0  0  0  0  0  0  0  0  0  0  0  0
  146.9513  140.0774  155.0529 H   0  0  0  0  0  0  0  0  0  0  0  0
  1  2  2  0  0  0  0
  2  3  1  0  0  0  0
  2 10  1  0  0  0  0
  3  4  1  0  0  0  0
  3 18  1  0  0  0  0
  4  9  1  0  0  0  0
  4  5  2  0  0  0  0
  5  6  1  0  0  0  0
  5 19  1  0  0  0  0
  6  7  2  0  0  0  0
  6 20  1  0  0  0  0
  7  8  1  0  0  0  0
  7 21  1  0  0  0  0
  8  9  2  0  0  0  0
  9 22  1  0  0  0  0
 10 11  1  0  0  0  0
 10 23  1  0  0  0  0
 11 12  1  0  0  0  0
 11 15  1  0  0  0  0
 11 24  1  0  0  0  0
 12 13  1  0  0  0  0
 12 25  1  0  0  0  0
 12 26  1  0  0  0  0
 13 14  1  0  0  0  0
 13 27  1  0  0  0  0
 13 28  1  0  0  0  0
 14 29  1  0  0  0  0
 15 17  1  0  0  0  0
 15 16  1  0  0  0  0
 15 30  1  0  0  0  0
 16 17  1  0  0  0  0
 16 31  1  0  0  0  0
 16 32  1  0  0  0  0
 17 33  1  0  0  0  0
 17 34  1  0  0  0  0
M  END
> <s_m_source_file>
AV-unprocessed.smi

> <i_m_source_file_index>
810

> <i_lp_mmshare_version>
43012

> <i_f3d_flags>
0

> <s_epik_input>
W09IXVtDSDJdW0NIMl1bQ0BIXShbQ0hdMVtDSDJdW0NIMl0xKVtOSF1DKD1PKVtOSF1jMltjSF1bY0hdW2NIXW5bY0hdMg==

> <s_epik_cmdline>
J2VwaWtfcHl0aG9uJywgJy1waCcsICc3LjAnLCAnLXRuJywgJzgnLCAnLW1hJywgJzIwMCcsICctbWV0YWxfYmluZGluZycsICctaW1hZScsICc8aW5maWxlLm1hZT4nLCAnLW9tYWUnLCAnPG91dGZpbGUubWFlPic=

> <r_epik_Ionization_Penalty>
0.00486911

> <r_epik_Ionization_Penalty_Charging>
0

> <r_epik_Ionization_Penalty_Neutral>
0.00486911

> <r_epik_State_Penalty>
0.00350304

> <r_epik_Charging_Adjusted_Penalty>
0.00350304

> <i_epik_Tot_Q>
0

> <i_epik_Tot_abs_Q>
0

> <r_epik_Metal_State_Penalty>
-0

> <b_epik_Metal_Only>
0

> <s_lp_Force_Field>
OPLS_2005

> <r_lp_Energy>
17.3052

> <b_lp_Chiralities_Consistent>
1

> <s_lp_Variant>
AV-unprocessed.smi:810-2

> <Gold.Version>
5.8.1

> <Gold.Id.Protein>
6NUR|6NUR_protein|mol2

> <Gold.PLP.Fitness>
47.0275

> <Gold.PLP.PLP>
-37.3320

> <Gold.PLP.part.hbond>
-4.0000

> <Gold.PLP.part.metal>
0.0000

> <Gold.PLP.part.buried>
-4.2690

> <Gold.PLP.part.nonpolar>
-29.5233

> <Gold.PLP.part.repulsive>
0.4131

> <Gold.PLP.ligand.clash>
0.0000

> <Gold.PLP.ligand.torsion>
1.5415

> <Gold.PLP.Chemscore.Hbond>
2.8800

> <Gold.PLP.Chemscore.CHOScore>
0.9982

> <Gold.PLP.Chemscore.Metal>
0.0000

> <Gold.Chemscore.Hbonds>
donor molecule, donor type, donor heavy atom, donor atom, acceptor molecule, acceptor atom, score
      L1  H     3    18       P1  8028  1.00
      L1  H    10    23       P1  8028  0.88
      L1  H    14    29       P1  7957  0.91
      L1  C     9    22       P1  8029  1.00

> <Gold.PLP.Chemscore.Internal.Correction>
1.1440

> <Gold.Rescore>
     Score         DG    S(hbond)    S(metal)    S(lipo)     H(rot)  DE(clash)    DE(int)     intcor
     15.95     -20.63       2.91        0.00      96.94       2.31       0.13       4.56       ----

> <Gold.Chemscore.Fitness>
15.9487

> <Gold.Chemscore.DG>
-20.6331

> <Gold.Chemscore.ZeroCoef>
-5.4800

> <Gold.Chemscore.Hbond>
2.9114

> <Gold.Chemscore.Metal>
0.0000

> <Gold.Chemscore.Lipo>
96.9369

> <Gold.Chemscore.Internal_Hbond>
0.0000

> <Gold.Chemscore.DEClash>
0.1274

> <Gold.Chemscore.DEInternal>
4.5570

> <Gold.Chemscore.Rot>
2.3097

> <Gold.Chemscore.Internal.Correction>
   9.000000E+99

> <Gold.Chemscore.Hbonds>
donor molecule, donor type, donor heavy atom, donor atom, acceptor molecule, acceptor atom, score
      L1  H     3    18       P1  8028  0.80
      L1  H    10    23       P1  8028  0.87
      L1  H    14    29       P1  7957  0.79

> <Gold.Chemscore.Hbond.Weighted>
-9.7242

> <Gold.Chemscore.Metal.Weighted>
-0.0000

> <Gold.Chemscore.Lipo.Weighted>
-11.3416

> <Gold.Chemscore.Internal_Hbond.Weighted>
0.0000

> <Gold.Chemscore.DEClash.Weighted>
0.1274

> <Gold.Chemscore.DEInternal.Weighted>
4.5570

> <Gold.Chemscore.Rot.Weighted>
5.9127

> <Gold.Chemscore.Internal.Correction.Weighted>
   9.000000E+99

> <Gold.Protein.RotatedTorsions>
[ 6907 6896 6895 6894 ] final  -93.13 input  -60.11 | X-H torsion
[ 7974 7965 7964 7962 ] final   28.93 input  175.53 | X-H torsion
[ 8008 7997 7996 7995 ] final  163.57 input   59.86 | X-H torsion
[ 10167 10162 10161 10158 ] final -128.76 input  -65.29 | X-H torsion
[ 10718 10713 10712 10709 ] final  -99.72 input   66.30 | X-H torsion
[ 10763 10752 10751 10750 ] final   95.20 input  -60.55 | X-H torsion
[ 11005 11000 10999 10996 ] final  139.27 input  -57.11 | X-H torsion

> <Gold.Protein.ActiveResidues>
 VAL166  LYS551  ARG553  GLY616  TRP617  ASP618  TYR619  PRO620  LYS621  CYS622 
 ASP623  PHE694  ASN695  SER759  ASP760  ASP761  ALA762  ILE779  LEU786  VAL792 
 PHE793  MET794  SER795  GLU796  ALA797  LYS798  CYS799  TRP800  GLU811  SER814 

> <Gold.Protein.RotatedAtoms>
  150.6917  134.2015  159.4323 H   0  0  0  0  0  0  0  0  0  0  0  0  # atno 6907 bound_to 6896
  151.9981  134.9940  160.0573 H   0  0  0  0  0  0  0  0  0  0  0  0  # atno 6908 bound_to 6896
  152.1604  133.4543  159.4895 H   0  0  0  0  0  0  0  0  0  0  0  0  # atno 6909 bound_to 6896
  146.1700  139.6989  142.8974 H   0  0  0  0  0  0  0  0  0  0  0  0  # atno 7974 bound_to 7965
  156.1947  140.1720  156.8022 H   0  0  0  0  0  0  0  0  0  0  0  0  # atno 8008 bound_to 7997
  154.5515  140.0717  156.8706 H   0  0  0  0  0  0  0  0  0  0  0  0  # atno 8009 bound_to 7997
  155.3020  140.3362  155.4249 H   0  0  0  0  0  0  0  0  0  0  0  0  # atno 8010 bound_to 7997
  139.9469  143.6099  152.2487 H   0  0  0  0  0  0  0  0  0  0  0  0  # atno 10167 bound_to 10162
  156.0142  130.5295  150.6711 H   0  0  0  0  0  0  0  0  0  0  0  0  # atno 10718 bound_to 10713
  153.2504  135.4262  155.0792 H   0  0  0  0  0  0  0  0  0  0  0  0  # atno 10763 bound_to 10752
  154.8379  135.3424  154.6520 H   0  0  0  0  0  0  0  0  0  0  0  0  # atno 10764 bound_to 10752
  153.6942  135.7032  153.5138 H   0  0  0  0  0  0  0  0  0  0  0  0  # atno 10765 bound_to 10752
  140.0242  134.9382  157.0536 H   0  0  0  0  0  0  0  0  0  0  0  0  # atno 11005 bound_to 11000
  145.4364  141.0419  143.2882 LP  0  0  0  0  0  0  0  0  0  0  0  0  # atno 17320 bound_to 7965
  144.8149  139.5894  143.7013 LP  0  0  0  0  0  0  0  0  0  0  0  0  # atno 17321 bound_to 7965
  139.6659  144.7662  151.1874 LP  0  0  0  0  0  0  0  0  0  0  0  0  # atno 17342 bound_to 10162
  140.7594  143.5938  150.8768 LP  0  0  0  0  0  0  0  0  0  0  0  0  # atno 17343 bound_to 10162
  157.4433  131.0864  151.0921 LP  0  0  0  0  0  0  0  0  0  0  0  0  # atno 17370 bound_to 10713
  157.1458  130.6163  149.5568 LP  0  0  0  0  0  0  0  0  0  0  0  0  # atno 17371 bound_to 10713
  140.4334  134.1756  155.7169 LP  0  0  0  0  0  0  0  0  0  0  0  0  # atno 17394 bound_to 11000
  141.1793  133.8448  157.1315 LP  0  0  0  0  0  0  0  0  0  0  0  0  # atno 17395 bound_to 11000

$$$$
