AV-unprocessed.smi:1033|AV-procd|sdf|4494|dock9
  -GOLD-   22720 2483D 1   1.00000     0.00000
 Structure written by MMmdl.
 56 58  0  0  0  0  0  0  0  0  2 V2000
  153.4438  142.1833  161.5741 C   0  0  0  0  0  0  0  0  0  0  0  0
  152.7759  142.1180  160.2118 C   0  0  0  0  0  0  0  0  0  0  0  0
  152.9833  140.9814  159.3990 C   0  0  0  0  0  0  0  0  0  0  0  0
  152.3663  140.8736  158.1337 C   0  0  0  0  0  0  0  0  0  0  0  0
  152.4041  139.8519  157.2017 N   0  0  0  0  0  0  0  0  0  0  0  0
  151.5944  140.3207  156.2570 C   0  0  0  0  0  0  0  0  0  0  0  0
  151.0277  141.5235  156.4710 N   0  0  0  0  0  0  0  0  0  0  0  0
  150.0836  142.2036  155.6022 C   0  0  0  0  0  0  0  0  0  0  0  0
  149.1331  141.2213  154.8851 C   0  0  2  0  0  0  0  0  0  0  0  0
  149.2339  141.4734  153.4991 O   0  0  0  0  0  0  0  0  0  0  0  0
  147.6491  141.3763  155.3007 C   0  0  0  0  0  0  0  0  0  0  0  0
  147.2465  140.6446  156.5085 N   0  0  0  0  0  0  0  0  0  0  0  0
  148.0902  140.8909  157.6803 C   0  0  0  0  0  0  0  0  0  0  0  0
  147.9382  142.3090  158.2678 C   0  0  0  0  0  0  0  0  0  0  0  0
  146.5196  142.6254  158.5830 N   0  3  0  0  0  0  0  0  0  0  0  0
  146.3231  144.0138  159.0779 C   0  0  0  0  0  0  0  0  0  0  0  0
  147.2394  144.3951  160.2586 C   0  0  2  0  0  0  0  0  0  0  0  0
  146.5634  144.2251  161.6270 C   0  0  0  0  0  0  0  0  0  0  0  0
  147.5998  145.7524  160.1130 O   0  0  0  0  0  0  0  0  0  0  0  0
  145.6370  142.3388  157.4212 C   0  0  0  0  0  0  0  0  0  0  0  0
  145.8604  140.9078  156.8903 C   0  0  0  0  0  0  0  0  0  0  0  0
  151.5300  141.9437  157.6986 C   0  0  0  0  0  0  0  0  0  0  0  0
  151.3339  143.0898  158.4900 C   0  0  0  0  0  0  0  0  0  0  0  0
  151.9523  143.1777  159.7545 C   0  0  0  0  0  0  0  0  0  0  0  0
  151.7166  144.4094  160.6103 C   0  0  0  0  0  0  0  0  0  0  0  0
  154.0224  141.2817  161.7781 H   0  0  0  0  0  0  0  0  0  0  0  0
  152.6973  142.2859  162.3621 H   0  0  0  0  0  0  0  0  0  0  0  0
  154.1225  143.0351  161.6258 H   0  0  0  0  0  0  0  0  0  0  0  0
  153.6123  140.1746  159.7456 H   0  0  0  0  0  0  0  0  0  0  0  0
  151.3851  139.7483  155.3649 H   0  0  0  0  0  0  0  0  0  0  0  0
  149.5183  142.9273  156.1908 H   0  0  0  0  0  0  0  0  0  0  0  0
  150.6561  142.7768  154.8711 H   0  0  0  0  0  0  0  0  0  0  0  0
  149.4874  140.2039  155.0490 H   0  0  0  0  0  0  0  0  0  0  0  0
  149.2583  140.6451  153.0441 H   0  0  0  0  0  0  0  0  0  0  0  0
  147.4153  142.4307  155.4244 H   0  0  0  0  0  0  0  0  0  0  0  0
  147.0208  141.0618  154.4658 H   0  0  0  0  0  0  0  0  0  0  0  0
  147.8361  140.1650  158.4540 H   0  0  0  0  0  0  0  0  0  0  0  0
  149.1376  140.7068  157.4443 H   0  0  0  0  0  0  0  0  0  0  0  0
  148.5492  142.3743  159.1669 H   0  0  0  0  0  0  0  0  0  0  0  0
  148.3188  143.0545  157.5783 H   0  0  0  0  0  0  0  0  0  0  0  0
  146.4757  144.7085  158.2496 H   0  0  0  0  0  0  0  0  0  0  0  0
  145.2838  144.1324  159.3894 H   0  0  0  0  0  0  0  0  0  0  0  0
  148.1662  143.8230  160.2324 H   0  0  0  0  0  0  0  0  0  0  0  0
  146.3014  143.1832  161.8123 H   0  0  0  0  0  0  0  0  0  0  0  0
  145.6495  144.8162  161.6965 H   0  0  0  0  0  0  0  0  0  0  0  0
  147.2256  144.5423  162.4331 H   0  0  0  0  0  0  0  0  0  0  0  0
  147.9200  145.8903  159.2342 H   0  0  0  0  0  0  0  0  0  0  0  0
  144.5956  142.4508  157.7244 H   0  0  0  0  0  0  0  0  0  0  0  0
  145.8106  143.0730  156.6332 H   0  0  0  0  0  0  0  0  0  0  0  0
  145.2015  140.7223  156.0410 H   0  0  0  0  0  0  0  0  0  0  0  0
  145.5602  140.1935  157.6583 H   0  0  0  0  0  0  0  0  0  0  0  0
  150.6948  143.8850  158.1355 H   0  0  0  0  0  0  0  0  0  0  0  0
  151.0732  145.1292  160.1032 H   0  0  0  0  0  0  0  0  0  0  0  0
  152.6613  144.9057  160.8334 H   0  0  0  0  0  0  0  0  0  0  0  0
  151.2370  144.1360  161.5507 H   0  0  0  0  0  0  0  0  0  0  0  0
  146.2348  141.9994  159.3227 H   0  0  0  0  0  0  0  0  0  0  0  0
  1  2  1  0  0  0  0
  1 26  1  0  0  0  0
  1 27  1  0  0  0  0
  1 28  1  0  0  0  0
  2 24  1  0  0  0  0
  2  3  2  0  0  0  0
  3  4  1  0  0  0  0
  3 29  1  0  0  0  0
  4 22  2  0  0  0  0
  4  5  1  0  0  0  0
  5  6  2  0  0  0  0
  6  7  1  0  0  0  0
  6 30  1  0  0  0  0
  7  8  1  0  0  0  0
  7 22  1  0  0  0  0
  8  9  1  0  0  0  0
  8 31  1  0  0  0  0
  8 32  1  0  0  0  0
  9 10  1  0  0  0  0
  9 11  1  0  0  0  0
  9 33  1  0  0  0  0
 10 34  1  0  0  0  0
 11 12  1  0  0  0  0
 11 35  1  0  0  0  0
 11 36  1  0  0  0  0
 12 21  1  0  0  0  0
 12 13  1  0  0  0  0
 13 14  1  0  0  0  0
 13 37  1  0  0  0  0
 13 38  1  0  0  0  0
 14 15  1  0  0  0  0
 14 39  1  0  0  0  0
 14 40  1  0  0  0  0
 15 16  1  0  0  0  0
 15 20  1  0  0  0  0
 15 56  1  0  0  0  0
 16 17  1  0  0  0  0
 16 41  1  0  0  0  0
 16 42  1  0  0  0  0
 17 18  1  0  0  0  0
 17 19  1  0  0  0  0
 17 43  1  0  0  0  0
 18 44  1  0  0  0  0
 18 45  1  0  0  0  0
 18 46  1  0  0  0  0
 19 47  1  0  0  0  0
 20 21  1  0  0  0  0
 20 48  1  0  0  0  0
 20 49  1  0  0  0  0
 21 50  1  0  0  0  0
 21 51  1  0  0  0  0
 22 23  1  0  0  0  0
 23 24  2  0  0  0  0
 23 52  1  0  0  0  0
 24 25  1  0  0  0  0
 25 53  1  0  0  0  0
 25 54  1  0  0  0  0
 25 55  1  0  0  0  0
M  CHG  1  15   1
M  END
> <s_m_source_file>
AV-unprocessed.smi

> <i_m_source_file_index>
1033

> <i_lp_mmshare_version>
43012

> <i_f3d_flags>
0

> <s_epik_input>
W0NIM11jKFtjSF0xKWMoW0NIM10pW2NIXWMoYzEyKW4oW2NIXW4yKVtDSDJdW0NASF0oW09IXSlbQ0gyXU4zW0NIMl1bQ0gyXU4oW0NIMl1bQ0gyXTMpW0NIMl1bQ0BIXShbQ0gzXSlbT0hd

> <s_epik_cmdline>
J2VwaWtfcHl0aG9uJywgJy1waCcsICc3LjAnLCAnLXRuJywgJzgnLCAnLW1hJywgJzIwMCcsICctbWV0YWxfYmluZGluZycsICctaW1hZScsICc8aW5maWxlLm1hZT4nLCAnLW9tYWUnLCAnPG91dGZpbGUubWFlPic=

> <r_epik_Ionization_Penalty>
0.129152

> <r_epik_Ionization_Penalty_Charging>
0.00083231

> <r_epik_Ionization_Penalty_Neutral>
0.128319

> <r_epik_State_Penalty>
0.556973

> <r_epik_Charging_Adjusted_Penalty>
0.557805

> <i_epik_Tot_Q>
1

> <i_epik_Tot_abs_Q>
1

> <r_epik_Metal_State_Penalty>
0.490047

> <b_epik_Metal_Only>
0

> <s_lp_Force_Field>
OPLS_2005

> <r_lp_Energy>
33.6507

> <b_lp_Chiralities_Consistent>
1

> <s_lp_Variant>
AV-unprocessed.smi:1033-5

> <Gold.Version>
5.8.1

> <Gold.Id.Protein>
6NUR|6NUR_protein|mol2

> <Gold.PLP.Fitness>
53.8837

> <Gold.PLP.PLP>
-46.8646

> <Gold.PLP.part.hbond>
-5.1605

> <Gold.PLP.part.metal>
0.0000

> <Gold.PLP.part.buried>
-4.0037

> <Gold.PLP.part.nonpolar>
-36.7032

> <Gold.PLP.part.repulsive>
0.1375

> <Gold.PLP.ligand.clash>
0.0000

> <Gold.PLP.ligand.torsion>
1.8828

> <Gold.PLP.Chemscore.Hbond>
3.5680

> <Gold.PLP.Chemscore.CHOScore>
0.0000

> <Gold.PLP.Chemscore.Metal>
0.0000

> <Gold.Chemscore.Hbonds>
donor molecule, donor type, donor heavy atom, donor atom, acceptor molecule, acceptor atom, score
      L1  H    10    34       P1  7957  0.70
      L1  H    19    47       P1  8029  1.00
      P1  H  7997  8010       L1     5  0.82
      P1  H  8011  8017       L1    10  0.82

> <Gold.PLP.Chemscore.Internal.Correction>
0.0807

> <Gold.Rescore>
     Score         DG    S(hbond)    S(metal)    S(lipo)     H(rot)  DE(clash)    DE(int)     intcor
     17.67     -20.53       2.90        0.00     112.88       3.07       1.11       1.75       ----

> <Gold.Chemscore.Fitness>
17.6733

> <Gold.Chemscore.DG>
-20.5343

> <Gold.Chemscore.ZeroCoef>
-5.4800

> <Gold.Chemscore.Hbond>
2.9025

> <Gold.Chemscore.Metal>
0.0000

> <Gold.Chemscore.Lipo>
112.8764

> <Gold.Chemscore.Internal_Hbond>
0.0000

> <Gold.Chemscore.DEClash>
1.1073

> <Gold.Chemscore.DEInternal>
1.7538

> <Gold.Chemscore.Rot>
3.0650

> <Gold.Chemscore.Internal.Correction>
   9.000000E+99

> <Gold.Chemscore.Hbonds>
donor molecule, donor type, donor heavy atom, donor atom, acceptor molecule, acceptor atom, score
      L1  H    10    34       P1  7957  0.67
      L1  H    19    47       P1  8029  0.98
      P1  H  7997  8010       L1     5  0.11
      P1  H  8011  8017       L1    10  0.18

> <Gold.Chemscore.Hbond.Weighted>
-9.6943

> <Gold.Chemscore.Metal.Weighted>
-0.0000

> <Gold.Chemscore.Lipo.Weighted>
-13.2065

> <Gold.Chemscore.Internal_Hbond.Weighted>
0.0000

> <Gold.Chemscore.DEClash.Weighted>
1.1073

> <Gold.Chemscore.DEInternal.Weighted>
1.7538

> <Gold.Chemscore.Rot.Weighted>
7.8465

> <Gold.Chemscore.Internal.Correction.Weighted>
   9.000000E+99

> <Gold.Protein.RotatedTorsions>
[ 6907 6896 6895 6894 ] final -110.15 input  -60.11 | X-H torsion
[ 7974 7965 7964 7962 ] final  165.90 input  175.53 | X-H torsion
[ 8008 7997 7996 7995 ] final   63.42 input   59.86 | X-H torsion
[ 10167 10162 10161 10158 ] final   89.63 input  -65.29 | X-H torsion
[ 10718 10713 10712 10709 ] final  -12.82 input   66.30 | X-H torsion
[ 10763 10752 10751 10750 ] final  -98.45 input  -60.55 | X-H torsion
[ 11005 11000 10999 10996 ] final -134.63 input  -57.11 | X-H torsion

> <Gold.Protein.ActiveResidues>
 VAL166  LYS551  ARG553  GLY616  TRP617  ASP618  TYR619  PRO620  LYS621  CYS622 
 ASP623  PHE694  ASN695  SER759  ASP760  ASP761  ALA762  ILE779  LEU786  VAL792 
 PHE793  MET794  SER795  GLU796  ALA797  LYS798  CYS799  TRP800  GLU811  SER814 

> <Gold.Protein.RotatedAtoms>
  150.7607  133.9424  159.3460 H   0  0  0  0  0  0  0  0  0  0  0  0  # atno 6907 bound_to 6896
  151.7333  135.0868  160.0313 H   0  0  0  0  0  0  0  0  0  0  0  0  # atno 6908 bound_to 6896
  152.3575  133.6218  159.6026 H   0  0  0  0  0  0  0  0  0  0  0  0  # atno 6909 bound_to 6896
  144.7484  139.8538  143.6374 H   0  0  0  0  0  0  0  0  0  0  0  0  # atno 7974 bound_to 7965
  155.6300  140.3496  155.4680 H   0  0  0  0  0  0  0  0  0  0  0  0  # atno 8008 bound_to 7997
  156.0011  140.1213  157.0570 H   0  0  0  0  0  0  0  0  0  0  0  0  # atno 8009 bound_to 7997
  154.4249  140.1100  156.5684 H   0  0  0  0  0  0  0  0  0  0  0  0  # atno 8010 bound_to 7997
  139.8553  144.6572  150.9121 H   0  0  0  0  0  0  0  0  0  0  0  0  # atno 10167 bound_to 10162
  156.6391  130.4923  149.6101 H   0  0  0  0  0  0  0  0  0  0  0  0  # atno 10718 bound_to 10713
  154.7415  135.5009  153.9131 H   0  0  0  0  0  0  0  0  0  0  0  0  # atno 10763 bound_to 10752
  153.1048  135.6694  153.9614 H   0  0  0  0  0  0  0  0  0  0  0  0  # atno 10764 bound_to 10752
  153.9390  135.3070  155.3422 H   0  0  0  0  0  0  0  0  0  0  0  0  # atno 10765 bound_to 10752
  140.8972  134.1736  157.4486 H   0  0  0  0  0  0  0  0  0  0  0  0  # atno 11005 bound_to 11000
  146.1397  139.4451  143.0116 LP  0  0  0  0  0  0  0  0  0  0  0  0  # atno 17320 bound_to 7965
  145.7037  141.0128  143.1491 LP  0  0  0  0  0  0  0  0  0  0  0  0  # atno 17321 bound_to 7965
  140.7782  143.3791  151.1509 LP  0  0  0  0  0  0  0  0  0  0  0  0  # atno 17342 bound_to 10162
  139.7425  143.8902  152.3054 LP  0  0  0  0  0  0  0  0  0  0  0  0  # atno 17343 bound_to 10162
  156.2173  130.6716  151.1332 LP  0  0  0  0  0  0  0  0  0  0  0  0  # atno 17370 bound_to 10713
  157.7177  131.0700  150.6263 LP  0  0  0  0  0  0  0  0  0  0  0  0  # atno 17371 bound_to 10713
  139.8737  134.9883  156.5407 LP  0  0  0  0  0  0  0  0  0  0  0  0  # atno 17394 bound_to 11000
  140.8274  133.8305  155.8952 LP  0  0  0  0  0  0  0  0  0  0  0  0  # atno 17395 bound_to 11000

$$$$
