AV-unprocessed.smi:227|AV-procd|sdf|1730|dock6
  -GOLD-   2262020223D 1   1.00000     0.00000
 Structure written by MMmdl.
 54 58  0  0  0  0  0  0  0  0  1 V2000
  149.0873  142.0741  156.2487 O   0  0  0  0  0  0  0  0  0  0  0  0
  150.4073  141.5933  156.0973 C   0  0  0  0  0  0  0  0  0  0  0  0
  150.8757  140.8184  157.3536 C   0  0  1  0  0  0  0  0  0  0  0  0
  151.1828  139.3289  157.0584 C   0  0  0  0  0  0  0  0  0  0  0  0
  150.5714  138.4208  158.0132 N   0  0  0  0  0  0  0  0  0  0  0  0
  151.2272  137.6410  158.9362 C   0  0  0  0  0  0  0  0  0  0  0  0
  150.4549  136.9084  159.6901 N   0  0  0  0  0  0  0  0  0  0  0  0
  149.1657  137.2025  159.2583 C   0  0  0  0  0  0  0  0  0  0  0  0
  147.8585  136.7748  159.6383 C   0  0  0  0  0  0  0  0  0  0  0  0
  147.5966  135.8818  160.6333 N   0  0  0  0  0  0  0  0  0  0  0  0
  147.8886  136.1977  162.0225 C   0  0  1  0  0  0  0  0  0  0  0  0
  146.7932  137.2088  162.4144 C   0  0  0  0  0  0  0  0  0  0  0  0
  145.5988  136.6869  161.5998 C   0  0  0  0  0  0  0  0  0  0  0  0
  146.2248  135.4634  160.8961 C   0  0  2  0  0  0  0  0  0  0  0  0
  146.3994  134.3305  161.9288 C   0  0  1  0  0  0  0  0  0  0  0  0
  146.6369  132.9596  161.2706 C   0  0  0  0  0  0  0  0  0  0  0  0
  147.7183  133.0322  160.3658 O   0  0  0  0  0  0  0  0  0  0  0  0
  147.6136  134.8562  162.7223 C   0  0  0  0  0  0  0  0  0  0  0  0
  146.8120  137.2830  158.9342 N   0  0  0  0  0  0  0  0  0  0  0  0
  147.0151  138.1625  157.9502 C   0  0  0  0  0  0  0  0  0  0  0  0
  148.1683  138.6602  157.5038 N   0  0  0  0  0  0  0  0  0  0  0  0
  149.2269  138.1449  158.1905 C   0  0  0  0  0  0  0  0  0  0  0  0
  152.0621  141.5172  158.0644 C   0  0  2  0  0  0  0  0  0  0  0  0
  152.4199  140.9428  159.4238 C   0  0  0  0  0  0  0  0  0  0  0  0
  153.2404  142.0695  160.0405 C   0  0  0  0  0  0  0  0  0  0  0  0
  152.6741  143.2731  159.5357 O   0  0  0  0  0  0  0  0  0  0  0  0
  151.8143  142.9831  158.4375 C   0  0  0  0  0  0  0  0  0  0  0  0
  149.0800  142.9995  156.0570 H   0  0  0  0  0  0  0  0  0  0  0  0
  150.4464  140.9585  155.2123 H   0  0  0  0  0  0  0  0  0  0  0  0
  151.0655  142.4365  155.8877 H   0  0  0  0  0  0  0  0  0  0  0  0
  150.0347  140.8318  158.0489 H   0  0  0  0  0  0  0  0  0  0  0  0
  150.8454  139.0636  156.0558 H   0  0  0  0  0  0  0  0  0  0  0  0
  152.2574  139.1474  157.0773 H   0  0  0  0  0  0  0  0  0  0  0  0
  152.3030  137.6365  159.0353 H   0  0  0  0  0  0  0  0  0  0  0  0
  148.8965  136.5531  162.2268 H   0  0  0  0  0  0  0  0  0  0  0  0
  146.6009  137.2252  163.4877 H   0  0  0  0  0  0  0  0  0  0  0  0
  147.0612  138.2189  162.1015 H   0  0  0  0  0  0  0  0  0  0  0  0
  144.7412  136.4270  162.2211 H   0  0  0  0  0  0  0  0  0  0  0  0
  145.2733  137.4344  160.8751 H   0  0  0  0  0  0  0  0  0  0  0  0
  145.6627  135.1434  160.0177 H   0  0  0  0  0  0  0  0  0  0  0  0
  145.5159  134.2638  162.5658 H   0  0  0  0  0  0  0  0  0  0  0  0
  146.8736  132.2130  162.0292 H   0  0  0  0  0  0  0  0  0  0  0  0
  145.7459  132.6134  160.7454 H   0  0  0  0  0  0  0  0  0  0  0  0
  147.5287  133.7002  159.7246 H   0  0  0  0  0  0  0  0  0  0  0  0
  148.4740  134.1933  162.6210 H   0  0  0  0  0  0  0  0  0  0  0  0
  147.4047  134.9718  163.7864 H   0  0  0  0  0  0  0  0  0  0  0  0
  146.1267  138.5175  157.4489 H   0  0  0  0  0  0  0  0  0  0  0  0
  152.9485  141.4662  157.4300 H   0  0  0  0  0  0  0  0  0  0  0  0
  151.5198  140.7678  160.0151 H   0  0  0  0  0  0  0  0  0  0  0  0
  152.9786  140.0082  159.3648 H   0  0  0  0  0  0  0  0  0  0  0  0
  153.2293  142.0479  161.1304 H   0  0  0  0  0  0  0  0  0  0  0  0
  154.2782  142.0084  159.7100 H   0  0  0  0  0  0  0  0  0  0  0  0
  152.0034  143.6611  157.6048 H   0  0  0  0  0  0  0  0  0  0  0  0
  150.7844  143.1317  158.7648 H   0  0  0  0  0  0  0  0  0  0  0  0
  1  2  1  0  0  0  0
  1 28  1  0  0  0  0
  2  3  1  0  0  0  0
  2 29  1  0  0  0  0
  2 30  1  0  0  0  0
  3  4  1  0  0  0  0
  3 23  1  0  0  0  0
  3 31  1  0  0  0  0
  4  5  1  0  0  0  0
  4 32  1  0  0  0  0
  4 33  1  0  0  0  0
  5 22  1  0  0  0  0
  5  6  1  0  0  0  0
  6  7  2  0  0  0  0
  6 34  1  0  0  0  0
  7  8  1  0  0  0  0
  8 22  2  0  0  0  0
  8  9  1  0  0  0  0
  9 10  1  0  0  0  0
  9 19  2  0  0  0  0
 10 14  1  0  0  0  0
 10 11  1  0  0  0  0
 11 18  1  0  0  0  0
 11 12  1  0  0  0  0
 11 35  1  0  0  0  0
 12 13  1  0  0  0  0
 12 36  1  0  0  0  0
 12 37  1  0  0  0  0
 13 14  1  0  0  0  0
 13 38  1  0  0  0  0
 13 39  1  0  0  0  0
 14 15  1  0  0  0  0
 14 40  1  0  0  0  0
 15 16  1  0  0  0  0
 15 18  1  0  0  0  0
 15 41  1  0  0  0  0
 16 17  1  0  0  0  0
 16 42  1  0  0  0  0
 16 43  1  0  0  0  0
 17 44  1  0  0  0  0
 18 45  1  0  0  0  0
 18 46  1  0  0  0  0
 19 20  1  0  0  0  0
 20 21  2  0  0  0  0
 20 47  1  0  0  0  0
 21 22  1  0  0  0  0
 23 27  1  0  0  0  0
 23 24  1  0  0  0  0
 23 48  1  0  0  0  0
 24 25  1  0  0  0  0
 24 49  1  0  0  0  0
 24 50  1  0  0  0  0
 25 26  1  0  0  0  0
 25 51  1  0  0  0  0
 25 52  1  0  0  0  0
 26 27  1  0  0  0  0
 27 53  1  0  0  0  0
 27 54  1  0  0  0  0
M  END
> <s_m_source_file>
AV-unprocessed.smi

> <i_m_source_file_index>
227

> <i_lp_mmshare_version>
43012

> <i_f3d_flags>
0

> <s_epik_input>
W0NIMl0xT1tDSDJdW0NIMl1bQ0BIXTFbQ0BIXShbQ0gyXVtPSF0pW0NIMl1uKFtjSF1uMiljKGMyMyluW2NIXW5jM04oW0NASF00NSlbQ0BASF0oW0NIMl1bQ0gyXTQpW0NASF0oW0NIMl01KVtDSDJdW09IXQ==

> <s_epik_cmdline>
J2VwaWtfcHl0aG9uJywgJy1waCcsICc3LjAnLCAnLXRuJywgJzgnLCAnLW1hJywgJzIwMCcsICctbWV0YWxfYmluZGluZycsICctaW1hZScsICc8aW5maWxlLm1hZT4nLCAnLW9tYWUnLCAnPG91dGZpbGUubWFlPic=

> <r_lp_tautomer_probability>
1

> <r_epik_Ionization_Penalty>
0.0055791

> <r_epik_Ionization_Penalty_Charging>
0

> <r_epik_Ionization_Penalty_Neutral>
0.0055791

> <r_epik_State_Penalty>
0.00401299

> <r_epik_Charging_Adjusted_Penalty>
0.00401299

> <i_epik_Tot_Q>
0

> <i_epik_Tot_abs_Q>
0

> <r_epik_Metal_State_Penalty>
-0

> <b_epik_Metal_Only>
0

> <s_lp_Force_Field>
OPLS_2005

> <r_lp_Energy>
89.0098

> <b_lp_Chiralities_Consistent>
1

> <s_lp_Variant>
AV-unprocessed.smi:227-4

> <Gold.Version>
5.8.1

> <Gold.Id.Protein>
6NUR|6NUR_protein|mol2

> <Gold.PLP.Fitness>
49.0486

> <Gold.PLP.PLP>
-45.8755

> <Gold.PLP.part.hbond>
-2.4818

> <Gold.PLP.part.metal>
0.0000

> <Gold.PLP.part.buried>
-5.7177

> <Gold.PLP.part.nonpolar>
-36.9645

> <Gold.PLP.part.repulsive>
0.0000

> <Gold.PLP.ligand.clash>
0.0000

> <Gold.PLP.ligand.torsion>
1.5108

> <Gold.PLP.Chemscore.Hbond>
2.0000

> <Gold.PLP.Chemscore.CHOScore>
0.0000

> <Gold.PLP.Chemscore.Metal>
0.0000

> <Gold.Chemscore.Hbonds>
donor molecule, donor type, donor heavy atom, donor atom, acceptor molecule, acceptor atom, score
      L1  H     1    28       P1  8028  1.00
      P1  H  6896  6907       L1     7  1.00

> <Gold.PLP.Chemscore.Internal.Correction>
0.1946

> <Gold.Rescore>
     Score         DG    S(hbond)    S(metal)    S(lipo)     H(rot)  DE(clash)    DE(int)     intcor
     12.98     -15.41       1.85        0.00     110.90       3.61       0.00       2.43       ----

> <Gold.Chemscore.Fitness>
12.9825

> <Gold.Chemscore.DG>
-15.4120

> <Gold.Chemscore.ZeroCoef>
-5.4800

> <Gold.Chemscore.Hbond>
1.8536

> <Gold.Chemscore.Metal>
0.0000

> <Gold.Chemscore.Lipo>
110.8982

> <Gold.Chemscore.Internal_Hbond>
0.0000

> <Gold.Chemscore.DEClash>
0.0000

> <Gold.Chemscore.DEInternal>
2.4295

> <Gold.Chemscore.Rot>
3.6071

> <Gold.Chemscore.Internal.Correction>
   9.000000E+99

> <Gold.Chemscore.Hbonds>
donor molecule, donor type, donor heavy atom, donor atom, acceptor molecule, acceptor atom, score
      L1  H     1    28       P1  8028  1.00
      P1  H  6896  6907       L1     7  0.81

> <Gold.Chemscore.Hbond.Weighted>
-6.1911

> <Gold.Chemscore.Metal.Weighted>
-0.0000

> <Gold.Chemscore.Lipo.Weighted>
-12.9751

> <Gold.Chemscore.Internal_Hbond.Weighted>
0.0000

> <Gold.Chemscore.DEClash.Weighted>
0.0000

> <Gold.Chemscore.DEInternal.Weighted>
2.4295

> <Gold.Chemscore.Rot.Weighted>
9.2342

> <Gold.Chemscore.Internal.Correction.Weighted>
   9.000000E+99

> <Gold.Protein.RotatedTorsions>
[ 6907 6896 6895 6894 ] final  -26.59 input  -60.11 | X-H torsion
[ 7974 7965 7964 7962 ] final    8.06 input  175.53 | X-H torsion
[ 8008 7997 7996 7995 ] final   85.70 input   59.86 | X-H torsion
[ 10167 10162 10161 10158 ] final  -56.85 input  -65.29 | X-H torsion
[ 10718 10713 10712 10709 ] final  -62.08 input   66.30 | X-H torsion
[ 10763 10752 10751 10750 ] final   35.83 input  -60.55 | X-H torsion
[ 11005 11000 10999 10996 ] final  -64.88 input  -57.11 | X-H torsion

> <Gold.Protein.ActiveResidues>
 VAL166  LYS551  ARG553  GLY616  TRP617  ASP618  TYR619  PRO620  LYS621  CYS622 
 ASP623  PHE694  ASN695  SER759  ASP760  ASP761  ALA762  ILE779  LEU786  VAL792 
 PHE793  MET794  SER795  GLU796  ALA797  LYS798  CYS799  TRP800  GLU811  SER814 

> <Gold.Protein.RotatedAtoms>
  151.1588  135.0263  159.8700 H   0  0  0  0  0  0  0  0  0  0  0  0  # atno 6907 bound_to 6896
  152.5452  134.1303  159.8446 H   0  0  0  0  0  0  0  0  0  0  0  0  # atno 6908 bound_to 6896
  151.1396  133.4934  159.2630 H   0  0  0  0  0  0  0  0  0  0  0  0  # atno 6909 bound_to 6896
  146.2420  139.9990  142.8418 H   0  0  0  0  0  0  0  0  0  0  0  0  # atno 7974 bound_to 7965
  155.9533  140.3399  155.6427 H   0  0  0  0  0  0  0  0  0  0  0  0  # atno 8008 bound_to 7997
  155.6891  140.0747  157.2473 H   0  0  0  0  0  0  0  0  0  0  0  0  # atno 8009 bound_to 7997
  154.4127  140.1660  156.2054 H   0  0  0  0  0  0  0  0  0  0  0  0  # atno 8010 bound_to 7997
  140.6293  143.2452  151.5283 H   0  0  0  0  0  0  0  0  0  0  0  0  # atno 10167 bound_to 10162
  156.0878  130.4205  150.1085 H   0  0  0  0  0  0  0  0  0  0  0  0  # atno 10718 bound_to 10713
  153.0102  135.6322  154.1889 H   0  0  0  0  0  0  0  0  0  0  0  0  # atno 10763 bound_to 10752
  154.1632  135.2822  155.3104 H   0  0  0  0  0  0  0  0  0  0  0  0  # atno 10764 bound_to 10752
  154.5966  135.5601  153.7392 H   0  0  0  0  0  0  0  0  0  0  0  0  # atno 10765 bound_to 10752
  141.1438  133.6672  156.5900 H   0  0  0  0  0  0  0  0  0  0  0  0  # atno 11005 bound_to 11000
  145.1433  140.9583  143.4476 LP  0  0  0  0  0  0  0  0  0  0  0  0  # atno 17320 bound_to 7965
  145.0275  139.3370  143.6041 LP  0  0  0  0  0  0  0  0  0  0  0  0  # atno 17321 bound_to 7965
  139.5509  144.2399  152.1528 LP  0  0  0  0  0  0  0  0  0  0  0  0  # atno 17342 bound_to 10162
  140.1638  144.5000  150.6617 LP  0  0  0  0  0  0  0  0  0  0  0  0  # atno 17343 bound_to 10162
  156.9102  130.9649  151.3564 LP  0  0  0  0  0  0  0  0  0  0  0  0  # atno 17370 bound_to 10713
  157.6018  130.8518  149.8814 LP  0  0  0  0  0  0  0  0  0  0  0  0  # atno 17371 bound_to 10713
  140.3770  134.7556  157.4636 LP  0  0  0  0  0  0  0  0  0  0  0  0  # atno 17394 bound_to 11000
  140.0667  134.5920  155.8688 LP  0  0  0  0  0  0  0  0  0  0  0  0  # atno 17395 bound_to 11000

$$$$
