#       Name:                AV-unprocessed.smi:3304
#       Creating user name   scv26
#       Creation time:       Fri Mar 27 19:03:08 2020


#       File generated by GOLD software.
#

@<TRIPOS>MOLECULE
AV-unprocessed.smi:3304
    47    48     1
SMALL
NO_CHARGES


@<TRIPOS>ATOM
      1 ****        -3.9042   2.6612   1.7588 C.3            1 S1                 0.0000
      2 ****        -3.5562   3.2265   0.4197 C.2            1 S1                 0.0000
      3 ****        -2.8739   2.6784  -0.6333 C.2            1 S1                 0.0000
      4 ****        -2.2562   1.3123  -0.7558 C.3            1 S1                 0.0000
      5 ****        -0.8939   1.2457  -0.0530 C.3            1 S1                 0.0000
      6 ****        -0.2931  -0.0951  -0.1872 N.4            1 S1                 1.0000
      7 ****         1.0302  -0.2280   0.4545 C.3            1 S1                 0.0000
      8 ****         1.6138  -1.6403   0.2648 C.3            1 S1                 0.0000
      9 ****         2.8652  -1.8416   1.1422 C.3            1 S1                 0.0000
     10 ****         3.4622  -3.2478   0.9690 C.3            1 S1                 0.0000
     11 ****         3.7999  -3.5426  -0.5042 C.3            1 S1                 0.0000
     12 ****         4.3864  -4.9510  -0.6756 C.3            1 S1                 0.0000
     13 ****         2.5554  -3.3384  -1.3878 C.3            1 S1                 0.0000
     14 ****         1.9597  -1.9321  -1.2112 C.3            1 S1                 0.0000
     15 ****        -2.8750   3.7136  -1.6105 C.2            1 S1                 0.0000
     16 ****        -3.4970   4.8048  -1.2019 N.2            1 S1                 0.0000
     17 ****        -3.9165   4.5073   0.0452 N.pl3          1 S1                 0.0000
     18 ****        -4.6498   5.5010   0.8051 C.3            1 S1                 0.0000
     19 ****        -3.5474   1.6364   1.8612 H              1 S1                 0.0000
     20 ****        -4.9841   2.6551   1.9080 H              1 S1                 0.0000
     21 ****        -3.4552   3.2522   2.5573 H              1 S1                 0.0000
     22 ****        -2.9188   0.5541  -0.3368 H              1 S1                 0.0000
     23 ****        -2.1311   1.0458  -1.8060 H              1 S1                 0.0000
     24 ****        -0.2171   1.9861  -0.4815 H              1 S1                 0.0000
     25 ****        -1.0052   1.4838   1.0058 H              1 S1                 0.0000
     26 ****        -0.9194  -0.7724   0.2242 H              1 S1                 0.0000
     27 ****         1.7125   0.5208   0.0492 H              1 S1                 0.0000
     28 ****         0.9175  -0.0133   1.5183 H              1 S1                 0.0000
     29 ****         0.8633  -2.3627   0.5911 H              1 S1                 0.0000
     30 ****         3.6187  -1.0943   0.8899 H              1 S1                 0.0000
     31 ****         2.6151  -1.6830   2.1917 H              1 S1                 0.0000
     32 ****         4.3589  -3.3410   1.5827 H              1 S1                 0.0000
     33 ****         2.7558  -3.9908   1.3419 H              1 S1                 0.0000
     34 ****         4.5607  -2.8291  -0.8247 H              1 S1                 0.0000
     35 ****         3.6735  -5.7180  -0.3715 H              1 S1                 0.0000
     36 ****         5.2874  -5.0768  -0.0746 H              1 S1                 0.0000
     37 ****         4.6554  -5.1405  -1.7151 H              1 S1                 0.0000
     38 ****         2.8133  -3.4960  -2.4357 H              1 S1                 0.0000
     39 ****         1.8004  -4.0863  -1.1411 H              1 S1                 0.0000
     40 ****         1.0704  -1.8406  -1.8353 H              1 S1                 0.0000
     41 ****         2.6699  -1.1896  -1.5780 H              1 S1                 0.0000
     42 ****        -2.4414   3.7044  -2.5997 H              1 S1                 0.0000
     43 ****        -5.6330   5.1100   1.0669 H              1 S1                 0.0000
     44 ****        -4.7780   6.4152   0.2241 H              1 S1                 0.0000
     45 ****        -4.1051   5.7381   1.7191 H              1 S1                 0.0000
     46 ****        -0.1926  -0.3037  -1.1704 H              1 S1                 0.0000
     47 ****        -3.6276   5.6596  -1.7042 LP             1 S1                 0.0000
@<TRIPOS>BOND
    1    1    2 1     
    2    1   19 1     
    3    1   20 1     
    4    1   21 1     
    5    2   17 1     
    6    2    3 2     
    7    3    4 1     
    8    3   15 1     
    9    4    5 1     
   10    4   22 1     
   11    4   23 1     
   12    5    6 1     
   13    5   24 1     
   14    5   25 1     
   15    6    7 1     
   16    6   26 1     
   17    6   46 1     
   18    7    8 1     
   19    7   27 1     
   20    7   28 1     
   21    8   14 1     
   22    8    9 1     
   23    8   29 1     
   24    9   10 1     
   25    9   30 1     
   26    9   31 1     
   27   10   11 1     
   28   10   32 1     
   29   10   33 1     
   30   11   12 1     
   31   11   13 1     
   32   11   34 1     
   33   12   35 1     
   34   12   36 1     
   35   12   37 1     
   36   13   14 1     
   37   13   38 1     
   38   13   39 1     
   39   14   40 1     
   40   14   41 1     
   41   15   16 2     
   42   15   42 1     
   43   16   17 1     
   44   17   18 1     
   45   18   43 1     
   46   18   44 1     
   47   18   45 1     
   48   16   47 1     
@<TRIPOS>SUBSTRUCTURE
      1 S1             1
@<TRIPOS>SET
LONE_PAIRS      STATIC     ATOMS    <user>   **** ""
1 47
DONOR_HYDROGENS      STATIC     ATOMS    <user>   **** ""
2 26 46
ATOM$BLUE        STATIC     ATOMS    COLORGROUP SYSTEM
1 47
ATOM$RED        STATIC     ATOMS    COLORGROUP SYSTEM
2 26 46
