AV-unprocessed.smi:2114|AV-procd|sdf|8617|dock1
  -GOLD-   2272011363D 1   1.00000     0.00000
 Structure written by MMmdl.
 47 48  0  0  0  0  0  0  0  0  1 V2000
  155.0635  140.9559  170.8785 C   0  0  0  0  0  0  0  0  0  0  0  0
  155.6321  141.9527  170.0477 O   0  0  0  0  0  0  0  0  0  0  0  0
  155.2357  141.8220  168.6918 C   0  0  0  0  0  0  0  0  0  0  0  0
  155.6875  143.0626  167.9060 C   0  0  2  0  0  0  0  0  0  0  0  0
  155.1791  144.3585  168.5587 C   0  0  0  0  0  0  0  0  0  0  0  0
  155.2051  142.9684  166.5310 N   0  0  0  0  0  0  0  0  0  0  0  0
  155.5811  142.0418  165.6345 C   0  0  0  0  0  0  0  0  0  0  0  0
  156.3848  141.1423  165.8812 O   0  0  0  0  0  0  0  0  0  0  0  0
  154.9027  142.1226  164.2978 C   0  0  0  0  0  0  0  0  0  0  0  0
  153.9779  143.1454  163.9937 C   0  0  0  0  0  0  0  0  0  0  0  0
  153.3884  143.1789  162.7155 C   0  0  0  0  0  0  0  0  0  0  0  0
  153.7409  142.1914  161.7656 C   0  0  0  0  0  0  0  0  0  0  0  0
  153.1549  142.2015  160.4813 N   0  0  0  0  0  0  0  0  0  0  0  0
  152.4702  140.9912  160.0319 C   0  0  0  0  0  0  0  0  0  0  0  0
  152.1557  141.0785  158.5270 C   0  0  1  0  0  0  0  0  0  0  0  0
  151.3342  139.8804  158.0405 C   0  0  0  0  0  0  0  0  0  0  0  0
  151.4089  142.2654  158.2751 O   0  0  0  0  0  0  0  0  0  0  0  0
  152.1311  143.4456  158.6155 C   0  0  1  0  0  0  0  0  0  0  0  0
  151.2823  144.6589  158.2211 C   0  0  0  0  0  0  0  0  0  0  0  0
  152.4497  143.4290  160.1224 C   0  0  0  0  0  0  0  0  0  0  0  0
  154.6448  141.2228  162.0530 N   0  0  0  0  0  0  0  0  0  0  0  0
  155.2071  141.1941  163.2798 C   0  0  0  0  0  0  0  0  0  0  0  0
  155.3851  141.1105  171.9085 H   0  0  0  0  0  0  0  0  0  0  0  0
  155.3833  139.9589  170.5721 H   0  0  0  0  0  0  0  0  0  0  0  0
  153.9738  140.9970  170.8563 H   0  0  0  0  0  0  0  0  0  0  0  0
  155.6629  140.9174  168.2552 H   0  0  0  0  0  0  0  0  0  0  0  0
  154.1498  141.7268  168.6427 H   0  0  0  0  0  0  0  0  0  0  0  0
  156.7789  143.0825  167.9051 H   0  0  0  0  0  0  0  0  0  0  0  0
  155.5338  144.4440  169.5861 H   0  0  0  0  0  0  0  0  0  0  0  0
  154.0894  144.3917  168.5791 H   0  0  0  0  0  0  0  0  0  0  0  0
  155.5292  145.2388  168.0187 H   0  0  0  0  0  0  0  0  0  0  0  0
  154.5173  143.6500  166.2455 H   0  0  0  0  0  0  0  0  0  0  0  0
  153.7195  143.9026  164.7198 H   0  0  0  0  0  0  0  0  0  0  0  0
  152.6887  143.9655  162.4754 H   0  0  0  0  0  0  0  0  0  0  0  0
  153.0933  140.1158  160.2208 H   0  0  0  0  0  0  0  0  0  0  0  0
  151.5488  140.8661  160.6028 H   0  0  0  0  0  0  0  0  0  0  0  0
  153.0868  141.1137  157.9587 H   0  0  0  0  0  0  0  0  0  0  0  0
  151.8694  138.9448  158.2047 H   0  0  0  0  0  0  0  0  0  0  0  0
  151.1241  139.9605  156.9738 H   0  0  0  0  0  0  0  0  0  0  0  0
  150.3801  139.8171  158.5647 H   0  0  0  0  0  0  0  0  0  0  0  0
  153.0609  143.4732  158.0445 H   0  0  0  0  0  0  0  0  0  0  0  0
  151.7973  145.5909  158.4547 H   0  0  0  0  0  0  0  0  0  0  0  0
  150.3281  144.6618  158.7489 H   0  0  0  0  0  0  0  0  0  0  0  0
  151.0714  144.6551  157.1514 H   0  0  0  0  0  0  0  0  0  0  0  0
  151.5273  143.4833  160.7022 H   0  0  0  0  0  0  0  0  0  0  0  0
  153.0323  144.3148  160.3719 H   0  0  0  0  0  0  0  0  0  0  0  0
  155.9182  140.3983  163.4487 H   0  0  0  0  0  0  0  0  0  0  0  0
  1  2  1  0  0  0  0
  1 23  1  0  0  0  0
  1 24  1  0  0  0  0
  1 25  1  0  0  0  0
  2  3  1  0  0  0  0
  3  4  1  0  0  0  0
  3 26  1  0  0  0  0
  3 27  1  0  0  0  0
  4  5  1  0  0  0  0
  4  6  1  0  0  0  0
  4 28  1  0  0  0  0
  5 29  1  0  0  0  0
  5 30  1  0  0  0  0
  5 31  1  0  0  0  0
  6  7  1  0  0  0  0
  6 32  1  0  0  0  0
  7  8  2  0  0  0  0
  7  9  1  0  0  0  0
  9 22  1  0  0  0  0
  9 10  2  0  0  0  0
 10 11  1  0  0  0  0
 10 33  1  0  0  0  0
 11 12  2  0  0  0  0
 11 34  1  0  0  0  0
 12 13  1  0  0  0  0
 12 21  1  0  0  0  0
 13 20  1  0  0  0  0
 13 14  1  0  0  0  0
 14 15  1  0  0  0  0
 14 35  1  0  0  0  0
 14 36  1  0  0  0  0
 15 16  1  0  0  0  0
 15 17  1  0  0  0  0
 15 37  1  0  0  0  0
 16 38  1  0  0  0  0
 16 39  1  0  0  0  0
 16 40  1  0  0  0  0
 17 18  1  0  0  0  0
 18 19  1  0  0  0  0
 18 20  1  0  0  0  0
 18 41  1  0  0  0  0
 19 42  1  0  0  0  0
 19 43  1  0  0  0  0
 19 44  1  0  0  0  0
 20 45  1  0  0  0  0
 20 46  1  0  0  0  0
 21 22  2  0  0  0  0
 22 47  1  0  0  0  0
M  END
> <s_m_source_file>
AV-unprocessed.smi

> <i_m_source_file_index>
2114

> <i_lp_mmshare_version>
43012

> <i_f3d_flags>
0

> <s_epik_input>
W0NIM11PW0NIMl1bQ0BIXShbQ0gzXSlbTkhdQyg9TyljMVtjSF1bY0hdYyhuW2NIXTEpTjJbQ0gyXVtDQEBIXShbQ0gzXSlPW0NAQEhdKFtDSDNdKVtDSDJdMg==

> <s_epik_cmdline>
J2VwaWtfcHl0aG9uJywgJy1waCcsICc3LjAnLCAnLXRuJywgJzgnLCAnLW1hJywgJzIwMCcsICctbWV0YWxfYmluZGluZycsICctaW1hZScsICc8aW5maWxlLm1hZT4nLCAnLW9tYWUnLCAnPG91dGZpbGUubWFlPic=

> <r_lp_tautomer_probability>
1

> <r_epik_Ionization_Penalty>
1.92915e-05

> <r_epik_Ionization_Penalty_Charging>
0

> <r_epik_Ionization_Penalty_Neutral>
1.92915e-05

> <r_epik_State_Penalty>
-0

> <r_epik_Charging_Adjusted_Penalty>
0

> <i_epik_Tot_Q>
0

> <i_epik_Tot_abs_Q>
0

> <r_epik_Metal_State_Penalty>
-0

> <b_epik_Metal_Only>
0

> <s_lp_Force_Field>
OPLS_2005

> <r_lp_Energy>
18.4653

> <b_lp_Chiralities_Consistent>
1

> <s_lp_Variant>
AV-unprocessed.smi:2114-1

> <Gold.Version>
5.8.1

> <Gold.Id.Protein>
6NUR|6NUR_protein|mol2

> <Gold.PLP.Fitness>
45.7169

> <Gold.PLP.PLP>
-45.8957

> <Gold.PLP.part.hbond>
-1.0000

> <Gold.PLP.part.metal>
0.0000

> <Gold.PLP.part.buried>
-3.7509

> <Gold.PLP.part.nonpolar>
-38.4802

> <Gold.PLP.part.repulsive>
0.2955

> <Gold.PLP.ligand.clash>
0.0000

> <Gold.PLP.ligand.torsion>
0.2642

> <Gold.PLP.Chemscore.Hbond>
0.0000

> <Gold.PLP.Chemscore.CHOScore>
0.0000

> <Gold.PLP.Chemscore.Metal>
0.0000

> <Gold.PLP.Chemscore.Internal.Correction>
0.3496

> <Gold.Rescore>
     Score         DG    S(hbond)    S(metal)    S(lipo)     H(rot)  DE(clash)    DE(int)     intcor
     14.88     -16.59       0.00        0.00     128.27       1.52       1.42       0.29       ----

> <Gold.Chemscore.Fitness>
14.8775

> <Gold.Chemscore.DG>
-16.5897

> <Gold.Chemscore.ZeroCoef>
-5.4800

> <Gold.Chemscore.Hbond>
0.0000

> <Gold.Chemscore.Metal>
0.0000

> <Gold.Chemscore.Lipo>
128.2709

> <Gold.Chemscore.Internal_Hbond>
0.0000

> <Gold.Chemscore.DEClash>
1.4231

> <Gold.Chemscore.DEInternal>
0.2891

> <Gold.Chemscore.Rot>
1.5226

> <Gold.Chemscore.Internal.Correction>
   9.000000E+99

> <Gold.Chemscore.Hbond.Weighted>
-0.0000

> <Gold.Chemscore.Metal.Weighted>
-0.0000

> <Gold.Chemscore.Lipo.Weighted>
-15.0077

> <Gold.Chemscore.Internal_Hbond.Weighted>
0.0000

> <Gold.Chemscore.DEClash.Weighted>
1.4231

> <Gold.Chemscore.DEInternal.Weighted>
0.2891

> <Gold.Chemscore.Rot.Weighted>
3.8980

> <Gold.Chemscore.Internal.Correction.Weighted>
   9.000000E+99

> <Gold.Protein.RotatedTorsions>
[ 6907 6896 6895 6894 ] final   48.07 input  -60.11 | X-H torsion
[ 7974 7965 7964 7962 ] final -135.36 input  175.53 | X-H torsion
[ 8008 7997 7996 7995 ] final -152.22 input   59.86 | X-H torsion
[ 10167 10162 10161 10158 ] final  106.94 input  -65.29 | X-H torsion
[ 10718 10713 10712 10709 ] final -175.10 input   66.30 | X-H torsion
[ 10763 10752 10751 10750 ] final  136.31 input  -60.55 | X-H torsion
[ 11005 11000 10999 10996 ] final   98.11 input  -57.11 | X-H torsion

> <Gold.Protein.ActiveResidues>
 VAL166  LYS551  ARG553  GLY616  TRP617  ASP618  TYR619  PRO620  LYS621  CYS622 
 ASP623  PHE694  ASN695  SER759  ASP760  ASP761  ALA762  ILE779  LEU786  VAL792 
 PHE793  MET794  SER795  GLU796  ALA797  LYS798  CYS799  TRP800  GLU811  SER814 

> <Gold.Protein.RotatedAtoms>
  152.2754  134.7888  160.0406 H   0  0  0  0  0  0  0  0  0  0  0  0  # atno 6907 bound_to 6896
  151.8486  133.3430  159.3674 H   0  0  0  0  0  0  0  0  0  0  0  0  # atno 6908 bound_to 6896
  150.7168  134.5250  159.5716 H   0  0  0  0  0  0  0  0  0  0  0  0  # atno 6909 bound_to 6896
  144.9021  140.6785  143.5078 H   0  0  0  0  0  0  0  0  0  0  0  0  # atno 7974 bound_to 7965
  155.6517  140.0713  157.2584 H   0  0  0  0  0  0  0  0  0  0  0  0  # atno 8008 bound_to 7997
  154.4161  140.1732  156.1732 H   0  0  0  0  0  0  0  0  0  0  0  0  # atno 8009 bound_to 7997
  155.9771  140.3357  155.6632 H   0  0  0  0  0  0  0  0  0  0  0  0  # atno 8010 bound_to 7997
  139.6968  144.7100  151.1254 H   0  0  0  0  0  0  0  0  0  0  0  0  # atno 10167 bound_to 10162
  156.7948  130.9531  151.3120 H   0  0  0  0  0  0  0  0  0  0  0  0  # atno 10718 bound_to 10713
  153.8544  135.3075  155.3434 H   0  0  0  0  0  0  0  0  0  0  0  0  # atno 10763 bound_to 10752
  154.7877  135.4800  153.9985 H   0  0  0  0  0  0  0  0  0  0  0  0  # atno 10764 bound_to 10752
  153.1499  135.6841  153.8991 H   0  0  0  0  0  0  0  0  0  0  0  0  # atno 10765 bound_to 10752
  139.8773  134.9033  156.4407 H   0  0  0  0  0  0  0  0  0  0  0  0  # atno 11005 bound_to 11000
  145.3599  139.1684  143.4389 LP  0  0  0  0  0  0  0  0  0  0  0  0  # atno 17320 bound_to 7965
  146.3114  140.3660  142.8669 LP  0  0  0  0  0  0  0  0  0  0  0  0  # atno 17321 bound_to 7965
  140.7698  143.5481  150.9236 LP  0  0  0  0  0  0  0  0  0  0  0  0  # atno 17342 bound_to 10162
  139.9161  143.6662  152.3106 LP  0  0  0  0  0  0  0  0  0  0  0  0  # atno 17343 bound_to 10162
  157.6583  130.8943  149.9775 LP  0  0  0  0  0  0  0  0  0  0  0  0  # atno 17370 bound_to 10713
  156.1137  130.3649  150.0005 LP  0  0  0  0  0  0  0  0  0  0  0  0  # atno 17371 bound_to 10713
  140.9002  133.7785  155.9671 LP  0  0  0  0  0  0  0  0  0  0  0  0  # atno 17394 bound_to 11000
  140.8659  134.2784  157.5213 LP  0  0  0  0  0  0  0  0  0  0  0  0  # atno 17395 bound_to 11000

$$$$
