#       Name:                AV-unprocessed.smi:2635
#       Creating user name   scv26
#       Creation time:       Fri Mar 27 14:26:40 2020


#       File generated by GOLD software.
#

@<TRIPOS>MOLECULE
AV-unprocessed.smi:2635
    38    39     1
SMALL
NO_CHARGES


@<TRIPOS>ATOM
      1 ****        -3.6652   3.0732   1.8852 C.3            1 S1                 0.0000
      2 ****        -3.0399   2.4327   0.6594 C.2            1 S1                 0.0000
      3 ****        -2.5482   1.1764   0.6643 C.2            1 S1                 0.0000
      4 ****        -1.9712   0.5939  -0.4762 N.am           1 S1                 0.0000
      5 ****        -1.4264  -0.7493  -0.3755 C.3            1 S1                 0.0000
      6 ****        -0.0402  -0.6712  -0.3038 O.3            1 S1                 0.0000
      7 ****         0.5831  -1.9438  -0.2509 C.3            1 S1                 0.0000
      8 ****         2.0931  -1.8247  -0.1887 C.ar           1 S1                 0.0000
      9 ****         2.7753  -1.0135  -1.1199 C.ar           1 S1                 0.0000
     10 ****         4.1795  -0.9113  -1.0750 C.ar           1 S1                 0.0000
     11 ****         4.9071  -1.6226  -0.1012 C.ar           1 S1                 0.0000
     12 ****         4.2300  -2.4380   0.8263 C.ar           1 S1                 0.0000
     13 ****         2.8259  -2.5415   0.7811 C.ar           1 S1                 0.0000
     14 ****        -1.8523   1.3124  -1.6322 C.2            1 S1                 0.0000
     15 ****        -1.3080   0.7958  -2.6093 O.2            1 S1                 0.0000
     16 ****        -2.3522   2.5857  -1.6627 N.pl3          1 S1                -1.0000
     17 ****        -2.9449   3.1902  -0.5914 C.2            1 S1                 0.0000
     18 ****        -3.3928   4.3352  -0.6454 O.2            1 S1                 0.0000
     19 ****        -3.6801   2.3802   2.7269 H              1 S1                 0.0000
     20 ****        -4.6921   3.3747   1.6765 H              1 S1                 0.0000
     21 ****        -3.0996   3.9566   2.1831 H              1 S1                 0.0000
     22 ****        -2.5637   0.5454   1.5408 H              1 S1                 0.0000
     23 ****        -1.8230  -1.2381   0.5157 H              1 S1                 0.0000
     24 ****        -1.7430  -1.3239  -1.2488 H              1 S1                 0.0000
     25 ****         0.2204  -2.4965   0.6172 H              1 S1                 0.0000
     26 ****         0.3224  -2.5233  -1.1378 H              1 S1                 0.0000
     27 ****         2.2213  -0.4676  -1.8699 H              1 S1                 0.0000
     28 ****         4.6987  -0.2882  -1.7881 H              1 S1                 0.0000
     29 ****         5.9836  -1.5440  -0.0669 H              1 S1                 0.0000
     30 ****         4.7873  -2.9851   1.5720 H              1 S1                 0.0000
     31 ****         2.3151  -3.1710   1.4948 H              1 S1                 0.0000
     32 ****         0.2083  -0.1599   0.5189 LP             1 S1                 0.0000
     33 ****         0.2941  -0.1857  -1.1116 LP             1 S1                 0.0000
     34 ****        -0.9590  -0.1395  -2.5508 LP             1 S1                 0.0000
     35 ****        -1.2152   1.3118  -3.4608 LP             1 S1                 0.0000
     36 ****        -2.2795   3.1018  -2.5162 LP             1 S1                 0.0000
     37 ****        -3.8188   4.7441   0.1617 LP             1 S1                 0.0000
     38 ****        -3.3307   4.8568  -1.4963 LP             1 S1                 0.0000
@<TRIPOS>BOND
    1    1    2 1     
    2    1   19 1     
    3    1   20 1     
    4    1   21 1     
    5    2   17 1     
    6    2    3 2     
    7    3    4 1     
    8    3   22 1     
    9    4    5 1     
   10    4   14 am    
   11    5    6 1     
   12    5   23 1     
   13    5   24 1     
   14    6    7 1     
   15    7    8 1     
   16    7   25 1     
   17    7   26 1     
   18    8   13 ar    
   19    8    9 ar    
   20    9   10 ar    
   21    9   27 1     
   22   10   11 ar    
   23   10   28 1     
   24   11   12 ar    
   25   11   29 1     
   26   12   13 ar    
   27   12   30 1     
   28   13   31 1     
   29   14   15 2     
   30   14   16 1     
   31   16   17 1     
   32   17   18 2     
   33    6   32 1     
   34    6   33 1     
   35   15   34 1     
   36   15   35 1     
   37   16   36 1     
   38   18   37 1     
   39   18   38 1     
@<TRIPOS>SUBSTRUCTURE
      1 S1             1
@<TRIPOS>SET
LONE_PAIRS      STATIC     ATOMS    <user>   **** ""
7 32 33 34 35 36 37 38
ATOM$BLUE        STATIC     ATOMS    COLORGROUP SYSTEM
7 32 33 34 35 36 37 38
