AV-unprocessed.smi:126|AV-procd|sdf|1152|dock5
  -GOLD-   2262018293D 1   1.00000     0.00000
 Structure written by MMmdl.
 40 42  0  0  0  0  0  0  0  0  1 V2000
  154.6794  139.9366  159.1201 O   0  0  0  0  0  0  0  0  0  0  0  0
  154.9098  139.9240  160.3301 C   0  0  0  0  0  0  0  0  0  0  0  0
  155.9286  138.9344  160.9170 C   0  0  0  0  0  0  0  0  0  0  0  0
  155.5699  138.4554  162.2701 N   0  0  0  0  0  0  0  0  0  0  0  0
  154.7360  137.3154  162.3836 C   0  0  0  0  0  0  0  0  0  0  0  0
  154.3228  136.7253  161.3840 O   0  0  0  0  0  0  0  0  0  0  0  0
  154.4079  136.9072  163.7449 C   0  0  0  0  0  0  0  0  0  0  0  0
  153.6290  135.8309  163.9474 F   0  0  0  0  0  0  0  0  0  0  0  0
  154.8759  137.5929  164.8081 C   0  0  0  0  0  0  0  0  0  0  0  0
  155.6808  138.7111  164.6822 N   0  0  0  0  0  0  0  0  0  0  0  0
  156.1954  139.4711  165.8861 C   0  0  1  0  0  0  0  0  0  0  0  0
  155.7533  140.9449  165.8260 C   0  0  0  0  0  0  0  0  0  0  0  0
  155.1547  141.1684  167.2003 C   0  0  0  0  0  0  0  0  0  0  0  0
  154.6290  139.7824  167.5419 C   0  0  0  0  0  0  0  0  0  0  0  0
  155.6568  138.9276  167.0580 O   0  0  0  0  0  0  0  0  0  0  0  0
  156.0452  139.1675  163.3969 C   0  0  0  0  0  0  0  0  0  0  0  0
  156.7550  140.1671  163.2648 O   0  0  0  0  0  0  0  0  0  0  0  0
  154.2918  140.7097  161.2306 N   0  0  0  0  0  0  0  0  0  0  0  0
  153.3357  141.7360  161.0025 C   0  0  0  0  0  0  0  0  0  0  0  0
  152.6810  142.2737  162.1307 C   0  0  0  0  0  0  0  0  0  0  0  0
  151.7373  143.3086  161.9833 C   0  0  0  0  0  0  0  0  0  0  0  0
  151.4501  143.8232  160.7051 C   0  0  0  0  0  0  0  0  0  0  0  0
  152.1113  143.3054  159.5756 C   0  0  0  0  0  0  0  0  0  0  0  0
  153.0542  142.2691  159.7208 C   0  0  0  0  0  0  0  0  0  0  0  0
  156.0393  138.0903  160.2338 H   0  0  0  0  0  0  0  0  0  0  0  0
  156.9098  139.4112  160.9078 H   0  0  0  0  0  0  0  0  0  0  0  0
  154.5982  137.2371  165.7882 H   0  0  0  0  0  0  0  0  0  0  0  0
  157.2773  139.3282  165.8879 H   0  0  0  0  0  0  0  0  0  0  0  0
  156.5982  141.5994  165.6104 H   0  0  0  0  0  0  0  0  0  0  0  0
  154.9936  141.0796  165.0541 H   0  0  0  0  0  0  0  0  0  0  0  0
  155.9334  141.4579  167.9072 H   0  0  0  0  0  0  0  0  0  0  0  0
  154.3791  141.9343  167.2099 H   0  0  0  0  0  0  0  0  0  0  0  0
  154.4622  139.6442  168.6102 H   0  0  0  0  0  0  0  0  0  0  0  0
  153.6935  139.5823  167.0175 H   0  0  0  0  0  0  0  0  0  0  0  0
  154.4960  140.5155  162.2001 H   0  0  0  0  0  0  0  0  0  0  0  0
  152.8964  141.8893  163.1170 H   0  0  0  0  0  0  0  0  0  0  0  0
  151.2354  143.7091  162.8516 H   0  0  0  0  0  0  0  0  0  0  0  0
  150.7280  144.6185  160.5922 H   0  0  0  0  0  0  0  0  0  0  0  0
  151.8997  143.7074  158.5956 H   0  0  0  0  0  0  0  0  0  0  0  0
  153.5602  141.9100  158.8381 H   0  0  0  0  0  0  0  0  0  0  0  0
  1  2  2  0  0  0  0
  2  3  1  0  0  0  0
  2 18  1  0  0  0  0
  3  4  1  0  0  0  0
  3 25  1  0  0  0  0
  3 26  1  0  0  0  0
  4 16  1  0  0  0  0
  4  5  1  0  0  0  0
  5  6  2  0  0  0  0
  5  7  1  0  0  0  0
  7  8  1  0  0  0  0
  7  9  2  0  0  0  0
  9 10  1  0  0  0  0
  9 27  1  0  0  0  0
 10 11  1  0  0  0  0
 10 16  1  0  0  0  0
 11 15  1  0  0  0  0
 11 12  1  0  0  0  0
 11 28  1  0  0  0  0
 12 13  1  0  0  0  0
 12 29  1  0  0  0  0
 12 30  1  0  0  0  0
 13 14  1  0  0  0  0
 13 31  1  0  0  0  0
 13 32  1  0  0  0  0
 14 15  1  0  0  0  0
 14 33  1  0  0  0  0
 14 34  1  0  0  0  0
 16 17  2  0  0  0  0
 18 19  1  0  0  0  0
 18 35  1  0  0  0  0
 19 24  1  0  0  0  0
 19 20  2  0  0  0  0
 20 21  1  0  0  0  0
 20 36  1  0  0  0  0
 21 22  2  0  0  0  0
 21 37  1  0  0  0  0
 22 23  1  0  0  0  0
 22 38  1  0  0  0  0
 23 24  2  0  0  0  0
 23 39  1  0  0  0  0
 24 40  1  0  0  0  0
M  END
> <s_m_source_file>
AV-unprocessed.smi

> <i_m_source_file_index>
126

> <i_lp_mmshare_version>
43012

> <i_f3d_flags>
0

> <s_epik_input>
W2NIXTFbY0hdW2NIXVtjSF1bY0hdYzFbTkhdQyg9TylbQ0gyXW4yYyg9TyljKEYpW2NIXW4oYzI9TylbQ0BASF0zW0NIMl1bQ0gyXVtDSDJdTzM=

> <s_epik_cmdline>
J2VwaWtfcHl0aG9uJywgJy1waCcsICc3LjAnLCAnLXRuJywgJzgnLCAnLW1hJywgJzIwMCcsICctbWV0YWxfYmluZGluZycsICctaW1hZScsICc8aW5maWxlLm1hZT4nLCAnLW9tYWUnLCAnPG91dGZpbGUubWFlPic=

> <r_lp_tautomer_probability>
1

> <r_epik_Ionization_Penalty>
1.86934e-06

> <r_epik_Ionization_Penalty_Charging>
3.88729e-08

> <r_epik_Ionization_Penalty_Neutral>
1.83046e-06

> <r_epik_State_Penalty>
-0

> <r_epik_Charging_Adjusted_Penalty>
3.88729e-08

> <i_epik_Tot_Q>
0

> <i_epik_Tot_abs_Q>
0

> <r_epik_Metal_State_Penalty>
-0

> <b_epik_Metal_Only>
0

> <s_epik_Chemistry_Notes>
This compound contains an acetal/aminal-like group ( X-CH(R)-Y where X, Y are N, S, or O) that may be acid/base labile, releasing an aldehyde.

> <s_lp_Force_Field>
OPLS_2005

> <r_lp_Energy>
33.9476

> <b_lp_Chiralities_Consistent>
1

> <s_lp_Variant>
AV-unprocessed.smi:126-2

> <Gold.Version>
5.8.1

> <Gold.Id.Protein>
6NUR|6NUR_protein|mol2

> <Gold.PLP.Fitness>
53.4078

> <Gold.PLP.PLP>
-52.3190

> <Gold.PLP.part.hbond>
-2.7160

> <Gold.PLP.part.metal>
0.0000

> <Gold.PLP.part.buried>
-6.7494

> <Gold.PLP.part.nonpolar>
-42.7340

> <Gold.PLP.part.repulsive>
0.0745

> <Gold.PLP.ligand.clash>
0.0000

> <Gold.PLP.ligand.torsion>
0.7874

> <Gold.PLP.Chemscore.Hbond>
0.8800

> <Gold.PLP.Chemscore.CHOScore>
0.0000

> <Gold.PLP.Chemscore.Metal>
0.0000

> <Gold.Chemscore.Hbonds>
donor molecule, donor type, donor heavy atom, donor atom, acceptor molecule, acceptor atom, score
      P1  H  7997  8009       L1     1  0.90

> <Gold.PLP.Chemscore.Internal.Correction>
0.0236

> <Gold.Rescore>
     Score         DG    S(hbond)    S(metal)    S(lipo)     H(rot)  DE(clash)    DE(int)     intcor
     13.31     -16.68       1.00        0.00     103.69       1.66       0.09       3.28       ----

> <Gold.Chemscore.Fitness>
13.3131

> <Gold.Chemscore.DG>
-16.6836

> <Gold.Chemscore.ZeroCoef>
-5.4800

> <Gold.Chemscore.Hbond>
0.9961

> <Gold.Chemscore.Metal>
0.0000

> <Gold.Chemscore.Lipo>
103.6902

> <Gold.Chemscore.Internal_Hbond>
0.0000

> <Gold.Chemscore.DEClash>
0.0869

> <Gold.Chemscore.DEInternal>
3.2836

> <Gold.Chemscore.Rot>
1.6621

> <Gold.Chemscore.Internal.Correction>
   9.000000E+99

> <Gold.Chemscore.Hbonds>
donor molecule, donor type, donor heavy atom, donor atom, acceptor molecule, acceptor atom, score
      P1  H  7997  8009       L1     1  0.88

> <Gold.Chemscore.Hbond.Weighted>
-3.3268

> <Gold.Chemscore.Metal.Weighted>
-0.0000

> <Gold.Chemscore.Lipo.Weighted>
-12.1318

> <Gold.Chemscore.Internal_Hbond.Weighted>
0.0000

> <Gold.Chemscore.DEClash.Weighted>
0.0869

> <Gold.Chemscore.DEInternal.Weighted>
3.2836

> <Gold.Chemscore.Rot.Weighted>
4.2550

> <Gold.Chemscore.Internal.Correction.Weighted>
   9.000000E+99

> <Gold.Protein.RotatedTorsions>
[ 6907 6896 6895 6894 ] final   29.90 input  -60.11 | X-H torsion
[ 7974 7965 7964 7962 ] final  -55.02 input  175.53 | X-H torsion
[ 8008 7997 7996 7995 ] final  103.18 input   59.86 | X-H torsion
[ 10167 10162 10161 10158 ] final   77.48 input  -65.29 | X-H torsion
[ 10718 10713 10712 10709 ] final  173.57 input   66.30 | X-H torsion
[ 10763 10752 10751 10750 ] final -136.82 input  -60.55 | X-H torsion
[ 11005 11000 10999 10996 ] final -132.76 input  -57.11 | X-H torsion

> <Gold.Protein.ActiveResidues>
 VAL166  LYS551  ARG553  GLY616  TRP617  ASP618  TYR619  PRO620  LYS621  CYS622 
 ASP623  PHE694  ASN695  SER759  ASP760  ASP761  ALA762  ILE779  LEU786  VAL792 
 PHE793  MET794  SER795  GLU796  ALA797  LYS798  CYS799  TRP800  GLU811  SER814 

> <Gold.Protein.RotatedAtoms>
  152.0382  134.9727  160.0573 H   0  0  0  0  0  0  0  0  0  0  0  0  # atno 6907 bound_to 6896
  152.1176  133.4331  159.4669 H   0  0  0  0  0  0  0  0  0  0  0  0  # atno 6908 bound_to 6896
  150.6847  134.2492  159.4547 H   0  0  0  0  0  0  0  0  0  0  0  0  # atno 6909 bound_to 6896
  145.8789  140.8159  142.9850 H   0  0  0  0  0  0  0  0  0  0  0  0  # atno 7974 bound_to 7965
  156.1460  140.3169  155.8572 H   0  0  0  0  0  0  0  0  0  0  0  0  # atno 8008 bound_to 7997
  155.4062  140.0503  157.3051 H   0  0  0  0  0  0  0  0  0  0  0  0  # atno 8009 bound_to 7997
  154.5017  140.2132  155.9345 H   0  0  0  0  0  0  0  0  0  0  0  0  # atno 8010 bound_to 7997
  139.9811  144.5826  150.7900 H   0  0  0  0  0  0  0  0  0  0  0  0  # atno 10167 bound_to 10162
  156.9623  131.0064  151.2924 H   0  0  0  0  0  0  0  0  0  0  0  0  # atno 10718 bound_to 10713
  154.8675  135.3661  154.5123 H   0  0  0  0  0  0  0  0  0  0  0  0  # atno 10763 bound_to 10752
  153.5757  135.7019  153.5490 H   0  0  0  0  0  0  0  0  0  0  0  0  # atno 10764 bound_to 10752
  153.3501  135.4074  155.1602 H   0  0  0  0  0  0  0  0  0  0  0  0  # atno 10765 bound_to 10752
  140.9141  134.1530  157.4366 H   0  0  0  0  0  0  0  0  0  0  0  0  # atno 11005 bound_to 11000
  144.6727  140.1353  143.7441 LP  0  0  0  0  0  0  0  0  0  0  0  0  # atno 17320 bound_to 7965
  145.9047  139.2451  143.1473 LP  0  0  0  0  0  0  0  0  0  0  0  0  # atno 17321 bound_to 7965
  140.7489  143.2929  151.3281 LP  0  0  0  0  0  0  0  0  0  0  0  0  # atno 17342 bound_to 10162
  139.6409  144.0541  152.2554 LP  0  0  0  0  0  0  0  0  0  0  0  0  # atno 17343 bound_to 10162
  157.5649  130.8271  149.8314 LP  0  0  0  0  0  0  0  0  0  0  0  0  # atno 17370 bound_to 10713
  156.0317  130.3763  150.1670 LP  0  0  0  0  0  0  0  0  0  0  0  0  # atno 17371 bound_to 10713
  139.8763  134.9947  156.5706 LP  0  0  0  0  0  0  0  0  0  0  0  0  # atno 17394 bound_to 11000
  140.8072  133.8458  155.8778 LP  0  0  0  0  0  0  0  0  0  0  0  0  # atno 17395 bound_to 11000

$$$$
