AV-unprocessed.smi:227|AV-procd|sdf|1741|dock2
  -GOLD-   2262020243D 1   1.00000     0.00000
 Structure written by MMmdl.
 54 58  0  0  0  0  0  0  0  0  1 V2000
  149.8967  140.5966  153.4858 O   0  0  0  0  0  0  0  0  0  0  0  0
  149.4839  139.5730  154.3671 C   0  0  0  0  0  0  0  0  0  0  0  0
  148.4132  140.0898  155.3575 C   0  0  2  0  0  0  0  0  0  0  0  0
  147.0644  140.4074  154.6548 C   0  0  0  0  0  0  0  0  0  0  0  0
  146.5409  139.3187  153.8420 N   0  0  0  0  0  0  0  0  0  0  0  0
  146.9065  138.9960  152.5554 C   0  0  0  0  0  0  0  0  0  0  0  0
  146.2886  137.9684  152.0434 N   0  0  0  0  0  0  0  0  0  0  0  0
  145.4183  137.5502  153.0435 C   0  0  0  0  0  0  0  0  0  0  0  0
  144.4608  136.4988  153.1669 C   0  0  0  0  0  0  0  0  0  0  0  0
  144.1870  135.5766  152.2018 N   0  0  0  0  0  0  0  0  0  0  0  0
  144.9845  135.4865  150.9868 C   0  0  1  0  0  0  0  0  0  0  0  0
  146.3096  134.8558  151.4582 C   0  0  0  0  0  0  0  0  0  0  0  0
  145.8120  133.9113  152.5630 C   0  0  0  0  0  0  0  0  0  0  0  0
  144.2858  134.1550  152.5088 C   0  0  2  0  0  0  0  0  0  0  0  0
  143.6500  133.5272  151.2477 C   0  0  2  0  0  0  0  0  0  0  0  0
  143.8836  132.0236  151.0063 C   0  0  0  0  0  0  0  0  0  0  0  0
  143.1840  131.5953  149.8575 O   0  0  0  0  0  0  0  0  0  0  0  0
  144.2115  134.4496  150.1517 C   0  0  0  0  0  0  0  0  0  0  0  0
  143.7583  136.4352  154.3292 N   0  0  0  0  0  0  0  0  0  0  0  0
  143.9828  137.3121  155.3105 C   0  0  0  0  0  0  0  0  0  0  0  0
  144.8504  138.3235  155.3402 N   0  0  0  0  0  0  0  0  0  0  0  0
  145.5541  138.4061  154.1755 C   0  0  0  0  0  0  0  0  0  0  0  0
  148.9488  141.2899  156.1823 C   0  0  1  0  0  0  0  0  0  0  0  0
  148.0021  141.7920  157.2600 C   0  0  0  0  0  0  0  0  0  0  0  0
  148.9327  142.6014  158.1553 C   0  0  0  0  0  0  0  0  0  0  0  0
  150.1905  141.9399  158.0934 O   0  0  0  0  0  0  0  0  0  0  0  0
  150.1877  140.9877  157.0341 C   0  0  0  0  0  0  0  0  0  0  0  0
  149.7986  140.2854  152.5982 H   0  0  0  0  0  0  0  0  0  0  0  0
  149.0871  138.7675  153.7501 H   0  0  0  0  0  0  0  0  0  0  0  0
  150.3510  139.1688  154.8900 H   0  0  0  0  0  0  0  0  0  0  0  0
  148.2160  139.2820  156.0640 H   0  0  0  0  0  0  0  0  0  0  0  0
  146.3105  140.6687  155.3979 H   0  0  0  0  0  0  0  0  0  0  0  0
  147.1589  141.2901  154.0224 H   0  0  0  0  0  0  0  0  0  0  0  0
  147.6544  139.5447  152.0028 H   0  0  0  0  0  0  0  0  0  0  0  0
  145.1182  136.4156  150.4362 H   0  0  0  0  0  0  0  0  0  0  0  0
  146.8364  134.3344  150.6584 H   0  0  0  0  0  0  0  0  0  0  0  0
  146.9808  135.6107  151.8700 H   0  0  0  0  0  0  0  0  0  0  0  0
  146.1014  132.8734  152.4072 H   0  0  0  0  0  0  0  0  0  0  0  0
  146.2159  134.2164  153.5290 H   0  0  0  0  0  0  0  0  0  0  0  0
  143.7711  133.8494  153.4204 H   0  0  0  0  0  0  0  0  0  0  0  0
  142.5722  133.6913  151.3045 H   0  0  0  0  0  0  0  0  0  0  0  0
  144.9463  131.8362  150.8500 H   0  0  0  0  0  0  0  0  0  0  0  0
  143.5873  131.4196  151.8629 H   0  0  0  0  0  0  0  0  0  0  0  0
  142.2589  131.7215  150.0042 H   0  0  0  0  0  0  0  0  0  0  0  0
  143.3996  134.9195  149.5952 H   0  0  0  0  0  0  0  0  0  0  0  0
  144.8527  133.9330  149.4365 H   0  0  0  0  0  0  0  0  0  0  0  0
  143.3814  137.1840  156.1984 H   0  0  0  0  0  0  0  0  0  0  0  0
  149.1939  142.1179  155.5158 H   0  0  0  0  0  0  0  0  0  0  0  0
  147.1757  142.3889  156.8757 H   0  0  0  0  0  0  0  0  0  0  0  0
  147.5833  140.9541  157.8191 H   0  0  0  0  0  0  0  0  0  0  0  0
  149.0520  143.6126  157.7641 H   0  0  0  0  0  0  0  0  0  0  0  0
  148.5682  142.6744  159.1801 H   0  0  0  0  0  0  0  0  0  0  0  0
  150.1236  139.9906  157.4721 H   0  0  0  0  0  0  0  0  0  0  0  0
  151.1132  141.0455  156.4609 H   0  0  0  0  0  0  0  0  0  0  0  0
  1  2  1  0  0  0  0
  1 28  1  0  0  0  0
  2  3  1  0  0  0  0
  2 29  1  0  0  0  0
  2 30  1  0  0  0  0
  3  4  1  0  0  0  0
  3 23  1  0  0  0  0
  3 31  1  0  0  0  0
  4  5  1  0  0  0  0
  4 32  1  0  0  0  0
  4 33  1  0  0  0  0
  5 22  1  0  0  0  0
  5  6  1  0  0  0  0
  6  7  2  0  0  0  0
  6 34  1  0  0  0  0
  7  8  1  0  0  0  0
  8 22  2  0  0  0  0
  8  9  1  0  0  0  0
  9 10  1  0  0  0  0
  9 19  2  0  0  0  0
 10 14  1  0  0  0  0
 10 11  1  0  0  0  0
 11 18  1  0  0  0  0
 11 12  1  0  0  0  0
 11 35  1  0  0  0  0
 12 13  1  0  0  0  0
 12 36  1  0  0  0  0
 12 37  1  0  0  0  0
 13 14  1  0  0  0  0
 13 38  1  0  0  0  0
 13 39  1  0  0  0  0
 14 15  1  0  0  0  0
 14 40  1  0  0  0  0
 15 16  1  0  0  0  0
 15 18  1  0  0  0  0
 15 41  1  0  0  0  0
 16 17  1  0  0  0  0
 16 42  1  0  0  0  0
 16 43  1  0  0  0  0
 17 44  1  0  0  0  0
 18 45  1  0  0  0  0
 18 46  1  0  0  0  0
 19 20  1  0  0  0  0
 20 21  2  0  0  0  0
 20 47  1  0  0  0  0
 21 22  1  0  0  0  0
 23 27  1  0  0  0  0
 23 24  1  0  0  0  0
 23 48  1  0  0  0  0
 24 25  1  0  0  0  0
 24 49  1  0  0  0  0
 24 50  1  0  0  0  0
 25 26  1  0  0  0  0
 25 51  1  0  0  0  0
 25 52  1  0  0  0  0
 26 27  1  0  0  0  0
 27 53  1  0  0  0  0
 27 54  1  0  0  0  0
M  END
> <s_m_source_file>
AV-unprocessed.smi

> <i_m_source_file_index>
227

> <i_lp_mmshare_version>
43012

> <i_f3d_flags>
0

> <s_epik_input>
W0NIMl0xT1tDSDJdW0NIMl1bQ0BIXTFbQ0BIXShbQ0gyXVtPSF0pW0NIMl1uKFtjSF1uMiljKGMyMyluW2NIXW5jM04oW0NASF00NSlbQ0BASF0oW0NIMl1bQ0gyXTQpW0NASF0oW0NIMl01KVtDSDJdW09IXQ==

> <s_epik_cmdline>
J2VwaWtfcHl0aG9uJywgJy1waCcsICc3LjAnLCAnLXRuJywgJzgnLCAnLW1hJywgJzIwMCcsICctbWV0YWxfYmluZGluZycsICctaW1hZScsICc8aW5maWxlLm1hZT4nLCAnLW9tYWUnLCAnPG91dGZpbGUubWFlPic=

> <r_lp_tautomer_probability>
1

> <r_epik_Ionization_Penalty>
0.0055791

> <r_epik_Ionization_Penalty_Charging>
0

> <r_epik_Ionization_Penalty_Neutral>
0.0055791

> <r_epik_State_Penalty>
0.00401299

> <r_epik_Charging_Adjusted_Penalty>
0.00401299

> <i_epik_Tot_Q>
0

> <i_epik_Tot_abs_Q>
0

> <r_epik_Metal_State_Penalty>
-0

> <b_epik_Metal_Only>
0

> <s_lp_Force_Field>
OPLS_2005

> <r_lp_Energy>
87.7083

> <b_lp_Chiralities_Consistent>
1

> <s_lp_Variant>
AV-unprocessed.smi:227-15

> <Gold.Version>
5.8.1

> <Gold.Id.Protein>
6NUR|6NUR_protein|mol2

> <Gold.PLP.Fitness>
45.7103

> <Gold.PLP.PLP>
-34.6255

> <Gold.PLP.part.hbond>
-4.6109

> <Gold.PLP.part.metal>
0.0000

> <Gold.PLP.part.buried>
-4.5511

> <Gold.PLP.part.nonpolar>
-26.5897

> <Gold.PLP.part.repulsive>
0.5752

> <Gold.PLP.ligand.clash>
0.0000

> <Gold.PLP.ligand.torsion>
0.4272

> <Gold.PLP.Chemscore.Hbond>
2.8424

> <Gold.PLP.Chemscore.CHOScore>
1.0000

> <Gold.PLP.Chemscore.Metal>
0.0000

> <Gold.Chemscore.Hbonds>
donor molecule, donor type, donor heavy atom, donor atom, acceptor molecule, acceptor atom, score
      L1  H     1    28       P1  7957  0.84
      L1  H    17    44       P1 10952  0.51
      P1  H  7989  7998       L1     1  0.39
      P1  H 10785 10796       L1    17  1.00
      L1  C     6    34       P1  7957  1.00

> <Gold.PLP.Chemscore.Internal.Correction>
0.4120

> <Gold.Rescore>
     Score         DG    S(hbond)    S(metal)    S(lipo)     H(rot)  DE(clash)    DE(int)     intcor
      9.58     -11.37       2.03        0.00      71.35       3.61       0.21       1.58       ----

> <Gold.Chemscore.Fitness>
9.5800

> <Gold.Chemscore.DG>
-11.3698

> <Gold.Chemscore.ZeroCoef>
-5.4800

> <Gold.Chemscore.Hbond>
2.0286

> <Gold.Chemscore.Metal>
0.0000

> <Gold.Chemscore.Lipo>
71.3539

> <Gold.Chemscore.Internal_Hbond>
0.0000

> <Gold.Chemscore.DEClash>
0.2101

> <Gold.Chemscore.DEInternal>
1.5797

> <Gold.Chemscore.Rot>
3.6071

> <Gold.Chemscore.Internal.Correction>
   9.000000E+99

> <Gold.Chemscore.Hbonds>
donor molecule, donor type, donor heavy atom, donor atom, acceptor molecule, acceptor atom, score
      L1  H     1    28       P1  7957  0.82
      L1  H    17    44       P1 10952  0.43
      P1  H  7989  7998       L1     1  0.07
      P1  H 10785 10796       L1    17  0.34

> <Gold.Chemscore.Hbond.Weighted>
-6.7756

> <Gold.Chemscore.Metal.Weighted>
-0.0000

> <Gold.Chemscore.Lipo.Weighted>
-8.3484

> <Gold.Chemscore.Internal_Hbond.Weighted>
0.0000

> <Gold.Chemscore.DEClash.Weighted>
0.2101

> <Gold.Chemscore.DEInternal.Weighted>
1.5797

> <Gold.Chemscore.Rot.Weighted>
9.2342

> <Gold.Chemscore.Internal.Correction.Weighted>
   9.000000E+99

> <Gold.Protein.RotatedTorsions>
[ 6907 6896 6895 6894 ] final  -52.59 input  -60.11 | X-H torsion
[ 7974 7965 7964 7962 ] final  -68.02 input  175.53 | X-H torsion
[ 8008 7997 7996 7995 ] final -150.37 input   59.86 | X-H torsion
[ 10167 10162 10161 10158 ] final   15.84 input  -65.29 | X-H torsion
[ 10718 10713 10712 10709 ] final  137.38 input   66.30 | X-H torsion
[ 10763 10752 10751 10750 ] final  175.10 input  -60.55 | X-H torsion
[ 11005 11000 10999 10996 ] final  -99.56 input  -57.11 | X-H torsion

> <Gold.Protein.ActiveResidues>
 VAL166  LYS551  ARG553  GLY616  TRP617  ASP618  TYR619  PRO620  LYS621  CYS622 
 ASP623  PHE694  ASN695  SER759  ASP760  ASP761  ALA762  ILE779  LEU786  VAL792 
 PHE793  MET794  SER795  GLU796  ALA797  LYS798  CYS799  TRP800  GLU811  SER814 

> <Gold.Protein.RotatedAtoms>
  150.8504  134.7826  159.7003 H   0  0  0  0  0  0  0  0  0  0  0  0  # atno 6907 bound_to 6896
  152.4570  134.5266  159.9808 H   0  0  0  0  0  0  0  0  0  0  0  0  # atno 6908 bound_to 6896
  151.5389  133.3398  159.2967 H   0  0  0  0  0  0  0  0  0  0  0  0  # atno 6909 bound_to 6896
  145.7218  140.9035  143.0626 H   0  0  0  0  0  0  0  0  0  0  0  0  # atno 7974 bound_to 7965
  155.6224  140.0683  157.2674 H   0  0  0  0  0  0  0  0  0  0  0  0  # atno 8008 bound_to 7997
  154.4226  140.1782  156.1435 H   0  0  0  0  0  0  0  0  0  0  0  0  # atno 8009 bound_to 7997
  155.9998  140.3337  155.6838 H   0  0  0  0  0  0  0  0  0  0  0  0  # atno 8010 bound_to 7997
  140.5839  143.8927  150.6813 H   0  0  0  0  0  0  0  0  0  0  0  0  # atno 10167 bound_to 10162
  157.4366  131.1053  151.0190 H   0  0  0  0  0  0  0  0  0  0  0  0  # atno 10718 bound_to 10713
  154.4629  135.2768  155.1699 H   0  0  0  0  0  0  0  0  0  0  0  0  # atno 10763 bound_to 10752
  154.3480  135.6156  153.5632 H   0  0  0  0  0  0  0  0  0  0  0  0  # atno 10764 bound_to 10752
  152.9856  135.5804  154.4995 H   0  0  0  0  0  0  0  0  0  0  0  0  # atno 10765 bound_to 10752
  141.1304  133.8331  157.0988 H   0  0  0  0  0  0  0  0  0  0  0  0  # atno 11005 bound_to 11000
  144.6915  139.9212  143.7468 LP  0  0  0  0  0  0  0  0  0  0  0  0  # atno 17320 bound_to 7965
  146.0619  139.3612  143.0576 LP  0  0  0  0  0  0  0  0  0  0  0  0  # atno 17321 bound_to 7965
  140.2433  143.3647  152.1468 LP  0  0  0  0  0  0  0  0  0  0  0  0  # atno 17342 bound_to 10162
  139.5186  144.7008  151.5499 LP  0  0  0  0  0  0  0  0  0  0  0  0  # atno 17343 bound_to 10162
  157.1068  130.6005  149.5472 LP  0  0  0  0  0  0  0  0  0  0  0  0  # atno 17370 bound_to 10713
  155.9933  130.4993  150.7374 LP  0  0  0  0  0  0  0  0  0  0  0  0  # atno 17371 bound_to 10713
  140.0346  134.9884  157.0847 LP  0  0  0  0  0  0  0  0  0  0  0  0  # atno 17394 bound_to 11000
  140.4230  134.1860  155.7165 LP  0  0  0  0  0  0  0  0  0  0  0  0  # atno 17395 bound_to 11000

$$$$
