AV-unprocessed.smi:1971|AV-procd|sdf|7966|dock5
  -GOLD-   2272010133D 1   1.00000     0.00000
 Structure written by MMmdl.
 43 44  0  0  0  0  0  0  0  0  1 V2000
  151.5809  140.1656  157.6910 C   0  0  0  0  0  0  0  0  0  0  0  0
  152.1092  140.3479  156.2609 C   0  0  0  0  0  0  0  0  0  0  0  0
  151.1004  140.2153  155.2117 N   0  0  0  0  0  0  0  0  0  0  0  0
  149.9678  141.1039  155.4591 C   0  0  0  0  0  0  0  0  0  0  0  0
  148.9054  140.9942  154.3502 C   0  0  0  0  0  0  0  0  0  0  0  0
  148.3779  139.6288  154.2188 N   0  0  0  0  0  0  0  0  0  0  0  0
  147.3533  139.5188  153.1576 C   0  0  2  0  0  0  0  0  0  0  0  0
  146.6121  140.8456  152.8773 C   0  0  0  0  0  0  0  0  0  0  0  0
  146.2983  138.4099  153.4099 C   0  0  0  0  0  0  0  0  0  0  0  0
  146.5565  137.2039  152.6251 N   0  0  0  0  0  0  0  0  0  0  0  0
  145.6341  136.3142  152.2319 C   0  0  0  0  0  0  0  0  0  0  0  0
  144.4349  136.4174  152.4898 O   0  0  0  0  0  0  0  0  0  0  0  0
  146.1932  135.3127  151.5336 N   0  0  0  0  0  0  0  0  0  0  0  0
  145.5445  134.2020  150.9388 C   0  0  0  0  0  0  0  0  0  0  0  0
  144.2106  134.1671  150.9217 N   0  0  0  0  0  0  0  0  0  0  0  0
  143.7235  133.0104  150.3060 C   0  0  0  0  0  0  0  0  0  0  0  0
  144.7091  132.1675  149.8559 C   0  0  0  0  0  0  0  0  0  0  0  0
  146.3013  132.7951  150.1872 S   0  0  0  0  0  0  0  0  0  0  0  0
  149.5225  138.7359  153.9902 C   0  0  0  0  0  0  0  0  0  0  0  0
  150.5842  138.8513  155.0993 C   0  0  0  0  0  0  0  0  0  0  0  0
  152.4038  140.1676  158.4060 H   0  0  0  0  0  0  0  0  0  0  0  0
  151.0533  139.2176  157.7975 H   0  0  0  0  0  0  0  0  0  0  0  0
  150.9003  140.9660  157.9803 H   0  0  0  0  0  0  0  0  0  0  0  0
  152.6086  141.3143  156.1773 H   0  0  0  0  0  0  0  0  0  0  0  0
  152.8831  139.5959  156.1012 H   0  0  0  0  0  0  0  0  0  0  0  0
  149.5142  140.8738  156.4248 H   0  0  0  0  0  0  0  0  0  0  0  0
  150.3155  142.1359  155.5172 H   0  0  0  0  0  0  0  0  0  0  0  0
  148.1049  141.6895  154.5980 H   0  0  0  0  0  0  0  0  0  0  0  0
  149.3287  141.3256  153.4006 H   0  0  0  0  0  0  0  0  0  0  0  0
  147.8612  139.2501  152.2300 H   0  0  0  0  0  0  0  0  0  0  0  0
  145.7846  140.6972  152.1831 H   0  0  0  0  0  0  0  0  0  0  0  0
  147.2627  141.5895  152.4189 H   0  0  0  0  0  0  0  0  0  0  0  0
  146.2012  141.2758  153.7913 H   0  0  0  0  0  0  0  0  0  0  0  0
  146.2502  138.1765  154.4749 H   0  0  0  0  0  0  0  0  0  0  0  0
  145.2969  138.7637  153.1684 H   0  0  0  0  0  0  0  0  0  0  0  0
  147.5190  137.0291  152.3752 H   0  0  0  0  0  0  0  0  0  0  0  0
  147.1934  135.3530  151.4044 H   0  0  0  0  0  0  0  0  0  0  0  0
  142.6557  132.8662  150.2312 H   0  0  0  0  0  0  0  0  0  0  0  0
  144.5957  131.2194  149.3515 H   0  0  0  0  0  0  0  0  0  0  0  0
  149.1968  137.6976  153.9625 H   0  0  0  0  0  0  0  0  0  0  0  0
  149.9770  138.9497  153.0214 H   0  0  0  0  0  0  0  0  0  0  0  0
  151.3948  138.1595  154.8733 H   0  0  0  0  0  0  0  0  0  0  0  0
  150.1566  138.5318  156.0511 H   0  0  0  0  0  0  0  0  0  0  0  0
  1  2  1  0  0  0  0
  1 21  1  0  0  0  0
  1 22  1  0  0  0  0
  1 23  1  0  0  0  0
  2  3  1  0  0  0  0
  2 24  1  0  0  0  0
  2 25  1  0  0  0  0
  3 20  1  0  0  0  0
  3  4  1  0  0  0  0
  4  5  1  0  0  0  0
  4 26  1  0  0  0  0
  4 27  1  0  0  0  0
  5  6  1  0  0  0  0
  5 28  1  0  0  0  0
  5 29  1  0  0  0  0
  6  7  1  0  0  0  0
  6 19  1  0  0  0  0
  7  8  1  0  0  0  0
  7  9  1  0  0  0  0
  7 30  1  0  0  0  0
  8 31  1  0  0  0  0
  8 32  1  0  0  0  0
  8 33  1  0  0  0  0
  9 10  1  0  0  0  0
  9 34  1  0  0  0  0
  9 35  1  0  0  0  0
 10 11  1  0  0  0  0
 10 36  1  0  0  0  0
 11 12  2  0  0  0  0
 11 13  1  0  0  0  0
 13 14  1  0  0  0  0
 13 37  1  0  0  0  0
 14 18  1  0  0  0  0
 14 15  2  0  0  0  0
 15 16  1  0  0  0  0
 16 17  2  0  0  0  0
 16 38  1  0  0  0  0
 17 18  1  0  0  0  0
 17 39  1  0  0  0  0
 19 20  1  0  0  0  0
 19 40  1  0  0  0  0
 19 41  1  0  0  0  0
 20 42  1  0  0  0  0
 20 43  1  0  0  0  0
M  END
> <s_m_source_file>
AV-unprocessed.smi

> <i_m_source_file_index>
1971

> <i_lp_mmshare_version>
43012

> <i_f3d_flags>
0

> <s_epik_input>
W0NIM11bQ0gyXU4xW0NIMl1bQ0gyXU4oW0NIMl1bQ0gyXTEpW0NASF0oW0NIM10pW0NIMl1bTkhdQyg9TylbTkhdYzJuW2NIXVtjSF1zMg==

> <s_epik_cmdline>
J2VwaWtfcHl0aG9uJywgJy1waCcsICc3LjAnLCAnLXRuJywgJzgnLCAnLW1hJywgJzIwMCcsICctbWV0YWxfYmluZGluZycsICctaW1hZScsICc8aW5maWxlLm1hZT4nLCAnLW9tYWUnLCAnPG91dGZpbGUubWFlPic=

> <r_lp_tautomer_probability>
0.999

> <r_epik_Ionization_Penalty>
2.43994

> <r_epik_Ionization_Penalty_Charging>
0

> <r_epik_Ionization_Penalty_Neutral>
2.43994

> <r_epik_State_Penalty>
1.7682

> <r_epik_Charging_Adjusted_Penalty>
1.7682

> <i_epik_Tot_Q>
0

> <i_epik_Tot_abs_Q>
0

> <r_epik_Metal_State_Penalty>
1.80147

> <b_epik_Metal_Only>
0

> <s_lp_Force_Field>
OPLS_2005

> <r_lp_Energy>
42.0055

> <b_lp_Chiralities_Consistent>
1

> <s_lp_Variant>
AV-unprocessed.smi:1971-5

> <Gold.Version>
5.8.1

> <Gold.Id.Protein>
6NUR|6NUR_protein|mol2

> <Gold.PLP.Fitness>
40.6245

> <Gold.PLP.PLP>
-32.5624

> <Gold.PLP.part.hbond>
-3.0000

> <Gold.PLP.part.metal>
0.0000

> <Gold.PLP.part.buried>
-2.0665

> <Gold.PLP.part.nonpolar>
-28.6348

> <Gold.PLP.part.repulsive>
0.5673

> <Gold.PLP.ligand.clash>
0.7393

> <Gold.PLP.ligand.torsion>
1.6381

> <Gold.PLP.Chemscore.Hbond>
3.0000

> <Gold.PLP.Chemscore.CHOScore>
0.9954

> <Gold.PLP.Chemscore.Metal>
0.0000

> <Gold.Chemscore.Hbonds>
donor molecule, donor type, donor heavy atom, donor atom, acceptor molecule, acceptor atom, score
      L1  H    10    36       P1  7948  1.00
      L1  H    13    37       P1  7948  1.00
      P1  H  7989  7998       L1     3  0.95
      L1  C    16    38       P1 10186  0.98

> <Gold.PLP.Chemscore.Internal.Correction>
0.0913

> <Gold.Rescore>
     Score         DG    S(hbond)    S(metal)    S(lipo)     H(rot)  DE(clash)    DE(int)     intcor
     14.52     -17.00       1.92        0.00      81.97       1.75       0.14       2.34       ----

> <Gold.Chemscore.Fitness>
14.5170

> <Gold.Chemscore.DG>
-16.9996

> <Gold.Chemscore.ZeroCoef>
-5.4800

> <Gold.Chemscore.Hbond>
1.9168

> <Gold.Chemscore.Metal>
0.0000

> <Gold.Chemscore.Lipo>
81.9716

> <Gold.Chemscore.Internal_Hbond>
0.0000

> <Gold.Chemscore.DEClash>
0.1404

> <Gold.Chemscore.DEInternal>
2.3422

> <Gold.Chemscore.Rot>
1.7473

> <Gold.Chemscore.Internal.Correction>
   9.000000E+99

> <Gold.Chemscore.Hbonds>
donor molecule, donor type, donor heavy atom, donor atom, acceptor molecule, acceptor atom, score
      L1  H    10    36       P1  7948  1.00
      L1  H    13    37       P1  7948  0.84
      P1  H  7989  7998       L1     3  0.15

> <Gold.Chemscore.Hbond.Weighted>
-6.4020

> <Gold.Chemscore.Metal.Weighted>
-0.0000

> <Gold.Chemscore.Lipo.Weighted>
-9.5907

> <Gold.Chemscore.Internal_Hbond.Weighted>
0.0000

> <Gold.Chemscore.DEClash.Weighted>
0.1404

> <Gold.Chemscore.DEInternal.Weighted>
2.3422

> <Gold.Chemscore.Rot.Weighted>
4.4731

> <Gold.Chemscore.Internal.Correction.Weighted>
   9.000000E+99

> <Gold.Protein.RotatedTorsions>
[ 6907 6896 6895 6894 ] final   -5.11 input  -60.11 | X-H torsion
[ 7974 7965 7964 7962 ] final  150.18 input  175.53 | X-H torsion
[ 8008 7997 7996 7995 ] final   42.56 input   59.86 | X-H torsion
[ 10167 10162 10161 10158 ] final  -66.90 input  -65.29 | X-H torsion
[ 10718 10713 10712 10709 ] final  106.65 input   66.30 | X-H torsion
[ 10763 10752 10751 10750 ] final   56.84 input  -60.55 | X-H torsion
[ 11005 11000 10999 10996 ] final  -47.22 input  -57.11 | X-H torsion

> <Gold.Protein.ActiveResidues>
 VAL166  LYS551  ARG553  GLY616  TRP617  ASP618  TYR619  PRO620  LYS621  CYS622 
 ASP623  PHE694  ASN695  SER759  ASP760  ASP761  ALA762  ILE779  LEU786  VAL792 
 PHE793  MET794  SER795  GLU796  ALA797  LYS798  CYS799  TRP800  GLU811  SER814 

> <Gold.Protein.RotatedAtoms>
  151.4868  135.1055  159.9792 H   0  0  0  0  0  0  0  0  0  0  0  0  # atno 6907 bound_to 6896
  152.4757  133.8129  159.7023 H   0  0  0  0  0  0  0  0  0  0  0  0  # atno 6908 bound_to 6896
  150.8794  133.7332  159.2963 H   0  0  0  0  0  0  0  0  0  0  0  0  # atno 6909 bound_to 6896
  144.8383  139.6375  143.6028 H   0  0  0  0  0  0  0  0  0  0  0  0  # atno 7974 bound_to 7965
  155.2883  140.3377  155.4254 H   0  0  0  0  0  0  0  0  0  0  0  0  # atno 8008 bound_to 7997
  156.2058  140.1750  156.7843 H   0  0  0  0  0  0  0  0  0  0  0  0  # atno 8009 bound_to 7997
  154.5619  140.0686  156.8816 H   0  0  0  0  0  0  0  0  0  0  0  0  # atno 8010 bound_to 7997
  140.5623  143.2313  151.6704 H   0  0  0  0  0  0  0  0  0  0  0  0  # atno 10167 bound_to 10162
  157.6660  131.0855  150.6039 H   0  0  0  0  0  0  0  0  0  0  0  0  # atno 10718 bound_to 10713
  152.9839  135.5662  154.5293 H   0  0  0  0  0  0  0  0  0  0  0  0  # atno 10763 bound_to 10752
  154.4768  135.2787  155.1603 H   0  0  0  0  0  0  0  0  0  0  0  0  # atno 10764 bound_to 10752
  154.3129  135.6285  153.5526 H   0  0  0  0  0  0  0  0  0  0  0  0  # atno 10765 bound_to 10752
  141.0627  133.6704  156.3267 H   0  0  0  0  0  0  0  0  0  0  0  0  # atno 11005 bound_to 11000
  146.2679  139.6564  142.9316 LP  0  0  0  0  0  0  0  0  0  0  0  0  # atno 17320 bound_to 7965
  145.4748  141.0437  143.2678 LP  0  0  0  0  0  0  0  0  0  0  0  0  # atno 17321 bound_to 7965
  139.5076  144.3641  152.0534 LP  0  0  0  0  0  0  0  0  0  0  0  0  # atno 17342 bound_to 10162
  140.2769  144.3903  150.6132 LP  0  0  0  0  0  0  0  0  0  0  0  0  # atno 17343 bound_to 10162
  156.6340  130.4440  149.5776 LP  0  0  0  0  0  0  0  0  0  0  0  0  # atno 17370 bound_to 10713
  156.2260  130.6766  151.1416 LP  0  0  0  0  0  0  0  0  0  0  0  0  # atno 17371 bound_to 10713
  140.5835  134.5721  157.5485 LP  0  0  0  0  0  0  0  0  0  0  0  0  # atno 17394 bound_to 11000
  139.9448  134.7722  156.0590 LP  0  0  0  0  0  0  0  0  0  0  0  0  # atno 17395 bound_to 11000

$$$$
