AV-unprocessed.smi:271|AV-procd|sdf|2049|dock4
  -GOLD-   2262021283D 1   1.00000     0.00000
 Structure written by MMmdl.
 58 60  0  0  0  0  0  0  0  0  1 V2000
  154.1404  141.6114  160.5090 C   0  0  0  0  0  0  0  0  0  0  0  0
  152.9825  142.6169  160.4145 C   0  0  0  0  0  0  0  0  0  0  0  0
  152.6131  143.1421  161.8124 C   0  0  0  0  0  0  0  0  0  0  0  0
  151.7761  141.9921  159.6867 C   0  0  0  0  0  0  0  0  0  0  0  0
  152.0453  141.6751  158.2003 C   0  0  0  0  0  0  0  0  0  0  0  0
  151.0439  140.7973  157.5942 N   0  0  0  0  0  0  0  0  0  0  0  0
  149.7490  141.4275  157.3455 C   0  0  0  0  0  0  0  0  0  0  0  0
  149.4191  141.5767  155.8515 C   0  0  0  0  0  0  0  0  0  0  0  0
  150.1555  140.6146  155.0188 C   0  0  0  0  0  0  0  0  0  0  0  0
  150.7350  139.8577  154.3633 N   0  0  0  0  0  0  0  0  0  0  0  0
  150.9353  139.5963  158.2069 C   0  0  0  0  0  0  0  0  0  0  0  0
  152.0517  139.0962  158.7912 N   0  0  0  0  0  0  0  0  0  0  0  0
  152.0037  137.9183  159.4200 C   0  0  0  0  0  0  0  0  0  0  0  0
  150.9622  137.0991  159.5789 N   0  0  0  0  0  0  0  0  0  0  0  0
  149.8369  137.6011  158.9946 C   0  0  0  0  0  0  0  0  0  0  0  0
  149.7378  138.8309  158.2855 C   0  0  0  0  0  0  0  0  0  0  0  0
  148.4422  139.0055  157.8160 N   0  0  0  0  0  0  0  0  0  0  0  0
  147.8105  137.9404  158.2268 C   0  0  0  0  0  0  0  0  0  0  0  0
  148.5653  137.0529  158.9619 N   0  0  0  0  0  0  0  0  0  0  0  0
  148.1053  135.8014  159.5472 C   0  0  0  0  0  0  0  0  0  0  0  0
  147.0781  135.9731  160.7011 C   0  0  2  0  0  0  0  0  0  0  0  0
  147.7445  136.4190  162.0249 C   0  0  0  0  0  0  0  0  0  0  0  0
  147.4128  137.7564  162.3361 O   0  0  0  0  0  0  0  0  0  0  0  0
  146.2118  134.7027  160.9075 C   0  0  2  0  0  0  0  0  0  0  0  0
  145.2750  134.7621  162.1033 C   0  0  0  0  0  0  0  0  0  0  0  0
  144.9183  133.2940  162.3051 C   0  0  0  0  0  0  0  0  0  0  0  0
  146.0749  132.5641  161.9127 O   0  0  0  0  0  0  0  0  0  0  0  0
  146.9929  133.4295  161.2520 C   0  0  0  0  0  0  0  0  0  0  0  0
  153.8554  140.7316  161.0872 H   0  0  0  0  0  0  0  0  0  0  0  0
  155.0115  142.0574  160.9898 H   0  0  0  0  0  0  0  0  0  0  0  0
  154.4510  141.2732  159.5200 H   0  0  0  0  0  0  0  0  0  0  0  0
  153.3356  143.4616  159.8215 H   0  0  0  0  0  0  0  0  0  0  0  0
  152.2124  142.3471  162.4419 H   0  0  0  0  0  0  0  0  0  0  0  0
  151.8674  143.9350  161.7617 H   0  0  0  0  0  0  0  0  0  0  0  0
  153.4861  143.5562  162.3174 H   0  0  0  0  0  0  0  0  0  0  0  0
  151.4988  141.0642  160.1892 H   0  0  0  0  0  0  0  0  0  0  0  0
  150.9187  142.6589  159.7875 H   0  0  0  0  0  0  0  0  0  0  0  0
  152.1121  142.5952  157.6202 H   0  0  0  0  0  0  0  0  0  0  0  0
  153.0188  141.1909  158.1149 H   0  0  0  0  0  0  0  0  0  0  0  0
  148.9622  140.8617  157.8458 H   0  0  0  0  0  0  0  0  0  0  0  0
  149.7539  142.4165  157.8050 H   0  0  0  0  0  0  0  0  0  0  0  0
  148.3541  141.4213  155.6782 H   0  0  0  0  0  0  0  0  0  0  0  0
  149.6676  142.5744  155.4886 H   0  0  0  0  0  0  0  0  0  0  0  0
  152.9317  137.5848  159.8607 H   0  0  0  0  0  0  0  0  0  0  0  0
  146.7644  137.7772  158.0126 H   0  0  0  0  0  0  0  0  0  0  0  0
  147.6656  135.2036  158.7482 H   0  0  0  0  0  0  0  0  0  0  0  0
  148.9744  135.2360  159.8832 H   0  0  0  0  0  0  0  0  0  0  0  0
  146.4006  136.7748  160.4026 H   0  0  0  0  0  0  0  0  0  0  0  0
  147.4016  135.8067  162.8585 H   0  0  0  0  0  0  0  0  0  0  0  0
  148.8281  136.3099  161.9837 H   0  0  0  0  0  0  0  0  0  0  0  0
  147.2932  137.8265  163.2711 H   0  0  0  0  0  0  0  0  0  0  0  0
  145.6270  134.5047  160.0081 H   0  0  0  0  0  0  0  0  0  0  0  0
  145.8010  135.1407  162.9808 H   0  0  0  0  0  0  0  0  0  0  0  0
  144.3944  135.3833  161.9464 H   0  0  0  0  0  0  0  0  0  0  0  0
  144.6330  133.0706  163.3334 H   0  0  0  0  0  0  0  0  0  0  0  0
  144.0905  133.0113  161.6536 H   0  0  0  0  0  0  0  0  0  0  0  0
  147.4153  132.9463  160.3707 H   0  0  0  0  0  0  0  0  0  0  0  0
  147.8097  133.6509  161.9405 H   0  0  0  0  0  0  0  0  0  0  0  0
  1  2  1  0  0  0  0
  1 29  1  0  0  0  0
  1 30  1  0  0  0  0
  1 31  1  0  0  0  0
  2  3  1  0  0  0  0
  2  4  1  0  0  0  0
  2 32  1  0  0  0  0
  3 33  1  0  0  0  0
  3 34  1  0  0  0  0
  3 35  1  0  0  0  0
  4  5  1  0  0  0  0
  4 36  1  0  0  0  0
  4 37  1  0  0  0  0
  5  6  1  0  0  0  0
  5 38  1  0  0  0  0
  5 39  1  0  0  0  0
  6  7  1  0  0  0  0
  6 11  1  0  0  0  0
  7  8  1  0  0  0  0
  7 40  1  0  0  0  0
  7 41  1  0  0  0  0
  8  9  1  0  0  0  0
  8 42  1  0  0  0  0
  8 43  1  0  0  0  0
  9 10  3  0  0  0  0
 11 16  1  0  0  0  0
 11 12  2  0  0  0  0
 12 13  1  0  0  0  0
 13 14  2  0  0  0  0
 13 44  1  0  0  0  0
 14 15  1  0  0  0  0
 15 19  1  0  0  0  0
 15 16  2  0  0  0  0
 16 17  1  0  0  0  0
 17 18  2  0  0  0  0
 18 19  1  0  0  0  0
 18 45  1  0  0  0  0
 19 20  1  0  0  0  0
 20 21  1  0  0  0  0
 20 46  1  0  0  0  0
 20 47  1  0  0  0  0
 21 22  1  0  0  0  0
 21 24  1  0  0  0  0
 21 48  1  0  0  0  0
 22 23  1  0  0  0  0
 22 49  1  0  0  0  0
 22 50  1  0  0  0  0
 23 51  1  0  0  0  0
 24 28  1  0  0  0  0
 24 25  1  0  0  0  0
 24 52  1  0  0  0  0
 25 26  1  0  0  0  0
 25 53  1  0  0  0  0
 25 54  1  0  0  0  0
 26 27  1  0  0  0  0
 26 55  1  0  0  0  0
 26 56  1  0  0  0  0
 27 28  1  0  0  0  0
 28 57  1  0  0  0  0
 28 58  1  0  0  0  0
M  END
> <s_m_source_file>
AV-unprocessed.smi

> <i_m_source_file_index>
271

> <i_lp_mmshare_version>
43012

> <i_f3d_flags>
0

> <s_epik_input>
W0NIM11bQ0hdKFtDSDNdKVtDSDJdW0NIMl1OKFtDSDJdW0NIMl1DI04pYyhuW2NIXW4xKWMoYzEyKW5bY0hdbjJbQ0gyXVtDQEhdKFtDSDJdW09IXSlbQ0BASF0zW0NIMl1bQ0gyXU9bQ0gyXTM=

> <s_epik_cmdline>
J2VwaWtfcHl0aG9uJywgJy1waCcsICc3LjAnLCAnLXRuJywgJzgnLCAnLW1hJywgJzIwMCcsICctbWV0YWxfYmluZGluZycsICctaW1hZScsICc8aW5maWxlLm1hZT4nLCAnLW9tYWUnLCAnPG91dGZpbGUubWFlPic=

> <r_lp_tautomer_probability>
1

> <r_epik_Ionization_Penalty>
0.000825874

> <r_epik_Ionization_Penalty_Charging>
0

> <r_epik_Ionization_Penalty_Neutral>
0.000825874

> <r_epik_State_Penalty>
0.000396768

> <r_epik_Charging_Adjusted_Penalty>
0.000396768

> <i_epik_Tot_Q>
0

> <i_epik_Tot_abs_Q>
0

> <r_epik_Metal_State_Penalty>
-0

> <b_epik_Metal_Only>
0

> <s_lp_Force_Field>
OPLS_2005

> <r_lp_Energy>
34.7872

> <b_lp_Chiralities_Consistent>
1

> <s_lp_Variant>
AV-unprocessed.smi:271-1

> <Gold.Version>
5.8.1

> <Gold.Id.Protein>
6NUR|6NUR_protein|mol2

> <Gold.PLP.Fitness>
52.7082

> <Gold.PLP.PLP>
-48.4670

> <Gold.PLP.part.hbond>
-3.8427

> <Gold.PLP.part.metal>
0.0000

> <Gold.PLP.part.buried>
-5.2723

> <Gold.PLP.part.nonpolar>
-38.5269

> <Gold.PLP.part.repulsive>
0.1591

> <Gold.PLP.ligand.clash>
0.0000

> <Gold.PLP.ligand.torsion>
2.7072

> <Gold.PLP.Chemscore.Hbond>
3.0289

> <Gold.PLP.Chemscore.CHOScore>
0.0000

> <Gold.PLP.Chemscore.Metal>
0.0000

> <Gold.Chemscore.Hbonds>
donor molecule, donor type, donor heavy atom, donor atom, acceptor molecule, acceptor atom, score
      P1  H  6896  6909       L1    14  1.00
      P1  H  6931  6943       L1    23  0.30
      P1  H  6934  6947       L1    23  0.40
      P1  H  7989  7998       L1    10  1.00

> <Gold.PLP.Chemscore.Internal.Correction>
0.5689

> <Gold.Rescore>
     Score         DG    S(hbond)    S(metal)    S(lipo)     H(rot)  DE(clash)    DE(int)     intcor
     13.15     -17.38       2.76        0.00     105.24       3.77       0.08       4.15       ----

> <Gold.Chemscore.Fitness>
13.1524

> <Gold.Chemscore.DG>
-17.3752

> <Gold.Chemscore.ZeroCoef>
-5.4800

> <Gold.Chemscore.Hbond>
2.7633

> <Gold.Chemscore.Metal>
0.0000

> <Gold.Chemscore.Lipo>
105.2351

> <Gold.Chemscore.Internal_Hbond>
0.0000

> <Gold.Chemscore.DEClash>
0.0766

> <Gold.Chemscore.DEInternal>
4.1462

> <Gold.Chemscore.Rot>
3.7683

> <Gold.Chemscore.Internal.Correction>
   9.000000E+99

> <Gold.Chemscore.Hbonds>
donor molecule, donor type, donor heavy atom, donor atom, acceptor molecule, acceptor atom, score
      P1  H  6896  6909       L1    14  0.93
      P1  H  6931  6943       L1    23  0.01
      P1  H  6934  6947       L1    23  0.39
      P1  H  7989  7998       L1    10  0.25

> <Gold.Chemscore.Hbond.Weighted>
-9.2295

> <Gold.Chemscore.Metal.Weighted>
-0.0000

> <Gold.Chemscore.Lipo.Weighted>
-12.3125

> <Gold.Chemscore.Internal_Hbond.Weighted>
0.0000

> <Gold.Chemscore.DEClash.Weighted>
0.0766

> <Gold.Chemscore.DEInternal.Weighted>
4.1462

> <Gold.Chemscore.Rot.Weighted>
9.6468

> <Gold.Chemscore.Internal.Correction.Weighted>
   9.000000E+99

> <Gold.Protein.RotatedTorsions>
[ 6907 6896 6895 6894 ] final  102.45 input  -60.11 | X-H torsion
[ 7974 7965 7964 7962 ] final -157.61 input  175.53 | X-H torsion
[ 8008 7997 7996 7995 ] final  -33.95 input   59.86 | X-H torsion
[ 10167 10162 10161 10158 ] final  -71.26 input  -65.29 | X-H torsion
[ 10718 10713 10712 10709 ] final  -97.45 input   66.30 | X-H torsion
[ 10763 10752 10751 10750 ] final  -14.12 input  -60.55 | X-H torsion
[ 11005 11000 10999 10996 ] final  117.91 input  -57.11 | X-H torsion

> <Gold.Protein.ActiveResidues>
 VAL166  LYS551  ARG553  GLY616  TRP617  ASP618  TYR619  PRO620  LYS621  CYS622 
 ASP623  PHE694  ASN695  SER759  ASP760  ASP761  ALA762  ILE779  LEU786  VAL792 
 PHE793  MET794  SER795  GLU796  ALA797  LYS798  CYS799  TRP800  GLU811  SER814 

> <Gold.Protein.RotatedAtoms>
  152.5323  133.9974  159.7878 H   0  0  0  0  0  0  0  0  0  0  0  0  # atno 6907 bound_to 6896
  151.0199  133.5878  159.2679 H   0  0  0  0  0  0  0  0  0  0  0  0  # atno 6908 bound_to 6896
  151.2922  135.0752  159.9262 H   0  0  0  0  0  0  0  0  0  0  0  0  # atno 6909 bound_to 6896
  144.7541  140.3945  143.6026 H   0  0  0  0  0  0  0  0  0  0  0  0  # atno 7974 bound_to 7965
  154.4134  140.1697  156.1971 H   0  0  0  0  0  0  0  0  0  0  0  0  # atno 8008 bound_to 7997
  155.9555  140.3397  155.6421 H   0  0  0  0  0  0  0  0  0  0  0  0  # atno 8009 bound_to 7997
  155.6815  140.0723  157.2473 H   0  0  0  0  0  0  0  0  0  0  0  0  # atno 8010 bound_to 7997
  140.5287  143.2324  151.7301 H   0  0  0  0  0  0  0  0  0  0  0  0  # atno 10167 bound_to 10162
  156.0084  130.5195  150.6377 H   0  0  0  0  0  0  0  0  0  0  0  0  # atno 10718 bound_to 10713
  153.5235  135.7015  153.5719 H   0  0  0  0  0  0  0  0  0  0  0  0  # atno 10763 bound_to 10752
  153.3758  135.3933  155.1821 H   0  0  0  0  0  0  0  0  0  0  0  0  # atno 10764 bound_to 10752
  154.8692  135.3823  154.4726 H   0  0  0  0  0  0  0  0  0  0  0  0  # atno 10765 bound_to 10752
  139.9091  134.9615  156.7422 H   0  0  0  0  0  0  0  0  0  0  0  0  # atno 11005 bound_to 11000
  145.6841  139.1625  143.2684 LP  0  0  0  0  0  0  0  0  0  0  0  0  # atno 17320 bound_to 7965
  146.1529  140.6900  142.9314 LP  0  0  0  0  0  0  0  0  0  0  0  0  # atno 17321 bound_to 7965
  139.4947  144.4147  152.0043 LP  0  0  0  0  0  0  0  0  0  0  0  0  # atno 17342 bound_to 10162
  140.3248  144.3386  150.6001 LP  0  0  0  0  0  0  0  0  0  0  0  0  # atno 17343 bound_to 10162
  157.4163  131.0830  151.1173 LP  0  0  0  0  0  0  0  0  0  0  0  0  # atno 17370 bound_to 10713
  157.1789  130.6301  149.5665 LP  0  0  0  0  0  0  0  0  0  0  0  0  # atno 17371 bound_to 10713
  140.6840  133.9449  155.7927 LP  0  0  0  0  0  0  0  0  0  0  0  0  # atno 17394 bound_to 11000
  141.0490  134.0513  157.3808 LP  0  0  0  0  0  0  0  0  0  0  0  0  # atno 17395 bound_to 11000

$$$$
