#       Name:                AV-unprocessed.smi:101
#       Creating user name   scv26
#       Creation time:       Thu Mar 26 17:45:16 2020


#       File generated by GOLD software.
#

@<TRIPOS>MOLECULE
AV-unprocessed.smi:101
    56    58     1
SMALL
NO_CHARGES


@<TRIPOS>ATOM
      1 ****         1.0666   4.5838   0.5985 C.3            1 S1                 0.0000
      2 ****        -0.0027   4.0310  -0.3277 C.2            1 S1                 0.0000
      3 ****        -0.8468   3.0459   0.0509 C.2            1 S1                 0.0000
      4 ****        -1.8185   2.5344  -0.7958 N.am           1 S1                 0.0000
      5 ****        -2.7798   1.4473  -0.3310 C.3            1 S1                 0.0000
      6 ****        -2.3538   0.9415   0.9059 O.3            1 S1                 0.0000
      7 ****        -1.6851  -0.3056   0.7431 C.3            1 S1                 0.0000
      8 ****        -0.1795  -0.0816   0.4928 C.3            1 S1                 0.0000
      9 ****         0.5304  -1.2946   0.6847 O.3            1 S1                 0.0000
     10 ****         1.8699  -1.3222   0.5483 C.2            1 S1                 0.0000
     11 ****         2.5506  -0.3292   0.2831 O.2            1 S1                 0.0000
     12 ****         2.4436  -2.6830   0.7571 C.ar           1 S1                 0.0000
     13 ****         3.8455  -2.8618   0.6988 C.ar           1 S1                 0.0000
     14 ****         4.4148  -4.1357   0.8911 C.ar           1 S1                 0.0000
     15 ****         3.5891  -5.2467   1.1437 C.ar           1 S1                 0.0000
     16 ****         2.1930  -5.0822   1.2029 C.ar           1 S1                 0.0000
     17 ****         1.6218  -3.8091   1.0111 C.ar           1 S1                 0.0000
     18 ****        -2.4680  -0.9455  -0.4066 C.3            1 S1                 0.0000
     19 ****        -1.7255  -1.9257  -1.1065 O.3            1 S1                 0.0000
     20 ****        -2.8280   0.2369  -1.2997 C.3            1 S1                 0.0000
     21 ****        -4.1244   0.0416  -1.8302 O.3            1 S1                 0.0000
     22 ****        -2.0223   3.1561  -2.0588 C.2            1 S1                 0.0000
     23 ****        -2.9811   2.7924  -2.7387 O.2            1 S1                 0.0000
     24 ****        -1.1612   4.1340  -2.4603 N.pl3          1 S1                -1.0000
     25 ****        -0.1429   4.5889  -1.6767 C.2            1 S1                 0.0000
     26 ****         0.6470   5.4497  -2.0630 O.2            1 S1                 0.0000
     27 ****         1.0480   4.0863   1.5687 H              1 S1                 0.0000
     28 ****         0.9133   5.6510   0.7625 H              1 S1                 0.0000
     29 ****         2.0567   4.4398   0.1646 H              1 S1                 0.0000
     30 ****        -0.7523   2.6631   1.0550 H              1 S1                 0.0000
     31 ****        -3.7330   1.9655  -0.2125 H              1 S1                 0.0000
     32 ****        -1.8062  -0.8820   1.6612 H              1 S1                 0.0000
     33 ****        -0.0015   0.3138  -0.5084 H              1 S1                 0.0000
     34 ****         0.2028   0.6475   1.2076 H              1 S1                 0.0000
     35 ****         4.4999  -2.0235   0.5065 H              1 S1                 0.0000
     36 ****         5.4867  -4.2597   0.8443 H              1 S1                 0.0000
     37 ****         4.0255  -6.2237   1.2908 H              1 S1                 0.0000
     38 ****         1.5582  -5.9347   1.3955 H              1 S1                 0.0000
     39 ****         0.5465  -3.7189   1.0608 H              1 S1                 0.0000
     40 ****        -3.3704  -1.4030   0.0025 H              1 S1                 0.0000
     41 ****        -1.4993  -2.6177  -0.5045 H              1 S1                 0.0000
     42 ****        -2.0941   0.3566  -2.0984 H              1 S1                 0.0000
     43 ****        -4.7354  -0.0202  -1.1126 H              1 S1                 0.0000
     44 ****        -3.1492   0.8114   1.4977 LP             1 S1                 0.0000
     45 ****        -1.7271   1.5960   1.3288 LP             1 S1                 0.0000
     46 ****         2.1103   0.5597   0.1568 LP             1 S1                 0.0000
     47 ****         3.5432  -0.4126   0.1943 LP             1 S1                 0.0000
     48 ****        -0.8922  -1.5161  -1.4779 LP             1 S1                 0.0000
     49 ****        -2.2766  -2.2960  -1.8542 LP             1 S1                 0.0000
     50 ****        -4.1462  -0.8028  -2.3656 LP             1 S1                 0.0000
     51 ****        -4.3691   0.8141  -2.4161 LP             1 S1                 0.0000
     52 ****        -3.5923   2.0775  -2.3992 LP             1 S1                 0.0000
     53 ****        -3.1491   3.2117  -3.6309 LP             1 S1                 0.0000
     54 ****        -1.2818   4.5346  -3.3686 LP             1 S1                 0.0000
     55 ****         1.3787   5.7644  -1.4583 LP             1 S1                 0.0000
     56 ****         0.5574   5.8345  -2.9816 LP             1 S1                 0.0000
@<TRIPOS>BOND
    1    1    2 1     
    2    1   27 1     
    3    1   28 1     
    4    1   29 1     
    5    2   25 1     
    6    2    3 2     
    7    3    4 1     
    8    3   30 1     
    9    4    5 1     
   10    4   22 am    
   11    5   20 1     
   12    5    6 1     
   13    5   31 1     
   14    6    7 1     
   15    7    8 1     
   16    7   18 1     
   17    7   32 1     
   18    8    9 1     
   19    8   33 1     
   20    8   34 1     
   21    9   10 1     
   22   10   11 2     
   23   10   12 1     
   24   12   17 ar    
   25   12   13 ar    
   26   13   14 ar    
   27   13   35 1     
   28   14   15 ar    
   29   14   36 1     
   30   15   16 ar    
   31   15   37 1     
   32   16   17 ar    
   33   16   38 1     
   34   17   39 1     
   35   18   19 1     
   36   18   20 1     
   37   18   40 1     
   38   19   41 1     
   39   20   21 1     
   40   20   42 1     
   41   21   43 1     
   42   22   23 2     
   43   22   24 1     
   44   24   25 1     
   45   25   26 2     
   46    6   44 1     
   47    6   45 1     
   48   11   46 1     
   49   11   47 1     
   50   19   48 1     
   51   19   49 1     
   52   21   50 1     
   53   21   51 1     
   54   23   52 1     
   55   23   53 1     
   56   24   54 1     
   57   26   55 1     
   58   26   56 1     
@<TRIPOS>SUBSTRUCTURE
      1 S1             1
@<TRIPOS>SET
LONE_PAIRS      STATIC     ATOMS    <user>   **** ""
13 44 45 46 47 48 49 50 51 52 53 54 55 56
DONOR_HYDROGENS      STATIC     ATOMS    <user>   **** ""
2 41 43
ATOM$BLUE        STATIC     ATOMS    COLORGROUP SYSTEM
13 44 45 46 47 48 49 50 51 52 53 54 55 56
ATOM$RED        STATIC     ATOMS    COLORGROUP SYSTEM
2 41 43
