AV-unprocessed.smi:3113|AV-procd|sdf|11852|dock8
  -GOLD-   2272017233D 1   1.00000     0.00000
 Structure written by MMmdl.
 35 36  0  0  0  0  0  0  0  0  2 V2000
  152.2579  143.7812  161.9769 C   0  0  0  0  0  0  0  0  0  0  0  0
  152.9411  142.7221  161.3160 C   0  0  0  0  0  0  0  0  0  0  0  0
  153.0267  142.9081  160.0085 N   0  0  0  0  0  0  0  0  0  0  0  0
  152.4080  144.0892  159.7931 N   0  0  0  0  0  0  0  0  0  0  0  0
  152.3082  144.6132  158.4445 C   0  0  0  0  0  0  0  0  0  0  0  0
  151.6358  143.6141  157.4914 C   0  0  0  0  0  0  0  0  0  0  0  0
  150.2053  143.4534  157.8150 N   0  3  0  0  0  0  0  0  0  0  0  0
  149.7228  142.0608  157.7287 C   0  0  0  0  0  0  0  0  0  0  0  0
  150.3431  141.3344  156.5265 C   0  0  2  0  0  0  0  0  0  0  0  0
  149.3087  140.4656  155.7842 C   0  0  0  0  0  0  0  0  0  0  0  0
  149.9779  139.6746  154.6542 C   0  0  0  0  0  0  0  0  0  0  0  0
  151.1713  138.8908  155.2096 C   0  0  0  0  0  0  0  0  0  0  0  0
  152.1112  139.8289  155.9827 C   0  0  0  0  0  0  0  0  0  0  0  0
  151.3899  140.4966  157.0140 O   0  0  0  0  0  0  0  0  0  0  0  0
  151.9294  144.6371  160.9650 C   0  0  0  0  0  0  0  0  0  0  0  0
  152.0418  143.8933  163.0292 H   0  0  0  0  0  0  0  0  0  0  0  0
  153.3731  141.8297  161.7446 H   0  0  0  0  0  0  0  0  0  0  0  0
  151.7472  145.5482  158.4778 H   0  0  0  0  0  0  0  0  0  0  0  0
  153.3116  144.8573  158.0928 H   0  0  0  0  0  0  0  0  0  0  0  0
  151.7331  143.9587  156.4609 H   0  0  0  0  0  0  0  0  0  0  0  0
  152.1275  142.6425  157.5553 H   0  0  0  0  0  0  0  0  0  0  0  0
  150.0456  143.7916  158.7532 H   0  0  0  0  0  0  0  0  0  0  0  0
  149.9578  141.5296  158.6523 H   0  0  0  0  0  0  0  0  0  0  0  0
  148.6362  142.0765  157.6337 H   0  0  0  0  0  0  0  0  0  0  0  0
  150.7577  142.0722  155.8365 H   0  0  0  0  0  0  0  0  0  0  0  0
  148.8386  139.7731  156.4840 H   0  0  0  0  0  0  0  0  0  0  0  0
  148.5114  141.0894  155.3784 H   0  0  0  0  0  0  0  0  0  0  0  0
  149.2622  138.9979  154.1864 H   0  0  0  0  0  0  0  0  0  0  0  0
  150.3179  140.3595  153.8764 H   0  0  0  0  0  0  0  0  0  0  0  0
  150.8157  138.1025  155.8743 H   0  0  0  0  0  0  0  0  0  0  0  0
  151.7105  138.3983  154.3998 H   0  0  0  0  0  0  0  0  0  0  0  0
  152.9223  139.2571  156.4341 H   0  0  0  0  0  0  0  0  0  0  0  0
  152.5705  140.5584  155.3138 H   0  0  0  0  0  0  0  0  0  0  0  0
  151.4016  145.5795  160.9828 H   0  0  0  0  0  0  0  0  0  0  0  0
  149.6662  144.0163  157.1721 H   0  0  0  0  0  0  0  0  0  0  0  0
  1 15  2  0  0  0  0
  1  2  1  0  0  0  0
  1 16  1  0  0  0  0
  2  3  2  0  0  0  0
  2 17  1  0  0  0  0
  3  4  1  0  0  0  0
  4  5  1  0  0  0  0
  4 15  1  0  0  0  0
  5  6  1  0  0  0  0
  5 18  1  0  0  0  0
  5 19  1  0  0  0  0
  6  7  1  0  0  0  0
  6 20  1  0  0  0  0
  6 21  1  0  0  0  0
  7  8  1  0  0  0  0
  7 22  1  0  0  0  0
  7 35  1  0  0  0  0
  8  9  1  0  0  0  0
  8 23  1  0  0  0  0
  8 24  1  0  0  0  0
  9 14  1  0  0  0  0
  9 10  1  0  0  0  0
  9 25  1  0  0  0  0
 10 11  1  0  0  0  0
 10 26  1  0  0  0  0
 10 27  1  0  0  0  0
 11 12  1  0  0  0  0
 11 28  1  0  0  0  0
 11 29  1  0  0  0  0
 12 13  1  0  0  0  0
 12 30  1  0  0  0  0
 12 31  1  0  0  0  0
 13 14  1  0  0  0  0
 13 32  1  0  0  0  0
 13 33  1  0  0  0  0
 15 34  1  0  0  0  0
M  CHG  1   7   1
M  END
> <s_m_source_file>
AV-unprocessed.smi

> <i_m_source_file_index>
3113

> <i_lp_mmshare_version>
43012

> <i_f3d_flags>
0

> <s_epik_input>
W2NIXTFbY0hdW2NIXW5uMVtDSDJdW0NIMl1bTkhdW0NIMl1bQ0BASF0yW0NIMl1bQ0gyXVtDSDJdW0NIMl1PMg==

> <s_epik_cmdline>
J2VwaWtfcHl0aG9uJywgJy1waCcsICc3LjAnLCAnLXRuJywgJzgnLCAnLW1hJywgJzIwMCcsICctbWV0YWxfYmluZGluZycsICctaW1hZScsICc8aW5maWxlLm1hZT4nLCAnLW9tYWUnLCAnPG91dGZpbGUubWFlPic=

> <r_lp_tautomer_probability>
1

> <r_epik_Ionization_Penalty>
0.00849054

> <r_epik_Ionization_Penalty_Charging>
0.00848754

> <r_epik_Ionization_Penalty_Neutral>
3.00382e-06

> <r_epik_State_Penalty>
0.00639836

> <r_epik_Charging_Adjusted_Penalty>
0.0148859

> <i_epik_Tot_Q>
1

> <i_epik_Tot_abs_Q>
1

> <r_epik_Metal_State_Penalty>
0.00641155

> <b_epik_Metal_Only>
0

> <s_lp_Force_Field>
OPLS_2005

> <r_lp_Energy>
10.9258

> <b_lp_Chiralities_Consistent>
1

> <s_lp_Variant>
AV-unprocessed.smi:3113-1

> <Gold.Version>
5.8.1

> <Gold.Id.Protein>
6NUR|6NUR_protein|mol2

> <Gold.PLP.Fitness>
44.5281

> <Gold.PLP.PLP>
-40.5462

> <Gold.PLP.part.hbond>
-1.0000

> <Gold.PLP.part.metal>
0.0000

> <Gold.PLP.part.buried>
-3.9856

> <Gold.PLP.part.nonpolar>
-35.1222

> <Gold.PLP.part.repulsive>
0.0279

> <Gold.PLP.ligand.clash>
0.0000

> <Gold.PLP.ligand.torsion>
1.0140

> <Gold.PLP.Chemscore.Hbond>
2.0000

> <Gold.PLP.Chemscore.CHOScore>
0.0000

> <Gold.PLP.Chemscore.Metal>
0.0000

> <Gold.Chemscore.Hbonds>
donor molecule, donor type, donor heavy atom, donor atom, acceptor molecule, acceptor atom, score
      L1  H     7    35       P1  8028  2.00

> <Gold.PLP.Chemscore.Internal.Correction>
0.0099

> <Gold.Rescore>
     Score         DG    S(hbond)    S(metal)    S(lipo)     H(rot)  DE(clash)    DE(int)     intcor
     15.27     -16.28       0.93        0.00     103.01       1.70       0.04       0.96       ----

> <Gold.Chemscore.Fitness>
15.2722

> <Gold.Chemscore.DG>
-16.2797

> <Gold.Chemscore.ZeroCoef>
-5.4800

> <Gold.Chemscore.Hbond>
0.9267

> <Gold.Chemscore.Metal>
0.0000

> <Gold.Chemscore.Lipo>
103.0141

> <Gold.Chemscore.Internal_Hbond>
0.0000

> <Gold.Chemscore.DEClash>
0.0440

> <Gold.Chemscore.DEInternal>
0.9635

> <Gold.Chemscore.Rot>
1.6985

> <Gold.Chemscore.Internal.Correction>
   9.000000E+99

> <Gold.Chemscore.Hbonds>
donor molecule, donor type, donor heavy atom, donor atom, acceptor molecule, acceptor atom, score
      L1  H     7    35       P1  8028  0.65

> <Gold.Chemscore.Hbond.Weighted>
-3.0953

> <Gold.Chemscore.Metal.Weighted>
-0.0000

> <Gold.Chemscore.Lipo.Weighted>
-12.0527

> <Gold.Chemscore.Internal_Hbond.Weighted>
0.0000

> <Gold.Chemscore.DEClash.Weighted>
0.0440

> <Gold.Chemscore.DEInternal.Weighted>
0.9635

> <Gold.Chemscore.Rot.Weighted>
4.3482

> <Gold.Chemscore.Internal.Correction.Weighted>
   9.000000E+99

> <Gold.Protein.RotatedTorsions>
[ 6907 6896 6895 6894 ] final   13.21 input  -60.11 | X-H torsion
[ 7974 7965 7964 7962 ] final  -70.63 input  175.53 | X-H torsion
[ 8008 7997 7996 7995 ] final -153.44 input   59.86 | X-H torsion
[ 10167 10162 10161 10158 ] final -148.57 input  -65.29 | X-H torsion
[ 10718 10713 10712 10709 ] final  -12.12 input   66.30 | X-H torsion
[ 10763 10752 10751 10750 ] final   62.18 input  -60.55 | X-H torsion
[ 11005 11000 10999 10996 ] final    0.22 input  -57.11 | X-H torsion

> <Gold.Protein.ActiveResidues>
 VAL166  LYS551  ARG553  GLY616  TRP617  ASP618  TYR619  PRO620  LYS621  CYS622 
 ASP623  PHE694  ASN695  SER759  ASP760  ASP761  ALA762  ILE779  LEU786  VAL792 
 PHE793  MET794  SER795  GLU796  ALA797  LYS798  CYS799  TRP800  GLU811  SER814 

> <Gold.Protein.RotatedAtoms>
  151.7827  135.0757  160.0375 H   0  0  0  0  0  0  0  0  0  0  0  0  # atno 6907 bound_to 6896
  152.3211  133.5851  159.5754 H   0  0  0  0  0  0  0  0  0  0  0  0  # atno 6908 bound_to 6896
  150.7370  133.9925  159.3653 H   0  0  0  0  0  0  0  0  0  0  0  0  # atno 6909 bound_to 6896
  145.6884  140.9162  143.0794 H   0  0  0  0  0  0  0  0  0  0  0  0  # atno 7974 bound_to 7965
  155.6709  140.0733  157.2520 H   0  0  0  0  0  0  0  0  0  0  0  0  # atno 8008 bound_to 7997
  154.4123  140.1699  156.1929 H   0  0  0  0  0  0  0  0  0  0  0  0  # atno 8009 bound_to 7997
  155.9618  140.3369  155.6500 H   0  0  0  0  0  0  0  0  0  0  0  0  # atno 8010 bound_to 7997
  139.7519  143.8505  152.2588 H   0  0  0  0  0  0  0  0  0  0  0  0  # atno 10167 bound_to 10162
  156.6492  130.4950  149.6068 H   0  0  0  0  0  0  0  0  0  0  0  0  # atno 10718 bound_to 10713
  152.9974  135.5474  154.6152 H   0  0  0  0  0  0  0  0  0  0  0  0  # atno 10763 bound_to 10752
  154.5464  135.2823  155.1051 H   0  0  0  0  0  0  0  0  0  0  0  0  # atno 10764 bound_to 10752
  154.2308  135.6434  153.5227 H   0  0  0  0  0  0  0  0  0  0  0  0  # atno 10765 bound_to 10752
  140.6290  133.9592  155.8264 H   0  0  0  0  0  0  0  0  0  0  0  0  # atno 11005 bound_to 11000
  144.7004  139.8789  143.7446 LP  0  0  0  0  0  0  0  0  0  0  0  0  # atno 17320 bound_to 7965
  146.0903  139.3893  143.0410 LP  0  0  0  0  0  0  0  0  0  0  0  0  # atno 17321 bound_to 7965
  139.8486  144.7175  150.9242 LP  0  0  0  0  0  0  0  0  0  0  0  0  # atno 17342 bound_to 10162
  140.7799  143.3919  151.1295 LP  0  0  0  0  0  0  0  0  0  0  0  0  # atno 17343 bound_to 10162
  156.2097  130.6671  151.1256 LP  0  0  0  0  0  0  0  0  0  0  0  0  # atno 17370 bound_to 10713
  157.7146  131.0716  150.6374 LP  0  0  0  0  0  0  0  0  0  0  0  0  # atno 17371 bound_to 10713
  141.0689  134.0236  157.3555 LP  0  0  0  0  0  0  0  0  0  0  0  0  # atno 17394 bound_to 11000
  139.9123  135.0192  156.7743 LP  0  0  0  0  0  0  0  0  0  0  0  0  # atno 17395 bound_to 11000

$$$$
