AV-unprocessed.smi:901|AV-procd|sdf|4091|dock6
  -GOLD-   22720 1583D 1   1.00000     0.00000
 Structure written by MMmdl.
 43 44  0  0  0  0  0  0  0  0  1 V2000
  154.1958  140.7666  160.7357 C   0  0  0  0  0  0  0  0  0  0  0  0
  153.5070  142.0545  160.3309 C   0  0  0  0  0  0  0  0  0  0  0  0
  153.0685  142.9315  161.4906 C   0  0  0  0  0  0  0  0  0  0  0  0
  153.3124  142.3760  159.0375 C   0  0  0  0  0  0  0  0  0  0  0  0
  152.6459  143.6060  158.5175 C   0  0  1  0  0  0  0  0  0  0  0  0
  151.5213  143.6042  157.4860 C   0  0  1  0  0  0  0  0  0  0  0  0
  151.0105  142.3064  156.9442 C   0  0  0  0  0  0  0  0  0  0  0  0
  151.4682  141.2229  157.3050 O   0  0  0  0  0  0  0  0  0  0  0  0
  150.0869  142.4594  155.9781 N   0  0  0  0  0  0  0  0  0  0  0  0
  149.3719  141.4604  155.2686 C   0  0  0  0  0  0  0  0  0  0  0  0
  149.4657  140.0510  155.4739 C   0  0  0  0  0  0  0  0  0  0  0  0
  148.5905  139.5429  154.5571 C   0  0  0  0  0  0  0  0  0  0  0  0
  148.0303  140.6082  153.8804 N   0  0  0  0  0  0  0  0  0  0  0  0
  147.0452  140.5812  152.8109 C   0  0  0  0  0  0  0  0  0  0  0  0
  146.4955  139.1733  152.5501 C   0  0  0  0  0  0  0  0  0  0  0  0
  145.9192  138.5565  153.5845 N   0  0  0  0  0  0  0  0  0  0  0  0
  146.5885  138.6426  151.4442 O   0  0  0  0  0  0  0  0  0  0  0  0
  148.5158  141.7913  154.3172 N   0  0  0  0  0  0  0  0  0  0  0  0
  151.2377  143.9959  158.9324 C   0  0  0  0  0  0  0  0  0  0  0  0
  150.4248  143.1115  159.8754 C   0  0  0  0  0  0  0  0  0  0  0  0
  150.9379  145.4543  159.2301 C   0  0  0  0  0  0  0  0  0  0  0  0
  153.5309  140.1588  161.3499 H   0  0  0  0  0  0  0  0  0  0  0  0
  155.0937  140.9851  161.3142 H   0  0  0  0  0  0  0  0  0  0  0  0
  154.4888  140.1771  159.8664 H   0  0  0  0  0  0  0  0  0  0  0  0
  153.9299  143.1982  162.1033 H   0  0  0  0  0  0  0  0  0  0  0  0
  152.3566  142.3952  162.1182 H   0  0  0  0  0  0  0  0  0  0  0  0
  152.5962  143.8564  161.1606 H   0  0  0  0  0  0  0  0  0  0  0  0
  153.6602  141.6811  158.2878 H   0  0  0  0  0  0  0  0  0  0  0  0
  153.3636  144.4191  158.4252 H   0  0  0  0  0  0  0  0  0  0  0  0
  151.5831  144.4009  156.7471 H   0  0  0  0  0  0  0  0  0  0  0  0
  149.8440  143.4108  155.7434 H   0  0  0  0  0  0  0  0  0  0  0  0
  150.0673  139.4886  156.1718 H   0  0  0  0  0  0  0  0  0  0  0  0
  148.3181  138.5218  154.3342 H   0  0  0  0  0  0  0  0  0  0  0  0
  146.2186  141.2486  153.0597 H   0  0  0  0  0  0  0  0  0  0  0  0
  147.5135  140.9718  151.9063 H   0  0  0  0  0  0  0  0  0  0  0  0
  145.5363  137.6292  153.4707 H   0  0  0  0  0  0  0  0  0  0  0  0
  145.8653  139.0227  154.4787 H   0  0  0  0  0  0  0  0  0  0  0  0
  149.3590  143.3017  159.7463 H   0  0  0  0  0  0  0  0  0  0  0  0
  150.6888  143.3228  160.9121 H   0  0  0  0  0  0  0  0  0  0  0  0
  150.5997  142.0512  159.6942 H   0  0  0  0  0  0  0  0  0  0  0  0
  149.8794  145.6640  159.0744 H   0  0  0  0  0  0  0  0  0  0  0  0
  151.5155  146.1096  158.5773 H   0  0  0  0  0  0  0  0  0  0  0  0
  151.1934  145.6918  160.2633 H   0  0  0  0  0  0  0  0  0  0  0  0
  1  2  1  0  0  0  0
  1 22  1  0  0  0  0
  1 23  1  0  0  0  0
  1 24  1  0  0  0  0
  2  3  1  0  0  0  0
  2  4  2  0  0  0  0
  3 25  1  0  0  0  0
  3 26  1  0  0  0  0
  3 27  1  0  0  0  0
  4  5  1  0  0  0  0
  4 28  1  0  0  0  0
  5 19  1  0  0  0  0
  5  6  1  0  0  0  0
  5 29  1  0  0  0  0
  6  7  1  0  0  0  0
  6 19  1  0  0  0  0
  6 30  1  0  0  0  0
  7  8  2  0  0  0  0
  7  9  1  0  0  0  0
  9 10  1  0  0  0  0
  9 31  1  0  0  0  0
 10 18  2  0  0  0  0
 10 11  1  0  0  0  0
 11 12  2  0  0  0  0
 11 32  1  0  0  0  0
 12 13  1  0  0  0  0
 12 33  1  0  0  0  0
 13 14  1  0  0  0  0
 13 18  1  0  0  0  0
 14 15  1  0  0  0  0
 14 34  1  0  0  0  0
 14 35  1  0  0  0  0
 15 16  1  0  0  0  0
 15 17  2  0  0  0  0
 16 36  1  0  0  0  0
 16 37  1  0  0  0  0
 19 20  1  0  0  0  0
 19 21  1  0  0  0  0
 20 38  1  0  0  0  0
 20 39  1  0  0  0  0
 20 40  1  0  0  0  0
 21 41  1  0  0  0  0
 21 42  1  0  0  0  0
 21 43  1  0  0  0  0
M  END
> <s_m_source_file>
AV-unprocessed.smi

> <i_m_source_file_index>
901

> <i_lp_mmshare_version>
43012

> <i_f3d_flags>
0

> <s_epik_input>
W0NIM11DKFtDSDNdKT1bQ0hdW0NAQEhdKEMxKFtDSDNdKVtDSDNdKVtDQEhdMUMoPU8pW05IXWMyW2NIXVtjSF1uKG4yKVtDSDJdQyg9TylbTkgyXQ==

> <s_epik_cmdline>
J2VwaWtfcHl0aG9uJywgJy1waCcsICc3LjAnLCAnLXRuJywgJzgnLCAnLW1hJywgJzIwMCcsICctbWV0YWxfYmluZGluZycsICctaW1hZScsICc8aW5maWxlLm1hZT4nLCAnLW9tYWUnLCAnPG91dGZpbGUubWFlPic=

> <r_lp_tautomer_probability>
1

> <r_epik_Ionization_Penalty>
1.01454e-05

> <r_epik_Ionization_Penalty_Charging>
0

> <r_epik_Ionization_Penalty_Neutral>
1.01454e-05

> <r_epik_State_Penalty>
-0

> <r_epik_Charging_Adjusted_Penalty>
0

> <i_epik_Tot_Q>
0

> <i_epik_Tot_abs_Q>
0

> <r_epik_Metal_State_Penalty>
-0

> <b_epik_Metal_Only>
0

> <s_lp_Force_Field>
OPLS_2005

> <r_lp_Energy>
23.331

> <b_lp_Chiralities_Consistent>
1

> <s_lp_Variant>
AV-unprocessed.smi:901-2

> <Gold.Version>
5.8.1

> <Gold.Id.Protein>
6NUR|6NUR_protein|mol2

> <Gold.PLP.Fitness>
47.9867

> <Gold.PLP.PLP>
-41.3068

> <Gold.PLP.part.hbond>
-3.9576

> <Gold.PLP.part.metal>
0.0000

> <Gold.PLP.part.buried>
1.8642

> <Gold.PLP.part.nonpolar>
-40.9056

> <Gold.PLP.part.repulsive>
1.1150

> <Gold.PLP.ligand.clash>
0.0000

> <Gold.PLP.ligand.torsion>
0.1711

> <Gold.PLP.Chemscore.Hbond>
2.2678

> <Gold.PLP.Chemscore.CHOScore>
0.0000

> <Gold.PLP.Chemscore.Metal>
0.0000

> <Gold.Chemscore.Hbonds>
donor molecule, donor type, donor heavy atom, donor atom, acceptor molecule, acceptor atom, score
      L1  H     9    31       P1  8028  1.00
      P1  H  7954  7966       L1    17  0.23

> <Gold.PLP.Chemscore.Internal.Correction>
0.2185

> <Gold.Rescore>
     Score         DG    S(hbond)    S(metal)    S(lipo)     H(rot)  DE(clash)    DE(int)     intcor
     13.37     -20.09       2.03        0.00     113.46       2.13       3.85       2.88       ----

> <Gold.Chemscore.Fitness>
13.3674

> <Gold.Chemscore.DG>
-20.0881

> <Gold.Chemscore.ZeroCoef>
-5.4800

> <Gold.Chemscore.Hbond>
2.0324

> <Gold.Chemscore.Metal>
0.0000

> <Gold.Chemscore.Lipo>
113.4622

> <Gold.Chemscore.Internal_Hbond>
0.0000

> <Gold.Chemscore.DEClash>
3.8451

> <Gold.Chemscore.DEInternal>
2.8755

> <Gold.Chemscore.Rot>
2.1309

> <Gold.Chemscore.Internal.Correction>
   9.000000E+99

> <Gold.Chemscore.Hbonds>
donor molecule, donor type, donor heavy atom, donor atom, acceptor molecule, acceptor atom, score
      L1  H     9    31       P1  8028  0.98
      P1  H  7954  7966       L1    17  0.22

> <Gold.Chemscore.Hbond.Weighted>
-6.7882

> <Gold.Chemscore.Metal.Weighted>
-0.0000

> <Gold.Chemscore.Lipo.Weighted>
-13.2751

> <Gold.Chemscore.Internal_Hbond.Weighted>
0.0000

> <Gold.Chemscore.DEClash.Weighted>
3.8451

> <Gold.Chemscore.DEInternal.Weighted>
2.8755

> <Gold.Chemscore.Rot.Weighted>
5.4552

> <Gold.Chemscore.Internal.Correction.Weighted>
   9.000000E+99

> <Gold.Protein.RotatedTorsions>
[ 6907 6896 6895 6894 ] final   -7.16 input  -60.11 | X-H torsion
[ 7974 7965 7964 7962 ] final -153.79 input  175.53 | X-H torsion
[ 8008 7997 7996 7995 ] final -147.04 input   59.86 | X-H torsion
[ 10167 10162 10161 10158 ] final  -89.55 input  -65.29 | X-H torsion
[ 10718 10713 10712 10709 ] final  -92.06 input   66.30 | X-H torsion
[ 10763 10752 10751 10750 ] final   71.03 input  -60.55 | X-H torsion
[ 11005 11000 10999 10996 ] final   11.94 input  -57.11 | X-H torsion

> <Gold.Protein.ActiveResidues>
 VAL166  LYS551  ARG553  GLY616  TRP617  ASP618  TYR619  PRO620  LYS621  CYS622 
 ASP623  PHE694  ASN695  SER759  ASP760  ASP761  ALA762  ILE779  LEU786  VAL792 
 PHE793  MET794  SER795  GLU796  ALA797  LYS798  CYS799  TRP800  GLU811  SER814 

> <Gold.Protein.RotatedAtoms>
  151.4541  135.1032  159.9705 H   0  0  0  0  0  0  0  0  0  0  0  0  # atno 6907 bound_to 6896
  152.4877  133.8413  159.7164 H   0  0  0  0  0  0  0  0  0  0  0  0  # atno 6908 bound_to 6896
  150.9002  133.7069  159.2908 H   0  0  0  0  0  0  0  0  0  0  0  0  # atno 6909 bound_to 6896
  144.7722  140.4477  143.5899 H   0  0  0  0  0  0  0  0  0  0  0  0  # atno 7974 bound_to 7965
  155.5691  140.0632  157.2811 H   0  0  0  0  0  0  0  0  0  0  0  0  # atno 8008 bound_to 7997
  154.4366  140.1872  156.0907 H   0  0  0  0  0  0  0  0  0  0  0  0  # atno 8009 bound_to 7997
  156.0390  140.3298  155.7226 H   0  0  0  0  0  0  0  0  0  0  0  0  # atno 8010 bound_to 7997
  140.3637  143.2829  151.9584 H   0  0  0  0  0  0  0  0  0  0  0  0  # atno 10167 bound_to 10162
  155.9999  130.4972  150.5569 H   0  0  0  0  0  0  0  0  0  0  0  0  # atno 10718 bound_to 10713
  153.0375  135.5152  154.7531 H   0  0  0  0  0  0  0  0  0  0  0  0  # atno 10763 bound_to 10752
  154.6496  135.2923  155.0006 H   0  0  0  0  0  0  0  0  0  0  0  0  # atno 10764 bound_to 10752
  154.0895  135.6652  153.4903 H   0  0  0  0  0  0  0  0  0  0  0  0  # atno 10765 bound_to 10752
  140.4976  134.0778  155.7786 H   0  0  0  0  0  0  0  0  0  0  0  0  # atno 11005 bound_to 11000
  145.6289  139.1533  143.2980 LP  0  0  0  0  0  0  0  0  0  0  0  0  # atno 17320 bound_to 7965
  146.1877  140.6394  142.9160 LP  0  0  0  0  0  0  0  0  0  0  0  0  # atno 17321 bound_to 7965
  139.4811  144.5970  151.7673 LP  0  0  0  0  0  0  0  0  0  0  0  0  # atno 17342 bound_to 10162
  140.5102  144.1036  150.5993 LP  0  0  0  0  0  0  0  0  0  0  0  0  # atno 17343 bound_to 10162
  157.3484  131.0729  151.1733 LP  0  0  0  0  0  0  0  0  0  0  0  0  # atno 17370 bound_to 10713
  157.2558  130.6635  149.5952 LP  0  0  0  0  0  0  0  0  0  0  0  0  # atno 17371 bound_to 10713
  141.1452  133.9068  157.2232 LP  0  0  0  0  0  0  0  0  0  0  0  0  # atno 17394 bound_to 11000
  139.9732  135.0122  156.9565 LP  0  0  0  0  0  0  0  0  0  0  0  0  # atno 17395 bound_to 11000

$$$$
