AV-unprocessed.smi:2000|AV-procd|sdf|8101|dock8
  -GOLD-   2272010323D 1   1.00000     0.00000
 Structure written by MMmdl.
 43 44  0  0  0  0  0  0  0  0  1 V2000
  146.6413  137.0859  158.5291 C   0  0  0  0  0  0  0  0  0  0  0  0
  147.5750  136.1438  159.3062 C   0  0  1  0  0  0  0  0  0  0  0  0
  149.0467  136.3705  158.9338 C   0  0  0  0  0  0  0  0  0  0  0  0
  149.7273  135.4476  158.4852 O   0  0  0  0  0  0  0  0  0  0  0  0
  149.5322  137.6058  159.1369 N   0  0  0  0  0  0  0  0  0  0  0  0
  150.9067  138.0177  158.8660 C   0  0  0  0  0  0  0  0  0  0  0  0
  151.2427  138.2372  157.3881 C   0  0  0  0  0  0  0  0  0  0  0  0
  150.5805  137.5103  156.3702 C   0  0  0  0  0  0  0  0  0  0  0  0
  150.9338  137.7226  155.0257 C   0  0  0  0  0  0  0  0  0  0  0  0
  151.9471  138.6543  154.7421 C   0  0  0  0  0  0  0  0  0  0  0  0
  152.5958  139.3500  155.6974 N   0  0  0  0  0  0  0  0  0  0  0  0
  152.2587  139.1493  156.9951 C   0  0  0  0  0  0  0  0  0  0  0  0
  152.9454  139.9057  157.9609 N   0  0  0  0  0  0  0  0  0  0  0  0
  153.7140  139.0776  158.8816 C   0  0  0  0  0  0  0  0  0  0  0  0
  154.5883  139.9659  159.7840 C   0  0  0  0  0  0  0  0  0  0  0  0
  153.7723  140.9219  160.4562 O   0  0  0  0  0  0  0  0  0  0  0  0
  153.0830  141.7734  159.5448 C   0  0  0  0  0  0  0  0  0  0  0  0
  152.1628  140.9268  158.6491 C   0  0  0  0  0  0  0  0  0  0  0  0
  147.3334  136.3780  161.1299 S   0  0  0  0  0  0  0  0  0  0  0  0
  146.6554  134.7534  161.6724 C   0  0  0  0  0  0  0  0  0  0  0  0
  148.6465  136.5592  161.7678 O   0  0  0  0  0  0  0  0  0  0  0  0
  146.2916  137.3979  161.3240 O   0  0  0  0  0  0  0  0  0  0  0  0
  146.7946  136.9984  157.4529 H   0  0  0  0  0  0  0  0  0  0  0  0
  146.8022  138.1283  158.8074 H   0  0  0  0  0  0  0  0  0  0  0  0
  145.5963  136.8505  158.7316 H   0  0  0  0  0  0  0  0  0  0  0  0
  147.2993  135.1141  159.0754 H   0  0  0  0  0  0  0  0  0  0  0  0
  148.9116  138.3083  159.5123 H   0  0  0  0  0  0  0  0  0  0  0  0
  151.1239  138.9166  159.4442 H   0  0  0  0  0  0  0  0  0  0  0  0
  151.5699  137.2427  159.2505 H   0  0  0  0  0  0  0  0  0  0  0  0
  149.8102  136.7902  156.6021 H   0  0  0  0  0  0  0  0  0  0  0  0
  150.4410  137.1821  154.2313 H   0  0  0  0  0  0  0  0  0  0  0  0
  152.2469  138.8445  153.7222 H   0  0  0  0  0  0  0  0  0  0  0  0
  153.0296  138.4856  159.4911 H   0  0  0  0  0  0  0  0  0  0  0  0
  154.3395  138.3752  158.3293 H   0  0  0  0  0  0  0  0  0  0  0  0
  155.1046  139.3561  160.5256 H   0  0  0  0  0  0  0  0  0  0  0  0
  155.3562  140.4750  159.1993 H   0  0  0  0  0  0  0  0  0  0  0  0
  152.4959  142.4979  160.1092 H   0  0  0  0  0  0  0  0  0  0  0  0
  153.7983  142.3390  158.9454 H   0  0  0  0  0  0  0  0  0  0  0  0
  151.6588  141.5608  157.9188 H   0  0  0  0  0  0  0  0  0  0  0  0
  151.3911  140.4571  159.2608 H   0  0  0  0  0  0  0  0  0  0  0  0
  146.3946  134.8090  162.7291 H   0  0  0  0  0  0  0  0  0  0  0  0
  147.4026  133.9728  161.5323 H   0  0  0  0  0  0  0  0  0  0  0  0
  145.7633  134.5163  161.0933 H   0  0  0  0  0  0  0  0  0  0  0  0
  1  2  1  0  0  0  0
  1 23  1  0  0  0  0
  1 24  1  0  0  0  0
  1 25  1  0  0  0  0
  2  3  1  0  0  0  0
  2 19  1  0  0  0  0
  2 26  1  0  0  0  0
  3  4  2  0  0  0  0
  3  5  1  0  0  0  0
  5  6  1  0  0  0  0
  5 27  1  0  0  0  0
  6  7  1  0  0  0  0
  6 28  1  0  0  0  0
  6 29  1  0  0  0  0
  7 12  1  0  0  0  0
  7  8  2  0  0  0  0
  8  9  1  0  0  0  0
  8 30  1  0  0  0  0
  9 10  2  0  0  0  0
  9 31  1  0  0  0  0
 10 11  1  0  0  0  0
 10 32  1  0  0  0  0
 11 12  2  0  0  0  0
 12 13  1  0  0  0  0
 13 18  1  0  0  0  0
 13 14  1  0  0  0  0
 14 15  1  0  0  0  0
 14 33  1  0  0  0  0
 14 34  1  0  0  0  0
 15 16  1  0  0  0  0
 15 35  1  0  0  0  0
 15 36  1  0  0  0  0
 16 17  1  0  0  0  0
 17 18  1  0  0  0  0
 17 37  1  0  0  0  0
 17 38  1  0  0  0  0
 18 39  1  0  0  0  0
 18 40  1  0  0  0  0
 19 20  1  0  0  0  0
 19 21  2  0  0  0  0
 19 22  2  0  0  0  0
 20 41  1  0  0  0  0
 20 42  1  0  0  0  0
 20 43  1  0  0  0  0
M  END
> <s_m_source_file>
AV-unprocessed.smi

> <i_m_source_file_index>
2000

> <i_lp_mmshare_version>
43012

> <i_f3d_flags>
0

> <s_epik_input>
W0NIM11TKD1PKSg9TylbQ0BIXShbQ0gzXSlDKD1PKVtOSF1bQ0gyXWMxW2NIXVtjSF1bY0hdbmMxTjJbQ0gyXVtDSDJdT1tDSDJdW0NIMl0y

> <s_epik_cmdline>
J2VwaWtfcHl0aG9uJywgJy1waCcsICc3LjAnLCAnLXRuJywgJzgnLCAnLW1hJywgJzIwMCcsICctbWV0YWxfYmluZGluZycsICctaW1hZScsICc8aW5maWxlLm1hZT4nLCAnLW9tYWUnLCAnPG91dGZpbGUubWFlPic=

> <r_lp_tautomer_probability>
1

> <r_epik_Ionization_Penalty>
0.00349769

> <r_epik_Ionization_Penalty_Charging>
0

> <r_epik_Ionization_Penalty_Neutral>
0.00349769

> <r_epik_State_Penalty>
0.00248024

> <r_epik_Charging_Adjusted_Penalty>
0.00248024

> <i_epik_Tot_Q>
0

> <i_epik_Tot_abs_Q>
0

> <r_epik_Metal_State_Penalty>
-0

> <b_epik_Metal_Only>
0

> <s_lp_Force_Field>
OPLS_2005

> <r_lp_Energy>
18.4728

> <b_lp_Chiralities_Consistent>
1

> <s_lp_Variant>
AV-unprocessed.smi:2000-2

> <Gold.Version>
5.8.1

> <Gold.Id.Protein>
6NUR|6NUR_protein|mol2

> <Gold.PLP.Fitness>
42.8279

> <Gold.PLP.PLP>
-32.0300

> <Gold.PLP.part.hbond>
-5.0000

> <Gold.PLP.part.metal>
0.0000

> <Gold.PLP.part.buried>
-4.7630

> <Gold.PLP.part.nonpolar>
-22.7821

> <Gold.PLP.part.repulsive>
0.2412

> <Gold.PLP.ligand.clash>
0.0000

> <Gold.PLP.ligand.torsion>
0.6768

> <Gold.PLP.Chemscore.Hbond>
3.9500

> <Gold.PLP.Chemscore.CHOScore>
0.0000

> <Gold.PLP.Chemscore.Metal>
0.0000

> <Gold.Chemscore.Hbonds>
donor molecule, donor type, donor heavy atom, donor atom, acceptor molecule, acceptor atom, score
      P1  H  6896  6909       L1     4  1.00
      P1  H  6931  6943       L1    21  1.00
      P1  H  6934  6947       L1    22  1.00
      P1  H  7997  8010       L1    11  0.93

> <Gold.PLP.Chemscore.Internal.Correction>
0.3015

> <Gold.Rescore>
     Score         DG    S(hbond)    S(metal)    S(lipo)     H(rot)  DE(clash)    DE(int)     intcor
     15.70     -18.05       2.95        0.00      68.55       2.08       0.02       2.32       ----

> <Gold.Chemscore.Fitness>
15.7020

> <Gold.Chemscore.DG>
-18.0490

> <Gold.Chemscore.ZeroCoef>
-5.4800

> <Gold.Chemscore.Hbond>
2.9532

> <Gold.Chemscore.Metal>
0.0000

> <Gold.Chemscore.Lipo>
68.5529

> <Gold.Chemscore.Internal_Hbond>
0.0000

> <Gold.Chemscore.DEClash>
0.0234

> <Gold.Chemscore.DEInternal>
2.3235

> <Gold.Chemscore.Rot>
2.0764

> <Gold.Chemscore.Internal.Correction>
   9.000000E+99

> <Gold.Chemscore.Hbonds>
donor molecule, donor type, donor heavy atom, donor atom, acceptor molecule, acceptor atom, score
      P1  H  6896  6909       L1     4  0.97
      P1  H  6931  6943       L1    21  0.82
      P1  H  6934  6947       L1    22  0.50
      P1  H  7997  8010       L1    11  0.30

> <Gold.Chemscore.Hbond.Weighted>
-9.8638

> <Gold.Chemscore.Metal.Weighted>
-0.0000

> <Gold.Chemscore.Lipo.Weighted>
-8.0207

> <Gold.Chemscore.Internal_Hbond.Weighted>
0.0000

> <Gold.Chemscore.DEClash.Weighted>
0.0234

> <Gold.Chemscore.DEInternal.Weighted>
2.3235

> <Gold.Chemscore.Rot.Weighted>
5.3155

> <Gold.Chemscore.Internal.Correction.Weighted>
   9.000000E+99

> <Gold.Protein.RotatedTorsions>
[ 6907 6896 6895 6894 ] final   43.18 input  -60.11 | X-H torsion
[ 7974 7965 7964 7962 ] final   -7.66 input  175.53 | X-H torsion
[ 8008 7997 7996 7995 ] final  106.70 input   59.86 | X-H torsion
[ 10167 10162 10161 10158 ] final -124.71 input  -65.29 | X-H torsion
[ 10718 10713 10712 10709 ] final  -12.28 input   66.30 | X-H torsion
[ 10763 10752 10751 10750 ] final  137.70 input  -60.55 | X-H torsion
[ 11005 11000 10999 10996 ] final -168.57 input  -57.11 | X-H torsion

> <Gold.Protein.ActiveResidues>
 VAL166  LYS551  ARG553  GLY616  TRP617  ASP618  TYR619  PRO620  LYS621  CYS622 
 ASP623  PHE694  ASN695  SER759  ASP760  ASP761  ALA762  ILE779  LEU786  VAL792 
 PHE793  MET794  SER795  GLU796  ALA797  LYS798  CYS799  TRP800  GLU811  SER814 

> <Gold.Protein.RotatedAtoms>
  152.2171  134.8447  160.0490 H   0  0  0  0  0  0  0  0  0  0  0  0  # atno 6907 bound_to 6896
  151.9244  133.3589  159.3917 H   0  0  0  0  0  0  0  0  0  0  0  0  # atno 6908 bound_to 6896
  150.6990  134.4527  159.5387 H   0  0  0  0  0  0  0  0  0  0  0  0  # atno 6909 bound_to 6896
  146.2301  140.2352  142.8341 H   0  0  0  0  0  0  0  0  0  0  0  0  # atno 7974 bound_to 7965
  156.1764  140.3108  155.9067 H   0  0  0  0  0  0  0  0  0  0  0  0  # atno 8008 bound_to 7997
  155.3478  140.0469  157.3063 H   0  0  0  0  0  0  0  0  0  0  0  0  # atno 8009 bound_to 7997
  154.5295  140.2225  155.8840 H   0  0  0  0  0  0  0  0  0  0  0  0  # atno 8010 bound_to 7997
  139.9899  143.5652  152.2346 H   0  0  0  0  0  0  0  0  0  0  0  0  # atno 10167 bound_to 10162
  156.6469  130.4943  149.6075 H   0  0  0  0  0  0  0  0  0  0  0  0  # atno 10718 bound_to 10713
  153.8774  135.3048  155.3444 H   0  0  0  0  0  0  0  0  0  0  0  0  # atno 10763 bound_to 10752
  154.7777  135.4852  153.9782 H   0  0  0  0  0  0  0  0  0  0  0  0  # atno 10764 bound_to 10752
  153.1371  135.6816  153.9182 H   0  0  0  0  0  0  0  0  0  0  0  0  # atno 10765 bound_to 10752
  140.5405  134.5527  157.5098 H   0  0  0  0  0  0  0  0  0  0  0  0  # atno 11005 bound_to 11000
  144.9527  140.8195  143.5562 LP  0  0  0  0  0  0  0  0  0  0  0  0  # atno 17320 bound_to 7965
  145.2314  139.2113  143.5041 LP  0  0  0  0  0  0  0  0  0  0  0  0  # atno 17321 bound_to 7965
  139.6347  144.7648  151.2462 LP  0  0  0  0  0  0  0  0  0  0  0  0  # atno 17342 bound_to 10162
  140.7458  143.6418  150.8328 LP  0  0  0  0  0  0  0  0  0  0  0  0  # atno 17343 bound_to 10162
  156.2115  130.6682  151.1274 LP  0  0  0  0  0  0  0  0  0  0  0  0  # atno 17370 bound_to 10713
  157.7153  131.0713  150.6349 LP  0  0  0  0  0  0  0  0  0  0  0  0  # atno 17371 bound_to 10713
  139.9506  134.7623  156.0456 LP  0  0  0  0  0  0  0  0  0  0  0  0  # atno 17394 bound_to 11000
  141.1230  133.6607  156.3263 LP  0  0  0  0  0  0  0  0  0  0  0  0  # atno 17395 bound_to 11000

$$$$
