AV-unprocessed.smi:3324|AV-procd|sdf|12783|dock8
  -GOLD-   2272019133D 1   1.00000     0.00000
 Structure written by MMmdl.
 30 30  0  0  0  0  0  0  0  0  3 V2000
  146.6008  138.0926  150.8551 O   0  0  0  0  0  0  0  0  0  0  0  0
  146.5090  137.7408  152.0353 C   0  0  0  0  0  0  0  0  0  0  0  0
  147.0957  138.6540  153.1132 C   0  0  0  0  0  0  0  0  0  0  0  0
  148.5278  138.8788  152.8372 N   0  3  0  0  0  0  0  0  0  0  0  0
  149.2690  139.4890  153.9559 C   0  0  0  0  0  0  0  0  0  0  0  0
  149.5223  140.9808  153.6996 C   0  0  0  0  0  0  0  0  0  0  0  0
  150.4003  141.5533  154.7012 N   0  0  0  0  0  0  0  0  0  0  0  0
  150.1984  142.6720  155.4820 C   0  0  0  0  0  0  0  0  0  0  0  0
  151.2981  142.8144  156.2789 C   0  0  0  0  0  0  0  0  0  0  0  0
  152.1294  141.7210  155.9066 C   0  0  0  0  0  0  0  0  0  0  0  0
  151.5882  140.9673  154.9626 N   0  0  0  0  0  0  0  0  0  0  0  0
  145.9552  136.6278  152.5892 N   0  5  0  0  0  0  0  0  0  0  0  0
  145.6382  135.4188  151.8277 C   0  0  0  0  0  0  0  0  0  0  0  0
  145.1397  134.3000  152.7619 C   0  0  0  0  0  0  0  0  0  0  0  0
  144.8924  133.2055  152.0425 F   0  0  0  0  0  0  0  0  0  0  0  0
  146.0639  134.0048  153.6778 F   0  0  0  0  0  0  0  0  0  0  0  0
  144.0139  134.6663  153.3768 F   0  0  0  0  0  0  0  0  0  0  0  0
  146.5674  139.6086  153.1200 H   0  0  0  0  0  0  0  0  0  0  0  0
  146.9663  138.2023  154.0983 H   0  0  0  0  0  0  0  0  0  0  0  0
  148.9389  137.9823  152.6167 H   0  0  0  0  0  0  0  0  0  0  0  0
  148.6981  139.3595  154.8766 H   0  0  0  0  0  0  0  0  0  0  0  0
  150.2161  138.9632  154.0856 H   0  0  0  0  0  0  0  0  0  0  0  0
  149.9705  141.1306  152.7159 H   0  0  0  0  0  0  0  0  0  0  0  0
  148.5819  141.5337  153.7068 H   0  0  0  0  0  0  0  0  0  0  0  0
  149.2996  143.2666  155.4077 H   0  0  0  0  0  0  0  0  0  0  0  0
  151.4813  143.5827  157.0155 H   0  0  0  0  0  0  0  0  0  0  0  0
  153.1024  141.4541  156.2917 H   0  0  0  0  0  0  0  0  0  0  0  0
  144.8755  135.6121  151.0719 H   0  0  0  0  0  0  0  0  0  0  0  0
  146.5105  135.0580  151.2808 H   0  0  0  0  0  0  0  0  0  0  0  0
  148.6026  139.4744  152.0254 H   0  0  0  0  0  0  0  0  0  0  0  0
  1  2  2  0  0  0  0
  2  3  1  0  0  0  0
  2 12  1  0  0  0  0
  3  4  1  0  0  0  0
  3 18  1  0  0  0  0
  3 19  1  0  0  0  0
  4  5  1  0  0  0  0
  4 20  1  0  0  0  0
  4 30  1  0  0  0  0
  5  6  1  0  0  0  0
  5 21  1  0  0  0  0
  5 22  1  0  0  0  0
  6  7  1  0  0  0  0
  6 23  1  0  0  0  0
  6 24  1  0  0  0  0
  7 11  1  0  0  0  0
  7  8  1  0  0  0  0
  8  9  2  0  0  0  0
  8 25  1  0  0  0  0
  9 10  1  0  0  0  0
  9 26  1  0  0  0  0
 10 11  2  0  0  0  0
 10 27  1  0  0  0  0
 12 13  1  0  0  0  0
 13 14  1  0  0  0  0
 13 28  1  0  0  0  0
 13 29  1  0  0  0  0
 14 15  1  0  0  0  0
 14 16  1  0  0  0  0
 14 17  1  0  0  0  0
M  CHG  1   4   1
M  CHG  1  12  -1
M  END
> <s_m_source_file>
AV-unprocessed.smi

> <i_m_source_file_index>
3324

> <i_lp_mmshare_version>
43012

> <i_f3d_flags>
0

> <s_epik_input>
RkMoRikoRilbQ0gyXVtOSF1DKD1PKVtDSDJdW05IXVtDSDJdW0NIMl1uMVtjSF1bY0hdW2NIXW4x

> <s_epik_cmdline>
J2VwaWtfcHl0aG9uJywgJy1waCcsICc3LjAnLCAnLXRuJywgJzgnLCAnLW1hJywgJzIwMCcsICctbWV0YWxfYmluZGluZycsICctaW1hZScsICc8aW5maWxlLm1hZT4nLCAnLW9tYWUnLCAnPG91dGZpbGUubWFlPic=

> <r_lp_tautomer_probability>
1

> <r_epik_Ionization_Penalty>
6.17309

> <r_epik_Ionization_Penalty_Charging>
6.17309

> <r_epik_Ionization_Penalty_Neutral>
2.40201e-06

> <r_epik_State_Penalty>
6.46579

> <r_epik_Charging_Adjusted_Penalty>
12.6389

> <i_epik_Tot_Q>
0

> <i_epik_Tot_abs_Q>
2

> <r_epik_Metal_State_Penalty>
2.40143

> <b_epik_Metal_Only>
1

> <s_lp_Force_Field>
OPLS_2005

> <r_lp_Energy>
2.56422

> <b_lp_Chiralities_Consistent>
1

> <s_lp_Variant>
AV-unprocessed.smi:3324-3

> <Gold.Version>
5.8.1

> <Gold.Id.Protein>
6NUR|6NUR_protein|mol2

> <Gold.PLP.Fitness>
45.7408

> <Gold.PLP.PLP>
-31.9674

> <Gold.PLP.part.hbond>
-3.0000

> <Gold.PLP.part.metal>
0.0000

> <Gold.PLP.part.buried>
-3.1831

> <Gold.PLP.part.nonpolar>
-27.3793

> <Gold.PLP.part.repulsive>
1.2746

> <Gold.PLP.ligand.clash>
0.0000

> <Gold.PLP.ligand.torsion>
0.5009

> <Gold.PLP.Chemscore.Hbond>
3.8960

> <Gold.PLP.Chemscore.CHOScore>
1.0000

> <Gold.PLP.Chemscore.Metal>
0.0000

> <Gold.Chemscore.Hbonds>
donor molecule, donor type, donor heavy atom, donor atom, acceptor molecule, acceptor atom, score
      L1  H     4    20       P1  7948  2.00
      L1  H     4    30       P1  7957  0.60
      P1  H  7954  7966       L1     1  1.00
      P1  H  7989  7998       L1    11  0.05

> <Gold.PLP.Chemscore.Internal.Correction>
0.0872

> <Gold.Rescore>
     Score         DG    S(hbond)    S(metal)    S(lipo)     H(rot)  DE(clash)    DE(int)     intcor
     12.30     -13.50       2.96        0.00      46.06       2.83       0.53       0.67       ----

> <Gold.Chemscore.Fitness>
12.3027

> <Gold.Chemscore.DG>
-13.4992

> <Gold.Chemscore.ZeroCoef>
-5.4800

> <Gold.Chemscore.Hbond>
2.9599

> <Gold.Chemscore.Metal>
0.0000

> <Gold.Chemscore.Lipo>
46.0552

> <Gold.Chemscore.Internal_Hbond>
0.0000

> <Gold.Chemscore.DEClash>
0.5279

> <Gold.Chemscore.DEInternal>
0.6686

> <Gold.Chemscore.Rot>
2.8342

> <Gold.Chemscore.Internal.Correction>
   9.000000E+99

> <Gold.Chemscore.Hbonds>
donor molecule, donor type, donor heavy atom, donor atom, acceptor molecule, acceptor atom, score
      L1  H     4    20       P1  7948  0.98
      L1  H     4    30       P1  7957  0.59
      P1  H  7954  7966       L1     1  0.97

> <Gold.Chemscore.Hbond.Weighted>
-9.8862

> <Gold.Chemscore.Metal.Weighted>
-0.0000

> <Gold.Chemscore.Lipo.Weighted>
-5.3885

> <Gold.Chemscore.Internal_Hbond.Weighted>
0.0000

> <Gold.Chemscore.DEClash.Weighted>
0.5279

> <Gold.Chemscore.DEInternal.Weighted>
0.6686

> <Gold.Chemscore.Rot.Weighted>
7.2555

> <Gold.Chemscore.Internal.Correction.Weighted>
   9.000000E+99

> <Gold.Protein.RotatedTorsions>
[ 6907 6896 6895 6894 ] final   13.31 input  -60.11 | X-H torsion
[ 7974 7965 7964 7962 ] final  160.61 input  175.53 | X-H torsion
[ 8008 7997 7996 7995 ] final   75.10 input   59.86 | X-H torsion
[ 10167 10162 10161 10158 ] final   86.72 input  -65.29 | X-H torsion
[ 10718 10713 10712 10709 ] final   85.01 input   66.30 | X-H torsion
[ 10763 10752 10751 10750 ] final    7.22 input  -60.55 | X-H torsion
[ 11005 11000 10999 10996 ] final  -58.97 input  -57.11 | X-H torsion

> <Gold.Protein.ActiveResidues>
 VAL166  LYS551  ARG553  GLY616  TRP617  ASP618  TYR619  PRO620  LYS621  CYS622 
 ASP623  PHE694  ASN695  SER759  ASP760  ASP761  ALA762  ILE779  LEU786  VAL792 
 PHE793  MET794  SER795  GLU796  ALA797  LYS798  CYS799  TRP800  GLU811  SER814 

> <Gold.Protein.RotatedAtoms>
  151.7842  135.0753  160.0377 H   0  0  0  0  0  0  0  0  0  0  0  0  # atno 6907 bound_to 6896
  152.3201  133.5840  159.5747 H   0  0  0  0  0  0  0  0  0  0  0  0  # atno 6908 bound_to 6896
  150.7365  133.9939  159.3658 H   0  0  0  0  0  0  0  0  0  0  0  0  # atno 6909 bound_to 6896
  144.7728  139.7781  143.6290 H   0  0  0  0  0  0  0  0  0  0  0  0  # atno 7974 bound_to 7965
  155.8080  140.3474  155.5441 H   0  0  0  0  0  0  0  0  0  0  0  0  # atno 8008 bound_to 7997
  155.8470  140.0950  157.1719 H   0  0  0  0  0  0  0  0  0  0  0  0  # atno 8009 bound_to 7997
  154.4006  140.1383  156.3785 H   0  0  0  0  0  0  0  0  0  0  0  0  # atno 8010 bound_to 7997
  139.8847  144.6420  150.8804 H   0  0  0  0  0  0  0  0  0  0  0  0  # atno 10167 bound_to 10162
  157.6908  131.0157  150.2758 H   0  0  0  0  0  0  0  0  0  0  0  0  # atno 10718 bound_to 10713
  153.2387  135.6901  153.7807 H   0  0  0  0  0  0  0  0  0  0  0  0  # atno 10763 bound_to 10752
  153.6945  135.3307  155.3211 H   0  0  0  0  0  0  0  0  0  0  0  0  # atno 10764 bound_to 10752
  154.8346  135.4553  154.1301 H   0  0  0  0  0  0  0  0  0  0  0  0  # atno 10765 bound_to 10752
  141.1229  133.6614  156.5001 H   0  0  0  0  0  0  0  0  0  0  0  0  # atno 11005 bound_to 11000
  146.1887  139.5115  142.9819 LP  0  0  0  0  0  0  0  0  0  0  0  0  # atno 17320 bound_to 7965
  145.6274  141.0311  143.1882 LP  0  0  0  0  0  0  0  0  0  0  0  0  # atno 17321 bound_to 7965
  140.7738  143.3558  151.1925 LP  0  0  0  0  0  0  0  0  0  0  0  0  # atno 17342 bound_to 10162
  139.7164  143.9294  152.2968 LP  0  0  0  0  0  0  0  0  0  0  0  0  # atno 17343 bound_to 10162
  156.3313  130.3801  149.7488 LP  0  0  0  0  0  0  0  0  0  0  0  0  # atno 17370 bound_to 10713
  156.5027  130.8136  151.3139 LP  0  0  0  0  0  0  0  0  0  0  0  0  # atno 17371 bound_to 10713
  140.4453  134.6978  157.5012 LP  0  0  0  0  0  0  0  0  0  0  0  0  # atno 17394 bound_to 11000
  140.0202  134.6559  155.9251 LP  0  0  0  0  0  0  0  0  0  0  0  0  # atno 17395 bound_to 11000

$$$$
