AV-unprocessed.smi:527|AV-procd|sdf|2822|dock9
  -GOLD-   2262023303D 1   1.00000     0.00000
 Structure written by MMmdl.
 42 43  0  0  0  0  0  0  0  0  1 V2000
  148.1241  141.1327  153.9328 C   0  0  0  0  0  0  0  0  0  0  0  0
  148.5508  139.6675  154.1324 C   0  0  1  0  0  0  0  0  0  0  0  0
  150.0531  139.6056  154.4783 C   0  0  0  0  0  0  0  0  0  0  0  0
  150.5434  138.1654  154.6775 C   0  0  0  0  0  0  0  0  0  0  0  0
  149.7181  137.4496  155.7557 C   0  0  0  0  0  0  0  0  0  0  0  0
  148.2100  137.4812  155.4370 C   0  0  2  0  0  0  0  0  0  0  0  0
  147.9033  136.6302  154.2857 N   0  0  0  0  0  0  0  0  0  0  0  0
  146.8495  135.8073  154.1818 C   0  0  0  0  0  0  0  0  0  0  0  0
  145.8421  135.9041  154.8861 O   0  0  0  0  0  0  0  0  0  0  0  0
  147.0529  134.8832  153.2236 N   0  0  0  0  0  0  0  0  0  0  0  0
  146.3239  133.7734  152.9847 C   0  0  0  0  0  0  0  0  0  0  0  0
  145.3220  133.4307  153.6155 O   0  0  0  0  0  0  0  0  0  0  0  0
  146.8145  132.8953  151.8328 C   0  0  0  0  0  0  0  0  0  0  0  0
  145.7737  132.7122  150.8388 N   0  0  0  0  0  0  0  0  0  0  0  0
  144.4433  133.1004  150.9353 C   0  0  0  0  0  0  0  0  0  0  0  0
  143.8355  132.7160  149.7615 C   0  0  0  0  0  0  0  0  0  0  0  0
  144.7660  132.0914  148.9343 N   0  0  0  0  0  0  0  0  0  0  0  0
  145.8894  132.1257  149.6391 C   0  0  0  0  0  0  0  0  0  0  0  0
  147.7081  138.9318  155.2120 C   0  0  2  0  0  0  0  0  0  0  0  0
  146.1936  138.9594  154.9217 C   0  0  0  0  0  0  0  0  0  0  0  0
  148.1726  141.6913  154.8679 H   0  0  0  0  0  0  0  0  0  0  0  0
  147.1080  141.2098  153.5470 H   0  0  0  0  0  0  0  0  0  0  0  0
  148.7733  141.6338  153.2144 H   0  0  0  0  0  0  0  0  0  0  0  0
  148.4082  139.1563  153.1791 H   0  0  0  0  0  0  0  0  0  0  0  0
  150.6380  140.0783  153.6884 H   0  0  0  0  0  0  0  0  0  0  0  0
  150.2444  140.1798  155.3860 H   0  0  0  0  0  0  0  0  0  0  0  0
  150.4787  137.6198  153.7353 H   0  0  0  0  0  0  0  0  0  0  0  0
  151.5967  138.1681  154.9591 H   0  0  0  0  0  0  0  0  0  0  0  0
  150.0648  136.4219  155.8704 H   0  0  0  0  0  0  0  0  0  0  0  0
  149.8911  137.9340  156.7174 H   0  0  0  0  0  0  0  0  0  0  0  0
  147.6780  137.0817  156.3027 H   0  0  0  0  0  0  0  0  0  0  0  0
  148.5493  136.6735  153.5113 H   0  0  0  0  0  0  0  0  0  0  0  0
  147.8455  135.0342  152.6174 H   0  0  0  0  0  0  0  0  0  0  0  0
  147.6820  133.3545  151.3570 H   0  0  0  0  0  0  0  0  0  0  0  0
  147.1304  131.9192  152.2044 H   0  0  0  0  0  0  0  0  0  0  0  0
  144.0497  133.6019  151.8074 H   0  0  0  0  0  0  0  0  0  0  0  0
  142.8080  132.8383  149.4520 H   0  0  0  0  0  0  0  0  0  0  0  0
  146.8185  131.7124  149.2747 H   0  0  0  0  0  0  0  0  0  0  0  0
  147.8543  139.4634  156.1537 H   0  0  0  0  0  0  0  0  0  0  0  0
  145.9644  138.5602  153.9333 H   0  0  0  0  0  0  0  0  0  0  0  0
  145.7928  139.9714  154.9726 H   0  0  0  0  0  0  0  0  0  0  0  0
  145.6460  138.3657  155.6543 H   0  0  0  0  0  0  0  0  0  0  0  0
  1  2  1  0  0  0  0
  1 21  1  0  0  0  0
  1 22  1  0  0  0  0
  1 23  1  0  0  0  0
  2 19  1  0  0  0  0
  2  3  1  0  0  0  0
  2 24  1  0  0  0  0
  3  4  1  0  0  0  0
  3 25  1  0  0  0  0
  3 26  1  0  0  0  0
  4  5  1  0  0  0  0
  4 27  1  0  0  0  0
  4 28  1  0  0  0  0
  5  6  1  0  0  0  0
  5 29  1  0  0  0  0
  5 30  1  0  0  0  0
  6  7  1  0  0  0  0
  6 19  1  0  0  0  0
  6 31  1  0  0  0  0
  7  8  1  0  0  0  0
  7 32  1  0  0  0  0
  8  9  2  0  0  0  0
  8 10  1  0  0  0  0
 10 11  1  0  0  0  0
 10 33  1  0  0  0  0
 11 12  2  0  0  0  0
 11 13  1  0  0  0  0
 13 14  1  0  0  0  0
 13 34  1  0  0  0  0
 13 35  1  0  0  0  0
 14 18  1  0  0  0  0
 14 15  1  0  0  0  0
 15 16  2  0  0  0  0
 15 36  1  0  0  0  0
 16 17  1  0  0  0  0
 16 37  1  0  0  0  0
 17 18  2  0  0  0  0
 18 38  1  0  0  0  0
 19 20  1  0  0  0  0
 19 39  1  0  0  0  0
 20 40  1  0  0  0  0
 20 41  1  0  0  0  0
 20 42  1  0  0  0  0
M  END
> <s_m_source_file>
AV-unprocessed.smi

> <i_m_source_file_index>
527

> <i_lp_mmshare_version>
43012

> <i_f3d_flags>
0

> <s_epik_input>
W0NIM11bQ0BASF0xW0NIMl1bQ0gyXVtDSDJdW0NASF0oW0NASF0xW0NIM10pW05IXUMoPU8pW05IXUMoPU8pW0NIMl1uMltjSF1bY0hdbltjSF0y

> <s_epik_cmdline>
J2VwaWtfcHl0aG9uJywgJy1waCcsICc3LjAnLCAnLXRuJywgJzgnLCAnLW1hJywgJzIwMCcsICctbWV0YWxfYmluZGluZycsICctaW1hZScsICc8aW5maWxlLm1hZT4nLCAnLW9tYWUnLCAnPG91dGZpbGUubWFlPic=

> <r_lp_tautomer_probability>
1

> <r_epik_Ionization_Penalty>
0.172132

> <r_epik_Ionization_Penalty_Charging>
0.172105

> <r_epik_Ionization_Penalty_Neutral>
2.71747e-05

> <r_epik_State_Penalty>
0.161503

> <r_epik_Charging_Adjusted_Penalty>
0.333607

> <i_epik_Tot_Q>
0

> <i_epik_Tot_abs_Q>
0

> <r_epik_Metal_State_Penalty>
0.124763

> <b_epik_Metal_Only>
0

> <s_lp_Force_Field>
OPLS_2005

> <r_lp_Energy>
14.576

> <b_lp_Chiralities_Consistent>
1

> <s_lp_Variant>
AV-unprocessed.smi:527-8

> <Gold.Version>
5.8.1

> <Gold.Id.Protein>
6NUR|6NUR_protein|mol2

> <Gold.PLP.Fitness>
42.2547

> <Gold.PLP.PLP>
-31.2983

> <Gold.PLP.part.hbond>
-2.8304

> <Gold.PLP.part.metal>
0.0000

> <Gold.PLP.part.buried>
-2.5461

> <Gold.PLP.part.nonpolar>
-25.6595

> <Gold.PLP.part.repulsive>
0.3496

> <Gold.PLP.ligand.clash>
0.0000

> <Gold.PLP.ligand.torsion>
0.4620

> <Gold.PLP.Chemscore.Hbond>
1.9520

> <Gold.PLP.Chemscore.CHOScore>
2.0000

> <Gold.PLP.Chemscore.Metal>
0.0000

> <Gold.Chemscore.Hbonds>
donor molecule, donor type, donor heavy atom, donor atom, acceptor molecule, acceptor atom, score
      L1  H     7    32       P1  7948  0.99
      L1  H    10    33       P1  7948  0.98
      L1  C    16    37       P1 10186  1.00
      L1  C    18    38       P1 10747  1.00

> <Gold.PLP.Chemscore.Internal.Correction>
0.0244

> <Gold.Rescore>
     Score         DG    S(hbond)    S(metal)    S(lipo)     H(rot)  DE(clash)    DE(int)     intcor
     13.65     -16.62       2.56        0.00      58.35       1.66       0.04       2.93       ----

> <Gold.Chemscore.Fitness>
13.6463

> <Gold.Chemscore.DG>
-16.6156

> <Gold.Chemscore.ZeroCoef>
-5.4800

> <Gold.Chemscore.Hbond>
2.5646

> <Gold.Chemscore.Metal>
0.0000

> <Gold.Chemscore.Lipo>
58.3493

> <Gold.Chemscore.Internal_Hbond>
0.0000

> <Gold.Chemscore.DEClash>
0.0381

> <Gold.Chemscore.DEInternal>
2.9312

> <Gold.Chemscore.Rot>
1.6629

> <Gold.Chemscore.Internal.Correction>
   9.000000E+99

> <Gold.Chemscore.Hbonds>
donor molecule, donor type, donor heavy atom, donor atom, acceptor molecule, acceptor atom, score
      L1  H     7    32       P1  7948  0.94
      L1  H    10    33       P1  7948  0.89

> <Gold.Chemscore.Hbond.Weighted>
-8.5657

> <Gold.Chemscore.Metal.Weighted>
-0.0000

> <Gold.Chemscore.Lipo.Weighted>
-6.8269

> <Gold.Chemscore.Internal_Hbond.Weighted>
0.0000

> <Gold.Chemscore.DEClash.Weighted>
0.0381

> <Gold.Chemscore.DEInternal.Weighted>
2.9312

> <Gold.Chemscore.Rot.Weighted>
4.2569

> <Gold.Chemscore.Internal.Correction.Weighted>
   9.000000E+99

> <Gold.Protein.RotatedTorsions>
[ 6907 6896 6895 6894 ] final   -9.42 input  -60.11 | X-H torsion
[ 7974 7965 7964 7962 ] final   26.08 input  175.53 | X-H torsion
[ 8008 7997 7996 7995 ] final -126.06 input   59.86 | X-H torsion
[ 10167 10162 10161 10158 ] final   33.33 input  -65.29 | X-H torsion
[ 10718 10713 10712 10709 ] final   69.86 input   66.30 | X-H torsion
[ 10763 10752 10751 10750 ] final  -94.21 input  -60.55 | X-H torsion
[ 11005 11000 10999 10996 ] final  132.91 input  -57.11 | X-H torsion

> <Gold.Protein.ActiveResidues>
 VAL166  LYS551  ARG553  GLY616  TRP617  ASP618  TYR619  PRO620  LYS621  CYS622 
 ASP623  PHE694  ASN695  SER759  ASP760  ASP761  ALA762  ILE779  LEU786  VAL792 
 PHE793  MET794  SER795  GLU796  ALA797  LYS798  CYS799  TRP800  GLU811  SER814 

> <Gold.Protein.RotatedAtoms>
  151.4181  135.0994  159.9605 H   0  0  0  0  0  0  0  0  0  0  0  0  # atno 6907 bound_to 6896
  152.4998  133.8733  159.7320 H   0  0  0  0  0  0  0  0  0  0  0  0  # atno 6908 bound_to 6896
  150.9243  133.6785  159.2853 H   0  0  0  0  0  0  0  0  0  0  0  0  # atno 6909 bound_to 6896
  146.1856  139.7377  142.8869 H   0  0  0  0  0  0  0  0  0  0  0  0  # atno 7974 bound_to 7965
  155.2235  140.0423  157.2952 H   0  0  0  0  0  0  0  0  0  0  0  0  # atno 8008 bound_to 7997
  154.5934  140.2433  155.7860 H   0  0  0  0  0  0  0  0  0  0  0  0  # atno 8009 bound_to 7997
  156.2274  140.2950  156.0111 H   0  0  0  0  0  0  0  0  0  0  0  0  # atno 8010 bound_to 7997
  140.4417  144.1177  150.6175 H   0  0  0  0  0  0  0  0  0  0  0  0  # atno 10167 bound_to 10162
  157.6369  130.9447  150.0571 H   0  0  0  0  0  0  0  0  0  0  0  0  # atno 10718 bound_to 10713
  154.7033  135.5166  153.8558 H   0  0  0  0  0  0  0  0  0  0  0  0  # atno 10763 bound_to 10752
  153.0721  135.6604  154.0234 H   0  0  0  0  0  0  0  0  0  0  0  0  # atno 10764 bound_to 10752
  154.0089  135.3004  155.3374 H   0  0  0  0  0  0  0  0  0  0  0  0  # atno 10765 bound_to 10752
  139.9819  134.9545  156.9650 H   0  0  0  0  0  0  0  0  0  0  0  0  # atno 11005 bound_to 11000
  145.3949  141.0377  143.3103 LP  0  0  0  0  0  0  0  0  0  0  0  0  # atno 17320 bound_to 7965
  144.8391  139.5502  143.6909 LP  0  0  0  0  0  0  0  0  0  0  0  0  # atno 17321 bound_to 7965
  140.4310  143.2568  151.9595 LP  0  0  0  0  0  0  0  0  0  0  0  0  # atno 17342 bound_to 10162
  139.4790  144.5744  151.8036 LP  0  0  0  0  0  0  0  0  0  0  0  0  # atno 17343 bound_to 10162
  156.1615  130.3644  149.9293 LP  0  0  0  0  0  0  0  0  0  0  0  0  # atno 17370 bound_to 10713
  156.7289  130.9036  151.3624 LP  0  0  0  0  0  0  0  0  0  0  0  0  # atno 17371 bound_to 10713
  140.5079  134.1032  155.7264 LP  0  0  0  0  0  0  0  0  0  0  0  0  # atno 17394 bound_to 11000
  141.1490  133.9003  157.2145 LP  0  0  0  0  0  0  0  0  0  0  0  0  # atno 17395 bound_to 11000

$$$$
