AV-unprocessed.smi:273|AV-procd|sdf|2055|dock9
  -GOLD-   2262021293D 1   1.00000     0.00000
 Structure written by MMmdl.
 59 62  0  0  0  0  0  0  0  0  1 V2000
  146.4234  130.8247  152.5388 C   0  0  0  0  0  0  0  0  0  0  0  0
  147.7154  130.3412  153.2105 C   0  0  0  0  0  0  0  0  0  0  0  0
  148.5745  131.4593  153.5809 N   0  0  0  0  0  0  0  0  0  0  0  0
  149.3353  131.5168  154.6849 C   0  0  0  0  0  0  0  0  0  0  0  0
  149.3770  130.6160  155.5235 O   0  0  0  0  0  0  0  0  0  0  0  0
  150.1825  132.7830  154.8644 C   0  0  0  0  0  0  0  0  0  0  0  0
  150.7708  132.8632  156.2888 C   0  0  0  0  0  0  0  0  0  0  0  0
  151.5866  134.1528  156.4758 C   0  0  0  0  0  0  0  0  0  0  0  0
  150.7859  135.3248  156.1357 N   0  0  0  0  0  0  0  0  0  0  0  0
  151.3689  136.4822  156.5144 C   0  0  0  0  0  0  0  0  0  0  0  0
  152.6944  136.6140  156.2628 N   0  0  0  0  0  0  0  0  0  0  0  0
  153.3301  137.7405  156.5990 C   0  0  0  0  0  0  0  0  0  0  0  0
  152.8362  138.8383  157.1760 N   0  0  0  0  0  0  0  0  0  0  0  0
  151.4995  138.7125  157.4178 C   0  0  0  0  0  0  0  0  0  0  0  0
  150.6922  137.5778  157.1225 C   0  0  0  0  0  0  0  0  0  0  0  0
  149.3775  137.8220  157.5024 N   0  0  0  0  0  0  0  0  0  0  0  0
  149.4079  139.0265  158.0035 C   0  0  0  0  0  0  0  0  0  0  0  0
  150.6428  139.6340  157.9944 N   0  0  0  0  0  0  0  0  0  0  0  0
  150.9534  140.9685  158.4783 C   0  0  0  0  0  0  0  0  0  0  0  0
  151.3659  141.9497  157.3521 C   0  0  1  0  0  0  0  0  0  0  0  0
  150.3264  141.9433  156.2021 C   0  0  0  0  0  0  0  0  0  0  0  0
  149.0147  142.1606  156.6772 O   0  0  0  0  0  0  0  0  0  0  0  0
  151.5933  143.3724  157.9342 C   0  0  2  0  0  0  0  0  0  0  0  0
  152.6946  143.4932  158.9742 C   0  0  0  0  0  0  0  0  0  0  0  0
  152.3591  144.8144  159.6555 C   0  0  0  0  0  0  0  0  0  0  0  0
  150.9410  144.9119  159.6198 O   0  0  0  0  0  0  0  0  0  0  0  0
  150.4091  143.9345  158.7314 C   0  0  0  0  0  0  0  0  0  0  0  0
  150.2097  135.3165  154.7932 C   0  0  0  0  0  0  0  0  0  0  0  0
  149.3571  134.0552  154.5789 C   0  0  0  0  0  0  0  0  0  0  0  0
  145.7724  129.9832  152.3017 H   0  0  0  0  0  0  0  0  0  0  0  0
  146.6329  131.3533  151.6082 H   0  0  0  0  0  0  0  0  0  0  0  0
  145.8689  131.5004  153.1907 H   0  0  0  0  0  0  0  0  0  0  0  0
  147.4732  129.7843  154.1158 H   0  0  0  0  0  0  0  0  0  0  0  0
  148.2505  129.6516  152.5556 H   0  0  0  0  0  0  0  0  0  0  0  0
  148.6011  132.2436  152.9456 H   0  0  0  0  0  0  0  0  0  0  0  0
  151.0115  132.7487  154.1547 H   0  0  0  0  0  0  0  0  0  0  0  0
  149.9704  132.8371  157.0301 H   0  0  0  0  0  0  0  0  0  0  0  0
  151.4046  131.9978  156.4872 H   0  0  0  0  0  0  0  0  0  0  0  0
  151.9326  134.2226  157.5081 H   0  0  0  0  0  0  0  0  0  0  0  0
  152.4744  134.1282  155.8421 H   0  0  0  0  0  0  0  0  0  0  0  0
  154.3855  137.7660  156.3711 H   0  0  0  0  0  0  0  0  0  0  0  0
  148.5246  139.5093  158.3959 H   0  0  0  0  0  0  0  0  0  0  0  0
  150.0902  141.3577  159.0196 H   0  0  0  0  0  0  0  0  0  0  0  0
  151.7517  140.8607  159.2121 H   0  0  0  0  0  0  0  0  0  0  0  0
  152.3146  141.5926  156.9480 H   0  0  0  0  0  0  0  0  0  0  0  0
  150.5196  142.7369  155.4818 H   0  0  0  0  0  0  0  0  0  0  0  0
  150.3658  141.0043  155.6492 H   0  0  0  0  0  0  0  0  0  0  0  0
  148.6477  142.9001  156.2170 H   0  0  0  0  0  0  0  0  0  0  0  0
  151.8173  144.0626  157.1189 H   0  0  0  0  0  0  0  0  0  0  0  0
  152.6319  142.6751  159.6933 H   0  0  0  0  0  0  0  0  0  0  0  0
  153.6964  143.4973  158.5443 H   0  0  0  0  0  0  0  0  0  0  0  0
  152.7382  144.8664  160.6762 H   0  0  0  0  0  0  0  0  0  0  0  0
  152.7790  145.6495  159.0934 H   0  0  0  0  0  0  0  0  0  0  0  0
  149.6448  144.3740  158.0899 H   0  0  0  0  0  0  0  0  0  0  0  0
  149.9385  143.1523  159.3287 H   0  0  0  0  0  0  0  0  0  0  0  0
  149.5996  136.2088  154.6468 H   0  0  0  0  0  0  0  0  0  0  0  0
  151.0036  135.3425  154.0468 H   0  0  0  0  0  0  0  0  0  0  0  0
  148.9784  134.0397  153.5562 H   0  0  0  0  0  0  0  0  0  0  0  0
  148.4842  134.0959  155.2327 H   0  0  0  0  0  0  0  0  0  0  0  0
  1  2  1  0  0  0  0
  1 30  1  0  0  0  0
  1 31  1  0  0  0  0
  1 32  1  0  0  0  0
  2  3  1  0  0  0  0
  2 33  1  0  0  0  0
  2 34  1  0  0  0  0
  3  4  1  0  0  0  0
  3 35  1  0  0  0  0
  4  5  2  0  0  0  0
  4  6  1  0  0  0  0
  6 29  1  0  0  0  0
  6  7  1  0  0  0  0
  6 36  1  0  0  0  0
  7  8  1  0  0  0  0
  7 37  1  0  0  0  0
  7 38  1  0  0  0  0
  8  9  1  0  0  0  0
  8 39  1  0  0  0  0
  8 40  1  0  0  0  0
  9 10  1  0  0  0  0
  9 28  1  0  0  0  0
 10 15  1  0  0  0  0
 10 11  2  0  0  0  0
 11 12  1  0  0  0  0
 12 13  2  0  0  0  0
 12 41  1  0  0  0  0
 13 14  1  0  0  0  0
 14 18  1  0  0  0  0
 14 15  2  0  0  0  0
 15 16  1  0  0  0  0
 16 17  2  0  0  0  0
 17 18  1  0  0  0  0
 17 42  1  0  0  0  0
 18 19  1  0  0  0  0
 19 20  1  0  0  0  0
 19 43  1  0  0  0  0
 19 44  1  0  0  0  0
 20 21  1  0  0  0  0
 20 23  1  0  0  0  0
 20 45  1  0  0  0  0
 21 22  1  0  0  0  0
 21 46  1  0  0  0  0
 21 47  1  0  0  0  0
 22 48  1  0  0  0  0
 23 27  1  0  0  0  0
 23 24  1  0  0  0  0
 23 49  1  0  0  0  0
 24 25  1  0  0  0  0
 24 50  1  0  0  0  0
 24 51  1  0  0  0  0
 25 26  1  0  0  0  0
 25 52  1  0  0  0  0
 25 53  1  0  0  0  0
 26 27  1  0  0  0  0
 27 54  1  0  0  0  0
 27 55  1  0  0  0  0
 28 29  1  0  0  0  0
 28 56  1  0  0  0  0
 28 57  1  0  0  0  0
 29 58  1  0  0  0  0
 29 59  1  0  0  0  0
M  END
> <s_m_source_file>
AV-unprocessed.smi

> <i_m_source_file_index>
273

> <i_lp_mmshare_version>
43012

> <i_f3d_flags>
0

> <s_epik_input>
W0NIM11bQ0gyXVtOSF1DKD1PKVtDSF0xW0NIMl1bQ0gyXU4oW0NIMl1bQ0gyXTEpYyhuW2NIXW4yKWMoYzIzKW5bY0hdbjNbQ0gyXVtDQEhdKFtDSDJdW09IXSlbQ0BASF00W0NIMl1bQ0gyXU9bQ0gyXTQ=

> <s_epik_cmdline>
J2VwaWtfcHl0aG9uJywgJy1waCcsICc3LjAnLCAnLXRuJywgJzgnLCAnLW1hJywgJzIwMCcsICctbWV0YWxfYmluZGluZycsICctaW1hZScsICc8aW5maWxlLm1hZT4nLCAnLW9tYWUnLCAnPG91dGZpbGUubWFlPic=

> <r_lp_tautomer_probability>
1

> <r_epik_Ionization_Penalty>
0.00226556

> <r_epik_Ionization_Penalty_Charging>
0

> <r_epik_Ionization_Penalty_Neutral>
0.00226556

> <r_epik_State_Penalty>
0.00139883

> <r_epik_Charging_Adjusted_Penalty>
0.00139883

> <i_epik_Tot_Q>
0

> <i_epik_Tot_abs_Q>
0

> <r_epik_Metal_State_Penalty>
-0

> <b_epik_Metal_Only>
0

> <s_lp_Force_Field>
OPLS_2005

> <r_lp_Energy>
43.4567

> <b_lp_Chiralities_Consistent>
1

> <s_lp_Variant>
AV-unprocessed.smi:273-2

> <Gold.Version>
5.8.1

> <Gold.Id.Protein>
6NUR|6NUR_protein|mol2

> <Gold.PLP.Fitness>
48.5512

> <Gold.PLP.PLP>
-42.1210

> <Gold.PLP.part.hbond>
-3.0000

> <Gold.PLP.part.metal>
0.0000

> <Gold.PLP.part.buried>
-5.6573

> <Gold.PLP.part.nonpolar>
-32.4866

> <Gold.PLP.part.repulsive>
0.1634

> <Gold.PLP.ligand.clash>
0.0000

> <Gold.PLP.ligand.torsion>
1.2177

> <Gold.PLP.Chemscore.Hbond>
2.7940

> <Gold.PLP.Chemscore.CHOScore>
0.0000

> <Gold.PLP.Chemscore.Metal>
0.0000

> <Gold.Chemscore.Hbonds>
donor molecule, donor type, donor heavy atom, donor atom, acceptor molecule, acceptor atom, score
      L1  H    22    48       P1  8028  0.94
      P1  H  7997  8008       L1    13  0.77
      P1  H 10752 10763       L1    11  1.00

> <Gold.PLP.Chemscore.Internal.Correction>
0.4836

> <Gold.Rescore>
     Score         DG    S(hbond)    S(metal)    S(lipo)     H(rot)  DE(clash)    DE(int)     intcor
     15.61     -17.09       2.09        0.00     110.00       3.22       0.22       1.26       ----

> <Gold.Chemscore.Fitness>
15.6056

> <Gold.Chemscore.DG>
-17.0889

> <Gold.Chemscore.ZeroCoef>
-5.4800

> <Gold.Chemscore.Hbond>
2.0937

> <Gold.Chemscore.Metal>
0.0000

> <Gold.Chemscore.Lipo>
110.0049

> <Gold.Chemscore.Internal_Hbond>
0.0000

> <Gold.Chemscore.DEClash>
0.2206

> <Gold.Chemscore.DEInternal>
1.2627

> <Gold.Chemscore.Rot>
3.2244

> <Gold.Chemscore.Internal.Correction>
   9.000000E+99

> <Gold.Chemscore.Hbonds>
donor molecule, donor type, donor heavy atom, donor atom, acceptor molecule, acceptor atom, score
      L1  H    22    48       P1  8028  0.89
      P1  H  7997  8008       L1    13  0.11
      P1  H 10752 10763       L1    11  0.83

> <Gold.Chemscore.Hbond.Weighted>
-6.9928

> <Gold.Chemscore.Metal.Weighted>
-0.0000

> <Gold.Chemscore.Lipo.Weighted>
-12.8706

> <Gold.Chemscore.Internal_Hbond.Weighted>
0.0000

> <Gold.Chemscore.DEClash.Weighted>
0.2206

> <Gold.Chemscore.DEInternal.Weighted>
1.2627

> <Gold.Chemscore.Rot.Weighted>
8.2545

> <Gold.Chemscore.Internal.Correction.Weighted>
   9.000000E+99

> <Gold.Protein.RotatedTorsions>
[ 6907 6896 6895 6894 ] final   96.78 input  -60.11 | X-H torsion
[ 7974 7965 7964 7962 ] final  -97.11 input  175.53 | X-H torsion
[ 8008 7997 7996 7995 ] final  -59.74 input   59.86 | X-H torsion
[ 10167 10162 10161 10158 ] final  -59.61 input  -65.29 | X-H torsion
[ 10718 10713 10712 10709 ] final    1.94 input   66.30 | X-H torsion
[ 10763 10752 10751 10750 ] final  101.24 input  -60.55 | X-H torsion
[ 11005 11000 10999 10996 ] final  125.51 input  -57.11 | X-H torsion

> <Gold.Protein.ActiveResidues>
 VAL166  LYS551  ARG553  GLY616  TRP617  ASP618  TYR619  PRO620  LYS621  CYS622 
 ASP623  PHE694  ASN695  SER759  ASP760  ASP761  ALA762  ILE779  LEU786  VAL792 
 PHE793  MET794  SER795  GLU796  ALA797  LYS798  CYS799  TRP800  GLU811  SER814 

> <Gold.Protein.RotatedAtoms>
  152.5431  134.0834  159.8245 H   0  0  0  0  0  0  0  0  0  0  0  0  # atno 6907 bound_to 6896
  151.0933  133.5292  159.2621 H   0  0  0  0  0  0  0  0  0  0  0  0  # atno 6908 bound_to 6896
  151.2075  135.0476  159.8951 H   0  0  0  0  0  0  0  0  0  0  0  0  # atno 6909 bound_to 6896
  145.3380  140.9454  143.2624 H   0  0  0  0  0  0  0  0  0  0  0  0  # atno 7974 bound_to 7965
  154.4366  140.1055  156.6164 H   0  0  0  0  0  0  0  0  0  0  0  0  # atno 8008 bound_to 7997
  155.5754  140.3490  155.4507 H   0  0  0  0  0  0  0  0  0  0  0  0  # atno 8009 bound_to 7997
  156.0358  140.1271  157.0198 H   0  0  0  0  0  0  0  0  0  0  0  0  # atno 8010 bound_to 7997
  140.6124  143.2391  151.5678 H   0  0  0  0  0  0  0  0  0  0  0  0  # atno 10167 bound_to 10162
  156.8556  130.5569  149.5666 H   0  0  0  0  0  0  0  0  0  0  0  0  # atno 10718 bound_to 10713
  153.3241  135.4051  155.1441 H   0  0  0  0  0  0  0  0  0  0  0  0  # atno 10763 bound_to 10752
  154.8607  135.3595  154.5557 H   0  0  0  0  0  0  0  0  0  0  0  0  # atno 10764 bound_to 10752
  153.5992  135.7071  153.5450 H   0  0  0  0  0  0  0  0  0  0  0  0  # atno 10765 bound_to 10752
  139.9410  134.9635  156.8570 H   0  0  0  0  0  0  0  0  0  0  0  0  # atno 11005 bound_to 11000
  144.8812  139.4901  143.6722 LP  0  0  0  0  0  0  0  0  0  0  0  0  # atno 17320 bound_to 7965
  146.3019  139.7454  142.9085 LP  0  0  0  0  0  0  0  0  0  0  0  0  # atno 17321 bound_to 7965
  139.5371  144.2750  152.1275 LP  0  0  0  0  0  0  0  0  0  0  0  0  # atno 17342 bound_to 10162
  140.1952  144.4713  150.6459 LP  0  0  0  0  0  0  0  0  0  0  0  0  # atno 17343 bound_to 10162
  156.0804  130.5816  150.9553 LP  0  0  0  0  0  0  0  0  0  0  0  0  # atno 17370 bound_to 10713
  157.6279  131.0924  150.8498 LP  0  0  0  0  0  0  0  0  0  0  0  0  # atno 17371 bound_to 10713
  140.5952  134.0224  155.7515 LP  0  0  0  0  0  0  0  0  0  0  0  0  # atno 17394 bound_to 11000
  141.1044  133.9716  157.3022 LP  0  0  0  0  0  0  0  0  0  0  0  0  # atno 17395 bound_to 11000

$$$$
