AV-unprocessed.smi:3149|AV-procd|sdf|12000|dock2
  -GOLD-   2272017403D 1   1.00000     0.00000
 Structure written by MMmdl.
 38 39  0  0  0  0  0  0  0  0  2 V2000
  148.2308  140.1031  156.8615 C   0  0  0  0  0  0  0  0  0  0  0  0
  148.6463  141.2104  155.8755 C   0  0  1  0  0  0  0  0  0  0  0  0
  149.8057  141.9387  156.4441 N   0  3  0  0  0  0  0  0  0  0  0  0
  149.8014  142.1009  157.9140 C   0  0  0  0  0  0  0  0  0  0  0  0
  151.2242  142.2223  158.4721 C   0  0  0  0  0  0  0  0  0  0  0  0
  151.9671  141.2414  158.4738 O   0  0  0  0  0  0  0  0  0  0  0  0
  151.6511  143.4741  158.9218 N   0  0  0  0  0  0  0  0  0  0  0  0
  152.4509  143.6236  160.1285 C   0  0  0  0  0  0  0  0  0  0  0  0
  151.7775  144.9914  160.2768 C   0  0  0  0  0  0  0  0  0  0  0  0
  150.6931  144.4971  159.3142 C   0  0  0  0  0  0  0  0  0  0  0  0
  148.9797  140.6682  154.4585 C   0  0  2  0  0  0  0  0  0  0  0  0
  147.7688  140.0230  153.7576 C   0  0  0  0  0  0  0  0  0  0  0  0
  150.0948  139.7297  154.4812 N   0  0  0  0  0  0  0  0  0  0  0  0
  150.1187  138.4195  154.0488 C   0  0  0  0  0  0  0  0  0  0  0  0
  151.3771  137.9389  154.2714 C   0  0  0  0  0  0  0  0  0  0  0  0
  152.0621  139.0407  154.8545 C   0  0  0  0  0  0  0  0  0  0  0  0
  151.2929  140.1098  154.9802 N   0  0  0  0  0  0  0  0  0  0  0  0
  147.3129  139.6040  156.5499 H   0  0  0  0  0  0  0  0  0  0  0  0
  148.0457  140.5144  157.8544 H   0  0  0  0  0  0  0  0  0  0  0  0
  149.0078  139.3437  156.9559 H   0  0  0  0  0  0  0  0  0  0  0  0
  147.7983  141.8922  155.7920 H   0  0  0  0  0  0  0  0  0  0  0  0
  150.6492  141.4410  156.1960 H   0  0  0  0  0  0  0  0  0  0  0  0
  149.2688  143.0218  158.1522 H   0  0  0  0  0  0  0  0  0  0  0  0
  149.2391  141.2902  158.3758 H   0  0  0  0  0  0  0  0  0  0  0  0
  152.1804  142.9229  160.9211 H   0  0  0  0  0  0  0  0  0  0  0  0
  153.5256  143.6651  159.9483 H   0  0  0  0  0  0  0  0  0  0  0  0
  151.4180  145.2072  161.2834 H   0  0  0  0  0  0  0  0  0  0  0  0
  152.3722  145.8131  159.8737 H   0  0  0  0  0  0  0  0  0  0  0  0
  150.4389  145.1962  158.5170 H   0  0  0  0  0  0  0  0  0  0  0  0
  149.8130  144.1024  159.8265 H   0  0  0  0  0  0  0  0  0  0  0  0
  149.2991  141.5126  153.8452 H   0  0  0  0  0  0  0  0  0  0  0  0
  146.9744  140.7478  153.5809 H   0  0  0  0  0  0  0  0  0  0  0  0
  147.3509  139.2078  154.3493 H   0  0  0  0  0  0  0  0  0  0  0  0
  148.0515  139.6159  152.7862 H   0  0  0  0  0  0  0  0  0  0  0  0
  149.2488  137.9426  153.6218 H   0  0  0  0  0  0  0  0  0  0  0  0
  151.7516  136.9498  154.0524 H   0  0  0  0  0  0  0  0  0  0  0  0
  153.0881  139.0952  155.1878 H   0  0  0  0  0  0  0  0  0  0  0  0
  149.8383  142.8533  156.0176 H   0  0  0  0  0  0  0  0  0  0  0  0
  1  2  1  0  0  0  0
  1 18  1  0  0  0  0
  1 19  1  0  0  0  0
  1 20  1  0  0  0  0
  2  3  1  0  0  0  0
  2 11  1  0  0  0  0
  2 21  1  0  0  0  0
  3  4  1  0  0  0  0
  3 22  1  0  0  0  0
  3 38  1  0  0  0  0
  4  5  1  0  0  0  0
  4 23  1  0  0  0  0
  4 24  1  0  0  0  0
  5  6  2  0  0  0  0
  5  7  1  0  0  0  0
  7 10  1  0  0  0  0
  7  8  1  0  0  0  0
  8  9  1  0  0  0  0
  8 25  1  0  0  0  0
  8 26  1  0  0  0  0
  9 10  1  0  0  0  0
  9 27  1  0  0  0  0
  9 28  1  0  0  0  0
 10 29  1  0  0  0  0
 10 30  1  0  0  0  0
 11 12  1  0  0  0  0
 11 13  1  0  0  0  0
 11 31  1  0  0  0  0
 12 32  1  0  0  0  0
 12 33  1  0  0  0  0
 12 34  1  0  0  0  0
 13 17  1  0  0  0  0
 13 14  1  0  0  0  0
 14 15  2  0  0  0  0
 14 35  1  0  0  0  0
 15 16  1  0  0  0  0
 15 36  1  0  0  0  0
 16 17  2  0  0  0  0
 16 37  1  0  0  0  0
M  CHG  1   3   1
M  END
> <s_m_source_file>
AV-unprocessed.smi

> <i_m_source_file_index>
3149

> <i_lp_mmshare_version>
43012

> <i_f3d_flags>
0

> <s_epik_input>
bjFbY0hdW2NIXVtjSF1uMVtDQEBIXShbQ0gzXSlbQ0BIXShbQ0gzXSlbTkhdW0NIMl1DKD1PKU4yW0NIMl1bQ0gyXVtDSDJdMg==

> <s_epik_cmdline>
J2VwaWtfcHl0aG9uJywgJy1waCcsICc3LjAnLCAnLXRuJywgJzgnLCAnLW1hJywgJzIwMCcsICctbWV0YWxfYmluZGluZycsICctaW1hZScsICc8aW5maWxlLm1hZT4nLCAnLW9tYWUnLCAnPG91dGZpbGUubWFlPic=

> <r_lp_tautomer_probability>
1

> <r_epik_Ionization_Penalty>
0.141739

> <r_epik_Ionization_Penalty_Charging>
0.141731

> <r_epik_Ionization_Penalty_Neutral>
8.82171e-06

> <r_epik_State_Penalty>
0.131043

> <r_epik_Charging_Adjusted_Penalty>
0.272773

> <i_epik_Tot_Q>
1

> <i_epik_Tot_abs_Q>
1

> <r_epik_Metal_State_Penalty>
0.131384

> <b_epik_Metal_Only>
0

> <s_lp_Force_Field>
OPLS_2005

> <r_lp_Energy>
23.3154

> <b_lp_Chiralities_Consistent>
1

> <s_lp_Variant>
AV-unprocessed.smi:3149-2

> <Gold.Version>
5.8.1

> <Gold.Id.Protein>
6NUR|6NUR_protein|mol2

> <Gold.PLP.Fitness>
47.9930

> <Gold.PLP.PLP>
-38.4686

> <Gold.PLP.part.hbond>
-2.0000

> <Gold.PLP.part.metal>
0.0000

> <Gold.PLP.part.buried>
-5.4546

> <Gold.PLP.part.nonpolar>
-32.9428

> <Gold.PLP.part.repulsive>
0.1109

> <Gold.PLP.ligand.clash>
0.0000

> <Gold.PLP.ligand.torsion>
0.9713

> <Gold.PLP.Chemscore.Hbond>
2.5050

> <Gold.PLP.Chemscore.CHOScore>
0.9978

> <Gold.PLP.Chemscore.Metal>
0.0000

> <Gold.Chemscore.Hbonds>
donor molecule, donor type, donor heavy atom, donor atom, acceptor molecule, acceptor atom, score
      L1  H     3    38       P1  8028  1.49
      P1  H  7989  7998       L1    17  0.48
      L1  C    14    35       P1  7948  1.00

> <Gold.PLP.Chemscore.Internal.Correction>
0.9587

> <Gold.Rescore>
     Score         DG    S(hbond)    S(metal)    S(lipo)     H(rot)  DE(clash)    DE(int)     intcor
     10.83     -13.41       0.97        0.00      80.57       1.85       0.03       2.55       ----

> <Gold.Chemscore.Fitness>
10.8267

> <Gold.Chemscore.DG>
-13.4064

> <Gold.Chemscore.ZeroCoef>
-5.4800

> <Gold.Chemscore.Hbond>
0.9722

> <Gold.Chemscore.Metal>
0.0000

> <Gold.Chemscore.Lipo>
80.5678

> <Gold.Chemscore.Internal_Hbond>
0.0000

> <Gold.Chemscore.DEClash>
0.0329

> <Gold.Chemscore.DEInternal>
2.5468

> <Gold.Chemscore.Rot>
1.8544

> <Gold.Chemscore.Internal.Correction>
   9.000000E+99

> <Gold.Chemscore.Hbonds>
donor molecule, donor type, donor heavy atom, donor atom, acceptor molecule, acceptor atom, score
      L1  H     3    38       P1  8028  0.70

> <Gold.Chemscore.Hbond.Weighted>
-3.2471

> <Gold.Chemscore.Metal.Weighted>
-0.0000

> <Gold.Chemscore.Lipo.Weighted>
-9.4264

> <Gold.Chemscore.Internal_Hbond.Weighted>
0.0000

> <Gold.Chemscore.DEClash.Weighted>
0.0329

> <Gold.Chemscore.DEInternal.Weighted>
2.5468

> <Gold.Chemscore.Rot.Weighted>
4.7472

> <Gold.Chemscore.Internal.Correction.Weighted>
   9.000000E+99

> <Gold.Protein.RotatedTorsions>
[ 6907 6896 6895 6894 ] final  179.33 input  -60.11 | X-H torsion
[ 7974 7965 7964 7962 ] final   39.76 input  175.53 | X-H torsion
[ 8008 7997 7996 7995 ] final  -63.41 input   59.86 | X-H torsion
[ 10167 10162 10161 10158 ] final  -90.76 input  -65.29 | X-H torsion
[ 10718 10713 10712 10709 ] final  172.26 input   66.30 | X-H torsion
[ 10763 10752 10751 10750 ] final  -17.03 input  -60.55 | X-H torsion
[ 11005 11000 10999 10996 ] final  110.24 input  -57.11 | X-H torsion

> <Gold.Protein.ActiveResidues>
 VAL166  LYS551  ARG553  GLY616  TRP617  ASP618  TYR619  PRO620  LYS621  CYS622 
 ASP623  PHE694  ASN695  SER759  ASP760  ASP761  ALA762  ILE779  LEU786  VAL792 
 PHE793  MET794  SER795  GLU796  ALA797  LYS798  CYS799  TRP800  GLU811  SER814 

> <Gold.Protein.RotatedAtoms>
  151.6734  133.3313  159.3201 H   0  0  0  0  0  0  0  0  0  0  0  0  # atno 6907 bound_to 6896
  150.7857  134.6842  159.6470 H   0  0  0  0  0  0  0  0  0  0  0  0  # atno 6908 bound_to 6896
  152.3925  134.6421  160.0154 H   0  0  0  0  0  0  0  0  0  0  0  0  # atno 6909 bound_to 6896
  146.0959  139.5614  142.9446 H   0  0  0  0  0  0  0  0  0  0  0  0  # atno 7974 bound_to 7965
  154.4553  140.0975  156.6738 H   0  0  0  0  0  0  0  0  0  0  0  0  # atno 8008 bound_to 7997
  155.5159  140.3477  155.4379 H   0  0  0  0  0  0  0  0  0  0  0  0  # atno 8009 bound_to 7997
  156.0764  140.1362  156.9755 H   0  0  0  0  0  0  0  0  0  0  0  0  # atno 8010 bound_to 7997
  140.3517  143.2888  151.9719 H   0  0  0  0  0  0  0  0  0  0  0  0  # atno 10167 bound_to 10162
  156.9816  131.0120  151.2880 H   0  0  0  0  0  0  0  0  0  0  0  0  # atno 10718 bound_to 10713
  153.5677  135.7008  153.5519 H   0  0  0  0  0  0  0  0  0  0  0  0  # atno 10763 bound_to 10752
  153.3372  135.4031  155.1543 H   0  0  0  0  0  0  0  0  0  0  0  0  # atno 10764 bound_to 10752
  154.8638  135.3733  154.5198 H   0  0  0  0  0  0  0  0  0  0  0  0  # atno 10765 bound_to 10752
  139.8878  134.9479  156.6249 H   0  0  0  0  0  0  0  0  0  0  0  0  # atno 11005 bound_to 11000
  145.5949  141.0364  143.2050 LP  0  0  0  0  0  0  0  0  0  0  0  0  # atno 17320 bound_to 7965
  144.7395  139.7489  143.7316 LP  0  0  0  0  0  0  0  0  0  0  0  0  # atno 17321 bound_to 7965
  139.4825  144.6070  151.7502 LP  0  0  0  0  0  0  0  0  0  0  0  0  # atno 17342 bound_to 10162
  140.5213  144.0875  150.6023 LP  0  0  0  0  0  0  0  0  0  0  0  0  # atno 17343 bound_to 10162
  157.5522  130.8190  149.8160 LP  0  0  0  0  0  0  0  0  0  0  0  0  # atno 17370 bound_to 10713
  156.0242  130.3785  150.1871 LP  0  0  0  0  0  0  0  0  0  0  0  0  # atno 17371 bound_to 10713
  140.7711  133.8737  155.8492 LP  0  0  0  0  0  0  0  0  0  0  0  0  # atno 17394 bound_to 11000
  140.9841  134.1366  157.4468 LP  0  0  0  0  0  0  0  0  0  0  0  0  # atno 17395 bound_to 11000

$$$$
