AV-unprocessed.smi:271|AV-procd|sdf|2052|dock5
  -GOLD-   2262021293D 1   1.00000     0.00000
 Structure written by MMmdl.
 58 60  0  0  0  0  0  0  0  0  1 V2000
  147.3428  139.2917  153.5127 C   0  0  0  0  0  0  0  0  0  0  0  0
  146.7600  138.0760  154.2531 C   0  0  0  0  0  0  0  0  0  0  0  0
  145.4502  138.4569  154.9599 C   0  0  0  0  0  0  0  0  0  0  0  0
  147.7611  137.4651  155.2535 C   0  0  0  0  0  0  0  0  0  0  0  0
  148.7129  136.4286  154.6234 C   0  0  0  0  0  0  0  0  0  0  0  0
  149.8972  136.1663  155.4405 N   0  0  0  0  0  0  0  0  0  0  0  0
  150.4477  134.8106  155.3922 C   0  0  0  0  0  0  0  0  0  0  0  0
  149.3743  133.7236  155.5580 C   0  0  0  0  0  0  0  0  0  0  0  0
  148.7542  133.3516  154.2781 C   0  0  0  0  0  0  0  0  0  0  0  0
  148.2665  133.0592  153.2704 N   0  0  0  0  0  0  0  0  0  0  0  0
  150.7631  137.2104  155.5259 C   0  0  0  0  0  0  0  0  0  0  0  0
  151.7087  137.3853  154.5640 N   0  0  0  0  0  0  0  0  0  0  0  0
  152.5526  138.4191  154.6256 C   0  0  0  0  0  0  0  0  0  0  0  0
  152.6250  139.3828  155.5452 N   0  0  0  0  0  0  0  0  0  0  0  0
  151.6794  139.2151  156.5130 C   0  0  0  0  0  0  0  0  0  0  0  0
  150.7181  138.1669  156.5798 C   0  0  0  0  0  0  0  0  0  0  0  0
  149.9303  138.3214  157.7148 N   0  0  0  0  0  0  0  0  0  0  0  0
  150.3924  139.4030  158.2803 C   0  0  0  0  0  0  0  0  0  0  0  0
  151.4385  140.0076  157.6217 N   0  0  0  0  0  0  0  0  0  0  0  0
  152.1371  141.2137  158.0321 C   0  0  0  0  0  0  0  0  0  0  0  0
  152.3336  141.3172  159.5646 C   0  0  1  0  0  0  0  0  0  0  0  0
  153.3291  140.2395  160.0558 C   0  0  0  0  0  0  0  0  0  0  0  0
  154.4915  140.2327  159.2531 O   0  0  0  0  0  0  0  0  0  0  0  0
  152.7025  142.7560  160.0242 C   0  0  1  0  0  0  0  0  0  0  0  0
  151.9002  143.8813  159.3676 C   0  0  0  0  0  0  0  0  0  0  0  0
  151.4122  144.7296  160.5417 C   0  0  0  0  0  0  0  0  0  0  0  0
  152.3263  144.4325  161.5841 O   0  0  0  0  0  0  0  0  0  0  0  0
  152.5628  143.0357  161.5268 C   0  0  0  0  0  0  0  0  0  0  0  0
  147.6346  140.0774  154.2100 H   0  0  0  0  0  0  0  0  0  0  0  0
  146.6129  139.7161  152.8227 H   0  0  0  0  0  0  0  0  0  0  0  0
  148.2204  139.0242  152.9250 H   0  0  0  0  0  0  0  0  0  0  0  0
  146.5162  137.3150  153.5107 H   0  0  0  0  0  0  0  0  0  0  0  0
  145.6208  139.2062  155.7337 H   0  0  0  0  0  0  0  0  0  0  0  0
  144.9913  137.5885  155.4330 H   0  0  0  0  0  0  0  0  0  0  0  0
  144.7253  138.8652  154.2549 H   0  0  0  0  0  0  0  0  0  0  0  0
  148.3347  138.2630  155.7266 H   0  0  0  0  0  0  0  0  0  0  0  0
  147.2015  136.9809  156.0547 H   0  0  0  0  0  0  0  0  0  0  0  0
  148.1724  135.5033  154.4280 H   0  0  0  0  0  0  0  0  0  0  0  0
  149.0539  136.7793  153.6498 H   0  0  0  0  0  0  0  0  0  0  0  0
  150.9461  134.6693  154.4326 H   0  0  0  0  0  0  0  0  0  0  0  0
  151.2201  134.6955  156.1539 H   0  0  0  0  0  0  0  0  0  0  0  0
  149.7865  132.8156  155.9967 H   0  0  0  0  0  0  0  0  0  0  0  0
  148.5823  134.0718  156.2212 H   0  0  0  0  0  0  0  0  0  0  0  0
  153.2714  138.4844  153.8220 H   0  0  0  0  0  0  0  0  0  0  0  0
  149.9787  139.7950  159.1981 H   0  0  0  0  0  0  0  0  0  0  0  0
  153.1013  141.2226  157.5228 H   0  0  0  0  0  0  0  0  0  0  0  0
  151.5891  142.0812  157.6632 H   0  0  0  0  0  0  0  0  0  0  0  0
  151.3707  141.0950  160.0278 H   0  0  0  0  0  0  0  0  0  0  0  0
  153.6218  140.4156  161.0910 H   0  0  0  0  0  0  0  0  0  0  0  0
  152.8952  139.2415  160.0143 H   0  0  0  0  0  0  0  0  0  0  0  0
  155.2150  139.9181  159.7737 H   0  0  0  0  0  0  0  0  0  0  0  0
  153.7422  142.9515  159.7604 H   0  0  0  0  0  0  0  0  0  0  0  0
  152.5535  144.4710  158.7231 H   0  0  0  0  0  0  0  0  0  0  0  0
  151.0717  143.5357  158.7498 H   0  0  0  0  0  0  0  0  0  0  0  0
  151.3937  145.7955  160.3135 H   0  0  0  0  0  0  0  0  0  0  0  0
  150.4086  144.4273  160.8452 H   0  0  0  0  0  0  0  0  0  0  0  0
  151.7114  142.5193  161.9699 H   0  0  0  0  0  0  0  0  0  0  0  0
  153.4546  142.7613  162.0897 H   0  0  0  0  0  0  0  0  0  0  0  0
  1  2  1  0  0  0  0
  1 29  1  0  0  0  0
  1 30  1  0  0  0  0
  1 31  1  0  0  0  0
  2  3  1  0  0  0  0
  2  4  1  0  0  0  0
  2 32  1  0  0  0  0
  3 33  1  0  0  0  0
  3 34  1  0  0  0  0
  3 35  1  0  0  0  0
  4  5  1  0  0  0  0
  4 36  1  0  0  0  0
  4 37  1  0  0  0  0
  5  6  1  0  0  0  0
  5 38  1  0  0  0  0
  5 39  1  0  0  0  0
  6  7  1  0  0  0  0
  6 11  1  0  0  0  0
  7  8  1  0  0  0  0
  7 40  1  0  0  0  0
  7 41  1  0  0  0  0
  8  9  1  0  0  0  0
  8 42  1  0  0  0  0
  8 43  1  0  0  0  0
  9 10  3  0  0  0  0
 11 16  1  0  0  0  0
 11 12  2  0  0  0  0
 12 13  1  0  0  0  0
 13 14  2  0  0  0  0
 13 44  1  0  0  0  0
 14 15  1  0  0  0  0
 15 19  1  0  0  0  0
 15 16  2  0  0  0  0
 16 17  1  0  0  0  0
 17 18  2  0  0  0  0
 18 19  1  0  0  0  0
 18 45  1  0  0  0  0
 19 20  1  0  0  0  0
 20 21  1  0  0  0  0
 20 46  1  0  0  0  0
 20 47  1  0  0  0  0
 21 22  1  0  0  0  0
 21 24  1  0  0  0  0
 21 48  1  0  0  0  0
 22 23  1  0  0  0  0
 22 49  1  0  0  0  0
 22 50  1  0  0  0  0
 23 51  1  0  0  0  0
 24 28  1  0  0  0  0
 24 25  1  0  0  0  0
 24 52  1  0  0  0  0
 25 26  1  0  0  0  0
 25 53  1  0  0  0  0
 25 54  1  0  0  0  0
 26 27  1  0  0  0  0
 26 55  1  0  0  0  0
 26 56  1  0  0  0  0
 27 28  1  0  0  0  0
 28 57  1  0  0  0  0
 28 58  1  0  0  0  0
M  END
> <s_m_source_file>
AV-unprocessed.smi

> <i_m_source_file_index>
271

> <i_lp_mmshare_version>
43012

> <i_f3d_flags>
0

> <s_epik_input>
W0NIM11bQ0hdKFtDSDNdKVtDSDJdW0NIMl1OKFtDSDJdW0NIMl1DI04pYyhuW2NIXW4xKWMoYzEyKW5bY0hdbjJbQ0gyXVtDQEhdKFtDSDJdW09IXSlbQ0BASF0zW0NIMl1bQ0gyXU9bQ0gyXTM=

> <s_epik_cmdline>
J2VwaWtfcHl0aG9uJywgJy1waCcsICc3LjAnLCAnLXRuJywgJzgnLCAnLW1hJywgJzIwMCcsICctbWV0YWxfYmluZGluZycsICctaW1hZScsICc8aW5maWxlLm1hZT4nLCAnLW9tYWUnLCAnPG91dGZpbGUubWFlPic=

> <r_lp_tautomer_probability>
1

> <r_epik_Ionization_Penalty>
0.000825874

> <r_epik_Ionization_Penalty_Charging>
0

> <r_epik_Ionization_Penalty_Neutral>
0.000825874

> <r_epik_State_Penalty>
0.000396768

> <r_epik_Charging_Adjusted_Penalty>
0.000396768

> <i_epik_Tot_Q>
0

> <i_epik_Tot_abs_Q>
0

> <r_epik_Metal_State_Penalty>
-0

> <b_epik_Metal_Only>
0

> <s_lp_Force_Field>
OPLS_2005

> <r_lp_Energy>
37.4576

> <b_lp_Chiralities_Consistent>
1

> <s_lp_Variant>
AV-unprocessed.smi:271-4

> <Gold.Version>
5.8.1

> <Gold.Id.Protein>
6NUR|6NUR_protein|mol2

> <Gold.PLP.Fitness>
48.4283

> <Gold.PLP.PLP>
-42.7048

> <Gold.PLP.part.hbond>
-3.0000

> <Gold.PLP.part.metal>
0.0000

> <Gold.PLP.part.buried>
-3.0868

> <Gold.PLP.part.nonpolar>
-36.3192

> <Gold.PLP.part.repulsive>
0.6433

> <Gold.PLP.ligand.clash>
0.0000

> <Gold.PLP.ligand.torsion>
1.9216

> <Gold.PLP.Chemscore.Hbond>
2.8000

> <Gold.PLP.Chemscore.CHOScore>
0.0000

> <Gold.PLP.Chemscore.Metal>
0.0000

> <Gold.Chemscore.Hbonds>
donor molecule, donor type, donor heavy atom, donor atom, acceptor molecule, acceptor atom, score
      P1  H  7997  8008       L1    14  0.80
      P1  H  7997  8010       L1    23  0.86
      P1  H 10752 10764       L1    12  0.75

> <Gold.PLP.Chemscore.Internal.Correction>
1.1668

> <Gold.Rescore>
     Score         DG    S(hbond)    S(metal)    S(lipo)     H(rot)  DE(clash)    DE(int)     intcor
     10.49     -14.73       2.08        0.00     102.16       3.77       2.04       2.20       ----

> <Gold.Chemscore.Fitness>
10.4943

> <Gold.Chemscore.DG>
-14.7301

> <Gold.Chemscore.ZeroCoef>
-5.4800

> <Gold.Chemscore.Hbond>
2.0791

> <Gold.Chemscore.Metal>
0.0000

> <Gold.Chemscore.Lipo>
102.1597

> <Gold.Chemscore.Internal_Hbond>
0.0000

> <Gold.Chemscore.DEClash>
2.0389

> <Gold.Chemscore.DEInternal>
2.1969

> <Gold.Chemscore.Rot>
3.7683

> <Gold.Chemscore.Internal.Correction>
   9.000000E+99

> <Gold.Chemscore.Hbonds>
donor molecule, donor type, donor heavy atom, donor atom, acceptor molecule, acceptor atom, score
      P1  H  7997  8008       L1    14  0.67
      P1  H  7997  8010       L1    23  0.27
      P1  H 10752 10764       L1    12  0.29

> <Gold.Chemscore.Hbond.Weighted>
-6.9442

> <Gold.Chemscore.Metal.Weighted>
-0.0000

> <Gold.Chemscore.Lipo.Weighted>
-11.9527

> <Gold.Chemscore.Internal_Hbond.Weighted>
0.0000

> <Gold.Chemscore.DEClash.Weighted>
2.0389

> <Gold.Chemscore.DEInternal.Weighted>
2.1969

> <Gold.Chemscore.Rot.Weighted>
9.6468

> <Gold.Chemscore.Internal.Correction.Weighted>
   9.000000E+99

> <Gold.Protein.RotatedTorsions>
[ 6907 6896 6895 6894 ] final  -18.04 input  -60.11 | X-H torsion
[ 7974 7965 7964 7962 ] final  -76.23 input  175.53 | X-H torsion
[ 8008 7997 7996 7995 ] final   -6.15 input   59.86 | X-H torsion
[ 10167 10162 10161 10158 ] final  -20.89 input  -65.29 | X-H torsion
[ 10718 10713 10712 10709 ] final    3.17 input   66.30 | X-H torsion
[ 10763 10752 10751 10750 ] final  -78.28 input  -60.55 | X-H torsion
[ 11005 11000 10999 10996 ] final   41.50 input  -57.11 | X-H torsion

> <Gold.Protein.ActiveResidues>
 VAL166  LYS551  ARG553  GLY616  TRP617  ASP618  TYR619  PRO620  LYS621  CYS622 
 ASP623  PHE694  ASN695  SER759  ASP760  ASP761  ALA762  ILE779  LEU786  VAL792 
 PHE793  MET794  SER795  GLU796  ALA797  LYS798  CYS799  TRP800  GLU811  SER814 

> <Gold.Protein.RotatedAtoms>
  151.2843  135.0723  159.9180 H   0  0  0  0  0  0  0  0  0  0  0  0  # atno 6907 bound_to 6896
  152.5328  133.9998  159.7900 H   0  0  0  0  0  0  0  0  0  0  0  0  # atno 6908 bound_to 6896
  151.0257  133.5785  159.2697 H   0  0  0  0  0  0  0  0  0  0  0  0  # atno 6909 bound_to 6896
  145.6157  140.9376  143.1165 H   0  0  0  0  0  0  0  0  0  0  0  0  # atno 7974 bound_to 7965
  154.5966  140.2440  155.7848 H   0  0  0  0  0  0  0  0  0  0  0  0  # atno 8008 bound_to 7997
  156.2283  140.2975  156.0077 H   0  0  0  0  0  0  0  0  0  0  0  0  # atno 8009 bound_to 7997
  155.2282  140.0402  157.2949 H   0  0  0  0  0  0  0  0  0  0  0  0  # atno 8010 bound_to 7997
  140.7279  143.4679  151.0288 H   0  0  0  0  0  0  0  0  0  0  0  0  # atno 10167 bound_to 10162
  156.8739  130.5630  149.5656 H   0  0  0  0  0  0  0  0  0  0  0  0  # atno 10718 bound_to 10713
  154.5239  135.5735  153.6703 H   0  0  0  0  0  0  0  0  0  0  0  0  # atno 10763 bound_to 10752
  152.9923  135.6188  154.2719 H   0  0  0  0  0  0  0  0  0  0  0  0  # atno 10764 bound_to 10752
  154.2641  135.2855  155.2745 H   0  0  0  0  0  0  0  0  0  0  0  0  # atno 10765 bound_to 10752
  140.1828  134.4082  155.8190 H   0  0  0  0  0  0  0  0  0  0  0  0  # atno 11005 bound_to 11000
  144.7252  139.7900  143.7367 LP  0  0  0  0  0  0  0  0  0  0  0  0  # atno 17320 bound_to 7965
  146.1470  139.4542  143.0072 LP  0  0  0  0  0  0  0  0  0  0  0  0  # atno 17321 bound_to 7965
  139.8369  143.7616  152.3180 LP  0  0  0  0  0  0  0  0  0  0  0  0  # atno 17342 bound_to 10162
  139.7751  144.7463  151.0168 LP  0  0  0  0  0  0  0  0  0  0  0  0  # atno 17343 bound_to 10162
  156.0712  130.5744  150.9387 LP  0  0  0  0  0  0  0  0  0  0  0  0  # atno 17370 bound_to 10713
  157.6180  131.0932  150.8675 LP  0  0  0  0  0  0  0  0  0  0  0  0  # atno 17371 bound_to 10713
  141.2223  133.7009  156.7961 LP  0  0  0  0  0  0  0  0  0  0  0  0  # atno 17394 bound_to 11000
  140.2248  134.8730  157.3415 LP  0  0  0  0  0  0  0  0  0  0  0  0  # atno 17395 bound_to 11000

$$$$
