AV-unprocessed.smi:290|AV-procd|sdf|2227|dock1
  -GOLD-   2262022 83D 1   1.00000     0.00000
 Structure written by MMmdl.
 59 62  0  0  0  0  0  0  0  0  2 V2000
  152.6580  144.6925  158.0221 C   0  0  0  0  0  0  0  0  0  0  0  0
  152.0475  143.7849  159.1013 C   0  0  2  0  0  0  0  0  0  0  0  0
  153.0918  143.4060  159.9937 O   0  0  0  0  0  0  0  0  0  0  0  0
  152.7793  142.1393  160.5449 C   0  0  0  0  0  0  0  0  0  0  0  0
  152.2287  141.3906  159.3412 C   0  0  0  0  0  0  0  0  0  0  0  0
  151.4030  142.4535  158.6195 C   0  0  1  0  0  0  0  0  0  0  0  0
  150.0845  142.3982  159.1382 O   0  0  0  0  0  0  0  0  0  0  0  0
  151.3276  142.2396  157.0845 C   0  0  0  0  0  0  0  0  0  0  0  0
  150.3346  141.2530  156.6879 N   0  0  0  0  0  0  0  0  0  0  0  0
  149.1564  141.4922  156.0177 C   0  0  0  0  0  0  0  0  0  0  0  0
  148.4362  140.4340  155.7645 N   0  0  0  0  0  0  0  0  0  0  0  0
  149.1656  139.3850  156.3129 C   0  0  0  0  0  0  0  0  0  0  0  0
  148.9718  137.9758  156.3919 C   0  0  0  0  0  0  0  0  0  0  0  0
  147.8808  137.3494  155.8765 N   0  0  0  0  0  0  0  0  0  0  0  0
  147.5820  136.0103  156.3789 C   0  0  0  0  0  0  0  0  0  0  0  0
  147.0212  135.2150  155.1954 C   0  0  0  0  0  0  0  0  0  0  0  0
  146.5183  136.3135  154.2529 C   0  0  2  0  0  0  0  0  0  0  0  0
  146.3190  135.9109  152.8314 N   0  3  2  0  0  0  0  0  0  0  0  0
  145.6575  136.9748  152.0394 C   0  0  0  0  0  0  0  0  0  0  0  0
  145.7028  134.5725  152.6198 C   0  0  0  0  0  0  0  0  0  0  0  0
  144.2914  134.4967  153.2223 C   0  0  0  0  0  0  0  0  0  0  0  0
  143.5680  133.4412  152.6244 O   0  0  0  0  0  0  0  0  0  0  0  0
  147.5382  137.4424  154.4578 C   0  0  1  0  0  0  0  0  0  0  0  0
  146.9839  138.8253  154.0706 C   0  0  0  0  0  0  0  0  0  0  0  0
  149.9370  137.2499  157.0168 N   0  0  0  0  0  0  0  0  0  0  0  0
  151.0128  137.8526  157.5314 C   0  0  0  0  0  0  0  0  0  0  0  0
  151.3212  139.1503  157.5317 N   0  0  0  0  0  0  0  0  0  0  0  0
  150.3616  139.8859  156.9012 C   0  0  0  0  0  0  0  0  0  0  0  0
  145.5620  136.6694  154.6425 H   0  0  0  0  0  0  0  0  0  0  0  0
  148.4393  137.2464  153.8781 H   0  0  0  0  0  0  0  0  0  0  0  0
  151.9037  145.0319  157.3123 H   0  0  0  0  0  0  0  0  0  0  0  0
  153.4459  144.1824  157.4678 H   0  0  0  0  0  0  0  0  0  0  0  0
  153.1014  145.5798  158.4745 H   0  0  0  0  0  0  0  0  0  0  0  0
  151.3255  144.3704  159.6741 H   0  0  0  0  0  0  0  0  0  0  0  0
  153.6566  141.6583  160.9774 H   0  0  0  0  0  0  0  0  0  0  0  0
  152.0219  142.2484  161.3227 H   0  0  0  0  0  0  0  0  0  0  0  0
  153.0647  141.0750  158.7157 H   0  0  0  0  0  0  0  0  0  0  0  0
  151.6623  140.4983  159.6123 H   0  0  0  0  0  0  0  0  0  0  0  0
  149.8469  143.2589  159.4481 H   0  0  0  0  0  0  0  0  0  0  0  0
  151.0968  143.1780  156.5784 H   0  0  0  0  0  0  0  0  0  0  0  0
  152.2915  141.9087  156.6973 H   0  0  0  0  0  0  0  0  0  0  0  0
  148.8488  142.4821  155.7135 H   0  0  0  0  0  0  0  0  0  0  0  0
  148.4595  135.5175  156.8004 H   0  0  0  0  0  0  0  0  0  0  0  0
  146.8328  136.0960  157.1667 H   0  0  0  0  0  0  0  0  0  0  0  0
  147.8286  134.6359  154.7476 H   0  0  0  0  0  0  0  0  0  0  0  0
  146.2374  134.5184  155.4939 H   0  0  0  0  0  0  0  0  0  0  0  0
  144.6424  137.1541  152.3955 H   0  0  0  0  0  0  0  0  0  0  0  0
  145.6034  136.7075  150.9844 H   0  0  0  0  0  0  0  0  0  0  0  0
  146.2126  137.9108  152.1085 H   0  0  0  0  0  0  0  0  0  0  0  0
  145.6342  134.3216  151.5621 H   0  0  0  0  0  0  0  0  0  0  0  0
  146.3411  133.8065  153.0629 H   0  0  0  0  0  0  0  0  0  0  0  0
  144.3524  134.3057  154.2942 H   0  0  0  0  0  0  0  0  0  0  0  0
  143.7459  135.4317  153.0967 H   0  0  0  0  0  0  0  0  0  0  0  0
  143.2651  132.8570  153.3034 H   0  0  0  0  0  0  0  0  0  0  0  0
  146.7022  138.8499  153.0178 H   0  0  0  0  0  0  0  0  0  0  0  0
  147.7179  139.6153  154.2274 H   0  0  0  0  0  0  0  0  0  0  0  0
  146.0996  139.0765  154.6573 H   0  0  0  0  0  0  0  0  0  0  0  0
  151.7298  137.2022  158.0104 H   0  0  0  0  0  0  0  0  0  0  0  0
  147.2539  135.8342  152.4556 H   0  0  0  0  0  0  0  0  0  0  0  0
  1  2  1  0  0  0  0
  1 31  1  0  0  0  0
  1 32  1  0  0  0  0
  1 33  1  0  0  0  0
  2  6  1  0  0  0  0
  2  3  1  0  0  0  0
  2 34  1  0  0  0  0
  3  4  1  0  0  0  0
  4  5  1  0  0  0  0
  4 35  1  0  0  0  0
  4 36  1  0  0  0  0
  5  6  1  0  0  0  0
  5 37  1  0  0  0  0
  5 38  1  0  0  0  0
  6  7  1  0  0  0  0
  6  8  1  0  0  0  0
  7 39  1  0  0  0  0
  8  9  1  0  0  0  0
  8 40  1  0  0  0  0
  8 41  1  0  0  0  0
  9 28  1  0  0  0  0
  9 10  1  0  0  0  0
 10 11  2  0  0  0  0
 10 42  1  0  0  0  0
 11 12  1  0  0  0  0
 12 28  2  0  0  0  0
 12 13  1  0  0  0  0
 13 14  1  0  0  0  0
 13 25  2  0  0  0  0
 14 23  1  0  0  0  0
 14 15  1  0  0  0  0
 15 16  1  0  0  0  0
 15 43  1  0  0  0  0
 15 44  1  0  0  0  0
 16 17  1  0  0  0  0
 16 45  1  0  0  0  0
 16 46  1  0  0  0  0
 17 29  1  0  0  0  0
 17 18  1  0  0  0  0
 17 23  1  0  0  0  0
 18 19  1  0  0  0  0
 18 20  1  0  0  0  0
 18 59  1  0  0  0  0
 19 47  1  0  0  0  0
 19 48  1  0  0  0  0
 19 49  1  0  0  0  0
 20 21  1  0  0  0  0
 20 50  1  0  0  0  0
 20 51  1  0  0  0  0
 21 22  1  0  0  0  0
 21 52  1  0  0  0  0
 21 53  1  0  0  0  0
 22 54  1  0  0  0  0
 23 30  1  0  0  0  0
 23 24  1  0  0  0  0
 24 55  1  0  0  0  0
 24 56  1  0  0  0  0
 24 57  1  0  0  0  0
 25 26  1  0  0  0  0
 26 27  2  0  0  0  0
 26 58  1  0  0  0  0
 27 28  1  0  0  0  0
M  CHG  1  18   1
M  END
> <s_m_source_file>
AV-unprocessed.smi

> <i_m_source_file_index>
290

> <i_lp_mmshare_version>
43012

> <i_f3d_flags>
0

> <s_epik_input>
W0NIMl0xW0NIMl1PW0NAQEhdKFtDSDNdKVtDQEBdMShbT0hdKVtDSDJdbihbY0hdbjIpYyhjMjMpbltjSF1uYzNONFtDSDJdW0NIMl1bQ0BIXShbQ0BIXTRbQ0gzXSlOKFtDSDNdKVtDSDJdW0NIMl1bT0hd

> <s_epik_cmdline>
J2VwaWtfcHl0aG9uJywgJy1waCcsICc3LjAnLCAnLXRuJywgJzgnLCAnLW1hJywgJzIwMCcsICctbWV0YWxfYmluZGluZycsICctaW1hZScsICc8aW5maWxlLm1hZT4nLCAnLW9tYWUnLCAnPG91dGZpbGUubWFlPic=

> <r_lp_tautomer_probability>
1

> <r_epik_Ionization_Penalty>
0.0036983

> <r_epik_Ionization_Penalty_Charging>
0.0032725

> <r_epik_Ionization_Penalty_Neutral>
0.000425798

> <r_epik_State_Penalty>
-0

> <r_epik_Charging_Adjusted_Penalty>
0.0032725

> <i_epik_Tot_Q>
1

> <i_epik_Tot_abs_Q>
1

> <r_epik_Metal_State_Penalty>
-0

> <b_epik_Metal_Only>
0

> <s_lp_Force_Field>
OPLS_2005

> <r_lp_Energy>
58.7997

> <b_lp_Chiralities_Consistent>
1

> <s_lp_Variant>
AV-unprocessed.smi:290-13

> <Gold.Version>
5.8.1

> <Gold.Id.Protein>
6NUR|6NUR_protein|mol2

> <Gold.PLP.Fitness>
44.5927

> <Gold.PLP.PLP>
-33.6215

> <Gold.PLP.part.hbond>
-3.0000

> <Gold.PLP.part.metal>
0.0000

> <Gold.PLP.part.buried>
-5.1243

> <Gold.PLP.part.nonpolar>
-25.8479

> <Gold.PLP.part.repulsive>
0.0828

> <Gold.PLP.ligand.clash>
0.0000

> <Gold.PLP.ligand.torsion>
0.9796

> <Gold.PLP.Chemscore.Hbond>
3.0000

> <Gold.PLP.Chemscore.CHOScore>
1.0000

> <Gold.PLP.Chemscore.Metal>
0.0000

> <Gold.Chemscore.Hbonds>
donor molecule, donor type, donor heavy atom, donor atom, acceptor molecule, acceptor atom, score
      L1  H    18    59       P1  7948  2.00
      L1  H    22    54       P1 10957  1.00
      L1  C    10    42       P1  8028  1.00

> <Gold.PLP.Chemscore.Internal.Correction>
0.9304

> <Gold.Rescore>
     Score         DG    S(hbond)    S(metal)    S(lipo)     H(rot)  DE(clash)    DE(int)     intcor
     10.06     -12.84       1.96        0.00      87.32       3.67       0.13       2.65       ----

> <Gold.Chemscore.Fitness>
10.0643

> <Gold.Chemscore.DG>
-12.8445

> <Gold.Chemscore.ZeroCoef>
-5.4800

> <Gold.Chemscore.Hbond>
1.9559

> <Gold.Chemscore.Metal>
0.0000

> <Gold.Chemscore.Lipo>
87.3180

> <Gold.Chemscore.Internal_Hbond>
0.0000

> <Gold.Chemscore.DEClash>
0.1310

> <Gold.Chemscore.DEInternal>
2.6492

> <Gold.Chemscore.Rot>
3.6658

> <Gold.Chemscore.Internal.Correction>
   9.000000E+99

> <Gold.Chemscore.Hbonds>
donor molecule, donor type, donor heavy atom, donor atom, acceptor molecule, acceptor atom, score
      L1  H    18    59       P1  7948  1.00
      L1  H    22    54       P1 10957  0.60

> <Gold.Chemscore.Hbond.Weighted>
-6.5327

> <Gold.Chemscore.Metal.Weighted>
-0.0000

> <Gold.Chemscore.Lipo.Weighted>
-10.2162

> <Gold.Chemscore.Internal_Hbond.Weighted>
0.0000

> <Gold.Chemscore.DEClash.Weighted>
0.1310

> <Gold.Chemscore.DEInternal.Weighted>
2.6492

> <Gold.Chemscore.Rot.Weighted>
9.3844

> <Gold.Chemscore.Internal.Correction.Weighted>
   9.000000E+99

> <Gold.Protein.RotatedTorsions>
[ 6907 6896 6895 6894 ] final   10.75 input  -60.11 | X-H torsion
[ 7974 7965 7964 7962 ] final   -1.62 input  175.53 | X-H torsion
[ 8008 7997 7996 7995 ] final  164.86 input   59.86 | X-H torsion
[ 10167 10162 10161 10158 ] final -126.16 input  -65.29 | X-H torsion
[ 10718 10713 10712 10709 ] final   43.13 input   66.30 | X-H torsion
[ 10763 10752 10751 10750 ] final -173.34 input  -60.55 | X-H torsion
[ 11005 11000 10999 10996 ] final   28.20 input  -57.11 | X-H torsion

> <Gold.Protein.ActiveResidues>
 VAL166  LYS551  ARG553  GLY616  TRP617  ASP618  TYR619  PRO620  LYS621  CYS622 
 ASP623  PHE694  ASN695  SER759  ASP760  ASP761  ALA762  ILE779  LEU786  VAL792 
 PHE793  MET794  SER795  GLU796  ALA797  LYS798  CYS799  TRP800  GLU811  SER814 

> <Gold.Protein.RotatedAtoms>
  151.7433  135.0849  160.0318 H   0  0  0  0  0  0  0  0  0  0  0  0  # atno 6907 bound_to 6896
  152.3465  133.6124  159.5922 H   0  0  0  0  0  0  0  0  0  0  0  0  # atno 6908 bound_to 6896
  150.7512  133.9558  159.3541 H   0  0  0  0  0  0  0  0  0  0  0  0  # atno 6909 bound_to 6896
  146.2415  140.1447  142.8335 H   0  0  0  0  0  0  0  0  0  0  0  0  # atno 7974 bound_to 7965
  156.1847  140.1685  156.8208 H   0  0  0  0  0  0  0  0  0  0  0  0  # atno 8008 bound_to 7997
  154.5400  140.0738  156.8526 H   0  0  0  0  0  0  0  0  0  0  0  0  # atno 8009 bound_to 7997
  155.3234  140.3375  155.4243 H   0  0  0  0  0  0  0  0  0  0  0  0  # atno 8010 bound_to 7997
  139.9744  143.5811  152.2401 H   0  0  0  0  0  0  0  0  0  0  0  0  # atno 10167 bound_to 10162
  157.4125  130.7922  149.7443 H   0  0  0  0  0  0  0  0  0  0  0  0  # atno 10718 bound_to 10713
  154.6089  135.2862  155.0454 H   0  0  0  0  0  0  0  0  0  0  0  0  # atno 10763 bound_to 10752
  154.1691  135.6475  153.5008 H   0  0  0  0  0  0  0  0  0  0  0  0  # atno 10764 bound_to 10752
  153.0187  135.5396  154.6836 H   0  0  0  0  0  0  0  0  0  0  0  0  # atno 10765 bound_to 10752
  140.3181  134.2574  155.7722 H   0  0  0  0  0  0  0  0  0  0  0  0  # atno 11005 bound_to 11000
  145.0217  140.8799  143.5163 LP  0  0  0  0  0  0  0  0  0  0  0  0  # atno 17320 bound_to 7965
  145.1497  139.2522  143.5447 LP  0  0  0  0  0  0  0  0  0  0  0  0  # atno 17321 bound_to 7965
  139.6457  144.7658  151.2249 LP  0  0  0  0  0  0  0  0  0  0  0  0  # atno 17342 bound_to 10162
  140.7511  143.6243  150.8483 LP  0  0  0  0  0  0  0  0  0  0  0  0  # atno 17343 bound_to 10162
  155.9855  130.3982  150.3259 LP  0  0  0  0  0  0  0  0  0  0  0  0  # atno 17370 bound_to 10713
  157.1398  131.0293  151.2933 LP  0  0  0  0  0  0  0  0  0  0  0  0  # atno 17371 bound_to 10713
  141.2093  133.7753  157.0006 LP  0  0  0  0  0  0  0  0  0  0  0  0  # atno 17394 bound_to 11000
  140.0966  134.9561  157.1858 LP  0  0  0  0  0  0  0  0  0  0  0  0  # atno 17395 bound_to 11000

$$$$
