AV-unprocessed.smi:1701|AV-procd|sdf|6823|dock10
  -GOLD-   22720 8 03D 1   1.00000     0.00000
 Structure written by MMmdl.
 55 57  0  0  0  0  0  0  0  0  3 V2000
  145.6069  132.2387  151.6618 C   0  0  0  0  0  0  0  0  0  0  0  0
  144.3319  133.0796  151.8306 C   0  0  0  0  0  0  0  0  0  0  0  0
  144.1583  134.0695  150.7679 N   0  0  0  0  0  0  0  0  0  0  0  0
  144.2006  133.5782  149.3886 C   0  0  0  0  0  0  0  0  0  0  0  0
  143.1732  132.4685  149.1127 C   0  0  0  0  0  0  0  0  0  0  0  0
  144.6942  135.3465  151.0503 C   0  0  0  0  0  0  0  0  0  0  0  0
  144.8060  135.8408  152.3710 C   0  0  0  0  0  0  0  0  0  0  0  0
  145.3668  137.1138  152.5986 C   0  0  0  0  0  0  0  0  0  0  0  0
  145.8203  137.8884  151.5103 C   0  0  0  0  0  0  0  0  0  0  0  0
  146.3749  139.1652  151.8025 N   0  0  0  0  0  0  0  0  0  0  0  0
  146.9046  139.6246  152.9543 C   0  0  0  0  0  0  0  0  0  0  0  0
  147.0065  138.9740  153.9909 O   0  0  0  0  0  0  0  0  0  0  0  0
  147.3296  140.8993  152.8942 N   0  0  0  0  0  0  0  0  0  0  0  0
  147.9477  141.6967  153.9543 C   0  0  2  0  0  0  0  0  0  0  0  0
  149.2187  141.0655  154.5573 C   0  0  0  0  0  0  0  0  0  0  0  0
  149.1424  141.3545  156.0700 C   0  0  0  0  0  0  0  0  0  0  0  0
  147.9494  142.2045  156.2443 N   0  3  2  0  0  0  0  0  0  0  0  0
  147.3087  142.2049  157.5775 C   0  0  0  0  0  0  0  0  0  0  0  0
  146.1354  143.2058  157.5767 C   0  0  0  0  0  0  0  0  0  0  0  0
  145.1511  142.9341  156.4205 C   0  0  0  0  0  0  0  0  0  0  0  0
  145.8882  142.8524  155.0697 C   0  0  0  0  0  0  0  0  0  0  0  0
  147.0248  141.8217  155.1665 C   0  0  1  0  0  0  0  0  0  0  0  0
  145.6798  137.3529  150.2069 C   0  0  0  0  0  0  0  0  0  0  0  0
  145.1353  136.1291  150.0351 N   0  3  0  0  0  0  0  0  0  0  0  0
  145.6879  131.5001  152.4595 H   0  0  0  0  0  0  0  0  0  0  0  0
  146.5025  132.8599  151.6969 H   0  0  0  0  0  0  0  0  0  0  0  0
  145.6083  131.7011  150.7132 H   0  0  0  0  0  0  0  0  0  0  0  0
  143.4647  132.4186  151.8304 H   0  0  0  0  0  0  0  0  0  0  0  0
  144.3304  133.5569  152.8097 H   0  0  0  0  0  0  0  0  0  0  0  0
  144.0560  134.4073  148.6948 H   0  0  0  0  0  0  0  0  0  0  0  0
  145.1974  133.1864  149.1828 H   0  0  0  0  0  0  0  0  0  0  0  0
  143.2632  132.1102  148.0870 H   0  0  0  0  0  0  0  0  0  0  0  0
  142.1473  132.8096  149.2491 H   0  0  0  0  0  0  0  0  0  0  0  0
  143.3323  131.6163  149.7740 H   0  0  0  0  0  0  0  0  0  0  0  0
  144.4568  135.2622  153.2134 H   0  0  0  0  0  0  0  0  0  0  0  0
  145.4477  137.4889  153.6086 H   0  0  0  0  0  0  0  0  0  0  0  0
  146.3371  139.8312  151.0452 H   0  0  0  0  0  0  0  0  0  0  0  0
  147.2178  141.3638  152.0041 H   0  0  0  0  0  0  0  0  0  0  0  0
  148.1787  142.6991  153.5879 H   0  0  0  0  0  0  0  0  0  0  0  0
  149.2472  139.9879  154.3893 H   0  0  0  0  0  0  0  0  0  0  0  0
  150.1175  141.4904  154.1091 H   0  0  0  0  0  0  0  0  0  0  0  0
  149.0212  140.4213  156.6223 H   0  0  0  0  0  0  0  0  0  0  0  0
  150.0347  141.8566  156.4449 H   0  0  0  0  0  0  0  0  0  0  0  0
  146.9554  141.2019  157.8216 H   0  0  0  0  0  0  0  0  0  0  0  0
  148.0409  142.4834  158.3361 H   0  0  0  0  0  0  0  0  0  0  0  0
  145.6109  143.1675  158.5318 H   0  0  0  0  0  0  0  0  0  0  0  0
  146.5272  144.2195  157.4826 H   0  0  0  0  0  0  0  0  0  0  0  0
  144.6270  141.9955  156.6048 H   0  0  0  0  0  0  0  0  0  0  0  0
  144.3878  143.7121  156.3862 H   0  0  0  0  0  0  0  0  0  0  0  0
  145.1910  142.5746  154.2784 H   0  0  0  0  0  0  0  0  0  0  0  0
  146.2887  143.8323  154.8065 H   0  0  0  0  0  0  0  0  0  0  0  0
  146.6059  140.8402  155.4021 H   0  0  0  0  0  0  0  0  0  0  0  0
  145.9715  137.8426  149.2908 H   0  0  0  0  0  0  0  0  0  0  0  0
  148.2393  143.1523  156.0499 H   0  0  0  0  0  0  0  0  0  0  0  0
  145.0536  135.7722  149.0828 H   0  0  0  0  0  0  0  0  0  0  0  0
  1  2  1  0  0  0  0
  1 25  1  0  0  0  0
  1 26  1  0  0  0  0
  1 27  1  0  0  0  0
  2  3  1  0  0  0  0
  2 28  1  0  0  0  0
  2 29  1  0  0  0  0
  3  4  1  0  0  0  0
  3  6  1  0  0  0  0
  4  5  1  0  0  0  0
  4 30  1  0  0  0  0
  4 31  1  0  0  0  0
  5 32  1  0  0  0  0
  5 33  1  0  0  0  0
  5 34  1  0  0  0  0
  6 24  1  0  0  0  0
  6  7  2  0  0  0  0
  7  8  1  0  0  0  0
  7 35  1  0  0  0  0
  8  9  2  0  0  0  0
  8 36  1  0  0  0  0
  9 10  1  0  0  0  0
  9 23  1  0  0  0  0
 10 11  1  0  0  0  0
 10 37  1  0  0  0  0
 11 12  2  0  0  0  0
 11 13  1  0  0  0  0
 13 14  1  0  0  0  0
 13 38  1  0  0  0  0
 14 22  1  0  0  0  0
 14 15  1  0  0  0  0
 14 39  1  0  0  0  0
 15 16  1  0  0  0  0
 15 40  1  0  0  0  0
 15 41  1  0  0  0  0
 16 17  1  0  0  0  0
 16 42  1  0  0  0  0
 16 43  1  0  0  0  0
 17 22  1  0  0  0  0
 17 18  1  0  0  0  0
 17 54  1  0  0  0  0
 18 19  1  0  0  0  0
 18 44  1  0  0  0  0
 18 45  1  0  0  0  0
 19 20  1  0  0  0  0
 19 46  1  0  0  0  0
 19 47  1  0  0  0  0
 20 21  1  0  0  0  0
 20 48  1  0  0  0  0
 20 49  1  0  0  0  0
 21 22  1  0  0  0  0
 21 50  1  0  0  0  0
 21 51  1  0  0  0  0
 22 52  1  0  0  0  0
 23 24  2  0  0  0  0
 23 53  1  0  0  0  0
 24 55  1  0  0  0  0
M  CHG  1  17   1
M  CHG  1  24   1
M  END
> <s_m_source_file>
AV-unprocessed.smi

> <i_m_source_file_index>
1701

> <i_lp_mmshare_version>
43012

> <i_f3d_flags>
0

> <s_epik_input>
W0NIM11bQ0gyXU4oW0NIMl1bQ0gzXSljMVtjSF1bY0hdYyhbY0hdbjEpW05IXUMoPU8pW05IXVtDQEhdKFtDSDJdW0NIMl0yKVtDQEBIXShOMjMpW0NIMl1bQ0gyXVtDSDJdW0NIMl0z

> <s_epik_cmdline>
J2VwaWtfcHl0aG9uJywgJy1waCcsICc3LjAnLCAnLXRuJywgJzgnLCAnLW1hJywgJzIwMCcsICctbWV0YWxfYmluZGluZycsICctaW1hZScsICc8aW5maWxlLm1hZT4nLCAnLW9tYWUnLCAnPG91dGZpbGUubWFlPic=

> <r_lp_tautomer_probability>
0.999994

> <r_epik_Ionization_Penalty>
0.302862

> <r_epik_Ionization_Penalty_Charging>
0.302842

> <r_epik_Ionization_Penalty_Neutral>
1.95166e-05

> <r_epik_State_Penalty>
0.019791

> <r_epik_Charging_Adjusted_Penalty>
0.322633

> <i_epik_Tot_Q>
2

> <i_epik_Tot_abs_Q>
2

> <r_epik_Metal_State_Penalty>
0.0536763

> <b_epik_Metal_Only>
0

> <s_lp_Force_Field>
OPLS_2005

> <r_lp_Energy>
62.5639

> <b_lp_Chiralities_Consistent>
1

> <s_lp_Variant>
AV-unprocessed.smi:1701-3

> <Gold.Version>
5.8.1

> <Gold.Id.Protein>
6NUR|6NUR_protein|mol2

> <Gold.PLP.Fitness>
49.1283

> <Gold.PLP.PLP>
-40.5732

> <Gold.PLP.part.hbond>
-4.6599

> <Gold.PLP.part.metal>
0.0000

> <Gold.PLP.part.buried>
6.8135

> <Gold.PLP.part.nonpolar>
-43.1462

> <Gold.PLP.part.repulsive>
0.4768

> <Gold.PLP.ligand.clash>
0.0000

> <Gold.PLP.ligand.torsion>
0.6498

> <Gold.PLP.Chemscore.Hbond>
2.9920

> <Gold.PLP.Chemscore.CHOScore>
0.0000

> <Gold.PLP.Chemscore.Metal>
0.0000

> <Gold.Chemscore.Hbonds>
donor molecule, donor type, donor heavy atom, donor atom, acceptor molecule, acceptor atom, score
      L1  H    17    54       P1  8028  2.00
      L1  H    24    55       P1  7921  0.82

> <Gold.PLP.Chemscore.Internal.Correction>
0.8786

> <Gold.Rescore>
     Score         DG    S(hbond)    S(metal)    S(lipo)     H(rot)  DE(clash)    DE(int)     intcor
     12.88     -19.62       1.70        0.00     100.91       1.30       3.91       2.84       ----

> <Gold.Chemscore.Fitness>
12.8781

> <Gold.Chemscore.DG>
-19.6211

> <Gold.Chemscore.ZeroCoef>
-5.4800

> <Gold.Chemscore.Hbond>
1.6968

> <Gold.Chemscore.Metal>
0.0000

> <Gold.Chemscore.Lipo>
100.9125

> <Gold.Chemscore.Internal_Hbond>
0.0000

> <Gold.Chemscore.DEClash>
3.9054

> <Gold.Chemscore.DEInternal>
2.8375

> <Gold.Chemscore.Rot>
1.3020

> <Gold.Chemscore.Internal.Correction>
   9.000000E+99

> <Gold.Chemscore.Hbonds>
donor molecule, donor type, donor heavy atom, donor atom, acceptor molecule, acceptor atom, score
      L1  H    17    54       P1  8028  0.74
      L1  H    24    55       P1  7921  0.77

> <Gold.Chemscore.Hbond.Weighted>
-5.6673

> <Gold.Chemscore.Metal.Weighted>
-0.0000

> <Gold.Chemscore.Lipo.Weighted>
-11.8068

> <Gold.Chemscore.Internal_Hbond.Weighted>
0.0000

> <Gold.Chemscore.DEClash.Weighted>
3.9054

> <Gold.Chemscore.DEInternal.Weighted>
2.8375

> <Gold.Chemscore.Rot.Weighted>
3.3330

> <Gold.Chemscore.Internal.Correction.Weighted>
   9.000000E+99

> <Gold.Protein.RotatedTorsions>
[ 6907 6896 6895 6894 ] final -104.40 input  -60.11 | X-H torsion
[ 7974 7965 7964 7962 ] final -103.44 input  175.53 | X-H torsion
[ 8008 7997 7996 7995 ] final   23.58 input   59.86 | X-H torsion
[ 10167 10162 10161 10158 ] final  -12.05 input  -65.29 | X-H torsion
[ 10718 10713 10712 10709 ] final   60.48 input   66.30 | X-H torsion
[ 10763 10752 10751 10750 ] final   64.12 input  -60.55 | X-H torsion
[ 11005 11000 10999 10996 ] final  -83.26 input  -57.11 | X-H torsion

> <Gold.Protein.ActiveResidues>
 VAL166  LYS551  ARG553  GLY616  TRP617  ASP618  TYR619  PRO620  LYS621  CYS622 
 ASP623  PHE694  ASN695  SER759  ASP760  ASP761  ALA762  ILE779  LEU786  VAL792 
 PHE793  MET794  SER795  GLU796  ALA797  LYS798  CYS799  TRP800  GLU811  SER814 

> <Gold.Protein.RotatedAtoms>
  150.7285  134.0284  159.3724 H   0  0  0  0  0  0  0  0  0  0  0  0  # atno 6907 bound_to 6896
  151.8252  135.0637  160.0439 H   0  0  0  0  0  0  0  0  0  0  0  0  # atno 6908 bound_to 6896
  152.2974  133.5585  159.5633 H   0  0  0  0  0  0  0  0  0  0  0  0  # atno 6909 bound_to 6896
  145.2558  140.9253  143.3069 H   0  0  0  0  0  0  0  0  0  0  0  0  # atno 7974 bound_to 7965
  154.9831  140.3104  155.4938 H   0  0  0  0  0  0  0  0  0  0  0  0  # atno 8008 bound_to 7997
  156.2950  140.2263  156.4870 H   0  0  0  0  0  0  0  0  0  0  0  0  # atno 8009 bound_to 7997
  154.7772  140.0448  157.1086 H   0  0  0  0  0  0  0  0  0  0  0  0  # atno 8010 bound_to 7997
  140.7152  143.5574  150.9234 H   0  0  0  0  0  0  0  0  0  0  0  0  # atno 10167 bound_to 10162
  157.5756  130.8941  149.9341 H   0  0  0  0  0  0  0  0  0  0  0  0  # atno 10718 bound_to 10713
  153.0043  135.5404  154.6460 H   0  0  0  0  0  0  0  0  0  0  0  0  # atno 10763 bound_to 10752
  154.5704  135.2841  155.0835 H   0  0  0  0  0  0  0  0  0  0  0  0  # atno 10764 bound_to 10752
  154.2003  135.6485  153.5137 H   0  0  0  0  0  0  0  0  0  0  0  0  # atno 10765 bound_to 10752
  141.1659  133.7285  156.8694 H   0  0  0  0  0  0  0  0  0  0  0  0  # atno 11005 bound_to 11000
  144.9462  139.4133  143.6425 LP  0  0  0  0  0  0  0  0  0  0  0  0  # atno 17320 bound_to 7965
  146.3289  139.8447  142.8884 LP  0  0  0  0  0  0  0  0  0  0  0  0  # atno 17321 bound_to 7965
  139.9299  143.6506  152.3078 LP  0  0  0  0  0  0  0  0  0  0  0  0  # atno 17342 bound_to 10162
  139.6953  144.7642  151.1367 LP  0  0  0  0  0  0  0  0  0  0  0  0  # atno 17343 bound_to 10162
  156.0801  130.3674  150.0598 LP  0  0  0  0  0  0  0  0  0  0  0  0  # atno 17370 bound_to 10713
  156.8745  130.9535  151.3606 LP  0  0  0  0  0  0  0  0  0  0  0  0  # atno 17371 bound_to 10713
  140.1792  134.9045  157.2928 LP  0  0  0  0  0  0  0  0  0  0  0  0  # atno 17394 bound_to 11000
  140.2414  134.3791  155.7479 LP  0  0  0  0  0  0  0  0  0  0  0  0  # atno 17395 bound_to 11000

$$$$
