AV-unprocessed.smi:3025|AV-procd|sdf|11508|dock4
  -GOLD-   2272016443D 1   1.00000     0.00000
 Structure written by MMmdl.
 42 43  0  0  0  0  0  0  0  0  2 V2000
  152.8012  143.7560  162.9277 C   0  0  0  0  0  0  0  0  0  0  0  0
  152.4976  143.7096  161.4262 C   0  0  0  0  0  0  0  0  0  0  0  0
  152.7736  142.3258  160.8142 C   0  0  0  0  0  0  0  0  0  0  0  0
  152.6217  142.2695  159.2799 C   0  0  2  0  0  0  0  0  0  0  0  0
  152.0208  143.5656  158.6943 C   0  0  0  0  0  0  0  0  0  0  0  0
  151.8500  143.4787  157.1677 C   0  0  0  0  0  0  0  0  0  0  0  0
  151.0025  142.2617  156.7401 C   0  0  2  0  0  0  0  0  0  0  0  0
  149.5780  142.4031  157.1223 N   0  3  0  0  0  0  0  0  0  0  0  0
  148.6465  141.4612  156.4680 C   0  0  0  0  0  0  0  0  0  0  0  0
  148.9085  141.3935  154.9577 C   0  0  0  0  0  0  0  0  0  0  0  0
  149.5834  140.1222  154.5622 C   0  0  0  0  0  0  0  0  0  0  0  0
  148.9204  139.1612  153.9169 N   0  0  0  0  0  0  0  0  0  0  0  0
  149.8847  138.2357  153.7214 N   0  0  0  0  0  0  0  0  0  0  0  0
  151.0276  138.6930  154.2308 C   0  0  0  0  0  0  0  0  0  0  0  0
  150.9158  139.8972  154.7762 N   0  0  0  0  0  0  0  0  0  0  0  0
  151.5906  140.9696  157.3366 C   0  0  0  0  0  0  0  0  0  0  0  0
  151.7645  141.0573  158.8632 C   0  0  0  0  0  0  0  0  0  0  0  0
  152.5998  144.7473  163.3346 H   0  0  0  0  0  0  0  0  0  0  0  0
  153.8476  143.5225  163.1261 H   0  0  0  0  0  0  0  0  0  0  0  0
  152.1877  143.0406  163.4760 H   0  0  0  0  0  0  0  0  0  0  0  0
  151.4558  143.9891  161.2725 H   0  0  0  0  0  0  0  0  0  0  0  0
  153.0997  144.4627  160.9168 H   0  0  0  0  0  0  0  0  0  0  0  0
  153.7923  142.0365  161.0759 H   0  0  0  0  0  0  0  0  0  0  0  0
  152.1227  141.5826  161.2770 H   0  0  0  0  0  0  0  0  0  0  0  0
  153.6154  142.1319  158.8505 H   0  0  0  0  0  0  0  0  0  0  0  0
  151.0572  143.7725  159.1616 H   0  0  0  0  0  0  0  0  0  0  0  0
  152.6604  144.4176  158.9238 H   0  0  0  0  0  0  0  0  0  0  0  0
  151.4293  144.4081  156.7847 H   0  0  0  0  0  0  0  0  0  0  0  0
  152.8373  143.3964  156.7113 H   0  0  0  0  0  0  0  0  0  0  0  0
  151.0407  142.1709  155.6536 H   0  0  0  0  0  0  0  0  0  0  0  0
  149.5138  142.2431  158.1175 H   0  0  0  0  0  0  0  0  0  0  0  0
  148.7566  140.4677  156.9020 H   0  0  0  0  0  0  0  0  0  0  0  0
  147.6202  141.7830  156.6508 H   0  0  0  0  0  0  0  0  0  0  0  0
  147.9684  141.4784  154.4106 H   0  0  0  0  0  0  0  0  0  0  0  0
  149.5258  142.2372  154.6450 H   0  0  0  0  0  0  0  0  0  0  0  0
  151.9549  138.1401  154.1985 H   0  0  0  0  0  0  0  0  0  0  0  0
  150.9634  140.1150  157.0802 H   0  0  0  0  0  0  0  0  0  0  0  0
  152.5629  140.7764  156.8812 H   0  0  0  0  0  0  0  0  0  0  0  0
  152.2243  140.1364  159.2240 H   0  0  0  0  0  0  0  0  0  0  0  0
  150.7863  141.1155  159.3419 H   0  0  0  0  0  0  0  0  0  0  0  0
  149.2833  143.3503  156.9321 H   0  0  0  0  0  0  0  0  0  0  0  0
  149.7232  137.3545  153.2541 H   0  0  0  0  0  0  0  0  0  0  0  0
  1  2  1  0  0  0  0
  1 18  1  0  0  0  0
  1 19  1  0  0  0  0
  1 20  1  0  0  0  0
  2  3  1  0  0  0  0
  2 21  1  0  0  0  0
  2 22  1  0  0  0  0
  3  4  1  0  0  0  0
  3 23  1  0  0  0  0
  3 24  1  0  0  0  0
  4 17  1  0  0  0  0
  4  5  1  0  0  0  0
  4 25  1  0  0  0  0
  5  6  1  0  0  0  0
  5 26  1  0  0  0  0
  5 27  1  0  0  0  0
  6  7  1  0  0  0  0
  6 28  1  0  0  0  0
  6 29  1  0  0  0  0
  7  8  1  0  0  0  0
  7 16  1  0  0  0  0
  7 30  1  0  0  0  0
  8  9  1  0  0  0  0
  8 31  1  0  0  0  0
  8 41  1  0  0  0  0
  9 10  1  0  0  0  0
  9 32  1  0  0  0  0
  9 33  1  0  0  0  0
 10 34  1  0  0  0  0
 10 35  1  0  0  0  0
 10 11  1  0  0  0  0
 11 15  1  0  0  0  0
 11 12  2  0  0  0  0
 12 13  1  0  0  0  0
 13 14  1  0  0  0  0
 13 42  1  0  0  0  0
 14 15  2  0  0  0  0
 14 36  1  0  0  0  0
 16 17  1  0  0  0  0
 16 37  1  0  0  0  0
 16 38  1  0  0  0  0
 17 39  1  0  0  0  0
 17 40  1  0  0  0  0
M  CHG  1   8   1
M  END
> <s_m_source_file>
AV-unprocessed.smi

> <i_m_source_file_index>
3025

> <i_lp_mmshare_version>
43012

> <i_f3d_flags>
0

> <s_epik_input>
W0NIM11bQ0gyXVtDSDJdW0NAQEhdMVtDSDJdW0NIMl1bQ0BIXShbQ0gyXVtDSDJdMSlbTkhdW0NIMl1bQ0gyXWMybm5bY0hdW25IXTI=

> <s_epik_cmdline>
J2VwaWtfcHl0aG9uJywgJy1waCcsICc3LjAnLCAnLXRuJywgJzgnLCAnLW1hJywgJzIwMCcsICctbWV0YWxfYmluZGluZycsICctaW1hZScsICc8aW5maWxlLm1hZT4nLCAnLW9tYWUnLCAnPG91dGZpbGUubWFlPic=

> <r_epik_Ionization_Penalty>
0.00995411

> <r_epik_Ionization_Penalty_Charging>
0.000442289

> <r_epik_Ionization_Penalty_Neutral>
0.00951182

> <r_epik_State_Penalty>
0.448541

> <r_epik_Charging_Adjusted_Penalty>
0.448983

> <i_epik_Tot_Q>
1

> <i_epik_Tot_abs_Q>
1

> <r_epik_Metal_State_Penalty>
0.682245

> <b_epik_Metal_Only>
0

> <s_lp_Force_Field>
OPLS_2005

> <r_lp_Energy>
14.0161

> <b_lp_Chiralities_Consistent>
1

> <s_lp_Variant>
AV-unprocessed.smi:3025-4

> <Gold.Version>
5.8.1

> <Gold.Id.Protein>
6NUR|6NUR_protein|mol2

> <Gold.PLP.Fitness>
48.3956

> <Gold.PLP.PLP>
-39.0174

> <Gold.PLP.part.hbond>
-3.6658

> <Gold.PLP.part.metal>
0.0000

> <Gold.PLP.part.buried>
-5.6581

> <Gold.PLP.part.nonpolar>
-30.2353

> <Gold.PLP.part.repulsive>
1.3236

> <Gold.PLP.ligand.clash>
0.0000

> <Gold.PLP.ligand.torsion>
1.3452

> <Gold.PLP.Chemscore.Hbond>
4.0000

> <Gold.PLP.Chemscore.CHOScore>
0.0000

> <Gold.PLP.Chemscore.Metal>
0.0000

> <Gold.Chemscore.Hbonds>
donor molecule, donor type, donor heavy atom, donor atom, acceptor molecule, acceptor atom, score
      L1  H     8    41       P1  8028  2.00
      L1  H    13    42       P1  7948  1.00
      P1  H  7989  7998       L1    15  1.00

> <Gold.PLP.Chemscore.Internal.Correction>
0.0685

> <Gold.Rescore>
     Score         DG    S(hbond)    S(metal)    S(lipo)     H(rot)  DE(clash)    DE(int)     intcor
     15.20     -18.10       2.38        0.00      95.79       2.56       0.36       2.54       ----

> <Gold.Chemscore.Fitness>
15.1968

> <Gold.Chemscore.DG>
-18.0979

> <Gold.Chemscore.ZeroCoef>
-5.4800

> <Gold.Chemscore.Hbond>
2.3847

> <Gold.Chemscore.Metal>
0.0000

> <Gold.Chemscore.Lipo>
95.7894

> <Gold.Chemscore.Internal_Hbond>
0.0000

> <Gold.Chemscore.DEClash>
0.3616

> <Gold.Chemscore.DEInternal>
2.5394

> <Gold.Chemscore.Rot>
2.5602

> <Gold.Chemscore.Internal.Correction>
   9.000000E+99

> <Gold.Chemscore.Hbonds>
donor molecule, donor type, donor heavy atom, donor atom, acceptor molecule, acceptor atom, score
      L1  H     8    41       P1  8028  0.87
      L1  H    13    42       P1  7948  0.64
      P1  H  7989  7998       L1    15  0.08

> <Gold.Chemscore.Hbond.Weighted>
-7.9647

> <Gold.Chemscore.Metal.Weighted>
-0.0000

> <Gold.Chemscore.Lipo.Weighted>
-11.2074

> <Gold.Chemscore.Internal_Hbond.Weighted>
0.0000

> <Gold.Chemscore.DEClash.Weighted>
0.3616

> <Gold.Chemscore.DEInternal.Weighted>
2.5394

> <Gold.Chemscore.Rot.Weighted>
6.5542

> <Gold.Chemscore.Internal.Correction.Weighted>
   9.000000E+99

> <Gold.Protein.RotatedTorsions>
[ 6907 6896 6895 6894 ] final -142.27 input  -60.11 | X-H torsion
[ 7974 7965 7964 7962 ] final  -24.31 input  175.53 | X-H torsion
[ 8008 7997 7996 7995 ] final  146.36 input   59.86 | X-H torsion
[ 10167 10162 10161 10158 ] final -167.46 input  -65.29 | X-H torsion
[ 10718 10713 10712 10709 ] final  -26.15 input   66.30 | X-H torsion
[ 10763 10752 10751 10750 ] final   77.04 input  -60.55 | X-H torsion
[ 11005 11000 10999 10996 ] final   28.91 input  -57.11 | X-H torsion

> <Gold.Protein.ActiveResidues>
 VAL166  LYS551  ARG553  GLY616  TRP617  ASP618  TYR619  PRO620  LYS621  CYS622 
 ASP623  PHE694  ASN695  SER759  ASP760  ASP761  ALA762  ILE779  LEU786  VAL792 
 PHE793  MET794  SER795  GLU796  ALA797  LYS798  CYS799  TRP800  GLU811  SER814 

> <Gold.Protein.RotatedAtoms>
  151.0848  133.5361  159.2618 H   0  0  0  0  0  0  0  0  0  0  0  0  # atno 6907 bound_to 6896
  151.2251  135.0532  159.8975 H   0  0  0  0  0  0  0  0  0  0  0  0  # atno 6908 bound_to 6896
  152.5428  134.0645  159.8220 H   0  0  0  0  0  0  0  0  0  0  0  0  # atno 6909 bound_to 6896
  146.1562  140.4734  142.8590 H   0  0  0  0  0  0  0  0  0  0  0  0  # atno 7974 bound_to 7965
  156.2857  140.2184  156.5364 H   0  0  0  0  0  0  0  0  0  0  0  0  # atno 8008 bound_to 7997
  154.7406  140.0488  157.0829 H   0  0  0  0  0  0  0  0  0  0  0  0  # atno 8009 bound_to 7997
  155.0236  140.3127  155.4787 H   0  0  0  0  0  0  0  0  0  0  0  0  # atno 8010 bound_to 7997
  139.6048  144.0936  152.1781 H   0  0  0  0  0  0  0  0  0  0  0  0  # atno 10167 bound_to 10162
  156.4550  130.4492  149.6965 H   0  0  0  0  0  0  0  0  0  0  0  0  # atno 10718 bound_to 10713
  153.0769  135.4929  154.8423 H   0  0  0  0  0  0  0  0  0  0  0  0  # atno 10763 bound_to 10752
  154.7099  135.3018  154.9215 H   0  0  0  0  0  0  0  0  0  0  0  0  # atno 10764 bound_to 10752
  153.9912  135.6778  153.4807 H   0  0  0  0  0  0  0  0  0  0  0  0  # atno 10765 bound_to 10752
  140.3106  134.2654  155.7735 H   0  0  0  0  0  0  0  0  0  0  0  0  # atno 11005 bound_to 11000
  144.7967  140.6136  143.6505 LP  0  0  0  0  0  0  0  0  0  0  0  0  # atno 17320 bound_to 7965
  145.4701  139.1504  143.3819 LP  0  0  0  0  0  0  0  0  0  0  0  0  # atno 17321 bound_to 7965
  140.0540  144.5910  150.7314 LP  0  0  0  0  0  0  0  0  0  0  0  0  # atno 17342 bound_to 10162
  140.7277  143.2654  151.4064 LP  0  0  0  0  0  0  0  0  0  0  0  0  # atno 17343 bound_to 10162
  156.3776  130.7562  151.2552 LP  0  0  0  0  0  0  0  0  0  0  0  0  # atno 17370 bound_to 10713
  157.7501  131.0305  150.4139 LP  0  0  0  0  0  0  0  0  0  0  0  0  # atno 17371 bound_to 10713
  141.2109  133.7705  156.9901 LP  0  0  0  0  0  0  0  0  0  0  0  0  # atno 17394 bound_to 11000
  140.1028  134.9525  157.1949 LP  0  0  0  0  0  0  0  0  0  0  0  0  # atno 17395 bound_to 11000

$$$$
