AV-unprocessed.smi:3293|AV-procd|sdf|12629|dock3
  -GOLD-   2272018563D 1   1.00000     0.00000
 Structure written by MMmdl.
 44 45  0  0  0  0  0  0  0  0  2 V2000
  147.1294  142.3060  157.8495 C   0  0  0  0  0  0  0  0  0  0  0  0
  147.2501  142.0042  156.3648 C   0  0  0  0  0  0  0  0  0  0  0  0
  146.4414  142.6068  155.4706 C   0  0  0  0  0  0  0  0  0  0  0  0
  146.4469  142.3354  153.9761 C   0  0  0  0  0  0  0  0  0  0  0  0
  147.6080  141.4306  153.5316 C   0  0  0  0  0  0  0  0  0  0  0  0
  147.8955  140.3352  154.5726 C   0  0  1  0  0  0  0  0  0  0  0  0
  148.8813  139.2779  154.0457 C   0  0  0  0  0  0  0  0  0  0  0  0
  148.2905  140.9582  155.9412 C   0  0  1  0  0  0  0  0  0  0  0  0
  149.7334  141.5277  155.9550 C   0  0  0  0  0  0  0  0  0  0  0  0
  149.8553  142.7617  156.7556 N   0  3  0  0  0  0  0  0  0  0  0  0
  151.2319  143.0631  157.1925 C   0  0  0  0  0  0  0  0  0  0  0  0
  151.2322  144.0178  158.3934 C   0  0  0  0  0  0  0  0  0  0  0  0
  151.9875  143.4388  159.5565 C   0  0  0  0  0  0  0  0  0  0  0  0
  152.8253  142.2871  159.5668 C   0  0  0  0  0  0  0  0  0  0  0  0
  153.3417  142.0373  160.7587 N   0  0  0  0  0  0  0  0  0  0  0  0
  152.8562  143.0173  161.5479 N   0  0  0  0  0  0  0  0  0  0  0  0
  153.2233  143.0539  162.9474 C   0  0  0  0  0  0  0  0  0  0  0  0
  152.0381  143.8790  160.8496 C   0  0  0  0  0  0  0  0  0  0  0  0
  147.0877  141.3817  158.4262 H   0  0  0  0  0  0  0  0  0  0  0  0
  146.2188  142.8680  158.0609 H   0  0  0  0  0  0  0  0  0  0  0  0
  147.9673  142.9033  158.2050 H   0  0  0  0  0  0  0  0  0  0  0  0
  145.7039  143.3191  155.8118 H   0  0  0  0  0  0  0  0  0  0  0  0
  145.4970  141.8615  153.7274 H   0  0  0  0  0  0  0  0  0  0  0  0
  146.4778  143.2810  153.4342 H   0  0  0  0  0  0  0  0  0  0  0  0
  147.3693  140.9868  152.5643 H   0  0  0  0  0  0  0  0  0  0  0  0
  148.5026  142.0333  153.3732 H   0  0  0  0  0  0  0  0  0  0  0  0
  146.9566  139.8023  154.7346 H   0  0  0  0  0  0  0  0  0  0  0  0
  149.8123  139.7244  153.6972 H   0  0  0  0  0  0  0  0  0  0  0  0
  148.4518  138.7366  153.2024 H   0  0  0  0  0  0  0  0  0  0  0  0
  149.1223  138.5444  154.8156 H   0  0  0  0  0  0  0  0  0  0  0  0
  148.2459  140.1482  156.6710 H   0  0  0  0  0  0  0  0  0  0  0  0
  150.4292  140.8079  156.3833 H   0  0  0  0  0  0  0  0  0  0  0  0
  150.0698  141.7281  154.9370 H   0  0  0  0  0  0  0  0  0  0  0  0
  149.5178  143.5365  156.2021 H   0  0  0  0  0  0  0  0  0  0  0  0
  151.7377  142.1332  157.4562 H   0  0  0  0  0  0  0  0  0  0  0  0
  151.7820  143.5062  156.3609 H   0  0  0  0  0  0  0  0  0  0  0  0
  151.6662  144.9729  158.0946 H   0  0  0  0  0  0  0  0  0  0  0  0
  150.2029  144.2366  158.6804 H   0  0  0  0  0  0  0  0  0  0  0  0
  153.0698  141.6275  158.7471 H   0  0  0  0  0  0  0  0  0  0  0  0
  152.6774  143.8483  163.4575 H   0  0  0  0  0  0  0  0  0  0  0  0
  154.2933  143.2407  163.0427 H   0  0  0  0  0  0  0  0  0  0  0  0
  152.9820  142.1005  163.4182 H   0  0  0  0  0  0  0  0  0  0  0  0
  151.5622  144.7235  161.3261 H   0  0  0  0  0  0  0  0  0  0  0  0
  149.2707  142.6706  157.5741 H   0  0  0  0  0  0  0  0  0  0  0  0
  1  2  1  0  0  0  0
  1 19  1  0  0  0  0
  1 20  1  0  0  0  0
  1 21  1  0  0  0  0
  2  8  1  0  0  0  0
  2  3  2  0  0  0  0
  3  4  1  0  0  0  0
  3 22  1  0  0  0  0
  4  5  1  0  0  0  0
  4 23  1  0  0  0  0
  4 24  1  0  0  0  0
  5  6  1  0  0  0  0
  5 25  1  0  0  0  0
  5 26  1  0  0  0  0
  6  7  1  0  0  0  0
  6  8  1  0  0  0  0
  6 27  1  0  0  0  0
  7 28  1  0  0  0  0
  7 29  1  0  0  0  0
  7 30  1  0  0  0  0
  8  9  1  0  0  0  0
  8 31  1  0  0  0  0
  9 10  1  0  0  0  0
  9 32  1  0  0  0  0
  9 33  1  0  0  0  0
 10 11  1  0  0  0  0
 10 34  1  0  0  0  0
 10 44  1  0  0  0  0
 11 12  1  0  0  0  0
 11 35  1  0  0  0  0
 11 36  1  0  0  0  0
 12 13  1  0  0  0  0
 12 37  1  0  0  0  0
 12 38  1  0  0  0  0
 13 18  2  0  0  0  0
 13 14  1  0  0  0  0
 14 15  2  0  0  0  0
 14 39  1  0  0  0  0
 15 16  1  0  0  0  0
 16 17  1  0  0  0  0
 16 18  1  0  0  0  0
 17 40  1  0  0  0  0
 17 41  1  0  0  0  0
 17 42  1  0  0  0  0
 18 43  1  0  0  0  0
M  CHG  1  10   1
M  END
> <s_m_source_file>
AV-unprocessed.smi

> <i_m_source_file_index>
3293

> <i_lp_mmshare_version>
43012

> <i_f3d_flags>
0

> <s_epik_input>
W0NIM11DMT1bQ0hdW0NIMl1bQ0gyXVtDQEBIXShbQ0gzXSlbQ0BIXTFbQ0gyXVtOSF1bQ0gyXVtDSDJdYzJbY0hdbm4oW0NIM10pW2NIXTI=

> <s_epik_cmdline>
J2VwaWtfcHl0aG9uJywgJy1waCcsICc3LjAnLCAnLXRuJywgJzgnLCAnLW1hJywgJzIwMCcsICctbWV0YWxfYmluZGluZycsICctaW1hZScsICc8aW5maWxlLm1hZT4nLCAnLW9tYWUnLCAnPG91dGZpbGUubWFlPic=

> <r_lp_tautomer_probability>
1

> <r_epik_Ionization_Penalty>
0.000598621

> <r_epik_Ionization_Penalty_Charging>
0.000582095

> <r_epik_Ionization_Penalty_Neutral>
1.65262e-05

> <r_epik_State_Penalty>
-0

> <r_epik_Charging_Adjusted_Penalty>
0.000582095

> <i_epik_Tot_Q>
1

> <i_epik_Tot_abs_Q>
1

> <r_epik_Metal_State_Penalty>
-0

> <b_epik_Metal_Only>
0

> <s_lp_Force_Field>
OPLS_2005

> <r_lp_Energy>
11.7739

> <b_lp_Chiralities_Consistent>
1

> <s_lp_Variant>
AV-unprocessed.smi:3293-1

> <Gold.Version>
5.8.1

> <Gold.Id.Protein>
6NUR|6NUR_protein|mol2

> <Gold.PLP.Fitness>
45.0729

> <Gold.PLP.PLP>
-42.6820

> <Gold.PLP.part.hbond>
-1.0000

> <Gold.PLP.part.metal>
0.0000

> <Gold.PLP.part.buried>
-4.6373

> <Gold.PLP.part.nonpolar>
-35.9277

> <Gold.PLP.part.repulsive>
0.0358

> <Gold.PLP.ligand.clash>
1.2373

> <Gold.PLP.ligand.torsion>
1.2242

> <Gold.PLP.Chemscore.Hbond>
2.0000

> <Gold.PLP.Chemscore.CHOScore>
0.0000

> <Gold.PLP.Chemscore.Metal>
0.0000

> <Gold.Chemscore.Hbonds>
donor molecule, donor type, donor heavy atom, donor atom, acceptor molecule, acceptor atom, score
      L1  H    10    34       P1  8028  1.59

> <Gold.PLP.Chemscore.Internal.Correction>
0.0766

> <Gold.Rescore>
     Score         DG    S(hbond)    S(metal)    S(lipo)     H(rot)  DE(clash)    DE(int)     intcor
     15.89     -18.32       0.99        0.00     113.85       1.48       0.10       2.32       ----

> <Gold.Chemscore.Fitness>
15.8945

> <Gold.Chemscore.DG>
-18.3191

> <Gold.Chemscore.ZeroCoef>
-5.4800

> <Gold.Chemscore.Hbond>
0.9937

> <Gold.Chemscore.Metal>
0.0000

> <Gold.Chemscore.Lipo>
113.8539

> <Gold.Chemscore.Internal_Hbond>
0.0000

> <Gold.Chemscore.DEClash>
0.1023

> <Gold.Chemscore.DEInternal>
2.3223

> <Gold.Chemscore.Rot>
1.4847

> <Gold.Chemscore.Internal.Correction>
   9.000000E+99

> <Gold.Chemscore.Hbonds>
donor molecule, donor type, donor heavy atom, donor atom, acceptor molecule, acceptor atom, score
      L1  H    10    34       P1  8028  0.79

> <Gold.Chemscore.Hbond.Weighted>
-3.3190

> <Gold.Chemscore.Metal.Weighted>
-0.0000

> <Gold.Chemscore.Lipo.Weighted>
-13.3209

> <Gold.Chemscore.Internal_Hbond.Weighted>
0.0000

> <Gold.Chemscore.DEClash.Weighted>
0.1023

> <Gold.Chemscore.DEInternal.Weighted>
2.3223

> <Gold.Chemscore.Rot.Weighted>
3.8008

> <Gold.Chemscore.Internal.Correction.Weighted>
   9.000000E+99

> <Gold.Protein.RotatedTorsions>
[ 6907 6896 6895 6894 ] final  -98.84 input  -60.11 | X-H torsion
[ 7974 7965 7964 7962 ] final -103.28 input  175.53 | X-H torsion
[ 8008 7997 7996 7995 ] final  134.34 input   59.86 | X-H torsion
[ 10167 10162 10161 10158 ] final  -62.83 input  -65.29 | X-H torsion
[ 10718 10713 10712 10709 ] final -118.37 input   66.30 | X-H torsion
[ 10763 10752 10751 10750 ] final  162.54 input  -60.55 | X-H torsion
[ 11005 11000 10999 10996 ] final   16.07 input  -57.11 | X-H torsion

> <Gold.Protein.ActiveResidues>
 VAL166  LYS551  ARG553  GLY616  TRP617  ASP618  TYR619  PRO620  LYS621  CYS622 
 ASP623  PHE694  ASN695  SER759  ASP760  ASP761  ALA762  ILE779  LEU786  VAL792 
 PHE793  MET794  SER795  GLU796  ALA797  LYS798  CYS799  TRP800  GLU811  SER814 

> <Gold.Protein.RotatedAtoms>
  150.7060  134.1133  159.4007 H   0  0  0  0  0  0  0  0  0  0  0  0  # atno 6907 bound_to 6896
  151.9119  135.0333  160.0524 H   0  0  0  0  0  0  0  0  0  0  0  0  # atno 6908 bound_to 6896
  152.2328  133.5037  159.5262 H   0  0  0  0  0  0  0  0  0  0  0  0  # atno 6909 bound_to 6896
  145.2580  140.9260  143.3057 H   0  0  0  0  0  0  0  0  0  0  0  0  # atno 7974 bound_to 7965
  156.2998  140.2498  156.3401 H   0  0  0  0  0  0  0  0  0  0  0  0  # atno 8008 bound_to 7997
  154.9063  140.0404  157.1941 H   0  0  0  0  0  0  0  0  0  0  0  0  # atno 8009 bound_to 7997
  154.8450  140.2897  155.5639 H   0  0  0  0  0  0  0  0  0  0  0  0  # atno 8010 bound_to 7997
  140.5912  143.2342  151.6135 H   0  0  0  0  0  0  0  0  0  0  0  0  # atno 10167 bound_to 10162
  156.1101  130.6242  150.9282 H   0  0  0  0  0  0  0  0  0  0  0  0  # atno 10718 bound_to 10713
  154.2800  135.2763  155.2701 H   0  0  0  0  0  0  0  0  0  0  0  0  # atno 10763 bound_to 10752
  154.5227  135.5752  153.6697 H   0  0  0  0  0  0  0  0  0  0  0  0  # atno 10764 bound_to 10752
  152.9931  135.6208  154.2959 H   0  0  0  0  0  0  0  0  0  0  0  0  # atno 10765 bound_to 10752
  140.4512  134.1222  155.7703 H   0  0  0  0  0  0  0  0  0  0  0  0  # atno 11005 bound_to 11000
  144.9444  139.4153  143.6433 LP  0  0  0  0  0  0  0  0  0  0  0  0  # atno 17320 bound_to 7965
  146.3283  139.8420  142.8889 LP  0  0  0  0  0  0  0  0  0  0  0  0  # atno 17321 bound_to 7965
  139.5229  144.3150  152.0960 LP  0  0  0  0  0  0  0  0  0  0  0  0  # atno 17342 bound_to 10162
  140.2314  144.4364  150.6298 LP  0  0  0  0  0  0  0  0  0  0  0  0  # atno 17343 bound_to 10162
  157.6282  131.0923  150.8494 LP  0  0  0  0  0  0  0  0  0  0  0  0  # atno 17370 bound_to 10713
  156.8606  130.5112  149.5304 LP  0  0  0  0  0  0  0  0  0  0  0  0  # atno 17371 bound_to 10713
  141.1663  133.8696  157.1704 LP  0  0  0  0  0  0  0  0  0  0  0  0  # atno 17394 bound_to 11000
  140.0006  135.0029  157.0180 LP  0  0  0  0  0  0  0  0  0  0  0  0  # atno 17395 bound_to 11000

$$$$
