#       Name:                AV-unprocessed.smi:199
#       Creating user name   scv26
#       Creation time:       Thu Mar 26 19:44:25 2020


#       File generated by GOLD software.
#

@<TRIPOS>MOLECULE
AV-unprocessed.smi:199
    61    65     1
SMALL
NO_CHARGES


@<TRIPOS>ATOM
      1 ****        -5.9753  -1.3348  -0.7301 C.3            1 S1                 0.0000
      2 ****        -5.3296   0.0589  -0.7694 C.3            1 S1                 0.0000
      3 ****        -5.6930   0.7321   0.4336 O.3            1 S1                 0.0000
      4 ****        -4.6433   1.6059   0.8098 C.3            1 S1                 0.0000
      5 ****        -3.4035   0.7879   0.4838 C.3            1 S1                 0.0000
      6 ****        -3.7763   0.1091  -0.8311 C.3            1 S1                 0.0000
      7 ****        -3.4193   0.9845  -1.8885 O.3            1 S1                 0.0000
      8 ****        -3.0484  -1.2416  -1.0636 C.3            1 S1                 0.0000
      9 ****        -1.5975  -1.1253  -1.0566 N.pl3          1 S1                 0.0000
     10 ****        -0.7928  -0.8104  -2.1267 C.2            1 S1                 0.0000
     11 ****         0.4841  -0.7656  -1.8658 N.2            1 S1                 0.0000
     12 ****         0.5751  -1.0728  -0.5126 C.ar           1 S1                 0.0000
     13 ****         1.6489  -1.1938   0.4203 C.ar           1 S1                 0.0000
     14 ****         2.9659  -1.0028   0.1277 N.3            1 S1                 0.0000
     15 ****         3.3944  -0.0925  -0.9245 C.3            1 S1                 0.0000
     16 ****         4.9073  -0.3610  -0.9960 C.3            1 S1                 0.0000
     17 ****         5.2338  -0.6430   0.4773 C.3            1 S1                 0.0000
     18 ****         3.8564  -0.4409   1.1357 C.3            1 S1                 0.0000
     19 ****         3.4523   1.0564   1.1664 C.3            1 S1                 0.0000
     20 ****         4.4585   2.0233   1.8173 C.3            1 S1                 0.0000
     21 ****         3.8792   3.3039   1.9496 O.3            1 S1                 0.0000
     22 ****         3.1669   1.3109  -0.3264 C.3            1 S1                 0.0000
     23 ****         1.3261  -1.5477   1.6926 N.ar           1 S1                 0.0000
     24 ****         0.0535  -1.7490   2.0425 C.ar           1 S1                 0.0000
     25 ****        -1.0416  -1.6581   1.2881 N.ar           1 S1                 0.0000
     26 ****        -0.7308  -1.3147   0.0059 C.ar           1 S1                 0.0000
     27 ****        -5.7465  -1.9069  -1.6292 H              1 S1                 0.0000
     28 ****        -7.0605  -1.2522  -0.6652 H              1 S1                 0.0000
     29 ****        -5.6399  -1.9069   0.1353 H              1 S1                 0.0000
     30 ****        -5.7625   0.6145  -1.6035 H              1 S1                 0.0000
     31 ****        -4.6859   2.5166   0.2104 H              1 S1                 0.0000
     32 ****        -4.7045   1.8791   1.8633 H              1 S1                 0.0000
     33 ****        -2.4925   1.3857   0.4311 H              1 S1                 0.0000
     34 ****        -3.2664   0.0405   1.2660 H              1 S1                 0.0000
     35 ****        -3.7546   0.6292  -2.6973 H              1 S1                 0.0000
     36 ****        -3.3262  -1.9637  -0.2955 H              1 S1                 0.0000
     37 ****        -3.3479  -1.6767  -2.0182 H              1 S1                 0.0000
     38 ****        -1.1855  -0.6085  -3.1126 H              1 S1                 0.0000
     39 ****         2.9232  -0.2334  -1.8951 H              1 S1                 0.0000
     40 ****         5.1201  -1.2373  -1.6095 H              1 S1                 0.0000
     41 ****         5.4668   0.4824  -1.4024 H              1 S1                 0.0000
     42 ****         5.5628  -1.6760   0.5972 H              1 S1                 0.0000
     43 ****         6.0180  -0.0027   0.8785 H              1 S1                 0.0000
     44 ****         3.7974  -0.9195   2.1140 H              1 S1                 0.0000
     45 ****         2.5132   1.1340   1.7178 H              1 S1                 0.0000
     46 ****         4.7414   1.6660   2.8079 H              1 S1                 0.0000
     47 ****         5.3700   2.1157   1.2276 H              1 S1                 0.0000
     48 ****         3.6633   3.6257   1.0876 H              1 S1                 0.0000
     49 ****         3.8204   2.0615  -0.7725 H              1 S1                 0.0000
     50 ****         2.1363   1.6383  -0.4685 H              1 S1                 0.0000
     51 ****        -0.1099  -2.0222   3.0744 H              1 S1                 0.0000
     52 ****        -5.8471   0.0616   1.1593 LP             1 S1                 0.0000
     53 ****        -6.5297   1.2587   0.2832 LP             1 S1                 0.0000
     54 ****        -2.4237   1.0618  -1.9410 LP             1 S1                 0.0000
     55 ****        -3.8158   1.8882  -1.7269 LP             1 S1                 0.0000
     56 ****         1.2307  -0.5571  -2.4975 LP             1 S1                 0.0000
     57 ****         3.0346  -1.9790  -0.0781 LP             1 S1                 0.0000
     58 ****         4.5291   3.9244   2.3884 LP             1 S1                 0.0000
     59 ****         3.0496   3.2431   2.5046 LP             1 S1                 0.0000
     60 ****         2.0497  -1.6585   2.3738 LP             1 S1                 0.0000
     61 ****        -1.9709  -1.8208   1.6197 LP             1 S1                 0.0000
@<TRIPOS>BOND
    1    1    2 1     
    2    1   27 1     
    3    1   28 1     
    4    1   29 1     
    5    2    6 1     
    6    2    3 1     
    7    2   30 1     
    8    3    4 1     
    9    4    5 1     
   10    4   31 1     
   11    4   32 1     
   12    5    6 1     
   13    5   33 1     
   14    5   34 1     
   15    6    7 1     
   16    6    8 1     
   17    7   35 1     
   18    8    9 1     
   19    8   36 1     
   20    8   37 1     
   21    9   26 1     
   22    9   10 1     
   23   10   11 2     
   24   10   38 1     
   25   11   12 1     
   26   12   26 ar    
   27   12   13 ar    
   28   13   14 1     
   29   13   23 ar    
   30   14   18 1     
   31   14   15 1     
   32   15   22 1     
   33   15   16 1     
   34   15   39 1     
   35   16   17 1     
   36   16   40 1     
   37   16   41 1     
   38   17   18 1     
   39   17   42 1     
   40   17   43 1     
   41   18   19 1     
   42   18   44 1     
   43   19   20 1     
   44   19   22 1     
   45   19   45 1     
   46   20   21 1     
   47   20   46 1     
   48   20   47 1     
   49   21   48 1     
   50   22   49 1     
   51   22   50 1     
   52   23   24 ar    
   53   24   25 ar    
   54   24   51 1     
   55   25   26 ar    
   56    3   52 1     
   57    3   53 1     
   58    7   54 1     
   59    7   55 1     
   60   11   56 1     
   61   14   57 1     
   62   21   58 1     
   63   21   59 1     
   64   23   60 1     
   65   25   61 1     
@<TRIPOS>SUBSTRUCTURE
      1 S1             1
@<TRIPOS>SET
LONE_PAIRS      STATIC     ATOMS    <user>   **** ""
10 52 53 54 55 56 57 58 59 60 61
DONOR_HYDROGENS      STATIC     ATOMS    <user>   **** ""
2 35 48
ATOM$BLUE        STATIC     ATOMS    COLORGROUP SYSTEM
10 52 53 54 55 56 57 58 59 60 61
ATOM$RED        STATIC     ATOMS    COLORGROUP SYSTEM
2 35 48
