AV-unprocessed.smi:2190|AV-procd|sdf|8890|dock4
  -GOLD-   2272012 93D 1   1.00000     0.00000
 Structure written by MMmdl.
 47 49  0  0  0  0  0  0  0  0  2 V2000
  154.2144  140.2695  160.1473 C   0  0  0  0  0  0  0  0  0  0  0  0
  153.2656  141.4503  160.1642 C   0  0  0  0  0  0  0  0  0  0  0  0
  153.4058  142.4631  161.1328 C   0  0  0  0  0  0  0  0  0  0  0  0
  152.5179  143.5539  161.1418 C   0  0  0  0  0  0  0  0  0  0  0  0
  151.4863  143.6399  160.1839 C   0  0  0  0  0  0  0  0  0  0  0  0
  150.5358  144.8225  160.2082 C   0  0  0  0  0  0  0  0  0  0  0  0
  151.3363  142.6310  159.2046 C   0  0  0  0  0  0  0  0  0  0  0  0
  150.3068  142.7762  158.2984 O   0  0  0  0  0  0  0  0  0  0  0  0
  150.4632  142.2294  156.9963 C   0  0  0  0  0  0  0  0  0  0  0  0
  149.1110  141.6605  156.5440 C   0  0  2  0  0  0  0  0  0  0  0  0
  148.9450  140.3783  157.1151 O   0  0  0  0  0  0  0  0  0  0  0  0
  148.9929  141.5764  155.0088 C   0  0  0  0  0  0  0  0  0  0  0  0
  149.2728  140.2286  154.4904 N   0  0  0  0  0  0  0  0  0  0  0  0
  148.4547  139.3636  153.8244 C   0  0  0  0  0  0  0  0  0  0  0  0
  147.0268  139.5901  153.4499 C   0  0  0  0  0  0  0  0  0  0  0  0
  146.8818  140.5946  152.4706 O   0  0  0  0  0  0  0  0  0  0  0  0
  149.1855  138.2467  153.5502 N   0  3  0  0  0  0  0  0  0  0  0  0
  150.4806  138.3955  154.0480 C   0  0  0  0  0  0  0  0  0  0  0  0
  151.5733  137.5347  154.0134 C   0  0  0  0  0  0  0  0  0  0  0  0
  152.7602  137.9934  154.6215 C   0  0  0  0  0  0  0  0  0  0  0  0
  152.8291  139.2628  155.2312 C   0  0  0  0  0  0  0  0  0  0  0  0
  151.7153  140.1279  155.2577 C   0  0  0  0  0  0  0  0  0  0  0  0
  150.5447  139.6671  154.6547 C   0  0  0  0  0  0  0  0  0  0  0  0
  152.2363  141.5350  159.2051 C   0  0  0  0  0  0  0  0  0  0  0  0
  154.9411  140.3300  160.9580 H   0  0  0  0  0  0  0  0  0  0  0  0
  154.7593  140.2362  159.2036 H   0  0  0  0  0  0  0  0  0  0  0  0
  153.6593  139.3374  160.2569 H   0  0  0  0  0  0  0  0  0  0  0  0
  154.1917  142.4078  161.8719 H   0  0  0  0  0  0  0  0  0  0  0  0
  152.6329  144.3250  161.8893 H   0  0  0  0  0  0  0  0  0  0  0  0
  150.5326  145.3284  159.2418 H   0  0  0  0  0  0  0  0  0  0  0  0
  150.8213  145.5497  160.9691 H   0  0  0  0  0  0  0  0  0  0  0  0
  149.5213  144.4859  160.4232 H   0  0  0  0  0  0  0  0  0  0  0  0
  150.8040  142.9916  156.2930 H   0  0  0  0  0  0  0  0  0  0  0  0
  151.2082  141.4324  157.0236 H   0  0  0  0  0  0  0  0  0  0  0  0
  148.3161  142.2953  156.9367 H   0  0  0  0  0  0  0  0  0  0  0  0
  149.7991  140.0209  157.3032 H   0  0  0  0  0  0  0  0  0  0  0  0
  147.9783  141.8293  154.6986 H   0  0  0  0  0  0  0  0  0  0  0  0
  149.6443  142.2995  154.5181 H   0  0  0  0  0  0  0  0  0  0  0  0
  146.5977  138.6609  153.0741 H   0  0  0  0  0  0  0  0  0  0  0  0
  146.4566  139.8709  154.3354 H   0  0  0  0  0  0  0  0  0  0  0  0
  147.6121  140.5401  151.8731 H   0  0  0  0  0  0  0  0  0  0  0  0
  151.5232  136.5619  153.5466 H   0  0  0  0  0  0  0  0  0  0  0  0
  153.6349  137.3593  154.6204 H   0  0  0  0  0  0  0  0  0  0  0  0
  153.7551  139.5802  155.6883 H   0  0  0  0  0  0  0  0  0  0  0  0
  151.7808  141.0965  155.7302 H   0  0  0  0  0  0  0  0  0  0  0  0
  152.1547  140.7417  158.4777 H   0  0  0  0  0  0  0  0  0  0  0  0
  148.8214  137.4430  153.0548 H   0  0  0  0  0  0  0  0  0  0  0  0
  1  2  1  0  0  0  0
  1 25  1  0  0  0  0
  1 26  1  0  0  0  0
  1 27  1  0  0  0  0
  2 24  1  0  0  0  0
  2  3  2  0  0  0  0
  3  4  1  0  0  0  0
  3 28  1  0  0  0  0
  4  5  2  0  0  0  0
  4 29  1  0  0  0  0
  5  6  1  0  0  0  0
  5  7  1  0  0  0  0
  6 30  1  0  0  0  0
  6 31  1  0  0  0  0
  6 32  1  0  0  0  0
  7  8  1  0  0  0  0
  7 24  2  0  0  0  0
  8  9  1  0  0  0  0
  9 10  1  0  0  0  0
  9 33  1  0  0  0  0
  9 34  1  0  0  0  0
 10 11  1  0  0  0  0
 10 12  1  0  0  0  0
 10 35  1  0  0  0  0
 11 36  1  0  0  0  0
 12 13  1  0  0  0  0
 12 37  1  0  0  0  0
 12 38  1  0  0  0  0
 13 23  1  0  0  0  0
 13 14  1  0  0  0  0
 14 15  1  0  0  0  0
 14 17  2  0  0  0  0
 15 16  1  0  0  0  0
 15 39  1  0  0  0  0
 15 40  1  0  0  0  0
 16 41  1  0  0  0  0
 17 18  1  0  0  0  0
 17 47  1  0  0  0  0
 18 23  2  0  0  0  0
 18 19  1  0  0  0  0
 19 20  2  0  0  0  0
 19 42  1  0  0  0  0
 20 21  1  0  0  0  0
 20 43  1  0  0  0  0
 21 22  2  0  0  0  0
 21 44  1  0  0  0  0
 22 23  1  0  0  0  0
 22 45  1  0  0  0  0
 24 46  1  0  0  0  0
M  CHG  1  17   1
M  END
> <s_m_source_file>
AV-unprocessed.smi

> <i_m_source_file_index>
2190

> <i_lp_mmshare_version>
43012

> <i_f3d_flags>
0

> <s_epik_input>
W0NIM11jMVtjSF1bY0hdYyhbQ0gzXSljKFtjSF0xKU9bQ0gyXVtDQEhdKFtPSF0pW0NIMl1uKGMobjIpW0NIMl1bT0hdKWMoYzIzKVtjSF1bY0hdW2NIXVtjSF0z

> <s_epik_cmdline>
J2VwaWtfcHl0aG9uJywgJy1waCcsICc3LjAnLCAnLXRuJywgJzgnLCAnLW1hJywgJzIwMCcsICctbWV0YWxfYmluZGluZycsICctaW1hZScsICc8aW5maWxlLm1hZT4nLCAnLW9tYWUnLCAnPG91dGZpbGUubWFlPic=

> <r_lp_tautomer_probability>
1

> <r_epik_Ionization_Penalty>
1.43125

> <r_epik_Ionization_Penalty_Charging>
1.43039

> <r_epik_Ionization_Penalty_Neutral>
0.000858184

> <r_epik_State_Penalty>
1.51493

> <r_epik_Charging_Adjusted_Penalty>
2.94531

> <i_epik_Tot_Q>
1

> <i_epik_Tot_abs_Q>
1

> <r_epik_Metal_State_Penalty>
5.5599

> <b_epik_Metal_Only>
0

> <s_lp_Force_Field>
OPLS_2005

> <r_lp_Energy>
17.5717

> <b_lp_Chiralities_Consistent>
1

> <s_lp_Variant>
AV-unprocessed.smi:2190-3

> <Gold.Version>
5.8.1

> <Gold.Id.Protein>
6NUR|6NUR_protein|mol2

> <Gold.PLP.Fitness>
53.3365

> <Gold.PLP.PLP>
-48.4434

> <Gold.PLP.part.hbond>
-2.3413

> <Gold.PLP.part.metal>
0.0000

> <Gold.PLP.part.buried>
3.5493

> <Gold.PLP.part.nonpolar>
-49.0351

> <Gold.PLP.part.repulsive>
0.1657

> <Gold.PLP.ligand.clash>
0.0000

> <Gold.PLP.ligand.torsion>
1.4626

> <Gold.PLP.Chemscore.Hbond>
2.5680

> <Gold.PLP.Chemscore.CHOScore>
0.0000

> <Gold.PLP.Chemscore.Metal>
0.0000

> <Gold.Chemscore.Hbonds>
donor molecule, donor type, donor heavy atom, donor atom, acceptor molecule, acceptor atom, score
      L1  H    16    41       P1  7957  0.71
      L1  H    17    47       P1  7948  1.98

> <Gold.PLP.Chemscore.Internal.Correction>
0.1144

> <Gold.Rescore>
     Score         DG    S(hbond)    S(metal)    S(lipo)     H(rot)  DE(clash)    DE(int)     intcor
     16.61     -21.56       1.75        0.00     154.09       3.05       1.68       3.27       ----

> <Gold.Chemscore.Fitness>
16.6065

> <Gold.Chemscore.DG>
-21.5650

> <Gold.Chemscore.ZeroCoef>
-5.4800

> <Gold.Chemscore.Hbond>
1.7539

> <Gold.Chemscore.Metal>
0.0000

> <Gold.Chemscore.Lipo>
154.0910

> <Gold.Chemscore.Internal_Hbond>
0.0000

> <Gold.Chemscore.DEClash>
1.6847

> <Gold.Chemscore.DEInternal>
3.2739

> <Gold.Chemscore.Rot>
3.0476

> <Gold.Chemscore.Internal.Correction>
   9.000000E+99

> <Gold.Chemscore.Hbonds>
donor molecule, donor type, donor heavy atom, donor atom, acceptor molecule, acceptor atom, score
      L1  H    16    41       P1  7957  0.70
      L1  H    17    47       P1  7948  0.94

> <Gold.Chemscore.Hbond.Weighted>
-5.8581

> <Gold.Chemscore.Metal.Weighted>
-0.0000

> <Gold.Chemscore.Lipo.Weighted>
-18.0286

> <Gold.Chemscore.Internal_Hbond.Weighted>
0.0000

> <Gold.Chemscore.DEClash.Weighted>
1.6847

> <Gold.Chemscore.DEInternal.Weighted>
3.2739

> <Gold.Chemscore.Rot.Weighted>
7.8018

> <Gold.Chemscore.Internal.Correction.Weighted>
   9.000000E+99

> <Gold.Protein.RotatedTorsions>
[ 6907 6896 6895 6894 ] final  104.02 input  -60.11 | X-H torsion
[ 7974 7965 7964 7962 ] final   38.70 input  175.53 | X-H torsion
[ 8008 7997 7996 7995 ] final -129.41 input   59.86 | X-H torsion
[ 10167 10162 10161 10158 ] final   55.43 input  -65.29 | X-H torsion
[ 10718 10713 10712 10709 ] final    7.04 input   66.30 | X-H torsion
[ 10763 10752 10751 10750 ] final  159.70 input  -60.55 | X-H torsion
[ 11005 11000 10999 10996 ] final   76.44 input  -57.11 | X-H torsion

> <Gold.Protein.ActiveResidues>
 VAL166  LYS551  ARG553  GLY616  TRP617  ASP618  TYR619  PRO620  LYS621  CYS622 
 ASP623  PHE694  ASN695  SER759  ASP760  ASP761  ALA762  ILE779  LEU786  VAL792 
 PHE793  MET794  SER795  GLU796  ALA797  LYS798  CYS799  TRP800  GLU811  SER814 

> <Gold.Protein.RotatedAtoms>
  152.5277  133.9739  159.7774 H   0  0  0  0  0  0  0  0  0  0  0  0  # atno 6907 bound_to 6896
  151.0006  133.6052  159.2702 H   0  0  0  0  0  0  0  0  0  0  0  0  # atno 6908 bound_to 6896
  151.3163  135.0813  159.9343 H   0  0  0  0  0  0  0  0  0  0  0  0  # atno 6909 bound_to 6896
  146.1041  139.5740  142.9395 H   0  0  0  0  0  0  0  0  0  0  0  0  # atno 7974 bound_to 7965
  155.2788  140.0443  157.3013 H   0  0  0  0  0  0  0  0  0  0  0  0  # atno 8008 bound_to 7997
  154.5609  140.2346  155.8305 H   0  0  0  0  0  0  0  0  0  0  0  0  # atno 8009 bound_to 7997
  156.2046  140.3016  155.9607 H   0  0  0  0  0  0  0  0  0  0  0  0  # atno 8010 bound_to 7997
  140.2196  144.3803  150.6456 H   0  0  0  0  0  0  0  0  0  0  0  0  # atno 10167 bound_to 10162
  156.9311  130.5826  149.5649 H   0  0  0  0  0  0  0  0  0  0  0  0  # atno 10718 bound_to 10713
  154.2358  135.2776  155.2872 H   0  0  0  0  0  0  0  0  0  0  0  0  # atno 10763 bound_to 10752
  154.5586  135.5654  153.6990 H   0  0  0  0  0  0  0  0  0  0  0  0  # atno 10764 bound_to 10752
  153.0010  135.6292  154.2501 H   0  0  0  0  0  0  0  0  0  0  0  0  # atno 10765 bound_to 10752
  139.9298  134.7601  156.1395 H   0  0  0  0  0  0  0  0  0  0  0  0  # atno 11005 bound_to 11000
  145.5795  141.0384  143.2129 LP  0  0  0  0  0  0  0  0  0  0  0  0  # atno 17320 bound_to 7965
  144.7456  139.7328  143.7293 LP  0  0  0  0  0  0  0  0  0  0  0  0  # atno 17321 bound_to 7965
  140.6265  143.2182  151.6586 LP  0  0  0  0  0  0  0  0  0  0  0  0  # atno 17342 bound_to 10162
  139.5149  144.3395  152.0753 LP  0  0  0  0  0  0  0  0  0  0  0  0  # atno 17343 bound_to 10162
  156.0447  130.5525  150.8853 LP  0  0  0  0  0  0  0  0  0  0  0  0  # atno 17370 bound_to 10713
  157.5846  131.0946  150.9216 LP  0  0  0  0  0  0  0  0  0  0  0  0  # atno 17371 bound_to 10713
  141.0880  133.6726  156.2478 LP  0  0  0  0  0  0  0  0  0  0  0  0  # atno 17394 bound_to 11000
  140.6233  134.5339  157.5550 LP  0  0  0  0  0  0  0  0  0  0  0  0  # atno 17395 bound_to 11000

$$$$
