#       Name:                AV-unprocessed.smi:36
#       Creating user name   scv26
#       Creation time:       Thu Mar 26 16:09:35 2020


#       File generated by GOLD software.
#

@<TRIPOS>MOLECULE
AV-unprocessed.smi:36
    73    76     1
SMALL
NO_CHARGES


@<TRIPOS>ATOM
      1 ****        -5.7849   2.4873   2.7367 C.3            1 S1                 0.0000
      2 ****        -4.9844   1.1746   2.7340 C.3            1 S1                 0.0000
      3 ****        -5.2475   0.4009   4.0365 C.3            1 S1                 0.0000
      4 ****        -5.3941   0.3123   1.5280 C.3            1 S1                 0.0000
      5 ****        -3.1183   1.5660   2.6099 Si             1 S1                 0.0000
      6 ****        -2.7101   2.4592   0.9829 C.3            1 S1                 0.0000
      7 ****        -2.5363   2.6146   4.0832 C.3            1 S1                 0.0000
      8 ****        -2.2819   0.0968   2.6409 O.3            1 S1                 0.0000
      9 ****        -0.8818  -0.0103   2.4985 C.3            1 S1                 0.0000
     10 ****        -0.4975  -1.4950   2.4847 C.3            1 S1                 0.0000
     11 ****         0.9173  -1.6582   2.6148 O.3            1 S1                 0.0000
     12 ****         1.3894  -2.5997   1.6945 C.3            1 S1                 0.0000
     13 ****         2.0636  -1.8704   0.5726 N.pl3          1 S1                 0.0000
     14 ****         2.1327  -0.5447   0.3264 C.2            1 S1                 0.0000
     15 ****         2.8121  -0.1546  -0.7505 N.2            1 S1                 0.0000
     16 ****         3.2512  -1.3677  -1.2596 C.ar           1 S1                 0.0000
     17 ****         4.0350  -1.7044  -2.3968 C.ar           1 S1                 0.0000
     18 ****         4.5228  -0.7816  -3.2393 N.pl3          1 S1                -1.0000
     19 ****         3.7681  -0.3512  -4.2818 C.2            1 S1                 0.0000
     20 ****         2.6437  -0.7342  -4.6121 O.2            1 S1                 0.0000
     21 ****         4.4689   0.6673  -5.1403 C.ar           1 S1                 0.0000
     22 ****         4.2932   0.6408  -6.5427 C.ar           1 S1                 0.0000
     23 ****         4.9222   1.5988  -7.3615 C.ar           1 S1                 0.0000
     24 ****         5.7256   2.6004  -6.7853 C.ar           1 S1                 0.0000
     25 ****         5.8969   2.6453  -5.3891 C.ar           1 S1                 0.0000
     26 ****         5.2688   1.6872  -4.5695 C.ar           1 S1                 0.0000
     27 ****         4.2992  -3.0217  -2.5937 N.ar           1 S1                 0.0000
     28 ****         3.8190  -3.9416  -1.7487 C.ar           1 S1                 0.0000
     29 ****         3.0688  -3.7690  -0.6559 N.ar           1 S1                 0.0000
     30 ****         2.8033  -2.4470  -0.4447 C.ar           1 S1                 0.0000
     31 ****         0.1582  -3.3384   1.1693 C.3            1 S1                 0.0000
     32 ****        -0.8863  -2.2422   1.2040 C.3            1 S1                 0.0000
     33 ****        -2.1885  -2.7862   1.2673 O.3            1 S1                 0.0000
     34 ****        -6.8562   2.2970   2.8091 H              1 S1                 0.0000
     35 ****        -5.6141   3.0601   1.8249 H              1 S1                 0.0000
     36 ****        -5.5069   3.1199   3.5801 H              1 S1                 0.0000
     37 ****        -4.9730   0.9903   4.9118 H              1 S1                 0.0000
     38 ****        -4.6725  -0.5251   4.0701 H              1 S1                 0.0000
     39 ****        -6.3012   0.1381   4.1359 H              1 S1                 0.0000
     40 ****        -6.4503   0.0444   1.5721 H              1 S1                 0.0000
     41 ****        -4.8202  -0.6146   1.4907 H              1 S1                 0.0000
     42 ****        -5.2291   0.8384   0.5876 H              1 S1                 0.0000
     43 ****        -3.2590   3.3963   0.8919 H              1 S1                 0.0000
     44 ****        -2.9618   1.8482   0.1163 H              1 S1                 0.0000
     45 ****        -1.6490   2.6981   0.9126 H              1 S1                 0.0000
     46 ****        -3.0557   3.5717   4.1237 H              1 S1                 0.0000
     47 ****        -1.4692   2.8277   4.0251 H              1 S1                 0.0000
     48 ****        -2.7142   2.1075   5.0312 H              1 S1                 0.0000
     49 ****        -0.5558   0.4922   1.5880 H              1 S1                 0.0000
     50 ****        -0.4050   0.4929   3.3401 H              1 S1                 0.0000
     51 ****        -0.9369  -1.9938   3.3503 H              1 S1                 0.0000
     52 ****         2.1645  -3.2433   2.1121 H              1 S1                 0.0000
     53 ****         1.6623   0.1811   0.9716 H              1 S1                 0.0000
     54 ****         3.6785  -0.1208  -7.0002 H              1 S1                 0.0000
     55 ****         4.7862   1.5651  -8.4324 H              1 S1                 0.0000
     56 ****         6.2072   3.3353  -7.4132 H              1 S1                 0.0000
     57 ****         6.5083   3.4165  -4.9444 H              1 S1                 0.0000
     58 ****         5.4045   1.7453  -3.4991 H              1 S1                 0.0000
     59 ****         4.0736  -4.9647  -1.9820 H              1 S1                 0.0000
     60 ****         0.3181  -3.7704   0.1809 H              1 S1                 0.0000
     61 ****        -0.0849  -4.1389   1.8697 H              1 S1                 0.0000
     62 ****        -0.7898  -1.5995   0.3277 H              1 S1                 0.0000
     63 ****        -2.2490  -3.3299   2.0375 H              1 S1                 0.0000
     64 ****         1.1287  -1.9693   3.5413 LP             1 S1                 0.0000
     65 ****         1.3665  -0.7806   2.4472 LP             1 S1                 0.0000
     66 ****         2.9654   0.7697  -1.1001 LP             1 S1                 0.0000
     67 ****         5.4412  -0.4114  -3.0994 LP             1 S1                 0.0000
     68 ****         2.1831  -1.4472  -4.0835 LP             1 S1                 0.0000
     69 ****         2.1924  -0.3318  -5.4086 LP             1 S1                 0.0000
     70 ****         4.8557  -3.3059  -3.3745 LP             1 S1                 0.0000
     71 ****         2.7445  -4.5114  -0.0698 LP             1 S1                 0.0000
     72 ****        -2.3642  -3.3366   0.4511 LP             1 S1                 0.0000
     73 ****        -2.8603  -2.0475   1.3221 LP             1 S1                 0.0000
@<TRIPOS>BOND
    1    1    2 1     
    2    1   34 1     
    3    1   35 1     
    4    1   36 1     
    5    2    3 1     
    6    2    4 1     
    7    2    5 1     
    8    3   37 1     
    9    3   38 1     
   10    3   39 1     
   11    4   40 1     
   12    4   41 1     
   13    4   42 1     
   14    5    6 1     
   15    5    7 1     
   16    5    8 1     
   17    6   43 1     
   18    6   44 1     
   19    6   45 1     
   20    7   46 1     
   21    7   47 1     
   22    7   48 1     
   23    8    9 1     
   24    9   10 1     
   25    9   49 1     
   26    9   50 1     
   27   10   32 1     
   28   10   11 1     
   29   10   51 1     
   30   11   12 1     
   31   12   13 1     
   32   12   31 1     
   33   12   52 1     
   34   13   30 1     
   35   13   14 1     
   36   14   15 2     
   37   14   53 1     
   38   15   16 1     
   39   16   30 ar    
   40   16   17 ar    
   41   17   18 1     
   42   17   27 ar    
   43   18   19 1     
   44   19   20 2     
   45   19   21 1     
   46   21   26 ar    
   47   21   22 ar    
   48   22   23 ar    
   49   22   54 1     
   50   23   24 ar    
   51   23   55 1     
   52   24   25 ar    
   53   24   56 1     
   54   25   26 ar    
   55   25   57 1     
   56   26   58 1     
   57   27   28 ar    
   58   28   29 ar    
   59   28   59 1     
   60   29   30 ar    
   61   31   32 1     
   62   31   60 1     
   63   31   61 1     
   64   32   33 1     
   65   32   62 1     
   66   33   63 1     
   67   11   64 1     
   68   11   65 1     
   69   15   66 1     
   70   18   67 1     
   71   20   68 1     
   72   20   69 1     
   73   27   70 1     
   74   29   71 1     
   75   33   72 1     
   76   33   73 1     
@<TRIPOS>SUBSTRUCTURE
      1 S1             1
@<TRIPOS>SET
LONE_PAIRS      STATIC     ATOMS    <user>   **** ""
10 64 65 66 67 68 69 70 71 72 73
DONOR_HYDROGENS      STATIC     ATOMS    <user>   **** ""
1 63
ATOM$BLUE        STATIC     ATOMS    COLORGROUP SYSTEM
10 64 65 66 67 68 69 70 71 72 73
ATOM$RED        STATIC     ATOMS    COLORGROUP SYSTEM
1 63
