AV-unprocessed.smi:447|AV-procd|sdf|2601|dock4
  -GOLD-   2262022593D 1   1.00000     0.00000
 Structure written by MMmdl.
 46 48  0  0  0  0  0  0  0  0  2 V2000
  153.4433  137.7731  158.1649 C   0  0  0  0  0  0  0  0  0  0  0  0
  153.3274  137.7750  156.6443 C   0  0  0  0  0  0  0  0  0  0  0  0
  154.2247  137.2878  155.9583 O   0  0  0  0  0  0  0  0  0  0  0  0
  152.2162  138.3246  156.1301 N   0  0  0  0  0  0  0  0  0  0  0  0
  151.9211  138.4558  154.7048 C   0  0  2  0  0  0  0  0  0  0  0  0
  153.0264  139.2761  154.0267 C   0  0  0  0  0  0  0  0  0  0  0  0
  150.5760  139.0711  154.4405 C   0  0  0  0  0  0  0  0  0  0  0  0
  149.5624  138.5144  153.7154 N   0  3  0  0  0  0  0  0  0  0  0  0
  148.4655  139.3755  153.6925 C   0  0  0  0  0  0  0  0  0  0  0  0
  147.2212  139.2520  153.0818 C   0  0  0  0  0  0  0  0  0  0  0  0
  146.3212  140.3238  153.2567 C   0  0  0  0  0  0  0  0  0  0  0  0
  146.6707  141.4600  154.0151 C   0  0  0  0  0  0  0  0  0  0  0  0
  147.9349  141.5729  154.6309 C   0  0  0  0  0  0  0  0  0  0  0  0
  148.8190  140.5093  154.4512 C   0  0  0  0  0  0  0  0  0  0  0  0
  150.1242  140.2758  154.8974 N   0  0  0  0  0  0  0  0  0  0  0  0
  150.7836  141.2927  155.7321 C   0  0  0  0  0  0  0  0  0  0  0  0
  150.6015  141.0379  157.2418 C   0  0  2  0  0  0  0  0  0  0  0  0
  149.2647  140.6591  157.5036 O   0  0  0  0  0  0  0  0  0  0  0  0
  151.0293  142.2444  158.0619 C   0  0  0  0  0  0  0  0  0  0  0  0
  150.3613  143.4775  157.9017 C   0  0  0  0  0  0  0  0  0  0  0  0
  150.7492  144.5990  158.6604 C   0  0  0  0  0  0  0  0  0  0  0  0
  151.8048  144.4930  159.5862 C   0  0  0  0  0  0  0  0  0  0  0  0
  152.4710  143.2640  159.7547 C   0  0  0  0  0  0  0  0  0  0  0  0
  152.0841  142.1423  158.9958 C   0  0  0  0  0  0  0  0  0  0  0  0
  152.4602  137.7307  158.6351 H   0  0  0  0  0  0  0  0  0  0  0  0
  153.9492  138.6768  158.5048 H   0  0  0  0  0  0  0  0  0  0  0  0
  154.0182  136.9106  158.5037 H   0  0  0  0  0  0  0  0  0  0  0  0
  151.5353  138.7031  156.7726 H   0  0  0  0  0  0  0  0  0  0  0  0
  151.9320  137.4541  154.2729 H   0  0  0  0  0  0  0  0  0  0  0  0
  152.8618  139.3429  152.9507 H   0  0  0  0  0  0  0  0  0  0  0  0
  154.0048  138.8196  154.1804 H   0  0  0  0  0  0  0  0  0  0  0  0
  153.0662  140.2924  154.4206 H   0  0  0  0  0  0  0  0  0  0  0  0
  146.9510  138.3828  152.5002 H   0  0  0  0  0  0  0  0  0  0  0  0
  145.3436  140.2736  152.7993 H   0  0  0  0  0  0  0  0  0  0  0  0
  145.9552  142.2619  154.1269 H   0  0  0  0  0  0  0  0  0  0  0  0
  148.1937  142.4476  155.2091 H   0  0  0  0  0  0  0  0  0  0  0  0
  151.8412  141.3198  155.4679 H   0  0  0  0  0  0  0  0  0  0  0  0
  150.3790  142.2672  155.4572 H   0  0  0  0  0  0  0  0  0  0  0  0
  151.2238  140.1916  157.5349 H   0  0  0  0  0  0  0  0  0  0  0  0
  148.8631  141.3255  158.0401 H   0  0  0  0  0  0  0  0  0  0  0  0
  149.5486  143.5686  157.1959 H   0  0  0  0  0  0  0  0  0  0  0  0
  150.2367  145.5410  158.5322 H   0  0  0  0  0  0  0  0  0  0  0  0
  152.1024  145.3533  160.1676 H   0  0  0  0  0  0  0  0  0  0  0  0
  153.2794  143.1813  160.4663 H   0  0  0  0  0  0  0  0  0  0  0  0
  152.5995  141.2029  159.1340 H   0  0  0  0  0  0  0  0  0  0  0  0
  149.6262  137.6127  153.2612 H   0  0  0  0  0  0  0  0  0  0  0  0
  1  2  1  0  0  0  0
  1 25  1  0  0  0  0
  1 26  1  0  0  0  0
  1 27  1  0  0  0  0
  2  3  2  0  0  0  0
  2  4  1  0  0  0  0
  4  5  1  0  0  0  0
  4 28  1  0  0  0  0
  5  6  1  0  0  0  0
  5  7  1  0  0  0  0
  5 29  1  0  0  0  0
  6 30  1  0  0  0  0
  6 31  1  0  0  0  0
  6 32  1  0  0  0  0
  7 15  1  0  0  0  0
  7  8  2  0  0  0  0
  8  9  1  0  0  0  0
  8 46  1  0  0  0  0
  9 14  2  0  0  0  0
  9 10  1  0  0  0  0
 10 11  2  0  0  0  0
 10 33  1  0  0  0  0
 11 12  1  0  0  0  0
 11 34  1  0  0  0  0
 12 13  2  0  0  0  0
 12 35  1  0  0  0  0
 13 14  1  0  0  0  0
 13 36  1  0  0  0  0
 14 15  1  0  0  0  0
 15 16  1  0  0  0  0
 16 17  1  0  0  0  0
 16 37  1  0  0  0  0
 16 38  1  0  0  0  0
 17 18  1  0  0  0  0
 17 19  1  0  0  0  0
 17 39  1  0  0  0  0
 18 40  1  0  0  0  0
 19 24  1  0  0  0  0
 19 20  2  0  0  0  0
 20 21  1  0  0  0  0
 20 41  1  0  0  0  0
 21 22  2  0  0  0  0
 21 42  1  0  0  0  0
 22 23  1  0  0  0  0
 22 43  1  0  0  0  0
 23 24  2  0  0  0  0
 23 44  1  0  0  0  0
 24 45  1  0  0  0  0
M  CHG  1   8   1
M  END
> <s_m_source_file>
AV-unprocessed.smi

> <i_m_source_file_index>
447

> <i_lp_mmshare_version>
43012

> <i_f3d_flags>
0

> <s_epik_input>
W0NIM11DKD1PKVtOSF1bQ0BIXShbQ0gzXSljKG4xKW4oYyhjMTIpW2NIXVtjSF1bY0hdW2NIXTIpW0NIMl1bQ0BIXShbT0hdKWMzW2NIXVtjSF1bY0hdW2NIXVtjSF0z

> <s_epik_cmdline>
J2VwaWtfcHl0aG9uJywgJy1waCcsICc3LjAnLCAnLXRuJywgJzgnLCAnLW1hJywgJzIwMCcsICctbWV0YWxfYmluZGluZycsICctaW1hZScsICc8aW5maWxlLm1hZT4nLCAnLW9tYWUnLCAnPG91dGZpbGUubWFlPic=

> <r_epik_Ionization_Penalty>
0.950381

> <r_epik_Ionization_Penalty_Charging>
0.950379

> <r_epik_Ionization_Penalty_Neutral>
1.42115e-06

> <r_epik_State_Penalty>
0.994584

> <r_epik_Charging_Adjusted_Penalty>
1.94496

> <i_epik_Tot_Q>
1

> <i_epik_Tot_abs_Q>
1

> <r_epik_Metal_State_Penalty>
1.10485

> <b_epik_Metal_Only>
0

> <s_lp_Force_Field>
OPLS_2005

> <r_lp_Energy>
11.6076

> <b_lp_Chiralities_Consistent>
1

> <s_lp_Variant>
AV-unprocessed.smi:447-5

> <Gold.Version>
5.8.1

> <Gold.Id.Protein>
6NUR|6NUR_protein|mol2

> <Gold.PLP.Fitness>
57.6294

> <Gold.PLP.PLP>
-50.1082

> <Gold.PLP.part.hbond>
-2.3229

> <Gold.PLP.part.metal>
0.0000

> <Gold.PLP.part.buried>
2.0844

> <Gold.PLP.part.nonpolar>
-48.8614

> <Gold.PLP.part.repulsive>
0.1368

> <Gold.PLP.ligand.clash>
0.0000

> <Gold.PLP.ligand.torsion>
0.5323

> <Gold.PLP.Chemscore.Hbond>
2.8318

> <Gold.PLP.Chemscore.CHOScore>
0.0000

> <Gold.PLP.Chemscore.Metal>
0.0000

> <Gold.Chemscore.Hbonds>
donor molecule, donor type, donor heavy atom, donor atom, acceptor molecule, acceptor atom, score
      L1  H     8    46       P1  7948  1.95
      P1  H 10752 10765       L1     3  0.26

> <Gold.PLP.Chemscore.Internal.Correction>
0.0905

> <Gold.Rescore>
     Score         DG    S(hbond)    S(metal)    S(lipo)     H(rot)  DE(clash)    DE(int)     intcor
     18.23     -20.26       1.42        0.00     138.69       2.41       0.66       1.37       ----

> <Gold.Chemscore.Fitness>
18.2319

> <Gold.Chemscore.DG>
-20.2644

> <Gold.Chemscore.ZeroCoef>
-5.4800

> <Gold.Chemscore.Hbond>
1.4162

> <Gold.Chemscore.Metal>
0.0000

> <Gold.Chemscore.Lipo>
138.6917

> <Gold.Chemscore.Internal_Hbond>
0.0000

> <Gold.Chemscore.DEClash>
0.6622

> <Gold.Chemscore.DEInternal>
1.3703

> <Gold.Chemscore.Rot>
2.4112

> <Gold.Chemscore.Internal.Correction>
   9.000000E+99

> <Gold.Chemscore.Hbonds>
donor molecule, donor type, donor heavy atom, donor atom, acceptor molecule, acceptor atom, score
      L1  H     8    46       P1  7948  0.72
      P1  H 10752 10765       L1     3  0.17

> <Gold.Chemscore.Hbond.Weighted>
-4.7302

> <Gold.Chemscore.Metal.Weighted>
-0.0000

> <Gold.Chemscore.Lipo.Weighted>
-16.2269

> <Gold.Chemscore.Internal_Hbond.Weighted>
0.0000

> <Gold.Chemscore.DEClash.Weighted>
0.6622

> <Gold.Chemscore.DEInternal.Weighted>
1.3703

> <Gold.Chemscore.Rot.Weighted>
6.1727

> <Gold.Chemscore.Internal.Correction.Weighted>
   9.000000E+99

> <Gold.Protein.RotatedTorsions>
[ 6907 6896 6895 6894 ] final -102.27 input  -60.11 | X-H torsion
[ 7974 7965 7964 7962 ] final  -64.59 input  175.53 | X-H torsion
[ 8008 7997 7996 7995 ] final  160.92 input   59.86 | X-H torsion
[ 10167 10162 10161 10158 ] final   92.27 input  -65.29 | X-H torsion
[ 10718 10713 10712 10709 ] final  107.51 input   66.30 | X-H torsion
[ 10763 10752 10751 10750 ] final -114.90 input  -60.55 | X-H torsion
[ 11005 11000 10999 10996 ] final  114.08 input  -57.11 | X-H torsion

> <Gold.Protein.ActiveResidues>
 VAL166  LYS551  ARG553  GLY616  TRP617  ASP618  TYR619  PRO620  LYS621  CYS622 
 ASP623  PHE694  ASN695  SER759  ASP760  ASP761  ALA762  ILE779  LEU786  VAL792 
 PHE793  MET794  SER795  GLU796  ALA797  LYS798  CYS799  TRP800  GLU811  SER814 

> <Gold.Protein.RotatedAtoms>
  150.7189  134.0607  159.3829 H   0  0  0  0  0  0  0  0  0  0  0  0  # atno 6907 bound_to 6896
  151.8587  135.0530  160.0476 H   0  0  0  0  0  0  0  0  0  0  0  0  # atno 6908 bound_to 6896
  152.2734  133.5368  159.5490 H   0  0  0  0  0  0  0  0  0  0  0  0  # atno 6909 bound_to 6896
  145.7648  140.8843  143.0411 H   0  0  0  0  0  0  0  0  0  0  0  0  # atno 7974 bound_to 7965
  156.2139  140.1791  156.7633 H   0  0  0  0  0  0  0  0  0  0  0  0  # atno 8008 bound_to 7997
  154.5763  140.0674  156.9068 H   0  0  0  0  0  0  0  0  0  0  0  0  # atno 8009 bound_to 7997
  155.2583  140.3334  155.4278 H   0  0  0  0  0  0  0  0  0  0  0  0  # atno 8010 bound_to 7997
  139.8293  144.6695  150.9420 H   0  0  0  0  0  0  0  0  0  0  0  0  # atno 10167 bound_to 10162
  157.6625  131.0874  150.6167 H   0  0  0  0  0  0  0  0  0  0  0  0  # atno 10718 bound_to 10713
  154.8459  135.4401  154.1578 H   0  0  0  0  0  0  0  0  0  0  0  0  # atno 10763 bound_to 10752
  153.2723  135.6946  153.7474 H   0  0  0  0  0  0  0  0  0  0  0  0  # atno 10764 bound_to 10752
  153.6710  135.3419  155.3128 H   0  0  0  0  0  0  0  0  0  0  0  0  # atno 10765 bound_to 10752
  139.8970  134.9561  156.6838 H   0  0  0  0  0  0  0  0  0  0  0  0  # atno 11005 bound_to 11000
  144.6823  139.9774  143.7483 LP  0  0  0  0  0  0  0  0  0  0  0  0  # atno 17320 bound_to 7965
  146.0228  139.3266  143.0802 LP  0  0  0  0  0  0  0  0  0  0  0  0  # atno 17321 bound_to 7965
  140.7808  143.4016  151.1139 LP  0  0  0  0  0  0  0  0  0  0  0  0  # atno 17342 bound_to 10162
  139.7671  143.8549  152.3113 LP  0  0  0  0  0  0  0  0  0  0  0  0  # atno 17343 bound_to 10162
  156.6469  130.4474  149.5733 LP  0  0  0  0  0  0  0  0  0  0  0  0  # atno 17370 bound_to 10713
  156.2167  130.6712  151.1326 LP  0  0  0  0  0  0  0  0  0  0  0  0  # atno 17371 bound_to 10713
  140.7279  133.9084  155.8191 LP  0  0  0  0  0  0  0  0  0  0  0  0  # atno 17394 bound_to 11000
  141.0177  134.0933  157.4155 LP  0  0  0  0  0  0  0  0  0  0  0  0  # atno 17395 bound_to 11000

$$$$
