#       Name:                AV-unprocessed.smi:225
#       Creating user name   scv26
#       Creation time:       Thu Mar 26 20:20:40 2020


#       File generated by GOLD software.
#

@<TRIPOS>MOLECULE
AV-unprocessed.smi:225
    66    69     1
SMALL
NO_CHARGES


@<TRIPOS>ATOM
      1 ****        -1.9199  -3.2095   4.5369 O.3            1 S1                 0.0000
      2 ****        -1.2076  -2.4393   3.5938 C.3            1 S1                 0.0000
      3 ****        -2.1541  -2.0160   2.4579 C.3            1 S1                 0.0000
      4 ****        -1.5009  -1.1620   1.4616 N.3            1 S1                 0.0000
      5 ****        -2.3558  -0.2791   0.6667 C.3            1 S1                 0.0000
      6 ****        -2.8777   0.9408   1.4550 C.3            1 S1                 0.0000
      7 ****        -3.9048   1.7280   0.6168 C.3            1 S1                 0.0000
      8 ****        -4.4472   2.9477   1.3799 C.3            1 S1                 0.0000
      9 ****        -3.3071   3.8699   1.8374 C.3            1 S1                 0.0000
     10 ****        -2.2737   3.0979   2.6716 C.3            1 S1                 0.0000
     11 ****        -1.7371   1.8790   1.9039 C.3            1 S1                 0.0000
     12 ****        -0.4813  -1.6994   0.7426 C.ar           1 S1                 0.0000
     13 ****        -0.4734  -3.0292   0.4575 N.ar           1 S1                 0.0000
     14 ****         0.5206  -3.5595  -0.2608 C.ar           1 S1                 0.0000
     15 ****         1.5853  -2.9521  -0.7877 N.ar           1 S1                 0.0000
     16 ****         1.5805  -1.6167  -0.5113 C.ar           1 S1                 0.0000
     17 ****         0.5970  -0.9167   0.2430 C.ar           1 S1                 0.0000
     18 ****         0.9355   0.4277   0.3291 N.2            1 S1                 0.0000
     19 ****         2.0513   0.5191  -0.3409 C.2            1 S1                 0.0000
     20 ****         2.5054  -0.6588  -0.8906 N.pl3          1 S1                 0.0000
     21 ****         3.7119  -0.8450  -1.6833 C.3            1 S1                 0.0000
     22 ****         3.4810  -0.7204  -3.2094 C.3            1 S1                 0.0000
     23 ****         2.5856  -1.7362  -3.6226 O.3            1 S1                 0.0000
     24 ****         4.7803  -0.8465  -4.0086 C.3            1 S1                 0.0000
     25 ****         5.0268   0.5678  -4.5199 C.3            1 S1                 0.0000
     26 ****         3.7145   1.0448  -4.7547 O.3            1 S1                 0.0000
     27 ****         2.9239   0.6506  -3.6430 C.3            1 S1                 0.0000
     28 ****        -1.3265  -3.4622   5.2276 H              1 S1                 0.0000
     29 ****        -0.7939  -1.5624   4.0926 H              1 S1                 0.0000
     30 ****        -0.3698  -3.0292   3.2221 H              1 S1                 0.0000
     31 ****        -2.5766  -2.8955   1.9702 H              1 S1                 0.0000
     32 ****        -3.0013  -1.4844   2.8894 H              1 S1                 0.0000
     33 ****        -1.8412   0.0679  -0.2307 H              1 S1                 0.0000
     34 ****        -3.2021  -0.8691   0.3128 H              1 S1                 0.0000
     35 ****        -3.3947   0.5885   2.3475 H              1 S1                 0.0000
     36 ****        -3.4444   2.0581  -0.3154 H              1 S1                 0.0000
     37 ****        -4.7340   1.0773   0.3369 H              1 S1                 0.0000
     38 ****        -5.1428   3.5019   0.7491 H              1 S1                 0.0000
     39 ****        -5.0166   2.6121   2.2477 H              1 S1                 0.0000
     40 ****        -2.8193   4.3084   0.9658 H              1 S1                 0.0000
     41 ****        -3.7098   4.7005   2.4177 H              1 S1                 0.0000
     42 ****        -1.4493   3.7571   2.9448 H              1 S1                 0.0000
     43 ****        -2.7298   2.7689   3.6061 H              1 S1                 0.0000
     44 ****        -1.0302   1.3396   2.5351 H              1 S1                 0.0000
     45 ****        -1.1767   2.2199   1.0327 H              1 S1                 0.0000
     46 ****         0.4512  -4.6218  -0.4420 H              1 S1                 0.0000
     47 ****         2.5751   1.4571  -0.4541 H              1 S1                 0.0000
     48 ****         4.4484  -0.1100  -1.3560 H              1 S1                 0.0000
     49 ****         4.1314  -1.8230  -1.4434 H              1 S1                 0.0000
     50 ****         2.4474  -1.6527  -4.5537 H              1 S1                 0.0000
     51 ****         5.6178  -1.2256  -3.4220 H              1 S1                 0.0000
     52 ****         4.6524  -1.5137  -4.8626 H              1 S1                 0.0000
     53 ****         5.5130   1.1816  -3.7598 H              1 S1                 0.0000
     54 ****         5.6340   0.5901  -5.4250 H              1 S1                 0.0000
     55 ****         1.8625   0.6329  -3.8941 H              1 S1                 0.0000
     56 ****         3.0648   1.3984  -2.8622 H              1 S1                 0.0000
     57 ****        -2.2900  -4.0264   4.0947 LP             1 S1                 0.0000
     58 ****        -2.6694  -2.6679   4.9176 LP             1 S1                 0.0000
     59 ****        -1.0436  -0.5478   2.1048 LP             1 S1                 0.0000
     60 ****        -1.2153  -3.6130   0.7872 LP             1 S1                 0.0000
     61 ****         2.2954  -3.4163  -1.3171 LP             1 S1                 0.0000
     62 ****         0.4381   1.1581   0.7973 LP             1 S1                 0.0000
     63 ****         1.7148  -1.6345  -3.1417 LP             1 S1                 0.0000
     64 ****         2.9762  -2.6338  -3.4185 LP             1 S1                 0.0000
     65 ****         3.3490   0.6447  -5.5951 LP             1 S1                 0.0000
     66 ****         3.7208   2.0416  -4.8353 LP             1 S1                 0.0000
@<TRIPOS>BOND
    1    1    2 1     
    2    1   28 1     
    3    2    3 1     
    4    2   29 1     
    5    2   30 1     
    6    3    4 1     
    7    3   31 1     
    8    3   32 1     
    9    4    5 1     
   10    4   12 1     
   11    5    6 1     
   12    5   33 1     
   13    5   34 1     
   14    6   11 1     
   15    6    7 1     
   16    6   35 1     
   17    7    8 1     
   18    7   36 1     
   19    7   37 1     
   20    8    9 1     
   21    8   38 1     
   22    8   39 1     
   23    9   10 1     
   24    9   40 1     
   25    9   41 1     
   26   10   11 1     
   27   10   42 1     
   28   10   43 1     
   29   11   44 1     
   30   11   45 1     
   31   12   17 ar    
   32   12   13 ar    
   33   13   14 ar    
   34   14   15 ar    
   35   14   46 1     
   36   15   16 ar    
   37   16   20 1     
   38   16   17 ar    
   39   17   18 1     
   40   18   19 2     
   41   19   20 1     
   42   19   47 1     
   43   20   21 1     
   44   21   22 1     
   45   21   48 1     
   46   21   49 1     
   47   22   27 1     
   48   22   23 1     
   49   22   24 1     
   50   23   50 1     
   51   24   25 1     
   52   24   51 1     
   53   24   52 1     
   54   25   26 1     
   55   25   53 1     
   56   25   54 1     
   57   26   27 1     
   58   27   55 1     
   59   27   56 1     
   60    1   57 1     
   61    1   58 1     
   62    4   59 1     
   63   13   60 1     
   64   15   61 1     
   65   18   62 1     
   66   23   63 1     
   67   23   64 1     
   68   26   65 1     
   69   26   66 1     
@<TRIPOS>SUBSTRUCTURE
      1 S1             1
@<TRIPOS>SET
LONE_PAIRS      STATIC     ATOMS    <user>   **** ""
10 57 58 59 60 61 62 63 64 65 66
DONOR_HYDROGENS      STATIC     ATOMS    <user>   **** ""
2 28 50
ATOM$BLUE        STATIC     ATOMS    COLORGROUP SYSTEM
10 57 58 59 60 61 62 63 64 65 66
ATOM$RED        STATIC     ATOMS    COLORGROUP SYSTEM
2 28 50
