AV-unprocessed.smi:1047|AV-procd|sdf|4593|dock6
  -GOLD-   22720 3 73D 1   1.00000     0.00000
 Structure written by MMmdl.
 55 57  0  0  0  0  0  0  0  0  1 V2000
  157.4518  132.4779  167.4363 C   0  0  0  0  0  0  0  0  0  0  0  0
  156.1044  131.7853  167.1869 C   0  0  0  0  0  0  0  0  0  0  0  0
  155.3905  132.2377  165.9941 N   0  0  0  0  0  0  0  0  0  0  0  0
  156.1506  131.9393  164.7857 C   0  0  0  0  0  0  0  0  0  0  0  0
  155.4215  132.4126  163.5174 C   0  0  0  0  0  0  0  0  0  0  0  0
  155.1499  133.8062  163.6204 O   0  0  0  0  0  0  0  0  0  0  0  0
  154.3538  134.1361  164.7567 C   0  0  2  0  0  0  0  0  0  0  0  0
  154.1239  135.6541  164.7567 C   0  0  0  0  0  0  0  0  0  0  0  0
  155.3827  136.3744  164.5964 N   0  0  0  0  0  0  0  0  0  0  0  0
  155.2119  137.8105  164.4023 C   0  0  0  0  0  0  0  0  0  0  0  0
  154.8867  138.1381  162.9356 C   0  0  2  0  0  0  0  0  0  0  0  0
  155.5359  137.1905  162.1090 O   0  0  0  0  0  0  0  0  0  0  0  0
  155.3625  139.5512  162.5470 C   0  0  0  0  0  0  0  0  0  0  0  0
  154.8121  139.9919  161.2774 N   0  0  0  0  0  0  0  0  0  0  0  0
  154.8267  139.3247  160.1073 C   0  0  0  0  0  0  0  0  0  0  0  0
  154.2558  139.9160  159.0618 N   0  0  0  0  0  0  0  0  0  0  0  0
  153.8201  141.1063  159.6188 C   0  0  0  0  0  0  0  0  0  0  0  0
  153.1274  142.1910  159.0379 C   0  0  0  0  0  0  0  0  0  0  0  0
  152.7793  143.3243  159.8072 C   0  0  0  0  0  0  0  0  0  0  0  0
  152.0317  144.4669  159.1424 C   0  0  0  0  0  0  0  0  0  0  0  0
  153.1270  143.3849  161.1809 C   0  0  0  0  0  0  0  0  0  0  0  0
  152.7692  144.5950  162.0255 C   0  0  0  0  0  0  0  0  0  0  0  0
  153.8163  142.3084  161.7776 C   0  0  0  0  0  0  0  0  0  0  0  0
  154.1554  141.1859  161.0020 C   0  0  0  0  0  0  0  0  0  0  0  0
  155.0943  133.6688  166.0260 C   0  0  0  0  0  0  0  0  0  0  0  0
  157.8711  132.1635  168.3922 H   0  0  0  0  0  0  0  0  0  0  0  0
  157.3370  133.5617  167.4662 H   0  0  0  0  0  0  0  0  0  0  0  0
  158.1847  132.2356  166.6673 H   0  0  0  0  0  0  0  0  0  0  0  0
  156.2523  130.7052  167.1442 H   0  0  0  0  0  0  0  0  0  0  0  0
  155.4783  131.9671  168.0615 H   0  0  0  0  0  0  0  0  0  0  0  0
  157.1300  132.4177  164.8373 H   0  0  0  0  0  0  0  0  0  0  0  0
  156.3314  130.8660  164.7173 H   0  0  0  0  0  0  0  0  0  0  0  0
  156.0373  132.2331  162.6361 H   0  0  0  0  0  0  0  0  0  0  0  0
  154.4904  131.8615  163.3766 H   0  0  0  0  0  0  0  0  0  0  0  0
  153.3934  133.6202  164.6938 H   0  0  0  0  0  0  0  0  0  0  0  0
  153.4524  135.9200  163.9395 H   0  0  0  0  0  0  0  0  0  0  0  0
  153.6258  135.9513  165.6807 H   0  0  0  0  0  0  0  0  0  0  0  0
  155.9748  136.2085  165.4047 H   0  0  0  0  0  0  0  0  0  0  0  0
  154.3953  138.1558  165.0377 H   0  0  0  0  0  0  0  0  0  0  0  0
  156.1023  138.3540  164.7223 H   0  0  0  0  0  0  0  0  0  0  0  0
  153.8101  138.0702  162.7695 H   0  0  0  0  0  0  0  0  0  0  0  0
  156.0637  136.6275  162.6541 H   0  0  0  0  0  0  0  0  0  0  0  0
  155.0680  140.2711  163.3116 H   0  0  0  0  0  0  0  0  0  0  0  0
  156.4513  139.5873  162.4881 H   0  0  0  0  0  0  0  0  0  0  0  0
  155.2786  138.3474  160.0190 H   0  0  0  0  0  0  0  0  0  0  0  0
  152.8639  142.1446  157.9914 H   0  0  0  0  0  0  0  0  0  0  0  0
  152.6209  145.3832  159.1830 H   0  0  0  0  0  0  0  0  0  0  0  0
  151.0797  144.6437  159.6436 H   0  0  0  0  0  0  0  0  0  0  0  0
  151.8220  144.2499  158.0947 H   0  0  0  0  0  0  0  0  0  0  0  0
  153.1330  144.4878  163.0478 H   0  0  0  0  0  0  0  0  0  0  0  0
  151.6878  144.7269  162.0660 H   0  0  0  0  0  0  0  0  0  0  0  0
  153.2132  145.4981  161.6059 H   0  0  0  0  0  0  0  0  0  0  0  0
  154.0844  142.3391  162.8233 H   0  0  0  0  0  0  0  0  0  0  0  0
  154.4794  133.9054  166.8938 H   0  0  0  0  0  0  0  0  0  0  0  0
  156.0208  134.2350  166.1357 H   0  0  0  0  0  0  0  0  0  0  0  0
  1  2  1  0  0  0  0
  1 26  1  0  0  0  0
  1 27  1  0  0  0  0
  1 28  1  0  0  0  0
  2  3  1  0  0  0  0
  2 29  1  0  0  0  0
  2 30  1  0  0  0  0
  3 25  1  0  0  0  0
  3  4  1  0  0  0  0
  4  5  1  0  0  0  0
  4 31  1  0  0  0  0
  4 32  1  0  0  0  0
  5  6  1  0  0  0  0
  5 33  1  0  0  0  0
  5 34  1  0  0  0  0
  6  7  1  0  0  0  0
  7  8  1  0  0  0  0
  7 25  1  0  0  0  0
  7 35  1  0  0  0  0
  8  9  1  0  0  0  0
  8 36  1  0  0  0  0
  8 37  1  0  0  0  0
  9 10  1  0  0  0  0
  9 38  1  0  0  0  0
 10 11  1  0  0  0  0
 10 39  1  0  0  0  0
 10 40  1  0  0  0  0
 11 12  1  0  0  0  0
 11 13  1  0  0  0  0
 11 41  1  0  0  0  0
 12 42  1  0  0  0  0
 13 14  1  0  0  0  0
 13 43  1  0  0  0  0
 13 44  1  0  0  0  0
 14 24  1  0  0  0  0
 14 15  1  0  0  0  0
 15 16  2  0  0  0  0
 15 45  1  0  0  0  0
 16 17  1  0  0  0  0
 17 24  2  0  0  0  0
 17 18  1  0  0  0  0
 18 19  2  0  0  0  0
 18 46  1  0  0  0  0
 19 20  1  0  0  0  0
 19 21  1  0  0  0  0
 20 47  1  0  0  0  0
 20 48  1  0  0  0  0
 20 49  1  0  0  0  0
 21 22  1  0  0  0  0
 21 23  2  0  0  0  0
 22 50  1  0  0  0  0
 22 51  1  0  0  0  0
 22 52  1  0  0  0  0
 23 24  1  0  0  0  0
 23 53  1  0  0  0  0
 25 54  1  0  0  0  0
 25 55  1  0  0  0  0
M  END
> <s_m_source_file>
AV-unprocessed.smi

> <i_m_source_file_index>
1047

> <i_lp_mmshare_version>
43012

> <i_f3d_flags>
0

> <s_epik_input>
W0NIM11bQ0gyXU4xW0NIMl1bQ0gyXU9bQ0BIXShbQ0gyXTEpW0NIMl1bTkhdW0NIMl1bQ0BIXShbT0hdKVtDSDJdbihbY0hdbjIpYyhjMjMpW2NIXWMoW0NIM10pYyhbY0hdMylbQ0gzXQ==

> <s_epik_cmdline>
J2VwaWtfcHl0aG9uJywgJy1waCcsICc3LjAnLCAnLXRuJywgJzgnLCAnLW1hJywgJzIwMCcsICctbWV0YWxfYmluZGluZycsICctaW1hZScsICc8aW5maWxlLm1hZT4nLCAnLW9tYWUnLCAnPG91dGZpbGUubWFlPic=

> <r_epik_Ionization_Penalty>
2.74124

> <r_epik_Ionization_Penalty_Charging>
0

> <r_epik_Ionization_Penalty_Neutral>
2.74124

> <r_epik_State_Penalty>
2.37482

> <r_epik_Charging_Adjusted_Penalty>
2.37482

> <i_epik_Tot_Q>
0

> <i_epik_Tot_abs_Q>
0

> <r_epik_Metal_State_Penalty>
2.25944

> <b_epik_Metal_Only>
0

> <s_lp_Force_Field>
OPLS_2005

> <r_lp_Energy>
33.9666

> <b_lp_Chiralities_Consistent>
1

> <s_lp_Variant>
AV-unprocessed.smi:1047-34

> <Gold.Version>
5.8.1

> <Gold.Id.Protein>
6NUR|6NUR_protein|mol2

> <Gold.PLP.Fitness>
50.3146

> <Gold.PLP.PLP>
-48.5390

> <Gold.PLP.part.hbond>
-1.0000

> <Gold.PLP.part.metal>
0.0000

> <Gold.PLP.part.buried>
-2.2964

> <Gold.PLP.part.nonpolar>
-44.1922

> <Gold.PLP.part.repulsive>
0.0190

> <Gold.PLP.ligand.clash>
0.0000

> <Gold.PLP.ligand.torsion>
0.6637

> <Gold.PLP.Chemscore.Hbond>
1.0000

> <Gold.PLP.Chemscore.CHOScore>
0.0000

> <Gold.PLP.Chemscore.Metal>
0.0000

> <Gold.Chemscore.Hbonds>
donor molecule, donor type, donor heavy atom, donor atom, acceptor molecule, acceptor atom, score
      P1  H  7997  8009       L1    16  0.98

> <Gold.PLP.Chemscore.Internal.Correction>
0.1030

> <Gold.Rescore>
     Score         DG    S(hbond)    S(metal)    S(lipo)     H(rot)  DE(clash)    DE(int)     intcor
     18.00     -19.74       0.91        0.00     151.04       2.52       0.25       1.50       ----

> <Gold.Chemscore.Fitness>
17.9952

> <Gold.Chemscore.DG>
-19.7405

> <Gold.Chemscore.ZeroCoef>
-5.4800

> <Gold.Chemscore.Hbond>
0.9129

> <Gold.Chemscore.Metal>
0.0000

> <Gold.Chemscore.Lipo>
151.0420

> <Gold.Chemscore.Internal_Hbond>
0.0000

> <Gold.Chemscore.DEClash>
0.2492

> <Gold.Chemscore.DEInternal>
1.4961

> <Gold.Chemscore.Rot>
2.5237

> <Gold.Chemscore.Internal.Correction>
   9.000000E+99

> <Gold.Chemscore.Hbonds>
donor molecule, donor type, donor heavy atom, donor atom, acceptor molecule, acceptor atom, score
      P1  H  7997  8009       L1    16  0.84

> <Gold.Chemscore.Hbond.Weighted>
-3.0492

> <Gold.Chemscore.Metal.Weighted>
-0.0000

> <Gold.Chemscore.Lipo.Weighted>
-17.6719

> <Gold.Chemscore.Internal_Hbond.Weighted>
0.0000

> <Gold.Chemscore.DEClash.Weighted>
0.2492

> <Gold.Chemscore.DEInternal.Weighted>
1.4961

> <Gold.Chemscore.Rot.Weighted>
6.4607

> <Gold.Chemscore.Internal.Correction.Weighted>
   9.000000E+99

> <Gold.Protein.RotatedTorsions>
[ 6907 6896 6895 6894 ] final -124.52 input  -60.11 | X-H torsion
[ 7974 7965 7964 7962 ] final  -47.10 input  175.53 | X-H torsion
[ 8008 7997 7996 7995 ] final  141.21 input   59.86 | X-H torsion
[ 10167 10162 10161 10158 ] final   49.02 input  -65.29 | X-H torsion
[ 10718 10713 10712 10709 ] final   11.75 input   66.30 | X-H torsion
[ 10763 10752 10751 10750 ] final  -28.21 input  -60.55 | X-H torsion
[ 11005 11000 10999 10996 ] final   81.12 input  -57.11 | X-H torsion

> <Gold.Protein.ActiveResidues>
 VAL166  LYS551  ARG553  GLY616  TRP617  ASP618  TYR619  PRO620  LYS621  CYS622 
 ASP623  PHE694  ASN695  SER759  ASP760  ASP761  ALA762  ILE779  LEU786  VAL792 
 PHE793  MET794  SER795  GLU796  ALA797  LYS798  CYS799  TRP800  GLU811  SER814 

> <Gold.Protein.RotatedAtoms>
  150.8776  133.7417  159.2941 H   0  0  0  0  0  0  0  0  0  0  0  0  # atno 6907 bound_to 6896
  151.5008  135.1060  159.9838 H   0  0  0  0  0  0  0  0  0  0  0  0  # atno 6908 bound_to 6896
  152.4738  133.8045  159.7026 H   0  0  0  0  0  0  0  0  0  0  0  0  # atno 6909 bound_to 6896
  145.9651  140.7440  142.9438 H   0  0  0  0  0  0  0  0  0  0  0  0  # atno 7974 bound_to 7965
  156.2969  140.2321  156.4527 H   0  0  0  0  0  0  0  0  0  0  0  0  # atno 8008 bound_to 7997
  154.8088  140.0444  157.1348 H   0  0  0  0  0  0  0  0  0  0  0  0  # atno 8009 bound_to 7997
  154.9448  140.3034  155.5107 H   0  0  0  0  0  0  0  0  0  0  0  0  # atno 8010 bound_to 7997
  140.2873  144.3087  150.6249 H   0  0  0  0  0  0  0  0  0  0  0  0  # atno 10167 bound_to 10162
  157.0002  130.6076  149.5695 H   0  0  0  0  0  0  0  0  0  0  0  0  # atno 10718 bound_to 10713
  153.7446  135.6930  153.4959 H   0  0  0  0  0  0  0  0  0  0  0  0  # atno 10763 bound_to 10752
  153.2045  135.4424  155.0306 H   0  0  0  0  0  0  0  0  0  0  0  0  # atno 10764 bound_to 10752
  154.8209  135.3421  154.6969 H   0  0  0  0  0  0  0  0  0  0  0  0  # atno 10765 bound_to 10752
  139.9109  134.7972  156.1999 H   0  0  0  0  0  0  0  0  0  0  0  0  # atno 11005 bound_to 11000
  144.6824  140.2656  143.7313 LP  0  0  0  0  0  0  0  0  0  0  0  0  # atno 17320 bound_to 7965
  145.7985  139.1955  143.2062 LP  0  0  0  0  0  0  0  0  0  0  0  0  # atno 17321 bound_to 7965
  140.5762  143.2176  151.7511 LP  0  0  0  0  0  0  0  0  0  0  0  0  # atno 17342 bound_to 10162
  139.4947  144.4146  152.0044 LP  0  0  0  0  0  0  0  0  0  0  0  0  # atno 17343 bound_to 10162
  156.0174  130.5268  150.8175 LP  0  0  0  0  0  0  0  0  0  0  0  0  # atno 17370 bound_to 10713
  157.5396  131.0940  150.9846 LP  0  0  0  0  0  0  0  0  0  0  0  0  # atno 17371 bound_to 10713
  141.0531  133.6878  156.1810 LP  0  0  0  0  0  0  0  0  0  0  0  0  # atno 17394 bound_to 11000
  140.6779  134.4799  157.5588 LP  0  0  0  0  0  0  0  0  0  0  0  0  # atno 17395 bound_to 11000

$$$$
