AV-unprocessed.smi:2895|AV-procd|sdf|11128|dock8
  -GOLD-   2272016 03D 1   1.00000     0.00000
 Structure written by MMmdl.
 53 56  0  0  0  0  0  0  0  0  2 V2000
  148.7633  141.5570  153.7877 O   0  0  0  0  0  0  0  0  0  0  0  0
  148.1476  140.7832  154.5217 C   0  0  0  0  0  0  0  0  0  0  0  0
  148.3253  140.7723  155.8539 N   0  0  0  0  0  0  0  0  0  0  0  0
  149.2450  141.6332  156.5890 C   0  0  0  0  0  0  0  0  0  0  0  0
  150.2242  140.8181  157.4503 C   0  0  0  0  0  0  0  0  0  0  0  0
  151.2875  141.6906  158.0884 C   0  0  0  0  0  0  0  0  0  0  0  0
  151.4162  143.0474  157.7266 C   0  0  0  0  0  0  0  0  0  0  0  0
  152.4191  143.8166  158.3502 C   0  0  0  0  0  0  0  0  0  0  0  0
  153.2651  143.3198  159.2785 N   0  0  0  0  0  0  0  0  0  0  0  0
  153.1354  142.0198  159.6196 C   0  0  0  0  0  0  0  0  0  0  0  0
  152.1661  141.1648  159.0579 C   0  0  0  0  0  0  0  0  0  0  0  0
  147.2191  139.9055  154.0625 N   0  0  0  0  0  0  0  0  0  0  0  0
  146.5630  138.8429  154.8416 C   0  0  0  0  0  0  0  0  0  0  0  0
  147.0524  137.4657  154.3445 C   0  0  0  0  0  0  0  0  0  0  0  0
  146.8534  137.2895  152.8765 N   0  3  0  0  0  0  0  0  0  0  0  0
  145.4499  136.9333  152.5057 C   0  0  2  0  0  0  0  0  0  0  0  0
  144.6893  136.1418  153.5986 C   0  0  0  0  0  0  0  0  0  0  0  0
  144.1048  134.9444  152.8254 C   0  0  2  0  0  0  0  0  0  0  0  0
  145.2347  133.9409  152.5391 C   0  0  0  0  0  0  0  0  0  0  0  0
  146.0699  134.6741  151.4746 C   0  0  0  0  0  0  0  0  0  0  0  0
  145.2986  135.9976  151.2788 C   0  0  1  0  0  0  0  0  0  0  0  0
  143.8550  135.5342  151.4430 C   0  0  0  0  0  0  0  0  0  0  0  0
  147.4222  138.4363  152.1117 C   0  0  0  0  0  0  0  0  0  0  0  0
  146.9028  139.7894  152.6344 C   0  0  0  0  0  0  0  0  0  0  0  0
  147.7751  140.1253  156.3998 H   0  0  0  0  0  0  0  0  0  0  0  0
  149.7876  142.2774  155.8947 H   0  0  0  0  0  0  0  0  0  0  0  0
  148.6529  142.2916  157.2251 H   0  0  0  0  0  0  0  0  0  0  0  0
  149.6803  140.2855  158.2317 H   0  0  0  0  0  0  0  0  0  0  0  0
  150.7188  140.0561  156.8465 H   0  0  0  0  0  0  0  0  0  0  0  0
  150.7624  143.4912  156.9901 H   0  0  0  0  0  0  0  0  0  0  0  0
  152.5443  144.8589  158.0966 H   0  0  0  0  0  0  0  0  0  0  0  0
  153.8248  141.6487  160.3634 H   0  0  0  0  0  0  0  0  0  0  0  0
  152.1026  140.1314  159.3664 H   0  0  0  0  0  0  0  0  0  0  0  0
  146.7314  138.9118  155.9159 H   0  0  0  0  0  0  0  0  0  0  0  0
  145.4833  138.9315  154.7179 H   0  0  0  0  0  0  0  0  0  0  0  0
  148.1197  137.3743  154.5502 H   0  0  0  0  0  0  0  0  0  0  0  0
  146.5731  136.6694  154.9128 H   0  0  0  0  0  0  0  0  0  0  0  0
  144.9019  137.8526  152.2952 H   0  0  0  0  0  0  0  0  0  0  0  0
  145.3284  135.8030  154.4151 H   0  0  0  0  0  0  0  0  0  0  0  0
  143.8975  136.7553  154.0303 H   0  0  0  0  0  0  0  0  0  0  0  0
  143.2329  134.4956  153.3025 H   0  0  0  0  0  0  0  0  0  0  0  0
  145.8139  133.6979  153.4306 H   0  0  0  0  0  0  0  0  0  0  0  0
  144.8340  133.0092  152.1373 H   0  0  0  0  0  0  0  0  0  0  0  0
  147.1029  134.8248  151.7884 H   0  0  0  0  0  0  0  0  0  0  0  0
  146.0892  134.0998  150.5475 H   0  0  0  0  0  0  0  0  0  0  0  0
  145.4942  136.4842  150.3229 H   0  0  0  0  0  0  0  0  0  0  0  0
  143.5517  134.7908  150.7034 H   0  0  0  0  0  0  0  0  0  0  0  0
  143.1319  136.3520  151.4444 H   0  0  0  0  0  0  0  0  0  0  0  0
  148.5067  138.4072  152.2257 H   0  0  0  0  0  0  0  0  0  0  0  0
  147.2449  138.3412  151.0418 H   0  0  0  0  0  0  0  0  0  0  0  0
  145.8235  139.8651  152.4970 H   0  0  0  0  0  0  0  0  0  0  0  0
  147.3284  140.5985  152.0393 H   0  0  0  0  0  0  0  0  0  0  0  0
  147.4009  136.4830  152.6115 H   0  0  0  0  0  0  0  0  0  0  0  0
  1  2  2  0  0  0  0
  2  3  1  0  0  0  0
  2 12  1  0  0  0  0
  3  4  1  0  0  0  0
  3 25  1  0  0  0  0
  4  5  1  0  0  0  0
  4 26  1  0  0  0  0
  4 27  1  0  0  0  0
  5  6  1  0  0  0  0
  5 28  1  0  0  0  0
  5 29  1  0  0  0  0
  6 11  1  0  0  0  0
  6  7  2  0  0  0  0
  7  8  1  0  0  0  0
  7 30  1  0  0  0  0
  8  9  2  0  0  0  0
  8 31  1  0  0  0  0
  9 10  1  0  0  0  0
 10 11  2  0  0  0  0
 10 32  1  0  0  0  0
 11 33  1  0  0  0  0
 12 24  1  0  0  0  0
 12 13  1  0  0  0  0
 13 14  1  0  0  0  0
 13 34  1  0  0  0  0
 13 35  1  0  0  0  0
 14 15  1  0  0  0  0
 14 36  1  0  0  0  0
 14 37  1  0  0  0  0
 15 16  1  0  0  0  0
 15 23  1  0  0  0  0
 15 53  1  0  0  0  0
 16 21  1  0  0  0  0
 16 17  1  0  0  0  0
 16 38  1  0  0  0  0
 17 18  1  0  0  0  0
 17 39  1  0  0  0  0
 17 40  1  0  0  0  0
 18 22  1  0  0  0  0
 18 19  1  0  0  0  0
 18 41  1  0  0  0  0
 19 20  1  0  0  0  0
 19 42  1  0  0  0  0
 19 43  1  0  0  0  0
 20 21  1  0  0  0  0
 20 44  1  0  0  0  0
 20 45  1  0  0  0  0
 21 22  1  0  0  0  0
 21 46  1  0  0  0  0
 22 47  1  0  0  0  0
 22 48  1  0  0  0  0
 23 24  1  0  0  0  0
 23 49  1  0  0  0  0
 23 50  1  0  0  0  0
 24 51  1  0  0  0  0
 24 52  1  0  0  0  0
M  CHG  1  15   1
M  END
> <s_m_source_file>
AV-unprocessed.smi

> <i_m_source_file_index>
2895

> <i_lp_mmshare_version>
43012

> <i_f3d_flags>
0

> <s_epik_input>
W0NIMl0xW0NIMl1bQ0BASF0oW0NIMl0yKVtDQEBIXShbQ0gyXVtDQEhdMTIpTihbQ0gyXVtDSDJdMylbQ0gyXVtDSDJdTjNDKD1PKVtOSF1bQ0gyXVtDSDJdYzRbY0hdW2NIXW5bY0hdW2NIXTQ=

> <s_epik_cmdline>
J2VwaWtfcHl0aG9uJywgJy1waCcsICc3LjAnLCAnLXRuJywgJzgnLCAnLW1hJywgJzIwMCcsICctbWV0YWxfYmluZGluZycsICctaW1hZScsICc8aW5maWxlLm1hZT4nLCAnLW9tYWUnLCAnPG91dGZpbGUubWFlPic=

> <r_epik_Ionization_Penalty>
0.0566172

> <r_epik_Ionization_Penalty_Charging>
0.00262064

> <r_epik_Ionization_Penalty_Neutral>
0.0539965

> <r_epik_State_Penalty>
0.0463959

> <r_epik_Charging_Adjusted_Penalty>
0.0490165

> <i_epik_Tot_Q>
1

> <i_epik_Tot_abs_Q>
1

> <r_epik_Metal_State_Penalty>
0.0424856

> <b_epik_Metal_Only>
0

> <s_lp_Force_Field>
OPLS_2005

> <r_lp_Energy>
99.7754

> <b_lp_Chiralities_Consistent>
1

> <s_lp_Variant>
AV-unprocessed.smi:2895-1

> <Gold.Version>
5.8.1

> <Gold.Id.Protein>
6NUR|6NUR_protein|mol2

> <Gold.PLP.Fitness>
42.0778

> <Gold.PLP.PLP>
-36.5963

> <Gold.PLP.part.hbond>
-2.0000

> <Gold.PLP.part.metal>
0.0000

> <Gold.PLP.part.buried>
1.6422

> <Gold.PLP.part.nonpolar>
-35.9524

> <Gold.PLP.part.repulsive>
0.2292

> <Gold.PLP.ligand.clash>
0.0000

> <Gold.PLP.ligand.torsion>
0.7649

> <Gold.PLP.Chemscore.Hbond>
2.3040

> <Gold.PLP.Chemscore.CHOScore>
0.0000

> <Gold.PLP.Chemscore.Metal>
0.0000

> <Gold.Chemscore.Hbonds>
donor molecule, donor type, donor heavy atom, donor atom, acceptor molecule, acceptor atom, score
      L1  H    15    53       P1  7948  1.41
      P1  H  8011  8017       L1     1  0.69

> <Gold.PLP.Chemscore.Internal.Correction>
0.0994

> <Gold.Rescore>
     Score         DG    S(hbond)    S(metal)    S(lipo)     H(rot)  DE(clash)    DE(int)     intcor
     17.29     -19.55       1.38        0.00     110.87       1.37       1.41       0.85       ----

> <Gold.Chemscore.Fitness>
17.2933

> <Gold.Chemscore.DG>
-19.5469

> <Gold.Chemscore.ZeroCoef>
-5.4800

> <Gold.Chemscore.Hbond>
1.3803

> <Gold.Chemscore.Metal>
0.0000

> <Gold.Chemscore.Lipo>
110.8714

> <Gold.Chemscore.Internal_Hbond>
0.0000

> <Gold.Chemscore.DEClash>
1.4051

> <Gold.Chemscore.DEInternal>
0.8485

> <Gold.Chemscore.Rot>
1.3731

> <Gold.Chemscore.Internal.Correction>
   9.000000E+99

> <Gold.Chemscore.Hbonds>
donor molecule, donor type, donor heavy atom, donor atom, acceptor molecule, acceptor atom, score
      L1  H    15    53       P1  7948  0.72
      P1  H  8011  8017       L1     1  0.67

> <Gold.Chemscore.Hbond.Weighted>
-4.6101

> <Gold.Chemscore.Metal.Weighted>
-0.0000

> <Gold.Chemscore.Lipo.Weighted>
-12.9719

> <Gold.Chemscore.Internal_Hbond.Weighted>
0.0000

> <Gold.Chemscore.DEClash.Weighted>
1.4051

> <Gold.Chemscore.DEInternal.Weighted>
0.8485

> <Gold.Chemscore.Rot.Weighted>
3.5152

> <Gold.Chemscore.Internal.Correction.Weighted>
   9.000000E+99

> <Gold.Protein.RotatedTorsions>
[ 6907 6896 6895 6894 ] final   42.72 input  -60.11 | X-H torsion
[ 7974 7965 7964 7962 ] final   19.72 input  175.53 | X-H torsion
[ 8008 7997 7996 7995 ] final   96.27 input   59.86 | X-H torsion
[ 10167 10162 10161 10158 ] final -145.34 input  -65.29 | X-H torsion
[ 10718 10713 10712 10709 ] final   52.65 input   66.30 | X-H torsion
[ 10763 10752 10751 10750 ] final  -77.14 input  -60.55 | X-H torsion
[ 11005 11000 10999 10996 ] final  -22.72 input  -57.11 | X-H torsion

> <Gold.Protein.ActiveResidues>
 VAL166  LYS551  ARG553  GLY616  TRP617  ASP618  TYR619  PRO620  LYS621  CYS622 
 ASP623  PHE694  ASN695  SER759  ASP760  ASP761  ALA762  ILE779  LEU786  VAL792 
 PHE793  MET794  SER795  GLU796  ALA797  LYS798  CYS799  TRP800  GLU811  SER814 

> <Gold.Protein.RotatedAtoms>
  152.2114  134.8498  160.0496 H   0  0  0  0  0  0  0  0  0  0  0  0  # atno 6907 bound_to 6896
  151.9315  133.3607  159.3940 H   0  0  0  0  0  0  0  0  0  0  0  0  # atno 6908 bound_to 6896
  150.6977  134.4458  159.5357 H   0  0  0  0  0  0  0  0  0  0  0  0  # atno 6909 bound_to 6896
  146.2138  139.8272  142.8667 H   0  0  0  0  0  0  0  0  0  0  0  0  # atno 7974 bound_to 7965
  156.0778  140.3275  155.7656 H   0  0  0  0  0  0  0  0  0  0  0  0  # atno 8008 bound_to 7997
  155.5202  140.0584  157.2925 H   0  0  0  0  0  0  0  0  0  0  0  0  # atno 8009 bound_to 7997
  154.4565  140.1945  156.0382 H   0  0  0  0  0  0  0  0  0  0  0  0  # atno 8010 bound_to 7997
  139.7815  143.8094  152.2639 H   0  0  0  0  0  0  0  0  0  0  0  0  # atno 10167 bound_to 10162
  157.5095  130.8491  149.8416 H   0  0  0  0  0  0  0  0  0  0  0  0  # atno 10718 bound_to 10713
  154.5091  135.5774  153.6591 H   0  0  0  0  0  0  0  0  0  0  0  0  # atno 10763 bound_to 10752
  152.9893  135.6154  154.2902 H   0  0  0  0  0  0  0  0  0  0  0  0  # atno 10764 bound_to 10752
  154.2815  135.2851  155.2674 H   0  0  0  0  0  0  0  0  0  0  0  0  # atno 10765 bound_to 10752
  140.8684  133.7738  156.0157 H   0  0  0  0  0  0  0  0  0  0  0  0  # atno 11005 bound_to 11000
  145.3035  141.0200  143.3595 LP  0  0  0  0  0  0  0  0  0  0  0  0  # atno 17320 bound_to 7965
  144.8988  139.4676  143.6642 LP  0  0  0  0  0  0  0  0  0  0  0  0  # atno 17321 bound_to 7965
  139.8158  144.7316  150.9637 LP  0  0  0  0  0  0  0  0  0  0  0  0  # atno 17342 bound_to 10162
  140.7818  143.4206  151.0847 LP  0  0  0  0  0  0  0  0  0  0  0  0  # atno 17343 bound_to 10162
  156.0279  130.3773  150.1769 LP  0  0  0  0  0  0  0  0  0  0  0  0  # atno 17370 bound_to 10713
  156.9959  130.9907  151.3403 LP  0  0  0  0  0  0  0  0  0  0  0  0  # atno 17371 bound_to 10713
  140.8602  134.2850  157.5238 LP  0  0  0  0  0  0  0  0  0  0  0  0  # atno 17394 bound_to 11000
  139.8710  134.9514  156.4084 LP  0  0  0  0  0  0  0  0  0  0  0  0  # atno 17395 bound_to 11000

$$$$
