AV-unprocessed.smi:535|AV-procd|sdf|2860|dock3
  -GOLD-   2262023353D 1   1.00000     0.00000
 Structure written by MMmdl.
 45 47  0  0  0  0  0  0  0  0  2 V2000
  148.2244  132.5133  159.1743 C   0  0  0  0  0  0  0  0  0  0  0  0
  149.2787  132.8399  158.2865 O   0  0  0  0  0  0  0  0  0  0  0  0
  148.8354  133.6092  157.1819 C   0  0  0  0  0  0  0  0  0  0  0  0
  148.1280  134.8654  157.7020 C   0  0  0  0  0  0  0  0  0  0  0  0
  149.0829  135.8244  158.2533 N   0  0  0  0  0  0  0  0  0  0  0  0
  149.0566  136.4364  159.4699 C   0  0  0  0  0  0  0  0  0  0  0  0
  148.0553  136.1932  160.4133 N   0  0  0  0  0  0  0  0  0  0  0  0
  148.1697  136.3479  161.8633 C   0  0  0  0  0  0  0  0  0  0  0  0
  147.6847  135.0895  162.6041 C   0  0  0  0  0  0  0  0  0  0  0  0
  146.2292  134.7780  162.2309 C   0  0  0  0  0  0  0  0  0  0  0  0
  146.0698  134.7230  160.7014 C   0  0  1  0  0  0  0  0  0  0  0  0
  144.6061  134.5054  160.2955 C   0  0  0  0  0  0  0  0  0  0  0  0
  146.6486  136.0024  160.0620 C   0  0  0  0  0  0  0  0  0  0  0  0
  150.0316  137.3264  159.6643 N   0  0  0  0  0  0  0  0  0  0  0  0
  150.7510  137.2669  158.4816 C   0  0  0  0  0  0  0  0  0  0  0  0
  150.1931  136.3841  157.6100 C   0  0  0  0  0  0  0  0  0  0  0  0
  150.7085  136.1461  156.2421 C   0  0  0  0  0  0  0  0  0  0  0  0
  150.1464  135.3670  155.4756 O   0  0  0  0  0  0  0  0  0  0  0  0
  151.8299  136.8875  155.9750 N   0  5  0  0  0  0  0  0  0  0  0  0
  152.4327  137.7830  156.8316 C   0  0  0  0  0  0  0  0  0  0  0  0
  153.4404  138.4136  156.5092 O   0  0  0  0  0  0  0  0  0  0  0  0
  151.9074  137.9896  158.0798 N   0  0  0  0  0  0  0  0  0  0  0  0
  152.5211  138.9431  159.0086 C   0  0  0  0  0  0  0  0  0  0  0  0
  148.6140  131.9263  160.0059 H   0  0  0  0  0  0  0  0  0  0  0  0
  147.4568  131.9212  158.6740 H   0  0  0  0  0  0  0  0  0  0  0  0
  147.7619  133.4120  159.5845 H   0  0  0  0  0  0  0  0  0  0  0  0
  149.6814  133.8874  156.5512 H   0  0  0  0  0  0  0  0  0  0  0  0
  148.1484  133.0192  156.5727 H   0  0  0  0  0  0  0  0  0  0  0  0
  147.5552  135.3249  156.9038 H   0  0  0  0  0  0  0  0  0  0  0  0
  147.3842  134.6077  158.4528 H   0  0  0  0  0  0  0  0  0  0  0  0
  149.1938  136.5941  162.1415 H   0  0  0  0  0  0  0  0  0  0  0  0
  147.5715  137.2068  162.1703 H   0  0  0  0  0  0  0  0  0  0  0  0
  148.3173  134.2383  162.3508 H   0  0  0  0  0  0  0  0  0  0  0  0
  147.7715  135.2318  163.6813 H   0  0  0  0  0  0  0  0  0  0  0  0
  145.9204  133.8344  162.6817 H   0  0  0  0  0  0  0  0  0  0  0  0
  145.5773  135.5498  162.6424 H   0  0  0  0  0  0  0  0  0  0  0  0
  146.6450  133.8727  160.3314 H   0  0  0  0  0  0  0  0  0  0  0  0
  143.9754  135.3296  160.6301 H   0  0  0  0  0  0  0  0  0  0  0  0
  144.2106  133.5862  160.7287 H   0  0  0  0  0  0  0  0  0  0  0  0
  144.5069  134.4288  159.2125 H   0  0  0  0  0  0  0  0  0  0  0  0
  146.0766  136.8782  160.3719 H   0  0  0  0  0  0  0  0  0  0  0  0
  146.5548  135.9398  158.9771 H   0  0  0  0  0  0  0  0  0  0  0  0
  153.5602  138.6742  159.2027 H   0  0  0  0  0  0  0  0  0  0  0  0
  152.0117  138.9814  159.9711 H   0  0  0  0  0  0  0  0  0  0  0  0
  152.5017  139.9497  158.5884 H   0  0  0  0  0  0  0  0  0  0  0  0
  1  2  1  0  0  0  0
  1 24  1  0  0  0  0
  1 25  1  0  0  0  0
  1 26  1  0  0  0  0
  2  3  1  0  0  0  0
  3  4  1  0  0  0  0
  3 27  1  0  0  0  0
  3 28  1  0  0  0  0
  4  5  1  0  0  0  0
  4 29  1  0  0  0  0
  4 30  1  0  0  0  0
  5 16  1  0  0  0  0
  5  6  1  0  0  0  0
  6  7  1  0  0  0  0
  6 14  2  0  0  0  0
  7 13  1  0  0  0  0
  7  8  1  0  0  0  0
  8  9  1  0  0  0  0
  8 31  1  0  0  0  0
  8 32  1  0  0  0  0
  9 10  1  0  0  0  0
  9 33  1  0  0  0  0
  9 34  1  0  0  0  0
 10 11  1  0  0  0  0
 10 35  1  0  0  0  0
 10 36  1  0  0  0  0
 11 12  1  0  0  0  0
 11 13  1  0  0  0  0
 11 37  1  0  0  0  0
 12 38  1  0  0  0  0
 12 39  1  0  0  0  0
 12 40  1  0  0  0  0
 13 41  1  0  0  0  0
 13 42  1  0  0  0  0
 14 15  1  0  0  0  0
 15 22  1  0  0  0  0
 15 16  2  0  0  0  0
 16 17  1  0  0  0  0
 17 18  2  0  0  0  0
 17 19  1  0  0  0  0
 19 20  1  0  0  0  0
 20 21  2  0  0  0  0
 20 22  1  0  0  0  0
 22 23  1  0  0  0  0
 23 43  1  0  0  0  0
 23 44  1  0  0  0  0
 23 45  1  0  0  0  0
M  CHG  1  19  -1
M  END
> <s_m_source_file>
AV-unprocessed.smi

> <i_m_source_file_index>
535

> <i_lp_mmshare_version>
43012

> <i_f3d_flags>
0

> <s_epik_input>
W0NIM11uMWMoPU8pW25IXWMoPU8pYyhjMTIpbihbQ0gyXVtDSDJdT1tDSDNdKWMobjIpTjNbQ0gyXVtDSDJdW0NIMl1bQ0BASF0oW0NIM10pW0NIMl0z

> <s_epik_cmdline>
J2VwaWtfcHl0aG9uJywgJy1waCcsICc3LjAnLCAnLXRuJywgJzgnLCAnLW1hJywgJzIwMCcsICctbWV0YWxfYmluZGluZycsICctaW1hZScsICc8aW5maWxlLm1hZT4nLCAnLW9tYWUnLCAnPG91dGZpbGUubWFlPic=

> <r_lp_tautomer_probability>
1

> <r_epik_Ionization_Penalty>
5.11375

> <r_epik_Ionization_Penalty_Charging>
0.0788329

> <r_epik_Ionization_Penalty_Neutral>
5.03492

> <r_epik_State_Penalty>
5.02848

> <r_epik_Charging_Adjusted_Penalty>
5.10731

> <i_epik_Tot_Q>
-1

> <i_epik_Tot_abs_Q>
1

> <r_epik_Metal_State_Penalty>
1.14014

> <b_epik_Metal_Only>
1

> <s_lp_Force_Field>
OPLS_2005

> <r_lp_Energy>
43.1913

> <b_lp_Chiralities_Consistent>
1

> <s_lp_Variant>
AV-unprocessed.smi:535-3

> <Gold.Version>
5.8.1

> <Gold.Id.Protein>
6NUR|6NUR_protein|mol2

> <Gold.PLP.Fitness>
38.2960

> <Gold.PLP.PLP>
-27.0288

> <Gold.PLP.part.hbond>
-3.7590

> <Gold.PLP.part.metal>
0.0000

> <Gold.PLP.part.buried>
-4.1727

> <Gold.PLP.part.nonpolar>
-20.2154

> <Gold.PLP.part.repulsive>
0.1033

> <Gold.PLP.ligand.clash>
0.0000

> <Gold.PLP.ligand.torsion>
0.5515

> <Gold.PLP.Chemscore.Hbond>
3.9600

> <Gold.PLP.Chemscore.CHOScore>
0.0000

> <Gold.PLP.Chemscore.Metal>
0.0000

> <Gold.Chemscore.Hbonds>
donor molecule, donor type, donor heavy atom, donor atom, acceptor molecule, acceptor atom, score
      P1  H  6896  6908       L1     2  0.86
      P1  H  7997  8010       L1    21  0.86
      P1  H 10752 10763       L1    19  1.56

> <Gold.PLP.Chemscore.Internal.Correction>
0.4902

> <Gold.Rescore>
     Score         DG    S(hbond)    S(metal)    S(lipo)     H(rot)  DE(clash)    DE(int)     intcor
     12.38     -15.77       2.22        0.00      56.18       1.44       0.09       3.30       ----

> <Gold.Chemscore.Fitness>
12.3826

> <Gold.Chemscore.DG>
-15.7731

> <Gold.Chemscore.ZeroCoef>
-5.4800

> <Gold.Chemscore.Hbond>
2.2153

> <Gold.Chemscore.Metal>
0.0000

> <Gold.Chemscore.Lipo>
56.1821

> <Gold.Chemscore.Internal_Hbond>
0.0000

> <Gold.Chemscore.DEClash>
0.0934

> <Gold.Chemscore.DEInternal>
3.2971

> <Gold.Chemscore.Rot>
1.4372

> <Gold.Chemscore.Internal.Correction>
   9.000000E+99

> <Gold.Chemscore.Hbonds>
donor molecule, donor type, donor heavy atom, donor atom, acceptor molecule, acceptor atom, score
      P1  H  6896  6908       L1     2  0.66
      P1  H  7997  8010       L1    21  0.85
      P1  H 10752 10763       L1    19  0.29

> <Gold.Chemscore.Hbond.Weighted>
-7.3991

> <Gold.Chemscore.Metal.Weighted>
-0.0000

> <Gold.Chemscore.Lipo.Weighted>
-6.5733

> <Gold.Chemscore.Internal_Hbond.Weighted>
0.0000

> <Gold.Chemscore.DEClash.Weighted>
0.0934

> <Gold.Chemscore.DEInternal.Weighted>
3.2971

> <Gold.Chemscore.Rot.Weighted>
3.6793

> <Gold.Chemscore.Internal.Correction.Weighted>
   9.000000E+99

> <Gold.Protein.RotatedTorsions>
[ 6907 6896 6895 6894 ] final   99.35 input  -60.11 | X-H torsion
[ 7974 7965 7964 7962 ] final   61.54 input  175.53 | X-H torsion
[ 8008 7997 7996 7995 ] final   65.38 input   59.86 | X-H torsion
[ 10167 10162 10161 10158 ] final -149.88 input  -65.29 | X-H torsion
[ 10718 10713 10712 10709 ] final   91.80 input   66.30 | X-H torsion
[ 10763 10752 10751 10750 ] final   76.58 input  -60.55 | X-H torsion
[ 11005 11000 10999 10996 ] final  162.58 input  -57.11 | X-H torsion

> <Gold.Protein.ActiveResidues>
 VAL166  LYS551  ARG553  GLY616  TRP617  ASP618  TYR619  PRO620  LYS621  CYS622 
 ASP623  PHE694  ASN695  SER759  ASP760  ASP761  ALA762  ILE779  LEU786  VAL792 
 PHE793  MET794  SER795  GLU796  ALA797  LYS798  CYS799  TRP800  GLU811  SER814 

> <Gold.Protein.RotatedAtoms>
  152.5393  134.0441  159.8080 H   0  0  0  0  0  0  0  0  0  0  0  0  # atno 6907 bound_to 6896
  151.0593  133.5550  159.2643 H   0  0  0  0  0  0  0  0  0  0  0  0  # atno 6908 bound_to 6896
  151.2455  135.0612  159.9095 H   0  0  0  0  0  0  0  0  0  0  0  0  # atno 6909 bound_to 6896
  145.8836  139.3460  143.0691 H   0  0  0  0  0  0  0  0  0  0  0  0  # atno 7974 bound_to 7965
  155.6608  140.3497  155.4782 H   0  0  0  0  0  0  0  0  0  0  0  0  # atno 8008 bound_to 7997
  155.9770  140.1167  157.0784 H   0  0  0  0  0  0  0  0  0  0  0  0  # atno 8009 bound_to 7997
  154.4181  140.1145  156.5370 H   0  0  0  0  0  0  0  0  0  0  0  0  # atno 8010 bound_to 7997
  139.7403  143.8672  152.2560 H   0  0  0  0  0  0  0  0  0  0  0  0  # atno 10167 bound_to 10162
  157.6960  131.0420  150.3785 H   0  0  0  0  0  0  0  0  0  0  0  0  # atno 10718 bound_to 10713
  153.0736  135.4946  154.8357 H   0  0  0  0  0  0  0  0  0  0  0  0  # atno 10763 bound_to 10752
  154.7056  135.3010  154.9277 H   0  0  0  0  0  0  0  0  0  0  0  0  # atno 10764 bound_to 10752
  153.9987  135.6769  153.4811 H   0  0  0  0  0  0  0  0  0  0  0  0  # atno 10765 bound_to 10752
  140.2272  134.8151  157.3280 H   0  0  0  0  0  0  0  0  0  0  0  0  # atno 11005 bound_to 11000
  145.8994  140.9253  143.0511 LP  0  0  0  0  0  0  0  0  0  0  0  0  # atno 17320 bound_to 7965
  144.6728  140.1012  143.7460 LP  0  0  0  0  0  0  0  0  0  0  0  0  # atno 17321 bound_to 7965
  139.8620  144.7112  150.9088 LP  0  0  0  0  0  0  0  0  0  0  0  0  # atno 17342 bound_to 10162
  140.7785  143.3809  151.1478 LP  0  0  0  0  0  0  0  0  0  0  0  0  # atno 17343 bound_to 10162
  156.4202  130.3951  149.6830 LP  0  0  0  0  0  0  0  0  0  0  0  0  # atno 17370 bound_to 10713
  156.4084  130.7710  151.2721 LP  0  0  0  0  0  0  0  0  0  0  0  0  # atno 17371 bound_to 10713
  140.1788  134.4516  155.7785 LP  0  0  0  0  0  0  0  0  0  0  0  0  # atno 17394 bound_to 11000
  141.2220  133.6974  156.7833 LP  0  0  0  0  0  0  0  0  0  0  0  0  # atno 17395 bound_to 11000

$$$$
