AV-unprocessed.smi:213|AV-procd|sdf|1633|dock10
  -GOLD-   2262019593D 1   1.00000     0.00000
 Structure written by MMmdl.
 59 62  0  0  0  0  0  0  0  0  2 V2000
  145.3372  137.6558  155.2678 C   0  0  0  0  0  0  0  0  0  0  0  0
  145.9788  137.2537  153.9297 C   0  0  2  0  0  0  0  0  0  0  0  0
  146.4329  135.7731  153.9473 C   0  0  0  0  0  0  0  0  0  0  0  0
  146.3316  135.1169  152.6186 N   0  3  0  0  0  0  0  0  0  0  0  0
  146.6004  133.6619  152.6653 C   0  0  0  0  0  0  0  0  0  0  0  0
  146.5806  133.0767  151.2431 C   0  0  0  0  0  0  0  0  0  0  0  0
  145.3265  133.3512  150.6303 O   0  0  0  0  0  0  0  0  0  0  0  0
  145.0847  134.7480  150.5099 C   0  0  0  0  0  0  0  0  0  0  0  0
  145.0578  135.3880  151.9078 C   0  0  0  0  0  0  0  0  0  0  0  0
  147.0605  138.1773  153.5516 N   0  0  0  0  0  0  0  0  0  0  0  0
  146.7725  139.2852  152.6406 C   0  0  0  0  0  0  0  0  0  0  0  0
  148.0212  138.3930  154.4894 C   0  0  0  0  0  0  0  0  0  0  0  0
  148.4521  137.3526  155.2532 N   0  0  0  0  0  0  0  0  0  0  0  0
  149.4401  137.5236  156.1358 C   0  0  0  0  0  0  0  0  0  0  0  0
  150.1336  138.6304  156.4043 N   0  0  0  0  0  0  0  0  0  0  0  0
  149.6980  139.6820  155.6541 C   0  0  0  0  0  0  0  0  0  0  0  0
  148.6537  139.6537  154.6872 C   0  0  0  0  0  0  0  0  0  0  0  0
  148.4931  140.9175  154.1310 N   0  0  0  0  0  0  0  0  0  0  0  0
  149.3961  141.6477  154.7263 C   0  0  0  0  0  0  0  0  0  0  0  0
  150.1720  140.9816  155.6467 N   0  0  0  0  0  0  0  0  0  0  0  0
  151.2556  141.5418  156.4365 C   0  0  0  0  0  0  0  0  0  0  0  0
  150.7824  142.0411  157.8192 C   0  0  2  0  0  0  0  0  0  0  0  0
  149.5638  142.7403  157.6472 O   0  0  0  0  0  0  0  0  0  0  0  0
  151.7857  142.9992  158.4925 C   0  0  2  0  0  0  0  0  0  0  0  0
  151.3403  143.5509  159.8475 C   0  0  0  0  0  0  0  0  0  0  0  0
  152.1626  144.8189  159.9923 C   0  0  0  0  0  0  0  0  0  0  0  0
  152.5229  145.1838  158.5501 C   0  0  0  0  0  0  0  0  0  0  0  0
  151.8930  144.1990  157.7400 O   0  0  0  0  0  0  0  0  0  0  0  0
  144.4586  137.0441  155.4742 H   0  0  0  0  0  0  0  0  0  0  0  0
  145.0131  138.6968  155.2498 H   0  0  0  0  0  0  0  0  0  0  0  0
  146.0223  137.5305  156.1063 H   0  0  0  0  0  0  0  0  0  0  0  0
  145.1770  137.3345  153.1991 H   0  0  0  0  0  0  0  0  0  0  0  0
  147.4673  135.7304  154.2910 H   0  0  0  0  0  0  0  0  0  0  0  0
  145.8515  135.2034  154.6738 H   0  0  0  0  0  0  0  0  0  0  0  0
  147.5740  133.4790  153.1216 H   0  0  0  0  0  0  0  0  0  0  0  0
  145.8529  133.1691  153.2887 H   0  0  0  0  0  0  0  0  0  0  0  0
  147.3909  133.4915  150.6409 H   0  0  0  0  0  0  0  0  0  0  0  0
  146.7288  131.9973  151.2776 H   0  0  0  0  0  0  0  0  0  0  0  0
  145.8495  135.2103  149.8842 H   0  0  0  0  0  0  0  0  0  0  0  0
  144.1295  134.9011  150.0076 H   0  0  0  0  0  0  0  0  0  0  0  0
  144.2223  134.9903  152.4859 H   0  0  0  0  0  0  0  0  0  0  0  0
  144.8938  136.4600  151.8067 H   0  0  0  0  0  0  0  0  0  0  0  0
  147.6949  139.7571  152.2994 H   0  0  0  0  0  0  0  0  0  0  0  0
  146.1604  140.0440  153.1290 H   0  0  0  0  0  0  0  0  0  0  0  0
  146.2430  138.9399  151.7537 H   0  0  0  0  0  0  0  0  0  0  0  0
  149.7222  136.6467  156.6997 H   0  0  0  0  0  0  0  0  0  0  0  0
  149.5283  142.6968  154.5029 H   0  0  0  0  0  0  0  0  0  0  0  0
  152.0199  140.7719  156.5461 H   0  0  0  0  0  0  0  0  0  0  0  0
  151.7145  142.3574  155.8761 H   0  0  0  0  0  0  0  0  0  0  0  0
  150.6037  141.1822  158.4677 H   0  0  0  0  0  0  0  0  0  0  0  0
  149.6388  143.2834  156.8781 H   0  0  0  0  0  0  0  0  0  0  0  0
  152.7688  142.5340  158.5915 H   0  0  0  0  0  0  0  0  0  0  0  0
  150.2794  143.8044  159.8203 H   0  0  0  0  0  0  0  0  0  0  0  0
  151.5011  142.8494  160.6666 H   0  0  0  0  0  0  0  0  0  0  0  0
  151.6019  145.6083  160.4932 H   0  0  0  0  0  0  0  0  0  0  0  0
  153.0681  144.6291  160.5697 H   0  0  0  0  0  0  0  0  0  0  0  0
  152.1775  146.1809  158.2765 H   0  0  0  0  0  0  0  0  0  0  0  0
  153.6024  145.1437  158.4002 H   0  0  0  0  0  0  0  0  0  0  0  0
  147.0702  135.5147  152.0550 H   0  0  0  0  0  0  0  0  0  0  0  0
  1  2  1  0  0  0  0
  1 29  1  0  0  0  0
  1 30  1  0  0  0  0
  1 31  1  0  0  0  0
  2  3  1  0  0  0  0
  2 10  1  0  0  0  0
  2 32  1  0  0  0  0
  3  4  1  0  0  0  0
  3 33  1  0  0  0  0
  3 34  1  0  0  0  0
  4  9  1  0  0  0  0
  4  5  1  0  0  0  0
  4 59  1  0  0  0  0
  5  6  1  0  0  0  0
  5 35  1  0  0  0  0
  5 36  1  0  0  0  0
  6  7  1  0  0  0  0
  6 37  1  0  0  0  0
  6 38  1  0  0  0  0
  7  8  1  0  0  0  0
  8  9  1  0  0  0  0
  8 39  1  0  0  0  0
  8 40  1  0  0  0  0
  9 41  1  0  0  0  0
  9 42  1  0  0  0  0
 10 11  1  0  0  0  0
 10 12  1  0  0  0  0
 11 43  1  0  0  0  0
 11 44  1  0  0  0  0
 11 45  1  0  0  0  0
 12 17  1  0  0  0  0
 12 13  2  0  0  0  0
 13 14  1  0  0  0  0
 14 15  2  0  0  0  0
 14 46  1  0  0  0  0
 15 16  1  0  0  0  0
 16 20  1  0  0  0  0
 16 17  2  0  0  0  0
 17 18  1  0  0  0  0
 18 19  2  0  0  0  0
 19 20  1  0  0  0  0
 19 47  1  0  0  0  0
 20 21  1  0  0  0  0
 21 22  1  0  0  0  0
 21 48  1  0  0  0  0
 21 49  1  0  0  0  0
 22 23  1  0  0  0  0
 22 24  1  0  0  0  0
 22 50  1  0  0  0  0
 23 51  1  0  0  0  0
 24 28  1  0  0  0  0
 24 25  1  0  0  0  0
 24 52  1  0  0  0  0
 25 26  1  0  0  0  0
 25 53  1  0  0  0  0
 25 54  1  0  0  0  0
 26 27  1  0  0  0  0
 26 55  1  0  0  0  0
 26 56  1  0  0  0  0
 27 28  1  0  0  0  0
 27 57  1  0  0  0  0
 27 58  1  0  0  0  0
M  CHG  1   4   1
M  END
> <s_m_source_file>
AV-unprocessed.smi

> <i_m_source_file_index>
213

> <i_lp_mmshare_version>
43012

> <i_f3d_flags>
0

> <s_epik_input>
W0NIMl0xW0NIMl1PW0NIMl1bQ0gyXU4xW0NIMl1bQ0BASF0oW0NIM10pTihbQ0gzXSljKG5bY0hdbjIpYyhjMjMpbltjSF1uM1tDSDJdW0NASF0oW09IXSlbQ0BASF00W0NIMl1bQ0gyXVtDSDJdTzQ=

> <s_epik_cmdline>
J2VwaWtfcHl0aG9uJywgJy1waCcsICc3LjAnLCAnLXRuJywgJzgnLCAnLW1hJywgJzIwMCcsICctbWV0YWxfYmluZGluZycsICctaW1hZScsICc8aW5maWxlLm1hZT4nLCAnLW9tYWUnLCAnPG91dGZpbGUubWFlPic=

> <r_lp_tautomer_probability>
1

> <r_epik_Ionization_Penalty>
0.399679

> <r_epik_Ionization_Penalty_Charging>
0.399433

> <r_epik_Ionization_Penalty_Neutral>
0.000246213

> <r_epik_State_Penalty>
0.286032

> <r_epik_Charging_Adjusted_Penalty>
0.685465

> <i_epik_Tot_Q>
1

> <i_epik_Tot_abs_Q>
1

> <r_epik_Metal_State_Penalty>
0.286072

> <b_epik_Metal_Only>
0

> <s_lp_Force_Field>
OPLS_2005

> <r_lp_Energy>
46.7886

> <b_lp_Chiralities_Consistent>
1

> <s_lp_Variant>
AV-unprocessed.smi:213-1

> <Gold.Version>
5.8.1

> <Gold.Id.Protein>
6NUR|6NUR_protein|mol2

> <Gold.PLP.Fitness>
50.0661

> <Gold.PLP.PLP>
-40.2394

> <Gold.PLP.part.hbond>
-2.0000

> <Gold.PLP.part.metal>
0.0000

> <Gold.PLP.part.buried>
-3.1106

> <Gold.PLP.part.nonpolar>
-33.2854

> <Gold.PLP.part.repulsive>
0.4826

> <Gold.PLP.ligand.clash>
0.0000

> <Gold.PLP.ligand.torsion>
1.6437

> <Gold.PLP.Chemscore.Hbond>
3.0000

> <Gold.PLP.Chemscore.CHOScore>
1.0000

> <Gold.PLP.Chemscore.Metal>
0.0000

> <Gold.Chemscore.Hbonds>
donor molecule, donor type, donor heavy atom, donor atom, acceptor molecule, acceptor atom, score
      L1  H     4    59       P1  7948  2.00
      L1  H    23    51       P1  8028  0.99
      L1  C    19    47       P1  8028  1.00

> <Gold.PLP.Chemscore.Internal.Correction>
1.1141

> <Gold.Rescore>
     Score         DG    S(hbond)    S(metal)    S(lipo)     H(rot)  DE(clash)    DE(int)     intcor
     12.00     -16.46       1.93        0.00     100.74       2.83       0.18       4.28       ----

> <Gold.Chemscore.Fitness>
12.0002

> <Gold.Chemscore.DG>
-16.4644

> <Gold.Chemscore.ZeroCoef>
-5.4800

> <Gold.Chemscore.Hbond>
1.9255

> <Gold.Chemscore.Metal>
0.0000

> <Gold.Chemscore.Lipo>
100.7375

> <Gold.Chemscore.Internal_Hbond>
0.0000

> <Gold.Chemscore.DEClash>
0.1798

> <Gold.Chemscore.DEInternal>
4.2843

> <Gold.Chemscore.Rot>
2.8254

> <Gold.Chemscore.Internal.Correction>
   9.000000E+99

> <Gold.Chemscore.Hbonds>
donor molecule, donor type, donor heavy atom, donor atom, acceptor molecule, acceptor atom, score
      L1  H     4    59       P1  7948  0.93
      L1  H    23    51       P1  8028  0.88

> <Gold.Chemscore.Hbond.Weighted>
-6.4311

> <Gold.Chemscore.Metal.Weighted>
-0.0000

> <Gold.Chemscore.Lipo.Weighted>
-11.7863

> <Gold.Chemscore.Internal_Hbond.Weighted>
0.0000

> <Gold.Chemscore.DEClash.Weighted>
0.1798

> <Gold.Chemscore.DEInternal.Weighted>
4.2843

> <Gold.Chemscore.Rot.Weighted>
7.2330

> <Gold.Chemscore.Internal.Correction.Weighted>
   9.000000E+99

> <Gold.Protein.RotatedTorsions>
[ 6907 6896 6895 6894 ] final   57.72 input  -60.11 | X-H torsion
[ 7974 7965 7964 7962 ] final -104.41 input  175.53 | X-H torsion
[ 8008 7997 7996 7995 ] final  -13.16 input   59.86 | X-H torsion
[ 10167 10162 10161 10158 ] final  -56.15 input  -65.29 | X-H torsion
[ 10718 10713 10712 10709 ] final   71.53 input   66.30 | X-H torsion
[ 10763 10752 10751 10750 ] final   61.83 input  -60.55 | X-H torsion
[ 11005 11000 10999 10996 ] final   82.76 input  -57.11 | X-H torsion

> <Gold.Protein.ActiveResidues>
 VAL166  LYS551  ARG553  GLY616  TRP617  ASP618  TYR619  PRO620  LYS621  CYS622 
 ASP623  PHE694  ASN695  SER759  ASP760  ASP761  ALA762  ILE779  LEU786  VAL792 
 PHE793  MET794  SER795  GLU796  ALA797  LYS798  CYS799  TRP800  GLU811  SER814 

> <Gold.Protein.RotatedAtoms>
  152.3758  134.6666  160.0160 H   0  0  0  0  0  0  0  0  0  0  0  0  # atno 6907 bound_to 6896
  151.6944  133.3305  159.3259 H   0  0  0  0  0  0  0  0  0  0  0  0  # atno 6908 bound_to 6896
  150.7708  134.6606  159.6382 H   0  0  0  0  0  0  0  0  0  0  0  0  # atno 6909 bound_to 6896
  145.2435  140.9213  143.3136 H   0  0  0  0  0  0  0  0  0  0  0  0  # atno 7974 bound_to 7965
  154.5316  140.2257  155.8794 H   0  0  0  0  0  0  0  0  0  0  0  0  # atno 8008 bound_to 7997
  156.1769  140.3109  155.9040 H   0  0  0  0  0  0  0  0  0  0  0  0  # atno 8009 bound_to 7997
  155.3439  140.0452  157.3036 H   0  0  0  0  0  0  0  0  0  0  0  0  # atno 8010 bound_to 7997
  140.6334  143.2470  151.5182 H   0  0  0  0  0  0  0  0  0  0  0  0  # atno 10167 bound_to 10162
  157.6456  130.9533  150.0802 H   0  0  0  0  0  0  0  0  0  0  0  0  # atno 10718 bound_to 10713
  152.9963  135.5487  154.6096 H   0  0  0  0  0  0  0  0  0  0  0  0  # atno 10763 bound_to 10752
  154.5420  135.2820  155.1089 H   0  0  0  0  0  0  0  0  0  0  0  0  # atno 10764 bound_to 10752
  154.2363  135.6424  153.5245 H   0  0  0  0  0  0  0  0  0  0  0  0  # atno 10765 bound_to 10752
  139.9053  134.8095  156.2218 H   0  0  0  0  0  0  0  0  0  0  0  0  # atno 11005 bound_to 11000
  144.9567  139.4023  143.6376 LP  0  0  0  0  0  0  0  0  0  0  0  0  # atno 17320 bound_to 7965
  146.3322  139.8601  142.8858 LP  0  0  0  0  0  0  0  0  0  0  0  0  # atno 17321 bound_to 7965
  139.5546  144.2309  152.1590 LP  0  0  0  0  0  0  0  0  0  0  0  0  # atno 17342 bound_to 10162
  140.1558  144.5072  150.6661 LP  0  0  0  0  0  0  0  0  0  0  0  0  # atno 17343 bound_to 10162
  156.1780  130.3649  149.9073 LP  0  0  0  0  0  0  0  0  0  0  0  0  # atno 17370 bound_to 10713
  156.7033  130.8941  151.3602 LP  0  0  0  0  0  0  0  0  0  0  0  0  # atno 17371 bound_to 10713
  141.0400  133.6942  156.1582 LP  0  0  0  0  0  0  0  0  0  0  0  0  # atno 17394 bound_to 11000
  140.6969  134.4606  157.5587 LP  0  0  0  0  0  0  0  0  0  0  0  0  # atno 17395 bound_to 11000

$$$$
