AV-unprocessed.smi:3065|AV-procd|sdf|11692|dock1
  -GOLD-   2272017 93D 1   1.00000     0.00000
 Structure written by MMmdl.
 24 25  0  0  0  0  0  0  0  0  2 V2000
  149.1486  140.3411  154.0931 C   0  0  0  0  0  0  0  0  0  0  0  0
  148.3478  141.3578  154.5312 N   0  0  0  0  0  0  0  0  0  0  0  0
  149.0793  141.7952  155.5465 C   0  0  0  0  0  0  0  0  0  0  0  0
  150.2144  141.1170  155.7233 N   0  0  0  0  0  0  0  0  0  0  0  0
  151.2649  141.2765  156.7114 C   0  0  0  0  0  0  0  0  0  0  0  0
  151.0063  142.4679  157.6517 C   0  0  1  0  0  0  0  0  0  0  0  0
  151.8508  142.4826  158.9304 C   0  0  0  0  0  0  0  0  0  0  0  0
  151.8502  143.9558  159.3197 C   0  0  0  0  0  0  0  0  0  0  0  0
  151.8876  144.6769  157.9705 C   0  0  0  0  0  0  0  0  0  0  0  0
  151.2713  143.7609  156.9891 N   0  3  0  0  0  0  0  0  0  0  0  0
  150.2794  140.1537  154.7745 N   0  0  0  0  0  0  0  0  0  0  0  0
  148.8898  139.7194  153.2484 H   0  0  0  0  0  0  0  0  0  0  0  0
  148.7801  142.6220  156.1739 H   0  0  0  0  0  0  0  0  0  0  0  0
  151.3491  140.3515  157.2846 H   0  0  0  0  0  0  0  0  0  0  0  0
  152.2120  141.4065  156.1862 H   0  0  0  0  0  0  0  0  0  0  0  0
  149.9543  142.4736  157.9416 H   0  0  0  0  0  0  0  0  0  0  0  0
  151.4484  141.8377  159.7126 H   0  0  0  0  0  0  0  0  0  0  0  0
  152.8708  142.1583  158.7174 H   0  0  0  0  0  0  0  0  0  0  0  0
  150.9250  144.1978  159.8448 H   0  0  0  0  0  0  0  0  0  0  0  0
  152.6851  144.2250  159.9674 H   0  0  0  0  0  0  0  0  0  0  0  0
  151.3696  145.6359  158.0004 H   0  0  0  0  0  0  0  0  0  0  0  0
  152.9193  144.8606  157.6681 H   0  0  0  0  0  0  0  0  0  0  0  0
  151.9198  143.6228  156.2270 H   0  0  0  0  0  0  0  0  0  0  0  0
  150.4085  144.1476  156.6338 H   0  0  0  0  0  0  0  0  0  0  0  0
  1 11  2  0  0  0  0
  1  2  1  0  0  0  0
  1 12  1  0  0  0  0
  2  3  2  0  0  0  0
  3  4  1  0  0  0  0
  3 13  1  0  0  0  0
  4  5  1  0  0  0  0
  4 11  1  0  0  0  0
  5  6  1  0  0  0  0
  5 14  1  0  0  0  0
  5 15  1  0  0  0  0
  6 10  1  0  0  0  0
  6  7  1  0  0  0  0
  6 16  1  0  0  0  0
  7  8  1  0  0  0  0
  7 17  1  0  0  0  0
  7 18  1  0  0  0  0
  8  9  1  0  0  0  0
  8 19  1  0  0  0  0
  8 20  1  0  0  0  0
  9 10  1  0  0  0  0
  9 21  1  0  0  0  0
  9 22  1  0  0  0  0
 10 23  1  0  0  0  0
 10 24  1  0  0  0  0
M  CHG  1  10   1
M  END
> <s_m_source_file>
AV-unprocessed.smi

> <i_m_source_file_index>
3065

> <i_lp_mmshare_version>
43012

> <i_f3d_flags>
0

> <s_epik_input>
bjFbY0hdbltjSF1uMVtDSDJdW0NAQEhdMltDSDJdW0NIMl1bQ0gyXVtOSF0y

> <s_epik_cmdline>
J2VwaWtfcHl0aG9uJywgJy1waCcsICc3LjAnLCAnLXRuJywgJzgnLCAnLW1hJywgJzIwMCcsICctbWV0YWxfYmluZGluZycsICctaW1hZScsICc8aW5maWxlLm1hZT4nLCAnLW9tYWUnLCAnPG91dGZpbGUubWFlPic=

> <r_lp_tautomer_probability>
1

> <r_epik_Ionization_Penalty>
0.000581652

> <r_epik_Ionization_Penalty_Charging>
0.000580891

> <r_epik_Ionization_Penalty_Neutral>
7.60238e-07

> <r_epik_State_Penalty>
0.000365066

> <r_epik_Charging_Adjusted_Penalty>
0.000945958

> <i_epik_Tot_Q>
1

> <i_epik_Tot_abs_Q>
1

> <r_epik_Metal_State_Penalty>
-0

> <b_epik_Metal_Only>
0

> <s_lp_Force_Field>
OPLS_2005

> <r_lp_Energy>
26.7057

> <b_lp_Chiralities_Consistent>
1

> <s_lp_Variant>
AV-unprocessed.smi:3065-2

> <Gold.Version>
5.8.1

> <Gold.Id.Protein>
6NUR|6NUR_protein|mol2

> <Gold.PLP.Fitness>
38.0463

> <Gold.PLP.PLP>
-23.5021

> <Gold.PLP.part.hbond>
-2.0000

> <Gold.PLP.part.metal>
0.0000

> <Gold.PLP.part.buried>
0.6996

> <Gold.PLP.part.nonpolar>
-21.3802

> <Gold.PLP.part.repulsive>
0.2336

> <Gold.PLP.ligand.clash>
0.0000

> <Gold.PLP.ligand.torsion>
0.1194

> <Gold.PLP.Chemscore.Hbond>
3.0000

> <Gold.PLP.Chemscore.CHOScore>
1.9275

> <Gold.PLP.Chemscore.Metal>
0.0000

> <Gold.Chemscore.Hbonds>
donor molecule, donor type, donor heavy atom, donor atom, acceptor molecule, acceptor atom, score
      L1  H    10    24       P1  8028  2.00
      P1  H  7989  7998       L1    11  1.00
      L1  C     1    12       P1  7957  0.90
      L1  C     3    13       P1  8028  0.93

> <Gold.PLP.Chemscore.Internal.Correction>
0.0005

> <Gold.Rescore>
     Score         DG    S(hbond)    S(metal)    S(lipo)     H(rot)  DE(clash)    DE(int)     intcor
     13.20     -13.69       1.85        0.00      50.63       1.52       0.04       0.45       ----

> <Gold.Chemscore.Fitness>
13.2035

> <Gold.Chemscore.DG>
-13.6895

> <Gold.Chemscore.ZeroCoef>
-5.4800

> <Gold.Chemscore.Hbond>
1.8516

> <Gold.Chemscore.Metal>
0.0000

> <Gold.Chemscore.Lipo>
50.6269

> <Gold.Chemscore.Internal_Hbond>
0.0000

> <Gold.Chemscore.DEClash>
0.0402

> <Gold.Chemscore.DEInternal>
0.4457

> <Gold.Chemscore.Rot>
1.5227

> <Gold.Chemscore.Internal.Correction>
   9.000000E+99

> <Gold.Chemscore.Hbonds>
donor molecule, donor type, donor heavy atom, donor atom, acceptor molecule, acceptor atom, score
      L1  H    10    24       P1  8028  1.00
      P1  H  7989  7998       L1    11  0.11

> <Gold.Chemscore.Hbond.Weighted>
-6.1842

> <Gold.Chemscore.Metal.Weighted>
-0.0000

> <Gold.Chemscore.Lipo.Weighted>
-5.9234

> <Gold.Chemscore.Internal_Hbond.Weighted>
0.0000

> <Gold.Chemscore.DEClash.Weighted>
0.0402

> <Gold.Chemscore.DEInternal.Weighted>
0.4457

> <Gold.Chemscore.Rot.Weighted>
3.8981

> <Gold.Chemscore.Internal.Correction.Weighted>
   9.000000E+99

> <Gold.Protein.RotatedTorsions>
[ 6907 6896 6895 6894 ] final  -27.41 input  -60.11 | X-H torsion
[ 7974 7965 7964 7962 ] final -120.25 input  175.53 | X-H torsion
[ 8008 7997 7996 7995 ] final -106.74 input   59.86 | X-H torsion
[ 10167 10162 10161 10158 ] final   -3.37 input  -65.29 | X-H torsion
[ 10718 10713 10712 10709 ] final   38.31 input   66.30 | X-H torsion
[ 10763 10752 10751 10750 ] final -132.81 input  -60.55 | X-H torsion
[ 11005 11000 10999 10996 ] final  -67.23 input  -57.11 | X-H torsion

> <Gold.Protein.ActiveResidues>
 VAL166  LYS551  ARG553  GLY616  TRP617  ASP618  TYR619  PRO620  LYS621  CYS622 
 ASP623  PHE694  ASN695  SER759  ASP760  ASP761  ALA762  ILE779  LEU786  VAL792 
 PHE793  MET794  SER795  GLU796  ALA797  LYS798  CYS799  TRP800  GLU811  SER814 

> <Gold.Protein.RotatedAtoms>
  151.1472  135.0209  159.8651 H   0  0  0  0  0  0  0  0  0  0  0  0  # atno 6907 bound_to 6896
  152.5453  134.1430  159.8497 H   0  0  0  0  0  0  0  0  0  0  0  0  # atno 6908 bound_to 6896
  151.1512  133.4861  159.2628 H   0  0  0  0  0  0  0  0  0  0  0  0  # atno 6909 bound_to 6896
  145.0535  140.8236  143.4195 H   0  0  0  0  0  0  0  0  0  0  0  0  # atno 7974 bound_to 7965
  154.9191  140.0408  157.1988 H   0  0  0  0  0  0  0  0  0  0  0  0  # atno 8008 bound_to 7997
  154.8272  140.2893  155.5725 H   0  0  0  0  0  0  0  0  0  0  0  0  # atno 8009 bound_to 7997
  156.2984  140.2507  156.3191 H   0  0  0  0  0  0  0  0  0  0  0  0  # atno 8010 bound_to 7997
  140.6887  143.6548  150.8318 H   0  0  0  0  0  0  0  0  0  0  0  0  # atno 10167 bound_to 10162
  157.3573  130.7631  149.7022 H   0  0  0  0  0  0  0  0  0  0  0  0  # atno 10718 bound_to 10713
  154.8739  135.3786  154.4470 H   0  0  0  0  0  0  0  0  0  0  0  0  # atno 10763 bound_to 10752
  153.5150  135.7029  153.5766 H   0  0  0  0  0  0  0  0  0  0  0  0  # atno 10764 bound_to 10752
  153.4038  135.3941  155.1971 H   0  0  0  0  0  0  0  0  0  0  0  0  # atno 10765 bound_to 10752
  141.1503  133.6715  156.6261 H   0  0  0  0  0  0  0  0  0  0  0  0  # atno 11005 bound_to 11000
  145.1498  139.2521  143.5447 LP  0  0  0  0  0  0  0  0  0  0  0  0  # atno 17320 bound_to 7965
  146.3519  140.1197  142.8600 LP  0  0  0  0  0  0  0  0  0  0  0  0  # atno 17321 bound_to 7965
  140.0258  143.5494  152.2781 LP  0  0  0  0  0  0  0  0  0  0  0  0  # atno 17342 bound_to 10162
  139.6269  144.7638  151.2619 LP  0  0  0  0  0  0  0  0  0  0  0  0  # atno 17343 bound_to 10162
  155.9731  130.4123  150.4028 LP  0  0  0  0  0  0  0  0  0  0  0  0  # atno 17370 bound_to 10713
  157.2100  131.0458  151.2604 LP  0  0  0  0  0  0  0  0  0  0  0  0  # atno 17371 bound_to 10713
  140.3503  134.7774  157.4462 LP  0  0  0  0  0  0  0  0  0  0  0  0  # atno 17394 bound_to 11000
  140.0866  134.5658  155.8486 LP  0  0  0  0  0  0  0  0  0  0  0  0  # atno 17395 bound_to 11000

$$$$
