AV-unprocessed.smi:325|AV-procd|sdf|2342|dock8
  -GOLD-   2262022253D 1   1.00000     0.00000
 Structure written by MMmdl.
 46 47  0  0  0  0  0  0  0  0  1 V2000
  148.4550  141.6754  154.3425 C   0  0  0  0  0  0  0  0  0  0  0  0
  149.6712  141.3663  155.1976 C   0  0  0  0  0  0  0  0  0  0  0  0
  150.0014  142.3552  156.1060 N   0  0  0  0  0  0  0  0  0  0  0  0
  151.1059  142.1796  156.9307 C   0  0  0  0  0  0  0  0  0  0  0  0
  151.3543  143.2422  157.7992 N   0  0  0  0  0  0  0  0  0  0  0  0
  151.1808  144.6188  157.3339 C   0  0  0  0  0  0  0  0  0  0  0  0
  151.0149  145.5901  158.5148 C   0  0  0  0  0  0  0  0  0  0  0  0
  152.1249  145.4683  159.3939 O   0  0  0  0  0  0  0  0  0  0  0  0
  152.2179  144.1571  159.9346 C   0  0  0  0  0  0  0  0  0  0  0  0
  152.4189  143.1413  158.7977 C   0  0  0  0  0  0  0  0  0  0  0  0
  151.8434  141.1067  156.9080 N   0  0  0  0  0  0  0  0  0  0  0  0
  151.5509  140.0611  156.0196 C   0  0  0  0  0  0  0  0  0  0  0  0
  152.2414  139.0433  156.0054 O   0  0  0  0  0  0  0  0  0  0  0  0
  150.3929  140.2233  155.1160 C   0  0  0  0  0  0  0  0  0  0  0  0
  150.0788  139.1067  154.1241 C   0  0  0  0  0  0  0  0  0  0  0  0
  148.7730  138.3681  154.4741 C   0  0  0  0  0  0  0  0  0  0  0  0
  148.9769  137.2346  155.4840 C   0  0  0  0  0  0  0  0  0  0  0  0
  148.7112  137.4000  156.6751 O   0  0  0  0  0  0  0  0  0  0  0  0
  149.4493  136.0796  154.9890 N   0  0  0  0  0  0  0  0  0  0  0  0
  149.7072  134.8684  155.7633 C   0  0  0  0  0  0  0  0  0  0  0  0
  150.7912  135.1242  156.8229 C   0  0  0  0  0  0  0  0  0  0  0  0
  150.1027  133.7299  154.8132 C   0  0  0  0  0  0  0  0  0  0  0  0
  149.4248  143.1837  156.1334 H   0  0  0  0  0  0  0  0  0  0  0  0
  147.7112  140.8842  154.4389 H   0  0  0  0  0  0  0  0  0  0  0  0
  148.7392  141.7574  153.2932 H   0  0  0  0  0  0  0  0  0  0  0  0
  147.9845  142.6148  154.6362 H   0  0  0  0  0  0  0  0  0  0  0  0
  150.3153  144.7082  156.6765 H   0  0  0  0  0  0  0  0  0  0  0  0
  152.0530  144.9007  156.7426 H   0  0  0  0  0  0  0  0  0  0  0  0
  150.9625  146.6167  158.1514 H   0  0  0  0  0  0  0  0  0  0  0  0
  150.0854  145.3942  159.0519 H   0  0  0  0  0  0  0  0  0  0  0  0
  153.0599  144.1174  160.6257 H   0  0  0  0  0  0  0  0  0  0  0  0
  151.3215  143.9230  160.5113 H   0  0  0  0  0  0  0  0  0  0  0  0
  153.3799  143.3128  158.3105 H   0  0  0  0  0  0  0  0  0  0  0  0
  152.4498  142.1349  159.2178 H   0  0  0  0  0  0  0  0  0  0  0  0
  150.9175  138.4091  154.0930 H   0  0  0  0  0  0  0  0  0  0  0  0
  150.0100  139.5142  153.1155 H   0  0  0  0  0  0  0  0  0  0  0  0
  148.0469  139.0673  154.8903 H   0  0  0  0  0  0  0  0  0  0  0  0
  148.3295  137.9623  153.5635 H   0  0  0  0  0  0  0  0  0  0  0  0
  149.6371  136.0331  153.9980 H   0  0  0  0  0  0  0  0  0  0  0  0
  148.7877  134.5718  156.2712 H   0  0  0  0  0  0  0  0  0  0  0  0
  150.9881  134.2242  157.4060 H   0  0  0  0  0  0  0  0  0  0  0  0
  150.4874  135.9050  157.5209 H   0  0  0  0  0  0  0  0  0  0  0  0
  151.7305  135.4344  156.3638 H   0  0  0  0  0  0  0  0  0  0  0  0
  150.2632  132.8013  155.3615 H   0  0  0  0  0  0  0  0  0  0  0  0
  151.0232  133.9615  154.2758 H   0  0  0  0  0  0  0  0  0  0  0  0
  149.3220  133.5443  154.0744 H   0  0  0  0  0  0  0  0  0  0  0  0
  1 24  1  0  0  0  0
  1 25  1  0  0  0  0
  1 26  1  0  0  0  0
  1  2  1  0  0  0  0
  2 14  2  0  0  0  0
  2  3  1  0  0  0  0
  3 23  1  0  0  0  0
  3  4  1  0  0  0  0
  4  5  1  0  0  0  0
  4 11  2  0  0  0  0
  5 10  1  0  0  0  0
  5  6  1  0  0  0  0
  6  7  1  0  0  0  0
  6 27  1  0  0  0  0
  6 28  1  0  0  0  0
  7  8  1  0  0  0  0
  7 29  1  0  0  0  0
  7 30  1  0  0  0  0
  8  9  1  0  0  0  0
  9 10  1  0  0  0  0
  9 31  1  0  0  0  0
  9 32  1  0  0  0  0
 10 33  1  0  0  0  0
 10 34  1  0  0  0  0
 11 12  1  0  0  0  0
 12 13  2  0  0  0  0
 12 14  1  0  0  0  0
 14 15  1  0  0  0  0
 15 16  1  0  0  0  0
 15 35  1  0  0  0  0
 15 36  1  0  0  0  0
 16 17  1  0  0  0  0
 16 37  1  0  0  0  0
 16 38  1  0  0  0  0
 17 18  2  0  0  0  0
 17 19  1  0  0  0  0
 19 20  1  0  0  0  0
 19 39  1  0  0  0  0
 20 21  1  0  0  0  0
 20 22  1  0  0  0  0
 20 40  1  0  0  0  0
 21 41  1  0  0  0  0
 21 42  1  0  0  0  0
 21 43  1  0  0  0  0
 22 44  1  0  0  0  0
 22 45  1  0  0  0  0
 22 46  1  0  0  0  0
M  END
> <s_m_source_file>
AV-unprocessed.smi

> <i_m_source_file_index>
325

> <i_lp_mmshare_version>
43012

> <i_f3d_flags>
0

> <s_epik_input>
W0NIMl0xW0NIMl1PW0NIMl1bQ0gyXU4xYyhuYzJbQ0gzXSlbbkhdYyg9TyljMltDSDJdW0NIMl1DKD1PKVtOSF1bQ0hdKFtDSDNdKVtDSDNd

> <s_epik_cmdline>
J2VwaWtfcHl0aG9uJywgJy1waCcsICc3LjAnLCAnLXRuJywgJzgnLCAnLW1hJywgJzIwMCcsICctbWV0YWxfYmluZGluZycsICctaW1hZScsICc8aW5maWxlLm1hZT4nLCAnLW9tYWUnLCAnPG91dGZpbGUubWFlPic=

> <r_lp_tautomer_probability>
0.108306

> <r_epik_Ionization_Penalty>
0.0738532

> <r_epik_Ionization_Penalty_Charging>
0.0614224

> <r_epik_Ionization_Penalty_Neutral>
0.0124309

> <r_epik_State_Penalty>
1.70966

> <r_epik_Charging_Adjusted_Penalty>
1.77108

> <i_epik_Tot_Q>
0

> <i_epik_Tot_abs_Q>
0

> <r_epik_Metal_State_Penalty>
2.67951

> <b_epik_Metal_Only>
0

> <s_lp_Force_Field>
OPLS_2005

> <r_lp_Energy>
25.9906

> <b_lp_Chiralities_Consistent>
1

> <s_lp_Variant>
AV-unprocessed.smi:325-2

> <Gold.Version>
5.8.1

> <Gold.Id.Protein>
6NUR|6NUR_protein|mol2

> <Gold.PLP.Fitness>
46.9143

> <Gold.PLP.PLP>
-42.2520

> <Gold.PLP.part.hbond>
-2.0000

> <Gold.PLP.part.metal>
0.0000

> <Gold.PLP.part.buried>
-1.1803

> <Gold.PLP.part.nonpolar>
-38.3030

> <Gold.PLP.part.repulsive>
0.1736

> <Gold.PLP.ligand.clash>
0.0000

> <Gold.PLP.ligand.torsion>
0.8374

> <Gold.PLP.Chemscore.Hbond>
2.0000

> <Gold.PLP.Chemscore.CHOScore>
0.0000

> <Gold.PLP.Chemscore.Metal>
0.0000

> <Gold.Chemscore.Hbonds>
donor molecule, donor type, donor heavy atom, donor atom, acceptor molecule, acceptor atom, score
      L1  H     3    23       P1  8028  1.00
      L1  H    19    39       P1  7948  0.54
      P1  H  7997  8010       L1    13  0.06

> <Gold.PLP.Chemscore.Internal.Correction>
0.3371

> <Gold.Rescore>
     Score         DG    S(hbond)    S(metal)    S(lipo)     H(rot)  DE(clash)    DE(int)     intcor
     17.36     -18.69       1.97        0.00      93.98       1.71       0.57       0.77       ----

> <Gold.Chemscore.Fitness>
17.3565

> <Gold.Chemscore.DG>
-18.6944

> <Gold.Chemscore.ZeroCoef>
-5.4800

> <Gold.Chemscore.Hbond>
1.9735

> <Gold.Chemscore.Metal>
0.0000

> <Gold.Chemscore.Lipo>
93.9775

> <Gold.Chemscore.Internal_Hbond>
0.0000

> <Gold.Chemscore.DEClash>
0.5724

> <Gold.Chemscore.DEInternal>
0.7655

> <Gold.Chemscore.Rot>
1.7080

> <Gold.Chemscore.Internal.Correction>
   9.000000E+99

> <Gold.Chemscore.Hbonds>
donor molecule, donor type, donor heavy atom, donor atom, acceptor molecule, acceptor atom, score
      L1  H     3    23       P1  8028  0.99
      L1  H    19    39       P1  7948  0.22
      P1  H  7997  8010       L1    13  0.02

> <Gold.Chemscore.Hbond.Weighted>
-6.5914

> <Gold.Chemscore.Metal.Weighted>
-0.0000

> <Gold.Chemscore.Lipo.Weighted>
-10.9954

> <Gold.Chemscore.Internal_Hbond.Weighted>
0.0000

> <Gold.Chemscore.DEClash.Weighted>
0.5724

> <Gold.Chemscore.DEInternal.Weighted>
0.7655

> <Gold.Chemscore.Rot.Weighted>
4.3724

> <Gold.Chemscore.Internal.Correction.Weighted>
   9.000000E+99

> <Gold.Protein.RotatedTorsions>
[ 6907 6896 6895 6894 ] final  -98.15 input  -60.11 | X-H torsion
[ 7974 7965 7964 7962 ] final -125.06 input  175.53 | X-H torsion
[ 8008 7997 7996 7995 ] final   91.74 input   59.86 | X-H torsion
[ 10167 10162 10161 10158 ] final  -44.64 input  -65.29 | X-H torsion
[ 10718 10713 10712 10709 ] final -133.09 input   66.30 | X-H torsion
[ 10763 10752 10751 10750 ] final  -20.40 input  -60.55 | X-H torsion
[ 11005 11000 10999 10996 ] final   71.22 input  -57.11 | X-H torsion

> <Gold.Protein.ActiveResidues>
 VAL166  LYS551  ARG553  GLY616  TRP617  ASP618  TYR619  PRO620  LYS621  CYS622 
 ASP623  PHE694  ASN695  SER759  ASP760  ASP761  ALA762  ILE779  LEU786  VAL792 
 PHE793  MET794  SER795  GLU796  ALA797  LYS798  CYS799  TRP800  GLU811  SER814 

> <Gold.Protein.RotatedAtoms>
  150.7038  134.1239  159.4044 H   0  0  0  0  0  0  0  0  0  0  0  0  # atno 6907 bound_to 6896
  151.9225  135.0290  160.0532 H   0  0  0  0  0  0  0  0  0  0  0  0  # atno 6908 bound_to 6896
  152.2244  133.4973  159.5217 H   0  0  0  0  0  0  0  0  0  0  0  0  # atno 6909 bound_to 6896
  145.0016  140.7825  143.4493 H   0  0  0  0  0  0  0  0  0  0  0  0  # atno 7974 bound_to 7965
  156.0273  140.3334  155.7102 H   0  0  0  0  0  0  0  0  0  0  0  0  # atno 8008 bound_to 7997
  155.5935  140.0648  157.2770 H   0  0  0  0  0  0  0  0  0  0  0  0  # atno 8009 bound_to 7997
  154.4339  140.1823  156.1087 H   0  0  0  0  0  0  0  0  0  0  0  0  # atno 8010 bound_to 7997
  140.6889  143.2920  151.3524 H   0  0  0  0  0  0  0  0  0  0  0  0  # atno 10167 bound_to 10162
  156.2413  130.7097  151.0960 H   0  0  0  0  0  0  0  0  0  0  0  0  # atno 10718 bound_to 10713
  153.6198  135.6993  153.5315 H   0  0  0  0  0  0  0  0  0  0  0  0  # atno 10763 bound_to 10752
  153.2947  135.4146  155.1198 H   0  0  0  0  0  0  0  0  0  0  0  0  # atno 10764 bound_to 10752
  154.8545  135.3634  154.5739 H   0  0  0  0  0  0  0  0  0  0  0  0  # atno 10765 bound_to 10752
  139.9555  134.7151  156.0763 H   0  0  0  0  0  0  0  0  0  0  0  0  # atno 11005 bound_to 11000
  145.2146  139.2188  143.5125 LP  0  0  0  0  0  0  0  0  0  0  0  0  # atno 17320 bound_to 7965
  146.3453  140.1991  142.8589 LP  0  0  0  0  0  0  0  0  0  0  0  0  # atno 17321 bound_to 7965
  139.6273  144.0790  152.2445 LP  0  0  0  0  0  0  0  0  0  0  0  0  # atno 17342 bound_to 10162
  140.0253  144.6122  150.7532 LP  0  0  0  0  0  0  0  0  0  0  0  0  # atno 17343 bound_to 10162
  157.7176  131.0700  150.6264 LP  0  0  0  0  0  0  0  0  0  0  0  0  # atno 17370 bound_to 10713
  156.6338  130.4439  149.5777 LP  0  0  0  0  0  0  0  0  0  0  0  0  # atno 17371 bound_to 10713
  141.1226  133.6608  156.3253 LP  0  0  0  0  0  0  0  0  0  0  0  0  # atno 17394 bound_to 11000
  140.5619  134.5926  157.5436 LP  0  0  0  0  0  0  0  0  0  0  0  0  # atno 17395 bound_to 11000

$$$$
