AV-unprocessed.smi:1247|AV-procd|sdf|5245|dock3
  -GOLD-   22720 4353D 1   1.00000     0.00000
 Structure written by MMmdl.
 46 47  0  0  0  0  0  0  0  0  1 V2000
  143.7770  131.8231  150.1926 C   0  0  0  0  0  0  0  0  0  0  0  0
  144.2310  133.0207  150.9736 C   0  0  0  0  0  0  0  0  0  0  0  0
  145.3625  133.8512  150.7281 C   0  0  0  0  0  0  0  0  0  0  0  0
  145.2891  134.7693  151.7402 C   0  0  0  0  0  0  0  0  0  0  0  0
  146.1216  135.8106  152.0085 N   0  0  0  0  0  0  0  0  0  0  0  0
  145.8077  137.0581  152.4004 C   0  0  0  0  0  0  0  0  0  0  0  0
  144.6678  137.4791  152.5981 O   0  0  0  0  0  0  0  0  0  0  0  0
  146.9072  137.8109  152.5507 N   0  0  0  0  0  0  0  0  0  0  0  0
  146.9099  139.2126  152.9532 C   0  0  0  0  0  0  0  0  0  0  0  0
  146.9613  139.3548  154.4862 C   0  0  0  0  0  0  0  0  0  0  0  0
  148.2920  139.5981  155.0394 N   0  0  0  0  0  0  0  0  0  0  0  0
  149.3163  138.7475  154.4409 C   0  0  0  0  0  0  0  0  0  0  0  0
  150.7077  139.0109  155.0464 C   0  0  1  0  0  0  0  0  0  0  0  0
  151.8022  138.1883  154.3586 C   0  0  0  0  0  0  0  0  0  0  0  0
  151.0373  140.3914  154.9040 O   0  0  0  0  0  0  0  0  0  0  0  0
  150.0766  141.3041  155.4371 C   0  0  2  0  0  0  0  0  0  0  0  0
  150.1164  141.3433  156.9743 C   0  0  0  0  0  0  0  0  0  0  0  0
  148.6771  140.9954  154.8693 C   0  0  0  0  0  0  0  0  0  0  0  0
  144.1842  134.4882  152.5151 N   0  0  0  0  0  0  0  0  0  0  0  0
  143.6798  135.1578  153.6984 C   0  0  0  0  0  0  0  0  0  0  0  0
  143.5355  133.4041  152.0380 N   0  0  0  0  0  0  0  0  0  0  0  0
  144.4171  131.6514  149.3269 H   0  0  0  0  0  0  0  0  0  0  0  0
  142.7573  131.9533  149.8296 H   0  0  0  0  0  0  0  0  0  0  0  0
  143.8013  130.9224  150.8064 H   0  0  0  0  0  0  0  0  0  0  0  0
  146.0925  133.7669  149.9372 H   0  0  0  0  0  0  0  0  0  0  0  0
  147.1047  135.6173  151.8861 H   0  0  0  0  0  0  0  0  0  0  0  0
  147.8055  137.3873  152.3704 H   0  0  0  0  0  0  0  0  0  0  0  0
  147.7519  139.7320  152.4922 H   0  0  0  0  0  0  0  0  0  0  0  0
  146.0049  139.6676  152.5519 H   0  0  0  0  0  0  0  0  0  0  0  0
  146.2795  140.1453  154.8033 H   0  0  0  0  0  0  0  0  0  0  0  0
  146.5709  138.4333  154.9204 H   0  0  0  0  0  0  0  0  0  0  0  0
  149.0690  137.6972  154.5906 H   0  0  0  0  0  0  0  0  0  0  0  0
  149.3490  138.9115  153.3626 H   0  0  0  0  0  0  0  0  0  0  0  0
  150.6986  138.7490  156.1048 H   0  0  0  0  0  0  0  0  0  0  0  0
  151.6082  137.1195  154.4530 H   0  0  0  0  0  0  0  0  0  0  0  0
  152.7770  138.3893  154.8036 H   0  0  0  0  0  0  0  0  0  0  0  0
  151.8659  138.4256  153.2962 H   0  0  0  0  0  0  0  0  0  0  0  0
  150.3685  142.2945  155.0870 H   0  0  0  0  0  0  0  0  0  0  0  0
  149.4589  142.1234  157.3587 H   0  0  0  0  0  0  0  0  0  0  0  0
  151.1243  141.5547  157.3318 H   0  0  0  0  0  0  0  0  0  0  0  0
  149.7951  140.4009  157.4171 H   0  0  0  0  0  0  0  0  0  0  0  0
  148.6664  141.2459  153.8072 H   0  0  0  0  0  0  0  0  0  0  0  0
  147.9416  141.6464  155.3437 H   0  0  0  0  0  0  0  0  0  0  0  0
  144.0554  136.1798  153.7474 H   0  0  0  0  0  0  0  0  0  0  0  0
  144.0019  134.6168  154.5885 H   0  0  0  0  0  0  0  0  0  0  0  0
  142.5898  135.1883  153.6739 H   0  0  0  0  0  0  0  0  0  0  0  0
  1  2  1  0  0  0  0
  1 22  1  0  0  0  0
  1 23  1  0  0  0  0
  1 24  1  0  0  0  0
  2 21  2  0  0  0  0
  2  3  1  0  0  0  0
  3  4  2  0  0  0  0
  3 25  1  0  0  0  0
  4  5  1  0  0  0  0
  4 19  1  0  0  0  0
  5  6  1  0  0  0  0
  5 26  1  0  0  0  0
  6  7  2  0  0  0  0
  6  8  1  0  0  0  0
  8  9  1  0  0  0  0
  8 27  1  0  0  0  0
  9 10  1  0  0  0  0
  9 28  1  0  0  0  0
  9 29  1  0  0  0  0
 10 11  1  0  0  0  0
 10 30  1  0  0  0  0
 10 31  1  0  0  0  0
 11 18  1  0  0  0  0
 11 12  1  0  0  0  0
 12 13  1  0  0  0  0
 12 32  1  0  0  0  0
 12 33  1  0  0  0  0
 13 14  1  0  0  0  0
 13 15  1  0  0  0  0
 13 34  1  0  0  0  0
 14 35  1  0  0  0  0
 14 36  1  0  0  0  0
 14 37  1  0  0  0  0
 15 16  1  0  0  0  0
 16 17  1  0  0  0  0
 16 18  1  0  0  0  0
 16 38  1  0  0  0  0
 17 39  1  0  0  0  0
 17 40  1  0  0  0  0
 17 41  1  0  0  0  0
 18 42  1  0  0  0  0
 18 43  1  0  0  0  0
 19 20  1  0  0  0  0
 19 21  1  0  0  0  0
 20 44  1  0  0  0  0
 20 45  1  0  0  0  0
 20 46  1  0  0  0  0
M  END
> <s_m_source_file>
AV-unprocessed.smi

> <i_m_source_file_index>
1247

> <i_lp_mmshare_version>
43012

> <i_f3d_flags>
0

> <s_epik_input>
W0NIM11jMVtjSF1jKG4objEpW0NIM10pW05IXUMoPU8pW05IXVtDSDJdW0NIMl1OMltDSDJdW0NAQEhdKFtDSDNdKU9bQ0BASF0oW0NIM10pW0NIMl0y

> <s_epik_cmdline>
J2VwaWtfcHl0aG9uJywgJy1waCcsICc3LjAnLCAnLXRuJywgJzgnLCAnLW1hJywgJzIwMCcsICctbWV0YWxfYmluZGluZycsICctaW1hZScsICc8aW5maWxlLm1hZT4nLCAnLW9tYWUnLCAnPG91dGZpbGUubWFlPic=

> <r_lp_tautomer_probability>
1

> <r_epik_Ionization_Penalty>
0.233972

> <r_epik_Ionization_Penalty_Charging>
0

> <r_epik_Ionization_Penalty_Neutral>
0.233972

> <r_epik_State_Penalty>
0.224627

> <r_epik_Charging_Adjusted_Penalty>
0.224627

> <i_epik_Tot_Q>
0

> <i_epik_Tot_abs_Q>
0

> <r_epik_Metal_State_Penalty>
0.224624

> <b_epik_Metal_Only>
0

> <s_lp_Force_Field>
OPLS_2005

> <r_lp_Energy>
23.3755

> <b_lp_Chiralities_Consistent>
1

> <s_lp_Variant>
AV-unprocessed.smi:1247-3

> <Gold.Version>
5.8.1

> <Gold.Id.Protein>
6NUR|6NUR_protein|mol2

> <Gold.PLP.Fitness>
42.2313

> <Gold.PLP.PLP>
-35.0455

> <Gold.PLP.part.hbond>
-2.9880

> <Gold.PLP.part.metal>
0.0000

> <Gold.PLP.part.buried>
-5.9364

> <Gold.PLP.part.nonpolar>
-28.4809

> <Gold.PLP.part.repulsive>
1.5869

> <Gold.PLP.ligand.clash>
0.0000

> <Gold.PLP.ligand.torsion>
0.9134

> <Gold.PLP.Chemscore.Hbond>
3.0000

> <Gold.PLP.Chemscore.CHOScore>
0.0000

> <Gold.PLP.Chemscore.Metal>
0.0000

> <Gold.Chemscore.Hbonds>
donor molecule, donor type, donor heavy atom, donor atom, acceptor molecule, acceptor atom, score
      L1  H     5    26       P1  7948  1.00
      L1  H     8    27       P1  7948  1.00
      P1  H  7989  7998       L1    15  1.00

> <Gold.PLP.Chemscore.Internal.Correction>
0.0126

> <Gold.Rescore>
     Score         DG    S(hbond)    S(metal)    S(lipo)     H(rot)  DE(clash)    DE(int)     intcor
     17.97     -20.28       2.83        0.00      78.21       1.48       0.21       2.10       ----

> <Gold.Chemscore.Fitness>
17.9663

> <Gold.Chemscore.DG>
-20.2830

> <Gold.Chemscore.ZeroCoef>
-5.4800

> <Gold.Chemscore.Hbond>
2.8297

> <Gold.Chemscore.Metal>
0.0000

> <Gold.Chemscore.Lipo>
78.2072

> <Gold.Chemscore.Internal_Hbond>
0.0000

> <Gold.Chemscore.DEClash>
0.2149

> <Gold.Chemscore.DEInternal>
2.1018

> <Gold.Chemscore.Rot>
1.4838

> <Gold.Chemscore.Internal.Correction>
   9.000000E+99

> <Gold.Chemscore.Hbonds>
donor molecule, donor type, donor heavy atom, donor atom, acceptor molecule, acceptor atom, score
      L1  H     5    26       P1  7948  0.95
      L1  H     8    27       P1  7948  1.00
      P1  H  7989  7998       L1    15  0.76

> <Gold.Chemscore.Hbond.Weighted>
-9.4513

> <Gold.Chemscore.Metal.Weighted>
-0.0000

> <Gold.Chemscore.Lipo.Weighted>
-9.1502

> <Gold.Chemscore.Internal_Hbond.Weighted>
0.0000

> <Gold.Chemscore.DEClash.Weighted>
0.2149

> <Gold.Chemscore.DEInternal.Weighted>
2.1018

> <Gold.Chemscore.Rot.Weighted>
3.7985

> <Gold.Chemscore.Internal.Correction.Weighted>
   9.000000E+99

> <Gold.Protein.RotatedTorsions>
[ 6907 6896 6895 6894 ] final  106.67 input  -60.11 | X-H torsion
[ 7974 7965 7964 7962 ] final    7.49 input  175.53 | X-H torsion
[ 8008 7997 7996 7995 ] final  -10.25 input   59.86 | X-H torsion
[ 10167 10162 10161 10158 ] final  -97.08 input  -65.29 | X-H torsion
[ 10718 10713 10712 10709 ] final -151.12 input   66.30 | X-H torsion
[ 10763 10752 10751 10750 ] final  134.00 input  -60.55 | X-H torsion
[ 11005 11000 10999 10996 ] final   36.01 input  -57.11 | X-H torsion

> <Gold.Protein.ActiveResidues>
 VAL166  LYS551  ARG553  GLY616  TRP617  ASP618  TYR619  PRO620  LYS621  CYS622 
 ASP623  PHE694  ASN695  SER759  ASP760  ASP761  ALA762  ILE779  LEU786  VAL792 
 PHE793  MET794  SER795  GLU796  ALA797  LYS798  CYS799  TRP800  GLU811  SER814 

> <Gold.Protein.RotatedAtoms>
  152.5184  133.9347  159.7597 H   0  0  0  0  0  0  0  0  0  0  0  0  # atno 6907 bound_to 6896
  150.9690  133.6356  159.2748 H   0  0  0  0  0  0  0  0  0  0  0  0  # atno 6908 bound_to 6896
  151.3574  135.0902  159.9476 H   0  0  0  0  0  0  0  0  0  0  0  0  # atno 6909 bound_to 6896
  146.2426  140.0075  142.8410 H   0  0  0  0  0  0  0  0  0  0  0  0  # atno 7974 bound_to 7965
  154.5572  140.2334  155.8392 H   0  0  0  0  0  0  0  0  0  0  0  0  # atno 8008 bound_to 7997
  156.1998  140.3055  155.9463 H   0  0  0  0  0  0  0  0  0  0  0  0  # atno 8009 bound_to 7997
  155.2958  140.0429  157.3017 H   0  0  0  0  0  0  0  0  0  0  0  0  # atno 8010 bound_to 7997
  140.2871  143.3245  152.0383 H   0  0  0  0  0  0  0  0  0  0  0  0  # atno 10167 bound_to 10162
  156.4550  130.8186  151.2417 H   0  0  0  0  0  0  0  0  0  0  0  0  # atno 10718 bound_to 10713
  153.8163  135.3122  155.3406 H   0  0  0  0  0  0  0  0  0  0  0  0  # atno 10763 bound_to 10752
  154.8031  135.4714  154.0327 H   0  0  0  0  0  0  0  0  0  0  0  0  # atno 10764 bound_to 10752
  153.1722  135.6879  153.8682 H   0  0  0  0  0  0  0  0  0  0  0  0  # atno 10765 bound_to 10752
  140.2369  134.3461  155.7941 H   0  0  0  0  0  0  0  0  0  0  0  0  # atno 11005 bound_to 11000
  145.1358  140.9544  143.4517 LP  0  0  0  0  0  0  0  0  0  0  0  0  # atno 17320 bound_to 7965
  145.0343  139.3314  143.6009 LP  0  0  0  0  0  0  0  0  0  0  0  0  # atno 17321 bound_to 7965
  139.4947  144.6551  151.6590 LP  0  0  0  0  0  0  0  0  0  0  0  0  # atno 17342 bound_to 10162
  140.5763  144.0022  150.6244 LP  0  0  0  0  0  0  0  0  0  0  0  0  # atno 17343 bound_to 10162
  157.7501  131.0125  150.3389 LP  0  0  0  0  0  0  0  0  0  0  0  0  # atno 17370 bound_to 10713
  156.3776  130.3874  149.7127 LP  0  0  0  0  0  0  0  0  0  0  0  0  # atno 17371 bound_to 10713
  141.2213  133.7277  156.8822 LP  0  0  0  0  0  0  0  0  0  0  0  0  # atno 17394 bound_to 11000
  140.1693  134.9111  157.2813 LP  0  0  0  0  0  0  0  0  0  0  0  0  # atno 17395 bound_to 11000

$$$$
