#       Name:                AV-unprocessed.smi:1472
#       Creating user name   scv26
#       Creation time:       Fri Mar 27 06:05:22 2020


#       File generated by GOLD software.
#

@<TRIPOS>MOLECULE
AV-unprocessed.smi:1472
    44    45     1
SMALL
NO_CHARGES


@<TRIPOS>ATOM
      1 ****        -2.8566  -4.1852  -0.7359 C.3            1 S1                 0.0000
      2 ****        -4.1481  -2.9119  -1.0400 S.o2           1 S1                 0.0000
      3 ****        -4.7710  -3.1919  -2.3428 O.2            1 S1                 0.0000
      4 ****        -4.9881  -2.8142   0.1635 O.2            1 S1                 0.0000
      5 ****        -3.2530  -1.4269  -1.1861 N.pl3          1 S1                 0.0000
      6 ****        -2.7164  -0.7680   0.0208 C.3            1 S1                 0.0000
      7 ****        -1.2108  -1.0343   0.1946 C.3            1 S1                 0.0000
      8 ****        -0.4155  -0.6503  -1.0670 C.3            1 S1                 0.0000
      9 ****         1.0969  -0.9268  -0.9264 C.3            1 S1                 0.0000
     10 ****         1.7015  -0.2007   0.1863 N.am           1 S1                 0.0000
     11 ****         2.0170   1.1023   0.1762 C.2            1 S1                 0.0000
     12 ****         1.8398   1.8338  -0.7976 O.2            1 S1                 0.0000
     13 ****         2.5563   1.4799   1.3486 N.am           1 S1                 0.0000
     14 ****         2.9903   2.7709   1.7561 C.ar           1 S1                 0.0000
     15 ****         3.8659   2.8493   2.8590 C.ar           1 S1                 0.0000
     16 ****         4.2981   4.1178   3.2950 C.ar           1 S1                 0.0000
     17 ****         3.9092   5.2730   2.7158 N.ar           1 S1                 0.0000
     18 ****         3.0601   5.1973   1.6693 C.ar           1 S1                 0.0000
     19 ****         2.5686   3.9811   1.1542 C.ar           1 S1                 0.0000
     20 ****        -1.0061  -1.4019  -2.2707 C.3            1 S1                 0.0000
     21 ****        -2.5127  -1.1307  -2.4283 C.3            1 S1                 0.0000
     22 ****        -3.3349  -5.1589  -0.6348 H              1 S1                 0.0000
     23 ****        -2.3207  -3.9575   0.1838 H              1 S1                 0.0000
     24 ****        -2.1633  -4.2180  -1.5743 H              1 S1                 0.0000
     25 ****        -2.8884   0.3052  -0.0685 H              1 S1                 0.0000
     26 ****        -3.2629  -1.0934   0.9056 H              1 S1                 0.0000
     27 ****        -0.8526  -0.4669   1.0539 H              1 S1                 0.0000
     28 ****        -1.0410  -2.0835   0.4328 H              1 S1                 0.0000
     29 ****        -0.5526   0.4179  -1.2431 H              1 S1                 0.0000
     30 ****         1.2667  -1.9916  -0.7640 H              1 S1                 0.0000
     31 ****         1.6165  -0.6723  -1.8518 H              1 S1                 0.0000
     32 ****         1.8865  -0.7291   1.0263 H              1 S1                 0.0000
     33 ****         2.7131   0.7429   2.0202 H              1 S1                 0.0000
     34 ****         4.2075   1.9566   3.3621 H              1 S1                 0.0000
     35 ****         4.9729   4.2062   4.1334 H              1 S1                 0.0000
     36 ****         2.7566   6.1366   1.2313 H              1 S1                 0.0000
     37 ****         1.8774   4.0044   0.3264 H              1 S1                 0.0000
     38 ****        -0.4906  -1.1016  -3.1836 H              1 S1                 0.0000
     39 ****        -0.8286  -2.4712  -2.1626 H              1 S1                 0.0000
     40 ****        -2.9172  -1.7083  -3.2589 H              1 S1                 0.0000
     41 ****        -2.6698  -0.0813  -2.6800 H              1 S1                 0.0000
     42 ****         1.4418   1.4621  -1.6363 LP             1 S1                 0.0000
     43 ****         2.0938   2.7999  -0.7501 LP             1 S1                 0.0000
     44 ****         4.2391   6.1556   3.0508 LP             1 S1                 0.0000
@<TRIPOS>BOND
    1    1    2 1     
    2    1   22 1     
    3    1   23 1     
    4    1   24 1     
    5    2    3 2     
    6    2    4 2     
    7    2    5 1     
    8    5   21 1     
    9    5    6 1     
   10    6    7 1     
   11    6   25 1     
   12    6   26 1     
   13    7    8 1     
   14    7   27 1     
   15    7   28 1     
   16    8    9 1     
   17    8   20 1     
   18    8   29 1     
   19    9   10 1     
   20    9   30 1     
   21    9   31 1     
   22   10   11 am    
   23   10   32 1     
   24   11   12 2     
   25   11   13 am    
   26   13   14 1     
   27   13   33 1     
   28   14   19 ar    
   29   14   15 ar    
   30   15   16 ar    
   31   15   34 1     
   32   16   17 ar    
   33   16   35 1     
   34   17   18 ar    
   35   18   19 ar    
   36   18   36 1     
   37   19   37 1     
   38   20   21 1     
   39   20   38 1     
   40   20   39 1     
   41   21   40 1     
   42   21   41 1     
   43   12   42 1     
   44   12   43 1     
   45   17   44 1     
@<TRIPOS>SUBSTRUCTURE
      1 S1             1
@<TRIPOS>SET
LONE_PAIRS      STATIC     ATOMS    <user>   **** ""
5 3 4 42 43 44
DONOR_HYDROGENS      STATIC     ATOMS    <user>   **** ""
2 32 33
ATOM$BLUE        STATIC     ATOMS    COLORGROUP SYSTEM
5 3 4 42 43 44
ATOM$RED        STATIC     ATOMS    COLORGROUP SYSTEM
2 32 33
