AV-unprocessed.smi:221|AV-procd|sdf|1697|dock1
  -GOLD-   2262020143D 1   1.00000     0.00000
 Structure written by MMmdl.
 50 53  0  0  0  0  0  0  0  0  1 V2000
  154.2203  141.6788  161.0589 N   0  0  0  0  0  0  0  0  0  0  0  0
  153.6141  141.3210  159.9219 C   0  0  0  0  0  0  0  0  0  0  0  0
  154.0389  140.3981  159.2304 O   0  0  0  0  0  0  0  0  0  0  0  0
  152.3571  142.0929  159.4741 C   0  0  1  0  0  0  0  0  0  0  0  0
  152.6604  143.5925  159.3205 C   0  0  0  0  0  0  0  0  0  0  0  0
  151.6191  144.0756  158.3169 C   0  0  2  0  0  0  0  0  0  0  0  0
  150.4641  144.2988  158.9460 F   0  0  0  0  0  0  0  0  0  0  0  0
  151.4627  142.8833  157.3741 C   0  0  0  0  0  0  0  0  0  0  0  0
  151.8276  141.7076  158.1580 N   0  0  0  0  0  0  0  0  0  0  0  0
  151.1397  140.5501  157.9594 C   0  0  0  0  0  0  0  0  0  0  0  0
  151.0457  139.6441  158.9688 N   0  0  0  0  0  0  0  0  0  0  0  0
  150.3789  138.4997  158.7954 C   0  0  0  0  0  0  0  0  0  0  0  0
  149.7457  138.0601  157.7069 N   0  0  0  0  0  0  0  0  0  0  0  0
  149.8444  138.9567  156.6847 C   0  0  0  0  0  0  0  0  0  0  0  0
  150.5138  140.2132  156.7238 C   0  0  0  0  0  0  0  0  0  0  0  0
  150.4067  140.8392  155.4863 N   0  0  0  0  0  0  0  0  0  0  0  0
  149.7065  140.0082  154.7642 C   0  0  0  0  0  0  0  0  0  0  0  0
  149.3359  138.8471  155.4030 N   0  0  0  0  0  0  0  0  0  0  0  0
  148.5672  137.7496  154.8427 C   0  0  0  0  0  0  0  0  0  0  0  0
  149.0974  136.3596  155.2805 C   0  0  2  0  0  0  0  0  0  0  0  0
  150.6389  136.3571  155.4059 C   0  0  0  0  0  0  0  0  0  0  0  0
  151.2531  136.7507  154.1965 O   0  0  0  0  0  0  0  0  0  0  0  0
  148.5878  135.1975  154.3841 C   0  0  1  0  0  0  0  0  0  0  0  0
  149.2705  133.8460  154.5964 C   0  0  0  0  0  0  0  0  0  0  0  0
  148.1211  132.8353  154.5609 C   0  0  0  0  0  0  0  0  0  0  0  0
  147.0363  133.5401  153.9769 O   0  0  0  0  0  0  0  0  0  0  0  0
  147.0948  134.8652  154.4758 C   0  0  0  0  0  0  0  0  0  0  0  0
  151.5774  141.9707  160.2281 H   0  0  0  0  0  0  0  0  0  0  0  0
  151.8998  144.9971  157.8065 H   0  0  0  0  0  0  0  0  0  0  0  0
  155.0468  141.1856  161.3635 H   0  0  0  0  0  0  0  0  0  0  0  0
  153.8514  142.4431  161.6058 H   0  0  0  0  0  0  0  0  0  0  0  0
  152.6124  144.1314  160.2674 H   0  0  0  0  0  0  0  0  0  0  0  0
  153.6574  143.7461  158.9027 H   0  0  0  0  0  0  0  0  0  0  0  0
  150.4504  142.8342  156.9694 H   0  0  0  0  0  0  0  0  0  0  0  0
  152.1572  142.9665  156.5375 H   0  0  0  0  0  0  0  0  0  0  0  0
  150.3506  137.8415  159.6512 H   0  0  0  0  0  0  0  0  0  0  0  0
  149.4491  140.2162  153.7357 H   0  0  0  0  0  0  0  0  0  0  0  0
  147.5297  137.8919  155.1426 H   0  0  0  0  0  0  0  0  0  0  0  0
  148.5882  137.8443  153.7571 H   0  0  0  0  0  0  0  0  0  0  0  0
  148.7014  136.1703  156.2794 H   0  0  0  0  0  0  0  0  0  0  0  0
  150.9654  137.0170  156.2099 H   0  0  0  0  0  0  0  0  0  0  0  0
  151.0117  135.3608  155.6413 H   0  0  0  0  0  0  0  0  0  0  0  0
  150.6085  136.7184  153.5064 H   0  0  0  0  0  0  0  0  0  0  0  0
  148.7813  135.4597  153.3431 H   0  0  0  0  0  0  0  0  0  0  0  0
  149.9797  133.6552  153.7902 H   0  0  0  0  0  0  0  0  0  0  0  0
  149.8235  133.7741  155.5320 H   0  0  0  0  0  0  0  0  0  0  0  0
  148.3669  131.9388  153.9914 H   0  0  0  0  0  0  0  0  0  0  0  0
  147.8469  132.5320  155.5723 H   0  0  0  0  0  0  0  0  0  0  0  0
  146.7259  134.8681  155.5011 H   0  0  0  0  0  0  0  0  0  0  0  0
  146.4757  135.5418  153.8863 H   0  0  0  0  0  0  0  0  0  0  0  0
  1  2  1  0  0  0  0
  1 30  1  0  0  0  0
  1 31  1  0  0  0  0
  2  3  2  0  0  0  0
  2  4  1  0  0  0  0
  4 28  1  0  0  0  0
  4  9  1  0  0  0  0
  4  5  1  0  0  0  0
  5  6  1  0  0  0  0
  5 32  1  0  0  0  0
  5 33  1  0  0  0  0
  6 29  1  0  0  0  0
  6  7  1  0  0  0  0
  6  8  1  0  0  0  0
  8  9  1  0  0  0  0
  8 34  1  0  0  0  0
  8 35  1  0  0  0  0
  9 10  1  0  0  0  0
 10 15  1  0  0  0  0
 10 11  2  0  0  0  0
 11 12  1  0  0  0  0
 12 13  2  0  0  0  0
 12 36  1  0  0  0  0
 13 14  1  0  0  0  0
 14 18  1  0  0  0  0
 14 15  2  0  0  0  0
 15 16  1  0  0  0  0
 16 17  2  0  0  0  0
 17 18  1  0  0  0  0
 17 37  1  0  0  0  0
 18 19  1  0  0  0  0
 19 20  1  0  0  0  0
 19 38  1  0  0  0  0
 19 39  1  0  0  0  0
 20 21  1  0  0  0  0
 20 23  1  0  0  0  0
 20 40  1  0  0  0  0
 21 22  1  0  0  0  0
 21 41  1  0  0  0  0
 21 42  1  0  0  0  0
 22 43  1  0  0  0  0
 23 27  1  0  0  0  0
 23 24  1  0  0  0  0
 23 44  1  0  0  0  0
 24 25  1  0  0  0  0
 24 45  1  0  0  0  0
 24 46  1  0  0  0  0
 25 26  1  0  0  0  0
 25 47  1  0  0  0  0
 25 48  1  0  0  0  0
 26 27  1  0  0  0  0
 27 49  1  0  0  0  0
 27 50  1  0  0  0  0
M  END
> <s_m_source_file>
AV-unprocessed.smi

> <i_m_source_file_index>
221

> <i_lp_mmshare_version>
43012

> <i_f3d_flags>
0

> <s_epik_input>
W05IMl1DKD1PKVtDQEBIXTFbQ0gyXVtDQEBIXShGKVtDSDJdTjFjKG5bY0hdbjIpYyhjMjMpbltjSF1uM1tDSDJdW0NASF0oW0NIMl1bT0hdKVtDQEBIXTRbQ0gyXVtDSDJdT1tDSDJdNA==

> <s_epik_cmdline>
J2VwaWtfcHl0aG9uJywgJy1waCcsICc3LjAnLCAnLXRuJywgJzgnLCAnLW1hJywgJzIwMCcsICctbWV0YWxfYmluZGluZycsICctaW1hZScsICc8aW5maWxlLm1hZT4nLCAnLW9tYWUnLCAnPG91dGZpbGUubWFlPic=

> <r_lp_tautomer_probability>
1

> <r_epik_Ionization_Penalty>
0.000818822

> <r_epik_Ionization_Penalty_Charging>
0

> <r_epik_Ionization_Penalty_Neutral>
0.000818822

> <r_epik_State_Penalty>
0.000440551

> <r_epik_Charging_Adjusted_Penalty>
0.000440551

> <i_epik_Tot_Q>
0

> <i_epik_Tot_abs_Q>
0

> <r_epik_Metal_State_Penalty>
-0

> <b_epik_Metal_Only>
0

> <s_lp_Force_Field>
OPLS_2005

> <r_lp_Energy>
49.9883

> <b_lp_Chiralities_Consistent>
1

> <s_lp_Variant>
AV-unprocessed.smi:221-12

> <Gold.Version>
5.8.1

> <Gold.Id.Protein>
6NUR|6NUR_protein|mol2

> <Gold.PLP.Fitness>
47.8704

> <Gold.PLP.PLP>
-38.9421

> <Gold.PLP.part.hbond>
-4.5884

> <Gold.PLP.part.metal>
0.0000

> <Gold.PLP.part.buried>
-1.0949

> <Gold.PLP.part.nonpolar>
-32.5878

> <Gold.PLP.part.repulsive>
0.1389

> <Gold.PLP.ligand.clash>
0.0000

> <Gold.PLP.ligand.torsion>
0.8922

> <Gold.PLP.Chemscore.Hbond>
2.3931

> <Gold.PLP.Chemscore.CHOScore>
1.0000

> <Gold.PLP.Chemscore.Metal>
0.0000

> <Gold.Chemscore.Hbonds>
donor molecule, donor type, donor heavy atom, donor atom, acceptor molecule, acceptor atom, score
      L1  H    22    43       P1  7949  0.13
      P1  H  7997  8009       L1     3  0.52
      P1  H 10752 10764       L1    22  0.84
      L1  C    17    37       P1  7957  0.86

> <Gold.PLP.Chemscore.Internal.Correction>
0.5334

> <Gold.Rescore>
     Score         DG    S(hbond)    S(metal)    S(lipo)     H(rot)  DE(clash)    DE(int)     intcor
      9.74     -11.54       1.87        0.00      70.97       3.31       0.00       1.80       ----

> <Gold.Chemscore.Fitness>
9.7430

> <Gold.Chemscore.DG>
-11.5450

> <Gold.Chemscore.ZeroCoef>
-5.4800

> <Gold.Chemscore.Hbond>
1.8661

> <Gold.Chemscore.Metal>
0.0000

> <Gold.Chemscore.Lipo>
70.9664

> <Gold.Chemscore.Internal_Hbond>
0.0000

> <Gold.Chemscore.DEClash>
0.0038

> <Gold.Chemscore.DEInternal>
1.7982

> <Gold.Chemscore.Rot>
3.3089

> <Gold.Chemscore.Internal.Correction>
   9.000000E+99

> <Gold.Chemscore.Hbonds>
donor molecule, donor type, donor heavy atom, donor atom, acceptor molecule, acceptor atom, score
      L1  H    22    43       P1  7949  0.01
      P1  H  7997  8009       L1     3  0.51
      P1  H 10752 10764       L1    22  0.53

> <Gold.Chemscore.Hbond.Weighted>
-6.2328

> <Gold.Chemscore.Metal.Weighted>
-0.0000

> <Gold.Chemscore.Lipo.Weighted>
-8.3031

> <Gold.Chemscore.Internal_Hbond.Weighted>
0.0000

> <Gold.Chemscore.DEClash.Weighted>
0.0038

> <Gold.Chemscore.DEInternal.Weighted>
1.7982

> <Gold.Chemscore.Rot.Weighted>
8.4709

> <Gold.Chemscore.Internal.Correction.Weighted>
   9.000000E+99

> <Gold.Protein.RotatedTorsions>
[ 6907 6896 6895 6894 ] final   -4.62 input  -60.11 | X-H torsion
[ 7974 7965 7964 7962 ] final  173.05 input  175.53 | X-H torsion
[ 8008 7997 7996 7995 ] final  125.13 input   59.86 | X-H torsion
[ 10167 10162 10161 10158 ] final  150.17 input  -65.29 | X-H torsion
[ 10718 10713 10712 10709 ] final  -68.49 input   66.30 | X-H torsion
[ 10763 10752 10751 10750 ] final  -99.24 input  -60.55 | X-H torsion
[ 11005 11000 10999 10996 ] final -101.11 input  -57.11 | X-H torsion

> <Gold.Protein.ActiveResidues>
 VAL166  LYS551  ARG553  GLY616  TRP617  ASP618  TYR619  PRO620  LYS621  CYS622 
 ASP623  PHE694  ASN695  SER759  ASP760  ASP761  ALA762  ILE779  LEU786  VAL792 
 PHE793  MET794  SER795  GLU796  ALA797  LYS798  CYS799  TRP800  GLU811  SER814 

> <Gold.Protein.RotatedAtoms>
  151.4947  135.1059  159.9812 H   0  0  0  0  0  0  0  0  0  0  0  0  # atno 6907 bound_to 6896
  152.4726  133.8061  159.6989 H   0  0  0  0  0  0  0  0  0  0  0  0  # atno 6908 bound_to 6896
  150.8745  133.7396  159.2977 H   0  0  0  0  0  0  0  0  0  0  0  0  # atno 6909 bound_to 6896
  144.7253  139.9590  143.6434 H   0  0  0  0  0  0  0  0  0  0  0  0  # atno 7974 bound_to 7965
  156.2824  140.2723  156.1900 H   0  0  0  0  0  0  0  0  0  0  0  0  # atno 8008 bound_to 7997
  155.0468  140.0386  157.2547 H   0  0  0  0  0  0  0  0  0  0  0  0  # atno 8009 bound_to 7997
  154.7228  140.2691  155.6531 H   0  0  0  0  0  0  0  0  0  0  0  0  # atno 8010 bound_to 7997
  139.4853  144.5544  151.7344 H   0  0  0  0  0  0  0  0  0  0  0  0  # atno 10167 bound_to 10162
  156.0503  130.4295  150.2008 H   0  0  0  0  0  0  0  0  0  0  0  0  # atno 10718 bound_to 10713
  154.7481  135.4979  153.9240 H   0  0  0  0  0  0  0  0  0  0  0  0  # atno 10763 bound_to 10752
  153.1114  135.6710  153.9502 H   0  0  0  0  0  0  0  0  0  0  0  0  # atno 10764 bound_to 10752
  153.9261  135.3083  155.3426 H   0  0  0  0  0  0  0  0  0  0  0  0  # atno 10765 bound_to 10752
  141.1244  133.8452  157.1190 H   0  0  0  0  0  0  0  0  0  0  0  0  # atno 11005 bound_to 11000
  146.0652  139.3643  143.0557 LP  0  0  0  0  0  0  0  0  0  0  0  0  # atno 17320 bound_to 7965
  145.8041  140.9757  143.0983 LP  0  0  0  0  0  0  0  0  0  0  0  0  # atno 17321 bound_to 7965
  140.5103  144.1035  150.5993 LP  0  0  0  0  0  0  0  0  0  0  0  0  # atno 17342 bound_to 10162
  140.3959  143.2728  152.0006 LP  0  0  0  0  0  0  0  0  0  0  0  0  # atno 17343 bound_to 10162
  157.0092  130.9946  151.3370 LP  0  0  0  0  0  0  0  0  0  0  0  0  # atno 17370 bound_to 10713
  157.5422  130.8127  149.8042 LP  0  0  0  0  0  0  0  0  0  0  0  0  # atno 17371 bound_to 10713
  140.0229  134.9937  157.0627 LP  0  0  0  0  0  0  0  0  0  0  0  0  # atno 17394 bound_to 11000
  140.4411  134.1681  155.7174 LP  0  0  0  0  0  0  0  0  0  0  0  0  # atno 17395 bound_to 11000

$$$$
