AV-unprocessed.smi:2253|AV-procd|sdf|9117|dock5
  -GOLD-   2272012323D 1   1.00000     0.00000
 Structure written by MMmdl.
 52 54  0  0  0  0  0  0  0  0  3 V2000
  146.0708  142.1251  153.8761 C   0  0  0  0  0  0  0  0  0  0  0  0
  146.9968  141.0070  154.1588 N   0  3  2  0  0  0  0  0  0  0  0  0
  148.4135  141.4369  154.1809 C   0  0  0  0  0  0  0  0  0  0  0  0
  149.3391  140.2821  154.6011 C   0  0  0  0  0  0  0  0  0  0  0  0
  149.1858  139.0349  153.6925 C   0  0  1  0  0  0  0  0  0  0  0  0
  150.0202  137.8703  154.1493 N   0  3  2  0  0  0  0  0  0  0  0  0
  149.6470  137.2737  155.4646 C   0  0  0  0  0  0  0  0  0  0  0  0
  150.0289  138.1951  156.6385 C   0  0  0  0  0  0  0  0  0  0  0  0
  151.5390  138.4885  156.6289 C   0  0  2  0  0  0  0  0  0  0  0  0
  151.8721  139.4301  157.6943 N   0  0  0  0  0  0  0  0  0  0  0  0
  151.4079  140.6855  157.7836 C   0  0  0  0  0  0  0  0  0  0  0  0
  150.6139  141.1668  156.9765 O   0  0  0  0  0  0  0  0  0  0  0  0
  151.9227  141.3168  158.8534 N   0  0  0  0  0  0  0  0  0  0  0  0
  151.7245  142.6518  159.3077 C   0  0  0  0  0  0  0  0  0  0  0  0
  151.3525  143.7430  158.4837 C   0  0  0  0  0  0  0  0  0  0  0  0
  151.1969  145.0135  159.0741 C   0  0  0  0  0  0  0  0  0  0  0  0
  151.3837  145.2522  160.3892 N   0  0  0  0  0  0  0  0  0  0  0  0
  151.7391  144.2117  161.1715 C   0  0  0  0  0  0  0  0  0  0  0  0
  151.9211  142.9026  160.6827 C   0  0  0  0  0  0  0  0  0  0  0  0
  152.2805  141.9037  161.5252 F   0  0  0  0  0  0  0  0  0  0  0  0
  151.9662  139.0311  155.2505 C   0  0  0  0  0  0  0  0  0  0  0  0
  151.4943  138.1014  154.1143 C   0  0  0  0  0  0  0  0  0  0  0  0
  147.6808  138.6688  153.6436 C   0  0  0  0  0  0  0  0  0  0  0  0
  146.7956  139.8610  153.2430 C   0  0  0  0  0  0  0  0  0  0  0  0
  146.2462  142.5386  152.8820 H   0  0  0  0  0  0  0  0  0  0  0  0
  146.1978  142.9248  154.6067 H   0  0  0  0  0  0  0  0  0  0  0  0
  145.0346  141.7897  153.9291 H   0  0  0  0  0  0  0  0  0  0  0  0
  148.6993  141.8082  153.1953 H   0  0  0  0  0  0  0  0  0  0  0  0
  148.5307  142.2677  154.8780 H   0  0  0  0  0  0  0  0  0  0  0  0
  150.3584  140.6654  154.5660 H   0  0  0  0  0  0  0  0  0  0  0  0
  149.1371  140.0135  155.6391 H   0  0  0  0  0  0  0  0  0  0  0  0
  149.5033  139.3208  152.6896 H   0  0  0  0  0  0  0  0  0  0  0  0
  148.5969  136.9913  155.5083 H   0  0  0  0  0  0  0  0  0  0  0  0
  150.1844  136.3301  155.5705 H   0  0  0  0  0  0  0  0  0  0  0  0
  149.4605  139.1246  156.5845 H   0  0  0  0  0  0  0  0  0  0  0  0
  149.7511  137.7212  157.5809 H   0  0  0  0  0  0  0  0  0  0  0  0
  152.0640  137.5489  156.8137 H   0  0  0  0  0  0  0  0  0  0  0  0
  152.5206  139.1129  158.4005 H   0  0  0  0  0  0  0  0  0  0  0  0
  152.5526  140.7703  159.4223 H   0  0  0  0  0  0  0  0  0  0  0  0
  151.1854  143.6459  157.4233 H   0  0  0  0  0  0  0  0  0  0  0  0
  150.9148  145.8635  158.4705 H   0  0  0  0  0  0  0  0  0  0  0  0
  151.8840  144.4296  162.2193 H   0  0  0  0  0  0  0  0  0  0  0  0
  151.5711  140.0364  155.1022 H   0  0  0  0  0  0  0  0  0  0  0  0
  153.0518  139.1270  155.2092 H   0  0  0  0  0  0  0  0  0  0  0  0
  151.9886  137.1350  154.2244 H   0  0  0  0  0  0  0  0  0  0  0  0
  151.8311  138.4761  153.1507 H   0  0  0  0  0  0  0  0  0  0  0  0
  147.4896  137.8738  152.9253 H   0  0  0  0  0  0  0  0  0  0  0  0
  147.3615  138.2908  154.6161 H   0  0  0  0  0  0  0  0  0  0  0  0
  145.7478  139.5579  153.2642 H   0  0  0  0  0  0  0  0  0  0  0  0
  147.0162  140.1664  152.2187 H   0  0  0  0  0  0  0  0  0  0  0  0
  149.8418  137.1430  153.4711 H   0  0  0  0  0  0  0  0  0  0  0  0
  146.7741  140.6817  155.0891 H   0  0  0  0  0  0  0  0  0  0  0  0
  1  2  1  0  0  0  0
  1 25  1  0  0  0  0
  1 26  1  0  0  0  0
  1 27  1  0  0  0  0
  2 24  1  0  0  0  0
  2  3  1  0  0  0  0
  2 52  1  0  0  0  0
  3  4  1  0  0  0  0
  3 28  1  0  0  0  0
  3 29  1  0  0  0  0
  4  5  1  0  0  0  0
  4 30  1  0  0  0  0
  4 31  1  0  0  0  0
  5  6  1  0  0  0  0
  5 23  1  0  0  0  0
  5 32  1  0  0  0  0
  6 22  1  0  0  0  0
  6  7  1  0  0  0  0
  6 51  1  0  0  0  0
  7  8  1  0  0  0  0
  7 33  1  0  0  0  0
  7 34  1  0  0  0  0
  8  9  1  0  0  0  0
  8 35  1  0  0  0  0
  8 36  1  0  0  0  0
  9 10  1  0  0  0  0
  9 21  1  0  0  0  0
  9 37  1  0  0  0  0
 10 11  1  0  0  0  0
 10 38  1  0  0  0  0
 11 12  2  0  0  0  0
 11 13  1  0  0  0  0
 13 14  1  0  0  0  0
 13 39  1  0  0  0  0
 14 19  1  0  0  0  0
 14 15  2  0  0  0  0
 15 16  1  0  0  0  0
 15 40  1  0  0  0  0
 16 17  2  0  0  0  0
 16 41  1  0  0  0  0
 17 18  1  0  0  0  0
 18 19  2  0  0  0  0
 18 42  1  0  0  0  0
 19 20  1  0  0  0  0
 21 22  1  0  0  0  0
 21 43  1  0  0  0  0
 21 44  1  0  0  0  0
 22 45  1  0  0  0  0
 22 46  1  0  0  0  0
 23 24  1  0  0  0  0
 23 47  1  0  0  0  0
 23 48  1  0  0  0  0
 24 49  1  0  0  0  0
 24 50  1  0  0  0  0
M  CHG  1   2   1
M  CHG  1   6   1
M  END
> <s_m_source_file>
AV-unprocessed.smi

> <i_m_source_file_index>
2253

> <i_lp_mmshare_version>
43012

> <i_f3d_flags>
0

> <s_epik_input>
W0NIM11OMVtDSDJdW0NIMl1bQ0hdKFtDSDJdW0NIMl0xKU4yW0NIMl1bQ0gyXVtDSF0oW0NIMl1bQ0gyXTIpW05IXUMoPU8pW05IXWMzW2NIXVtjSF1uW2NIXWMzRg==

> <s_epik_cmdline>
J2VwaWtfcHl0aG9uJywgJy1waCcsICc3LjAnLCAnLXRuJywgJzgnLCAnLW1hJywgJzIwMCcsICctbWV0YWxfYmluZGluZycsICctaW1hZScsICc8aW5maWxlLm1hZT4nLCAnLW9tYWUnLCAnPG91dGZpbGUubWFlPic=

> <r_epik_Ionization_Penalty>
0.183544

> <r_epik_Ionization_Penalty_Charging>
0.180787

> <r_epik_Ionization_Penalty_Neutral>
0.00275649

> <r_epik_State_Penalty>
0.153592

> <r_epik_Charging_Adjusted_Penalty>
0.334379

> <i_epik_Tot_Q>
2

> <i_epik_Tot_abs_Q>
2

> <r_epik_Metal_State_Penalty>
0.153693

> <b_epik_Metal_Only>
0

> <s_lp_Force_Field>
OPLS_2005

> <r_lp_Energy>
48.1083

> <b_lp_Chiralities_Consistent>
1

> <s_lp_Variant>
AV-unprocessed.smi:2253-3

> <Gold.Version>
5.8.1

> <Gold.Id.Protein>
6NUR|6NUR_protein|mol2

> <Gold.PLP.Fitness>
50.9176

> <Gold.PLP.PLP>
-45.9625

> <Gold.PLP.part.hbond>
-1.0000

> <Gold.PLP.part.metal>
0.0000

> <Gold.PLP.part.buried>
-3.9005

> <Gold.PLP.part.nonpolar>
-43.0565

> <Gold.PLP.part.repulsive>
0.4752

> <Gold.PLP.ligand.clash>
0.7171

> <Gold.PLP.ligand.torsion>
0.1616

> <Gold.PLP.Chemscore.Hbond>
1.9825

> <Gold.PLP.Chemscore.CHOScore>
0.0000

> <Gold.PLP.Chemscore.Metal>
0.0000

> <Gold.Chemscore.Hbonds>
donor molecule, donor type, donor heavy atom, donor atom, acceptor molecule, acceptor atom, score
      L1  H     6    51       P1  7948  2.00

> <Gold.PLP.Chemscore.Internal.Correction>
0.0479

> <Gold.Rescore>
     Score         DG    S(hbond)    S(metal)    S(lipo)     H(rot)  DE(clash)    DE(int)     intcor
     12.76     -18.60       0.97        0.00     111.97       1.26       0.26       5.58       ----

> <Gold.Chemscore.Fitness>
12.7586

> <Gold.Chemscore.DG>
-18.5989

> <Gold.Chemscore.ZeroCoef>
-5.4800

> <Gold.Chemscore.Hbond>
0.9681

> <Gold.Chemscore.Metal>
0.0000

> <Gold.Chemscore.Lipo>
111.9694

> <Gold.Chemscore.Internal_Hbond>
0.0000

> <Gold.Chemscore.DEClash>
0.2609

> <Gold.Chemscore.DEInternal>
5.5794

> <Gold.Chemscore.Rot>
1.2559

> <Gold.Chemscore.Internal.Correction>
   9.000000E+99

> <Gold.Chemscore.Hbonds>
donor molecule, donor type, donor heavy atom, donor atom, acceptor molecule, acceptor atom, score
      L1  H     6    51       P1  7948  0.47

> <Gold.Chemscore.Hbond.Weighted>
-3.2336

> <Gold.Chemscore.Metal.Weighted>
-0.0000

> <Gold.Chemscore.Lipo.Weighted>
-13.1004

> <Gold.Chemscore.Internal_Hbond.Weighted>
0.0000

> <Gold.Chemscore.DEClash.Weighted>
0.2609

> <Gold.Chemscore.DEInternal.Weighted>
5.5794

> <Gold.Chemscore.Rot.Weighted>
3.2151

> <Gold.Chemscore.Internal.Correction.Weighted>
   9.000000E+99

> <Gold.Protein.RotatedTorsions>
[ 6907 6896 6895 6894 ] final  116.46 input  -60.11 | X-H torsion
[ 7974 7965 7964 7962 ] final   24.56 input  175.53 | X-H torsion
[ 8008 7997 7996 7995 ] final -151.75 input   59.86 | X-H torsion
[ 10167 10162 10161 10158 ] final -106.66 input  -65.29 | X-H torsion
[ 10718 10713 10712 10709 ] final -173.29 input   66.30 | X-H torsion
[ 10763 10752 10751 10750 ] final   53.84 input  -60.55 | X-H torsion
[ 11005 11000 10999 10996 ] final  153.07 input  -57.11 | X-H torsion

> <Gold.Protein.ActiveResidues>
 VAL166  LYS551  ARG553  GLY616  TRP617  ASP618  TYR619  PRO620  LYS621  CYS622 
 ASP623  PHE694  ASN695  SER759  ASP760  ASP761  ALA762  ILE779  LEU786  VAL792 
 PHE793  MET794  SER795  GLU796  ALA797  LYS798  CYS799  TRP800  GLU811  SER814 

> <Gold.Protein.RotatedAtoms>
  152.4676  133.7958  159.6925 H   0  0  0  0  0  0  0  0  0  0  0  0  # atno 6907 bound_to 6896
  150.8648  133.7580  159.2986 H   0  0  0  0  0  0  0  0  0  0  0  0  # atno 6908 bound_to 6896
  151.5134  135.1069  159.9912 H   0  0  0  0  0  0  0  0  0  0  0  0  # atno 6909 bound_to 6896
  146.1931  139.7587  142.8817 H   0  0  0  0  0  0  0  0  0  0  0  0  # atno 7974 bound_to 7965
  155.6443  140.0705  157.2608 H   0  0  0  0  0  0  0  0  0  0  0  0  # atno 8008 bound_to 7997
  154.4176  140.1745  156.1656 H   0  0  0  0  0  0  0  0  0  0  0  0  # atno 8009 bound_to 7997
  155.9830  140.3352  155.6684 H   0  0  0  0  0  0  0  0  0  0  0  0  # atno 8010 bound_to 7997
  140.1853  143.3934  152.1249 H   0  0  0  0  0  0  0  0  0  0  0  0  # atno 10167 bound_to 10162
  156.7682  130.9439  151.3119 H   0  0  0  0  0  0  0  0  0  0  0  0  # atno 10718 bound_to 10713
  152.9799  135.5765  154.4807 H   0  0  0  0  0  0  0  0  0  0  0  0  # atno 10763 bound_to 10752
  154.4356  135.2774  155.1885 H   0  0  0  0  0  0  0  0  0  0  0  0  # atno 10764 bound_to 10752
  154.3575  135.6196  153.5727 H   0  0  0  0  0  0  0  0  0  0  0  0  # atno 10765 bound_to 10752
  140.1365  134.8767  157.2274 H   0  0  0  0  0  0  0  0  0  0  0  0  # atno 11005 bound_to 11000
  145.3729  141.0345  143.3221 LP  0  0  0  0  0  0  0  0  0  0  0  0  # atno 17320 bound_to 7965
  144.8526  139.5298  143.6849 LP  0  0  0  0  0  0  0  0  0  0  0  0  # atno 17321 bound_to 7965
  139.5278  144.7124  151.5164 LP  0  0  0  0  0  0  0  0  0  0  0  0  # atno 17342 bound_to 10162
  140.6492  143.8731  150.6768 LP  0  0  0  0  0  0  0  0  0  0  0  0  # atno 17343 bound_to 10162
  157.6703  130.9045  150.0026 LP  0  0  0  0  0  0  0  0  0  0  0  0  # atno 17370 bound_to 10713
  156.1295  130.3643  149.9755 LP  0  0  0  0  0  0  0  0  0  0  0  0  # atno 17371 bound_to 10713
  140.2776  134.3387  155.7353 LP  0  0  0  0  0  0  0  0  0  0  0  0  # atno 17394 bound_to 11000
  141.2179  133.7459  156.9316 LP  0  0  0  0  0  0  0  0  0  0  0  0  # atno 17395 bound_to 11000

$$$$
