AV-unprocessed.smi:505|AV-procd|sdf|2749|dock5
  -GOLD-   2262023213D 1   1.00000     0.00000
 Structure written by MMmdl.
 36 37  0  0  0  0  0  0  0  0  2 V2000
  149.7409  139.1300  154.4201 C   0  0  0  0  0  0  0  0  0  0  0  0
  150.3909  140.3863  154.4971 O   0  0  0  0  0  0  0  0  0  0  0  0
  149.4943  141.4427  154.7967 C   0  0  0  0  0  0  0  0  0  0  0  0
  149.0753  141.3369  156.2679 C   0  0  0  0  0  0  0  0  0  0  0  0
  150.2235  141.1039  157.1376 N   0  0  0  0  0  0  0  0  0  0  0  0
  151.1499  142.0091  157.5378 C   0  0  0  0  0  0  0  0  0  0  0  0
  151.0620  143.3349  157.1301 N   0  0  0  0  0  0  0  0  0  0  0  0
  151.8942  144.4930  157.3993 C   0  0  0  0  0  0  0  0  0  0  0  0
  151.9446  144.8332  158.8955 C   0  0  0  0  0  0  0  0  0  0  0  0
  152.5199  143.7632  159.6149 O   0  0  0  0  0  0  0  0  0  0  0  0
  152.1036  141.5257  158.3356 N   0  0  0  0  0  0  0  0  0  0  0  0
  151.7433  140.1909  158.4640 C   0  0  0  0  0  0  0  0  0  0  0  0
  150.6105  139.9157  157.7621 C   0  0  0  0  0  0  0  0  0  0  0  0
  149.9650  138.5864  157.7247 C   0  0  0  0  0  0  0  0  0  0  0  0
  148.9305  138.4021  157.0864 O   0  0  0  0  0  0  0  0  0  0  0  0
  150.6493  137.6598  158.4680 N   0  5  0  0  0  0  0  0  0  0  0  0
  151.8009  137.8908  159.1899 C   0  0  0  0  0  0  0  0  0  0  0  0
  152.3523  136.9994  159.8369 O   0  0  0  0  0  0  0  0  0  0  0  0
  152.3604  139.1421  159.1992 N   0  0  0  0  0  0  0  0  0  0  0  0
  153.5851  139.4160  159.9562 C   0  0  0  0  0  0  0  0  0  0  0  0
  150.4695  138.3545  154.1841 H   0  0  0  0  0  0  0  0  0  0  0  0
  148.9799  139.1260  153.6386 H   0  0  0  0  0  0  0  0  0  0  0  0
  149.2697  138.8714  155.3692 H   0  0  0  0  0  0  0  0  0  0  0  0
  149.9784  142.4034  154.6131 H   0  0  0  0  0  0  0  0  0  0  0  0
  148.6174  141.3867  154.1499 H   0  0  0  0  0  0  0  0  0  0  0  0
  148.5553  142.2385  156.5893 H   0  0  0  0  0  0  0  0  0  0  0  0
  148.3569  140.5269  156.3942 H   0  0  0  0  0  0  0  0  0  0  0  0
  150.2469  143.5465  156.5731 H   0  0  0  0  0  0  0  0  0  0  0  0
  152.8999  144.2584  157.0491 H   0  0  0  0  0  0  0  0  0  0  0  0
  151.5493  145.3451  156.8129 H   0  0  0  0  0  0  0  0  0  0  0  0
  152.4883  145.7594  159.0855 H   0  0  0  0  0  0  0  0  0  0  0  0
  150.9314  144.9746  159.2721 H   0  0  0  0  0  0  0  0  0  0  0  0
  153.3787  144.0266  159.9081 H   0  0  0  0  0  0  0  0  0  0  0  0
  154.3916  138.7565  159.6322 H   0  0  0  0  0  0  0  0  0  0  0  0
  153.4184  139.2538  161.0217 H   0  0  0  0  0  0  0  0  0  0  0  0
  153.9362  140.4403  159.8318 H   0  0  0  0  0  0  0  0  0  0  0  0
  1  2  1  0  0  0  0
  1 21  1  0  0  0  0
  1 22  1  0  0  0  0
  1 23  1  0  0  0  0
  2  3  1  0  0  0  0
  3  4  1  0  0  0  0
  3 24  1  0  0  0  0
  3 25  1  0  0  0  0
  4  5  1  0  0  0  0
  4 26  1  0  0  0  0
  4 27  1  0  0  0  0
  5 13  1  0  0  0  0
  5  6  1  0  0  0  0
  6  7  1  0  0  0  0
  6 11  2  0  0  0  0
  7  8  1  0  0  0  0
  7 28  1  0  0  0  0
  8  9  1  0  0  0  0
  8 29  1  0  0  0  0
  8 30  1  0  0  0  0
  9 10  1  0  0  0  0
  9 31  1  0  0  0  0
  9 32  1  0  0  0  0
 10 33  1  0  0  0  0
 11 12  1  0  0  0  0
 12 19  1  0  0  0  0
 12 13  2  0  0  0  0
 13 14  1  0  0  0  0
 14 15  2  0  0  0  0
 14 16  1  0  0  0  0
 16 17  1  0  0  0  0
 17 18  2  0  0  0  0
 17 19  1  0  0  0  0
 19 20  1  0  0  0  0
 20 34  1  0  0  0  0
 20 35  1  0  0  0  0
 20 36  1  0  0  0  0
M  CHG  1  16  -1
M  END
> <s_m_source_file>
AV-unprocessed.smi

> <i_m_source_file_index>
505

> <i_lp_mmshare_version>
43012

> <i_f3d_flags>
0

> <s_epik_input>
W09IXVtDSDJdW0NIMl1bTkhdYyhuMSluKFtDSDJdW0NIMl1PW0NIM10pYyhjMTIpYyg9TylbbkhdYyg9TyluMltDSDNd

> <s_epik_cmdline>
J2VwaWtfcHl0aG9uJywgJy1waCcsICc3LjAnLCAnLXRuJywgJzgnLCAnLW1hJywgJzIwMCcsICctbWV0YWxfYmluZGluZycsICctaW1hZScsICc8aW5maWxlLm1hZT4nLCAnLW9tYWUnLCAnPG91dGZpbGUubWFlPic=

> <r_lp_tautomer_probability>
1

> <r_epik_Ionization_Penalty>
5.9232

> <r_epik_Ionization_Penalty_Charging>
1.43987e-08

> <r_epik_Ionization_Penalty_Neutral>
5.9232

> <r_epik_State_Penalty>
5.92302

> <r_epik_Charging_Adjusted_Penalty>
5.92302

> <i_epik_Tot_Q>
-1

> <i_epik_Tot_abs_Q>
1

> <r_epik_Metal_State_Penalty>
1.88194

> <b_epik_Metal_Only>
1

> <s_lp_Force_Field>
OPLS_2005

> <r_lp_Energy>
27.5321

> <b_lp_Chiralities_Consistent>
1

> <s_lp_Variant>
AV-unprocessed.smi:505-2

> <Gold.Version>
5.8.1

> <Gold.Id.Protein>
6NUR|6NUR_protein|mol2

> <Gold.PLP.Fitness>
43.5897

> <Gold.PLP.PLP>
-35.1626

> <Gold.PLP.part.hbond>
-3.0000

> <Gold.PLP.part.metal>
0.0000

> <Gold.PLP.part.buried>
-6.9619

> <Gold.PLP.part.nonpolar>
-24.9902

> <Gold.PLP.part.repulsive>
0.1191

> <Gold.PLP.ligand.clash>
0.0000

> <Gold.PLP.ligand.torsion>
0.2980

> <Gold.PLP.Chemscore.Hbond>
3.0000

> <Gold.PLP.Chemscore.CHOScore>
0.0000

> <Gold.PLP.Chemscore.Metal>
0.0000

> <Gold.Chemscore.Hbonds>
donor molecule, donor type, donor heavy atom, donor atom, acceptor molecule, acceptor atom, score
      L1  H     7    28       P1  8028  1.00
      P1  H  6896  6907       L1    18  1.00
      P1  H  7989  7998       L1     2  1.00

> <Gold.PLP.Chemscore.Internal.Correction>
0.0231

> <Gold.Rescore>
     Score         DG    S(hbond)    S(metal)    S(lipo)     H(rot)  DE(clash)    DE(int)     intcor
     11.48     -13.48       2.70        0.00      57.38       3.02       0.06       1.95       ----

> <Gold.Chemscore.Fitness>
11.4753

> <Gold.Chemscore.DG>
-13.4780

> <Gold.Chemscore.ZeroCoef>
-5.4800

> <Gold.Chemscore.Hbond>
2.6978

> <Gold.Chemscore.Metal>
0.0000

> <Gold.Chemscore.Lipo>
57.3817

> <Gold.Chemscore.Internal_Hbond>
0.0000

> <Gold.Chemscore.DEClash>
0.0551

> <Gold.Chemscore.DEInternal>
1.9476

> <Gold.Chemscore.Rot>
3.0181

> <Gold.Chemscore.Internal.Correction>
   9.000000E+99

> <Gold.Chemscore.Hbonds>
donor molecule, donor type, donor heavy atom, donor atom, acceptor molecule, acceptor atom, score
      L1  H     7    28       P1  8028  0.94
      P1  H  6896  6907       L1    18  0.91
      P1  H  7989  7998       L1     2  0.79

> <Gold.Chemscore.Hbond.Weighted>
-9.0108

> <Gold.Chemscore.Metal.Weighted>
-0.0000

> <Gold.Chemscore.Lipo.Weighted>
-6.7137

> <Gold.Chemscore.Internal_Hbond.Weighted>
0.0000

> <Gold.Chemscore.DEClash.Weighted>
0.0551

> <Gold.Chemscore.DEInternal.Weighted>
1.9476

> <Gold.Chemscore.Rot.Weighted>
7.7264

> <Gold.Chemscore.Internal.Correction.Weighted>
   9.000000E+99

> <Gold.Protein.RotatedTorsions>
[ 6907 6896 6895 6894 ] final   33.78 input  -60.11 | X-H torsion
[ 7974 7965 7964 7962 ] final  178.24 input  175.53 | X-H torsion
[ 8008 7997 7996 7995 ] final  -17.81 input   59.86 | X-H torsion
[ 10167 10162 10161 10158 ] final  -40.69 input  -65.29 | X-H torsion
[ 10718 10713 10712 10709 ] final  -82.84 input   66.30 | X-H torsion
[ 10763 10752 10751 10750 ] final   31.45 input  -60.55 | X-H torsion
[ 11005 11000 10999 10996 ] final   62.71 input  -57.11 | X-H torsion

> <Gold.Protein.ActiveResidues>
 VAL166  LYS551  ARG553  GLY616  TRP617  ASP618  TYR619  PRO620  LYS621  CYS622 
 ASP623  PHE694  ASN695  SER759  ASP760  ASP761  ALA762  ILE779  LEU786  VAL792 
 PHE793  MET794  SER795  GLU796  ALA797  LYS798  CYS799  TRP800  GLU811  SER814 

> <Gold.Protein.RotatedAtoms>
  152.0932  134.9393  160.0571 H   0  0  0  0  0  0  0  0  0  0  0  0  # atno 6907 bound_to 6896
  152.0636  133.4068  159.4436 H   0  0  0  0  0  0  0  0  0  0  0  0  # atno 6908 bound_to 6896
  150.6837  134.3092  159.4783 H   0  0  0  0  0  0  0  0  0  0  0  0  # atno 6909 bound_to 6896
  144.7158  140.0368  143.6438 H   0  0  0  0  0  0  0  0  0  0  0  0  # atno 7974 bound_to 7965
  154.4951  140.2133  155.9464 H   0  0  0  0  0  0  0  0  0  0  0  0  # atno 8008 bound_to 7997
  156.1360  140.3188  155.8389 H   0  0  0  0  0  0  0  0  0  0  0  0  # atno 8009 bound_to 7997
  155.4210  140.0497  157.3016 H   0  0  0  0  0  0  0  0  0  0  0  0  # atno 8010 bound_to 7997
  140.7026  143.3138  151.2960 H   0  0  0  0  0  0  0  0  0  0  0  0  # atno 10167 bound_to 10162
  156.0027  130.4647  150.4167 H   0  0  0  0  0  0  0  0  0  0  0  0  # atno 10718 bound_to 10713
  153.0315  135.6438  154.1201 H   0  0  0  0  0  0  0  0  0  0  0  0  # atno 10763 bound_to 10752
  154.0923  135.2865  155.3270 H   0  0  0  0  0  0  0  0  0  0  0  0  # atno 10764 bound_to 10752
  154.6456  135.5444  153.7904 H   0  0  0  0  0  0  0  0  0  0  0  0  # atno 10765 bound_to 10752
  140.0074  134.6349  155.9834 H   0  0  0  0  0  0  0  0  0  0  0  0  # atno 11005 bound_to 11000
  146.0057  139.3128  143.0901 LP  0  0  0  0  0  0  0  0  0  0  0  0  # atno 17320 bound_to 7965
  145.8741  140.9402  143.0635 LP  0  0  0  0  0  0  0  0  0  0  0  0  # atno 17321 bound_to 7965
  139.6570  144.0257  152.2667 LP  0  0  0  0  0  0  0  0  0  0  0  0  # atno 17342 bound_to 10162
  139.9812  144.6427  150.7899 LP  0  0  0  0  0  0  0  0  0  0  0  0  # atno 17343 bound_to 10162
  157.2225  131.0486  151.2538 LP  0  0  0  0  0  0  0  0  0  0  0  0  # atno 17370 bound_to 10713
  157.3787  130.7219  149.6615 LP  0  0  0  0  0  0  0  0  0  0  0  0  # atno 17371 bound_to 10713
  141.1686  133.6537  156.4570 LP  0  0  0  0  0  0  0  0  0  0  0  0  # atno 17394 bound_to 11000
  140.4617  134.6835  157.5088 LP  0  0  0  0  0  0  0  0  0  0  0  0  # atno 17395 bound_to 11000

$$$$
