AV-unprocessed.smi:1673|AV-procd|sdf|6711|dock2
  -GOLD-   22720 7453D 1   1.00000     0.00000
 Structure written by MMmdl.
 39 40  0  0  0  0  0  0  0  0  1 V2000
  147.3137  141.1477  153.3179 C   0  0  0  0  0  0  0  0  0  0  0  0
  148.5540  140.5507  153.9232 C   0  0  0  0  0  0  0  0  0  0  0  0
  149.5076  141.3589  154.3627 N   0  0  0  0  0  0  0  0  0  0  0  0
  150.5585  140.5405  154.8048 O   0  0  0  0  0  0  0  0  0  0  0  0
  150.2103  139.2403  154.6212 C   0  0  0  0  0  0  0  0  0  0  0  0
  151.2107  138.2074  155.0169 C   0  0  0  0  0  0  0  0  0  0  0  0
  148.9523  139.1925  154.0976 C   0  0  0  0  0  0  0  0  0  0  0  0
  148.2717  138.0002  153.7458 N   0  0  0  0  0  0  0  0  0  0  0  0
  147.0220  137.6548  154.0894 C   0  0  0  0  0  0  0  0  0  0  0  0
  146.2901  138.3103  154.8305 O   0  0  0  0  0  0  0  0  0  0  0  0
  146.6709  136.4869  153.5326 N   0  0  0  0  0  0  0  0  0  0  0  0
  145.3797  135.8126  153.6830 C   0  0  2  0  0  0  0  0  0  0  0  0
  145.5738  134.2868  153.5769 C   0  0  0  0  0  0  0  0  0  0  0  0
  145.9380  133.8436  152.1491 C   0  0  0  0  0  0  0  0  0  0  0  0
  144.9021  134.3420  151.1304 C   0  0  0  0  0  0  0  0  0  0  0  0
  144.7187  135.8657  151.2164 C   0  0  0  0  0  0  0  0  0  0  0  0
  144.3419  136.3122  152.6443 C   0  0  2  0  0  0  0  0  0  0  0  0
  144.0926  137.8286  152.7153 C   0  0  0  0  0  0  0  0  0  0  0  0
  146.9171  140.5155  152.5235 H   0  0  0  0  0  0  0  0  0  0  0  0
  147.5140  142.1270  152.8821 H   0  0  0  0  0  0  0  0  0  0  0  0
  146.5340  141.2742  154.0691 H   0  0  0  0  0  0  0  0  0  0  0  0
  150.8876  137.2115  154.7140 H   0  0  0  0  0  0  0  0  0  0  0  0
  151.3514  138.2022  156.0975 H   0  0  0  0  0  0  0  0  0  0  0  0
  152.1756  138.4053  154.5503 H   0  0  0  0  0  0  0  0  0  0  0  0
  148.8128  137.3132  153.2415 H   0  0  0  0  0  0  0  0  0  0  0  0
  147.3482  136.0264  152.9427 H   0  0  0  0  0  0  0  0  0  0  0  0
  144.9855  136.0161  154.6803 H   0  0  0  0  0  0  0  0  0  0  0  0
  146.3395  133.9536  154.2786 H   0  0  0  0  0  0  0  0  0  0  0  0
  144.6517  133.7880  153.8782 H   0  0  0  0  0  0  0  0  0  0  0  0
  146.9251  134.2237  151.8833 H   0  0  0  0  0  0  0  0  0  0  0  0
  146.0069  132.7564  152.1055 H   0  0  0  0  0  0  0  0  0  0  0  0
  145.2077  134.0604  150.1225 H   0  0  0  0  0  0  0  0  0  0  0  0
  143.9459  133.8494  151.3114 H   0  0  0  0  0  0  0  0  0  0  0  0
  145.6368  136.3630  150.9005 H   0  0  0  0  0  0  0  0  0  0  0  0
  143.9455  136.1772  150.5134 H   0  0  0  0  0  0  0  0  0  0  0  0
  143.3933  135.8318  152.8897 H   0  0  0  0  0  0  0  0  0  0  0  0
  144.9711  138.3987  152.4126 H   0  0  0  0  0  0  0  0  0  0  0  0
  143.8282  138.1355  153.7276 H   0  0  0  0  0  0  0  0  0  0  0  0
  143.2722  138.1197  152.0590 H   0  0  0  0  0  0  0  0  0  0  0  0
  1  2  1  0  0  0  0
  1 19  1  0  0  0  0
  1 20  1  0  0  0  0
  1 21  1  0  0  0  0
  2  7  1  0  0  0  0
  2  3  2  0  0  0  0
  3  4  1  0  0  0  0
  4  5  1  0  0  0  0
  5  6  1  0  0  0  0
  5  7  2  0  0  0  0
  6 22  1  0  0  0  0
  6 23  1  0  0  0  0
  6 24  1  0  0  0  0
  7  8  1  0  0  0  0
  8  9  1  0  0  0  0
  8 25  1  0  0  0  0
  9 10  2  0  0  0  0
  9 11  1  0  0  0  0
 11 12  1  0  0  0  0
 11 26  1  0  0  0  0
 12 17  1  0  0  0  0
 12 13  1  0  0  0  0
 12 27  1  0  0  0  0
 13 14  1  0  0  0  0
 13 28  1  0  0  0  0
 13 29  1  0  0  0  0
 14 15  1  0  0  0  0
 14 30  1  0  0  0  0
 14 31  1  0  0  0  0
 15 16  1  0  0  0  0
 15 32  1  0  0  0  0
 15 33  1  0  0  0  0
 16 17  1  0  0  0  0
 16 34  1  0  0  0  0
 16 35  1  0  0  0  0
 17 18  1  0  0  0  0
 17 36  1  0  0  0  0
 18 37  1  0  0  0  0
 18 38  1  0  0  0  0
 18 39  1  0  0  0  0
M  END
> <s_m_source_file>
AV-unprocessed.smi

> <i_m_source_file_index>
1673

> <i_lp_mmshare_version>
43012

> <i_f3d_flags>
0

> <s_epik_input>
W0NIM11jMW5vYyhbQ0gzXSljMVtOSF1DKD1PKVtOSF1bQ0BASF0yW0NIMl1bQ0gyXVtDSDJdW0NIMl1bQ0BIXTJbQ0gzXQ==

> <s_epik_cmdline>
J2VwaWtfcHl0aG9uJywgJy1waCcsICc3LjAnLCAnLXRuJywgJzgnLCAnLW1hJywgJzIwMCcsICctbWV0YWxfYmluZGluZycsICctaW1hZScsICc8aW5maWxlLm1hZT4nLCAnLW9tYWUnLCAnPG91dGZpbGUubWFlPic=

> <r_lp_tautomer_probability>
1

> <r_epik_Ionization_Penalty>
4.01865e-05

> <r_epik_Ionization_Penalty_Charging>
0

> <r_epik_Ionization_Penalty_Neutral>
4.01865e-05

> <r_epik_State_Penalty>
-0

> <r_epik_Charging_Adjusted_Penalty>
0

> <i_epik_Tot_Q>
0

> <i_epik_Tot_abs_Q>
0

> <r_epik_Metal_State_Penalty>
-0

> <b_epik_Metal_Only>
0

> <s_lp_Force_Field>
OPLS_2005

> <r_lp_Energy>
11.4641

> <b_lp_Chiralities_Consistent>
1

> <s_lp_Variant>
AV-unprocessed.smi:1673-3

> <Gold.Version>
5.8.1

> <Gold.Id.Protein>
6NUR|6NUR_protein|mol2

> <Gold.PLP.Fitness>
34.7761

> <Gold.PLP.PLP>
-27.1244

> <Gold.PLP.part.hbond>
-4.6092

> <Gold.PLP.part.metal>
0.0000

> <Gold.PLP.part.buried>
0.9012

> <Gold.PLP.part.nonpolar>
-22.8250

> <Gold.PLP.part.repulsive>
0.3400

> <Gold.PLP.ligand.clash>
0.0000

> <Gold.PLP.ligand.torsion>
0.8253

> <Gold.PLP.Chemscore.Hbond>
3.0191

> <Gold.PLP.Chemscore.CHOScore>
0.0000

> <Gold.PLP.Chemscore.Metal>
0.0000

> <Gold.Chemscore.Hbonds>
donor molecule, donor type, donor heavy atom, donor atom, acceptor molecule, acceptor atom, score
      L1  H     8    25       P1  7948  0.99
      L1  H    11    26       P1  7948  0.94
      P1  H  7989  7998       L1     4  0.80
      P1  H  8011  8017       L1     3  0.16

> <Gold.PLP.Chemscore.Internal.Correction>
0.2450

> <Gold.Rescore>
     Score         DG    S(hbond)    S(metal)    S(lipo)     H(rot)  DE(clash)    DE(int)     intcor
     15.60     -16.64       1.93        0.00      62.10       1.00       0.15       0.89       ----

> <Gold.Chemscore.Fitness>
15.6014

> <Gold.Chemscore.DG>
-16.6396

> <Gold.Chemscore.ZeroCoef>
-5.4800

> <Gold.Chemscore.Hbond>
1.9324

> <Gold.Chemscore.Metal>
0.0000

> <Gold.Chemscore.Lipo>
62.0969

> <Gold.Chemscore.Internal_Hbond>
0.0000

> <Gold.Chemscore.DEClash>
0.1526

> <Gold.Chemscore.DEInternal>
0.8856

> <Gold.Chemscore.Rot>
1.0000

> <Gold.Chemscore.Internal.Correction>
   9.000000E+99

> <Gold.Chemscore.Hbonds>
donor molecule, donor type, donor heavy atom, donor atom, acceptor molecule, acceptor atom, score
      L1  H     8    25       P1  7948  0.93
      L1  H    11    26       P1  7948  0.90
      P1  H  7989  7998       L1     4  0.06
      P1  H  8011  8017       L1     3  0.02

> <Gold.Chemscore.Hbond.Weighted>
-6.4542

> <Gold.Chemscore.Metal.Weighted>
-0.0000

> <Gold.Chemscore.Lipo.Weighted>
-7.2653

> <Gold.Chemscore.Internal_Hbond.Weighted>
0.0000

> <Gold.Chemscore.DEClash.Weighted>
0.1526

> <Gold.Chemscore.DEInternal.Weighted>
0.8856

> <Gold.Chemscore.Rot.Weighted>
2.5600

> <Gold.Chemscore.Internal.Correction.Weighted>
   9.000000E+99

> <Gold.Protein.RotatedTorsions>
[ 6907 6896 6895 6894 ] final -130.79 input  -60.11 | X-H torsion
[ 7974 7965 7964 7962 ] final  129.49 input  175.53 | X-H torsion
[ 8008 7997 7996 7995 ] final  102.77 input   59.86 | X-H torsion
[ 10167 10162 10161 10158 ] final   40.71 input  -65.29 | X-H torsion
[ 10718 10713 10712 10709 ] final  -94.15 input   66.30 | X-H torsion
[ 10763 10752 10751 10750 ] final -113.40 input  -60.55 | X-H torsion
[ 11005 11000 10999 10996 ] final  175.62 input  -57.11 | X-H torsion

> <Gold.Protein.ActiveResidues>
 VAL166  LYS551  ARG553  GLY616  TRP617  ASP618  TYR619  PRO620  LYS621  CYS622 
 ASP623  PHE694  ASN695  SER759  ASP760  ASP761  ALA762  ILE779  LEU786  VAL792 
 PHE793  MET794  SER795  GLU796  ALA797  LYS798  CYS799  TRP800  GLU811  SER814 

> <Gold.Protein.RotatedAtoms>
  150.9437  133.6628  159.2785 H   0  0  0  0  0  0  0  0  0  0  0  0  # atno 6907 bound_to 6896
  151.4008  135.0969  159.9565 H   0  0  0  0  0  0  0  0  0  0  0  0  # atno 6908 bound_to 6896
  152.5080  133.8931  159.7458 H   0  0  0  0  0  0  0  0  0  0  0  0  # atno 6909 bound_to 6896
  145.0281  139.4071  143.5163 H   0  0  0  0  0  0  0  0  0  0  0  0  # atno 7974 bound_to 7965
  156.1423  140.3176  155.8515 H   0  0  0  0  0  0  0  0  0  0  0  0  # atno 8008 bound_to 7997
  155.4130  140.0507  157.3047 H   0  0  0  0  0  0  0  0  0  0  0  0  # atno 8009 bound_to 7997
  154.4987  140.2121  155.9405 H   0  0  0  0  0  0  0  0  0  0  0  0  # atno 8010 bound_to 7997
  140.3715  144.2099  150.6133 H   0  0  0  0  0  0  0  0  0  0  0  0  # atno 10167 bound_to 10162
  156.0023  130.5056  150.5883 H   0  0  0  0  0  0  0  0  0  0  0  0  # atno 10718 bound_to 10713
  154.8394  135.4456  154.1343 H   0  0  0  0  0  0  0  0  0  0  0  0  # atno 10763 bound_to 10752
  153.2545  135.6930  153.7650 H   0  0  0  0  0  0  0  0  0  0  0  0  # atno 10764 bound_to 10752
  153.6950  135.3381  155.3187 H   0  0  0  0  0  0  0  0  0  0  0  0  # atno 10765 bound_to 10752
  140.3642  134.7086  157.4351 H   0  0  0  0  0  0  0  0  0  0  0  0  # atno 11005 bound_to 11000
  146.3495  139.9816  142.8695 LP  0  0  0  0  0  0  0  0  0  0  0  0  # atno 17320 bound_to 7965
  145.1807  140.9765  143.4268 LP  0  0  0  0  0  0  0  0  0  0  0  0  # atno 17321 bound_to 7965
  140.5028  143.2313  151.8652 LP  0  0  0  0  0  0  0  0  0  0  0  0  # atno 17342 bound_to 10162
  139.4803  144.5039  151.9023 LP  0  0  0  0  0  0  0  0  0  0  0  0  # atno 17343 bound_to 10162
  157.3752  131.0772  151.1524 LP  0  0  0  0  0  0  0  0  0  0  0  0  # atno 17370 bound_to 10713
  157.2264  130.6505  149.5832 LP  0  0  0  0  0  0  0  0  0  0  0  0  # atno 17371 bound_to 10713
  140.0603  134.6005  155.8757 LP  0  0  0  0  0  0  0  0  0  0  0  0  # atno 17394 bound_to 11000
  141.1975  133.6596  156.5743 LP  0  0  0  0  0  0  0  0  0  0  0  0  # atno 17395 bound_to 11000

$$$$
