#       Name:                AV-unprocessed.smi:3227
#       Creating user name   scv26
#       Creation time:       Fri Mar 27 18:16:46 2020


#       File generated by GOLD software.
#

@<TRIPOS>MOLECULE
AV-unprocessed.smi:3227
    42    43     1
SMALL
NO_CHARGES


@<TRIPOS>ATOM
      1 ****        -0.8340  -1.2530  -0.9893 C.3            1 S1                 0.0000
      2 ****        -1.4196  -1.5889   0.3034 N.pl3          1 S1                 0.0000
      3 ****        -1.6900  -2.9967   0.5694 C.3            1 S1                 0.0000
      4 ****        -2.2754  -0.6267   0.8865 C.ar           1 S1                 0.0000
      5 ****        -3.5203  -1.0237   1.2524 N.pl3          1 S1                 1.0000
      6 ****        -4.4404  -0.2080   1.8078 C.ar           1 S1                 0.0000
      7 ****        -4.1228   1.1401   2.0467 C.ar           1 S1                 0.0000
      8 ****        -2.8431   1.6117   1.6976 C.ar           1 S1                 0.0000
      9 ****        -1.9037   0.7320   1.1014 C.ar           1 S1                 0.0000
     10 ****        -0.5820   1.1577   0.7911 N.am           1 S1                 0.0000
     11 ****        -0.1741   2.3672   0.3658 C.2            1 S1                 0.0000
     12 ****        -0.9073   3.3465   0.2357 O.2            1 S1                 0.0000
     13 ****         1.3113   2.4852   0.0295 C.3            1 S1                 0.0000
     14 ****         1.7000   1.3481  -0.7252 O.3            1 S1                 0.0000
     15 ****         3.0771   1.3489  -1.0541 C.3            1 S1                 0.0000
     16 ****         3.3839   0.0979  -1.8484 C.3            1 S1                 0.0000
     17 ****         3.5947  -1.2223  -1.1435 C.3            1 S1                 0.0000
     18 ****         4.7589  -0.5284  -1.8050 C.3            1 S1                 0.0000
     19 ****         0.2156  -0.9851  -0.8673 H              1 S1                 0.0000
     20 ****        -1.3516  -0.4180  -1.4634 H              1 S1                 0.0000
     21 ****        -0.8844  -2.1024  -1.6715 H              1 S1                 0.0000
     22 ****        -1.8728  -3.1665   1.6312 H              1 S1                 0.0000
     23 ****        -0.8351  -3.6077   0.2781 H              1 S1                 0.0000
     24 ****        -2.5591  -3.3372   0.0055 H              1 S1                 0.0000
     25 ****        -5.3933  -0.6576   2.0464 H              1 S1                 0.0000
     26 ****        -4.8459   1.8019   2.5009 H              1 S1                 0.0000
     27 ****        -2.5949   2.6398   1.9132 H              1 S1                 0.0000
     28 ****         0.1173   0.4292   0.7676 H              1 S1                 0.0000
     29 ****         1.4930   3.3981  -0.5402 H              1 S1                 0.0000
     30 ****         1.8832   2.5468   0.9565 H              1 S1                 0.0000
     31 ****         3.3293   2.2246  -1.6537 H              1 S1                 0.0000
     32 ****         3.6855   1.3720  -0.1487 H              1 S1                 0.0000
     33 ****         2.8642   0.0466  -2.8033 H              1 S1                 0.0000
     34 ****         3.5643  -1.2263  -0.0557 H              1 S1                 0.0000
     35 ****         3.2014  -2.1155  -1.6242 H              1 S1                 0.0000
     36 ****         5.1435  -0.9587  -2.7274 H              1 S1                 0.0000
     37 ****         5.5052  -0.0734  -1.1568 H              1 S1                 0.0000
     38 ****        -3.7798  -1.9972   1.0929 H              1 S1                 0.0000
     39 ****        -1.8809   3.2744   0.4522 LP             1 S1                 0.0000
     40 ****        -0.5296   4.2145  -0.0867 LP             1 S1                 0.0000
     41 ****         1.1697   1.3313  -1.5728 LP             1 S1                 0.0000
     42 ****         1.5002   0.5269  -0.1907 LP             1 S1                 0.0000
@<TRIPOS>BOND
    1    1    2 1     
    2    1   19 1     
    3    1   20 1     
    4    1   21 1     
    5    2    3 1     
    6    2    4 1     
    7    3   22 1     
    8    3   23 1     
    9    3   24 1     
   10    4    9 ar    
   11    4    5 ar    
   12    5    6 ar    
   13    5   38 1     
   14    6    7 ar    
   15    6   25 1     
   16    7    8 ar    
   17    7   26 1     
   18    8    9 ar    
   19    8   27 1     
   20    9   10 1     
   21   10   11 am    
   22   10   28 1     
   23   11   12 2     
   24   11   13 1     
   25   13   14 1     
   26   13   29 1     
   27   13   30 1     
   28   14   15 1     
   29   15   16 1     
   30   15   31 1     
   31   15   32 1     
   32   16   18 1     
   33   16   17 1     
   34   16   33 1     
   35   17   18 1     
   36   17   34 1     
   37   17   35 1     
   38   18   36 1     
   39   18   37 1     
   40   12   39 1     
   41   12   40 1     
   42   14   41 1     
   43   14   42 1     
@<TRIPOS>SUBSTRUCTURE
      1 S1             1
@<TRIPOS>SET
LONE_PAIRS      STATIC     ATOMS    <user>   **** ""
4 39 40 41 42
DONOR_HYDROGENS      STATIC     ATOMS    <user>   **** ""
2 38 28
ATOM$BLUE        STATIC     ATOMS    COLORGROUP SYSTEM
4 39 40 41 42
ATOM$RED        STATIC     ATOMS    COLORGROUP SYSTEM
2 38 28
