AV-unprocessed.smi:1592|AV-procd|sdf|6408|dock2
  -GOLD-   22720 7 43D 1   1.00000     0.00000
 Structure written by MMmdl.
 26 27  0  0  0  0  0  0  0  0  2 V2000
  150.1254  141.3430  156.3370 O   0  0  0  0  0  0  0  0  0  0  0  0
  151.0820  140.7949  156.8871 C   0  0  0  0  0  0  0  0  0  0  0  0
  151.8415  141.3563  157.8455 N   0  0  0  0  0  0  0  0  0  0  0  0
  151.7197  142.6430  158.4399 C   0  0  0  0  0  0  0  0  0  0  0  0
  150.8581  143.5870  157.9834 N   0  0  0  0  0  0  0  0  0  0  0  0
  150.8011  144.7846  158.6012 C   0  0  0  0  0  0  0  0  0  0  0  0
  151.5961  145.1181  159.7118 C   0  0  0  0  0  0  0  0  0  0  0  0
  152.4933  144.1509  160.1967 C   0  0  0  0  0  0  0  0  0  0  0  0
  152.5596  142.8969  159.5568 C   0  0  0  0  0  0  0  0  0  0  0  0
  153.4329  141.9555  160.0311 O   0  5  0  0  0  0  0  0  0  0  0  0
  151.4831  139.3747  156.4727 C   0  0  1  0  0  0  0  0  0  0  0  0
  150.5336  138.7351  155.4420 C   0  0  0  0  0  0  0  0  0  0  0  0
  151.3783  138.6280  154.1867 C   0  0  0  0  0  0  0  0  0  0  0  0
  152.7829  138.5144  154.7606 C   0  0  0  0  0  0  0  0  0  0  0  0
  152.7582  139.4376  155.8368 O   0  0  0  0  0  0  0  0  0  0  0  0
  152.6013  140.7965  158.2048 H   0  0  0  0  0  0  0  0  0  0  0  0
  150.0992  145.4987  158.1969 H   0  0  0  0  0  0  0  0  0  0  0  0
  151.5202  146.0884  160.1789 H   0  0  0  0  0  0  0  0  0  0  0  0
  153.1208  144.3697  161.0484 H   0  0  0  0  0  0  0  0  0  0  0  0
  151.5585  138.7294  157.3500 H   0  0  0  0  0  0  0  0  0  0  0  0
  150.2408  137.7410  155.7822 H   0  0  0  0  0  0  0  0  0  0  0  0
  149.6172  139.3011  155.2683 H   0  0  0  0  0  0  0  0  0  0  0  0
  151.1037  137.7826  153.5555 H   0  0  0  0  0  0  0  0  0  0  0  0
  151.2903  139.5416  153.5969 H   0  0  0  0  0  0  0  0  0  0  0  0
  152.9704  137.5095  155.1423 H   0  0  0  0  0  0  0  0  0  0  0  0
  153.5585  138.7617  154.0356 H   0  0  0  0  0  0  0  0  0  0  0  0
  1  2  2  0  0  0  0
  2  3  1  0  0  0  0
  2 11  1  0  0  0  0
  3 16  1  0  0  0  0
  3  4  1  0  0  0  0
  4  9  2  0  0  0  0
  4  5  1  0  0  0  0
  5  6  2  0  0  0  0
  6 17  1  0  0  0  0
  6  7  1  0  0  0  0
  7 18  1  0  0  0  0
  7  8  2  0  0  0  0
  8  9  1  0  0  0  0
  8 19  1  0  0  0  0
  9 10  1  0  0  0  0
 11 15  1  0  0  0  0
 11 12  1  0  0  0  0
 11 20  1  0  0  0  0
 12 13  1  0  0  0  0
 12 21  1  0  0  0  0
 12 22  1  0  0  0  0
 13 14  1  0  0  0  0
 13 23  1  0  0  0  0
 13 24  1  0  0  0  0
 14 15  1  0  0  0  0
 14 25  1  0  0  0  0
 14 26  1  0  0  0  0
M  CHG  1  10  -1
M  END
> <s_m_source_file>
AV-unprocessed.smi

> <i_m_source_file_index>
1592

> <i_lp_mmshare_version>
43012

> <i_f3d_flags>
0

> <s_epik_input>
TzFbQ0gyXVtDSDJdW0NIMl1bQ0BIXTFDKD1PKVtOSF1jMm5bY0hdW2NIXVtjSF1jMltPSF0=

> <s_epik_cmdline>
J2VwaWtfcHl0aG9uJywgJy1waCcsICc3LjAnLCAnLXRuJywgJzgnLCAnLW1hJywgJzIwMCcsICctbWV0YWxfYmluZGluZycsICctaW1hZScsICc8aW5maWxlLm1hZT4nLCAnLW9tYWUnLCAnPG91dGZpbGUubWFlPic=

> <r_epik_Ionization_Penalty>
4.05601

> <r_epik_Ionization_Penalty_Charging>
2.06015

> <r_epik_Ionization_Penalty_Neutral>
1.99585

> <r_epik_State_Penalty>
2.62166

> <r_epik_Charging_Adjusted_Penalty>
4.68182

> <i_epik_Tot_Q>
-1

> <i_epik_Tot_abs_Q>
1

> <r_epik_Metal_State_Penalty>
0.603772

> <b_epik_Metal_Only>
0

> <s_lp_Force_Field>
OPLS_2005

> <r_lp_Energy>
18.4071

> <b_lp_Chiralities_Consistent>
1

> <s_lp_Variant>
AV-unprocessed.smi:1592-8

> <Gold.Version>
5.8.1

> <Gold.Id.Protein>
6NUR|6NUR_protein|mol2

> <Gold.PLP.Fitness>
36.4946

> <Gold.PLP.PLP>
-30.6447

> <Gold.PLP.part.hbond>
-1.0000

> <Gold.PLP.part.metal>
0.0000

> <Gold.PLP.part.buried>
-6.2722

> <Gold.PLP.part.nonpolar>
-23.6506

> <Gold.PLP.part.repulsive>
0.2994

> <Gold.PLP.ligand.clash>
0.0000

> <Gold.PLP.ligand.torsion>
0.0792

> <Gold.PLP.Chemscore.Hbond>
1.0000

> <Gold.PLP.Chemscore.CHOScore>
1.0000

> <Gold.PLP.Chemscore.Metal>
0.0000

> <Gold.Chemscore.Hbonds>
donor molecule, donor type, donor heavy atom, donor atom, acceptor molecule, acceptor atom, score
      P1  H  7997  8008       L1    15  1.00
      L1  C     6    17       P1  8029  1.00

> <Gold.PLP.Chemscore.Internal.Correction>
0.0082

> <Gold.Rescore>
     Score         DG    S(hbond)    S(metal)    S(lipo)     H(rot)  DE(clash)    DE(int)     intcor
     13.93     -15.27       0.99        0.00      77.20       1.00       0.04       1.31       ----

> <Gold.Chemscore.Fitness>
13.9254

> <Gold.Chemscore.DG>
-15.2713

> <Gold.Chemscore.ZeroCoef>
-5.4800

> <Gold.Chemscore.Hbond>
0.9938

> <Gold.Chemscore.Metal>
0.0000

> <Gold.Chemscore.Lipo>
77.1971

> <Gold.Chemscore.Internal_Hbond>
0.0000

> <Gold.Chemscore.DEClash>
0.0365

> <Gold.Chemscore.DEInternal>
1.3094

> <Gold.Chemscore.Rot>
1.0000

> <Gold.Chemscore.Internal.Correction>
   9.000000E+99

> <Gold.Chemscore.Hbonds>
donor molecule, donor type, donor heavy atom, donor atom, acceptor molecule, acceptor atom, score
      P1  H  7997  8008       L1    15  0.93

> <Gold.Chemscore.Hbond.Weighted>
-3.3192

> <Gold.Chemscore.Metal.Weighted>
-0.0000

> <Gold.Chemscore.Lipo.Weighted>
-9.0321

> <Gold.Chemscore.Internal_Hbond.Weighted>
0.0000

> <Gold.Chemscore.DEClash.Weighted>
0.0365

> <Gold.Chemscore.DEInternal.Weighted>
1.3094

> <Gold.Chemscore.Rot.Weighted>
2.5600

> <Gold.Chemscore.Internal.Correction.Weighted>
   9.000000E+99

> <Gold.Protein.RotatedTorsions>
[ 6907 6896 6895 6894 ] final  -23.42 input  -60.11 | X-H torsion
[ 7974 7965 7964 7962 ] final  -36.19 input  175.53 | X-H torsion
[ 8008 7997 7996 7995 ] final  -41.55 input   59.86 | X-H torsion
[ 10167 10162 10161 10158 ] final  -73.80 input  -65.29 | X-H torsion
[ 10718 10713 10712 10709 ] final  -52.33 input   66.30 | X-H torsion
[ 10763 10752 10751 10750 ] final  -76.35 input  -60.55 | X-H torsion
[ 11005 11000 10999 10996 ] final   22.56 input  -57.11 | X-H torsion

> <Gold.Protein.ActiveResidues>
 VAL166  LYS551  ARG553  GLY616  TRP617  ASP618  TYR619  PRO620  LYS621  CYS622 
 ASP623  PHE694  ASN695  SER759  ASP760  ASP761  ALA762  ILE779  LEU786  VAL792 
 PHE793  MET794  SER795  GLU796  ALA797  LYS798  CYS799  TRP800  GLU811  SER814 

> <Gold.Protein.RotatedAtoms>
  151.2043  135.0455  159.8884 H   0  0  0  0  0  0  0  0  0  0  0  0  # atno 6907 bound_to 6896
  152.5430  134.0815  159.8248 H   0  0  0  0  0  0  0  0  0  0  0  0  # atno 6908 bound_to 6896
  151.0960  133.5232  159.2644 H   0  0  0  0  0  0  0  0  0  0  0  0  # atno 6909 bound_to 6896
  146.0683  140.6249  142.8964 H   0  0  0  0  0  0  0  0  0  0  0  0  # atno 7974 bound_to 7965
  154.4003  140.1496  156.3210 H   0  0  0  0  0  0  0  0  0  0  0  0  # atno 8008 bound_to 7997
  155.8530  140.3457  155.5684 H   0  0  0  0  0  0  0  0  0  0  0  0  # atno 8009 bound_to 7997
  155.7964  140.0864  157.1972 H   0  0  0  0  0  0  0  0  0  0  0  0  # atno 8010 bound_to 7997
  140.5080  143.2349  151.7642 H   0  0  0  0  0  0  0  0  0  0  0  0  # atno 10167 bound_to 10162
  156.1631  130.4149  149.9762 H   0  0  0  0  0  0  0  0  0  0  0  0  # atno 10718 bound_to 10713
  154.4986  135.5801  153.6514 H   0  0  0  0  0  0  0  0  0  0  0  0  # atno 10763 bound_to 10752
  152.9874  135.6130  154.3032 H   0  0  0  0  0  0  0  0  0  0  0  0  # atno 10764 bound_to 10752
  154.2937  135.2848  155.2622 H   0  0  0  0  0  0  0  0  0  0  0  0  # atno 10765 bound_to 10752
  140.3793  134.1938  155.7664 H   0  0  0  0  0  0  0  0  0  0  0  0  # atno 11005 bound_to 11000
  144.7216  140.4390  143.7004 LP  0  0  0  0  0  0  0  0  0  0  0  0  # atno 17320 bound_to 7965
  145.6438  139.1554  143.2901 LP  0  0  0  0  0  0  0  0  0  0  0  0  # atno 17321 bound_to 7965
  139.4888  144.4431  151.9742 LP  0  0  0  0  0  0  0  0  0  0  0  0  # atno 17342 bound_to 10162
  140.3522  144.3075  150.5947 LP  0  0  0  0  0  0  0  0  0  0  0  0  # atno 17343 bound_to 10162
  156.7585  130.9142  151.3640 LP  0  0  0  0  0  0  0  0  0  0  0  0  # atno 17370 bound_to 10713
  157.6748  130.9084  150.0124 LP  0  0  0  0  0  0  0  0  0  0  0  0  # atno 17371 bound_to 10713
  141.1929  133.8163  157.0821 LP  0  0  0  0  0  0  0  0  0  0  0  0  # atno 17394 bound_to 11000
  140.0491  134.9815  157.1103 LP  0  0  0  0  0  0  0  0  0  0  0  0  # atno 17395 bound_to 11000

$$$$
