AV-unprocessed.smi:2203|AV-procd|sdf|8936|dock10
  -GOLD-   2272012153D 1   1.00000     0.00000
 Structure written by MMmdl.
 48 49  0  0  0  0  0  0  0  0  1 V2000
  152.9774  138.3304  155.6475 C   0  0  0  0  0  0  0  0  0  0  0  0
  151.9451  139.4213  155.6715 C   0  0  0  0  0  0  0  0  0  0  0  0
  152.1801  140.5156  156.3744 N   0  0  0  0  0  0  0  0  0  0  0  0
  151.0843  141.2832  156.2007 N   0  0  0  0  0  0  0  0  0  0  0  0
  151.0141  142.5757  156.8664 C   0  0  0  0  0  0  0  0  0  0  0  0
  152.0462  142.7310  158.0047 C   0  0  0  0  0  0  0  0  0  0  0  0
  151.7354  141.7629  159.1555 C   0  0  0  0  0  0  0  0  0  0  0  0
  152.1592  144.1762  158.5217 C   0  0  0  0  0  0  0  0  0  0  0  0
  150.1605  140.6747  155.3701 C   0  0  0  0  0  0  0  0  0  0  0  0
  148.8584  141.3129  155.0045 C   0  0  0  0  0  0  0  0  0  0  0  0
  150.6828  139.4611  155.0094 C   0  0  0  0  0  0  0  0  0  0  0  0
  150.0741  138.4027  154.1234 C   0  0  0  0  0  0  0  0  0  0  0  0
  149.7907  137.1345  154.9297 C   0  0  0  0  0  0  0  0  0  0  0  0
  149.1484  137.2019  155.9774 O   0  0  0  0  0  0  0  0  0  0  0  0
  150.2870  135.9881  154.4392 N   0  0  0  0  0  0  0  0  0  0  0  0
  150.1646  134.6796  155.0696 C   0  0  0  0  0  0  0  0  0  0  0  0
  149.7413  133.6061  154.0538 C   0  0  1  0  0  0  0  0  0  0  0  0
  149.6199  132.2046  154.6460 C   0  0  0  0  0  0  0  0  0  0  0  0
  148.6531  131.5082  153.7012 C   0  0  0  0  0  0  0  0  0  0  0  0
  147.9724  132.6566  152.9493 C   0  0  0  0  0  0  0  0  0  0  0  0
  148.4233  133.8447  153.5860 O   0  0  0  0  0  0  0  0  0  0  0  0
  153.5727  138.3780  154.7356 H   0  0  0  0  0  0  0  0  0  0  0  0
  152.5112  137.3465  155.6896 H   0  0  0  0  0  0  0  0  0  0  0  0
  153.6609  138.4050  156.4941 H   0  0  0  0  0  0  0  0  0  0  0  0
  151.1599  143.3609  156.1227 H   0  0  0  0  0  0  0  0  0  0  0  0
  150.0028  142.7096  157.2509 H   0  0  0  0  0  0  0  0  0  0  0  0
  153.0235  142.4539  157.6089 H   0  0  0  0  0  0  0  0  0  0  0  0
  150.7698  141.9860  159.6106 H   0  0  0  0  0  0  0  0  0  0  0  0
  152.4937  141.8234  159.9366 H   0  0  0  0  0  0  0  0  0  0  0  0
  151.7078  140.7308  158.8049 H   0  0  0  0  0  0  0  0  0  0  0  0
  151.2005  144.5384  158.8942 H   0  0  0  0  0  0  0  0  0  0  0  0
  152.4927  144.8584  157.7396 H   0  0  0  0  0  0  0  0  0  0  0  0
  152.8804  144.2463  159.3363 H   0  0  0  0  0  0  0  0  0  0  0  0
  148.3884  140.7958  154.1679 H   0  0  0  0  0  0  0  0  0  0  0  0
  148.9972  142.3528  154.7094 H   0  0  0  0  0  0  0  0  0  0  0  0
  148.1652  141.2862  155.8453 H   0  0  0  0  0  0  0  0  0  0  0  0
  149.1429  138.7454  153.6712 H   0  0  0  0  0  0  0  0  0  0  0  0
  150.7345  138.1562  153.2912 H   0  0  0  0  0  0  0  0  0  0  0  0
  150.8011  136.0280  153.5713 H   0  0  0  0  0  0  0  0  0  0  0  0
  151.1096  134.4043  155.5406 H   0  0  0  0  0  0  0  0  0  0  0  0
  149.4282  134.7510  155.8705 H   0  0  0  0  0  0  0  0  0  0  0  0
  150.4252  133.5866  153.2028 H   0  0  0  0  0  0  0  0  0  0  0  0
  150.5807  131.6949  154.7239 H   0  0  0  0  0  0  0  0  0  0  0  0
  149.1823  132.2539  155.6441 H   0  0  0  0  0  0  0  0  0  0  0  0
  149.1816  130.8574  153.0040 H   0  0  0  0  0  0  0  0  0  0  0  0
  147.9352  130.8989  154.2511 H   0  0  0  0  0  0  0  0  0  0  0  0
  148.2844  132.6683  151.9041 H   0  0  0  0  0  0  0  0  0  0  0  0
  146.8845  132.5890  152.9783 H   0  0  0  0  0  0  0  0  0  0  0  0
  1  2  1  0  0  0  0
  1 22  1  0  0  0  0
  1 23  1  0  0  0  0
  1 24  1  0  0  0  0
  2 11  1  0  0  0  0
  2  3  2  0  0  0  0
  3  4  1  0  0  0  0
  4  5  1  0  0  0  0
  4  9  1  0  0  0  0
  5  6  1  0  0  0  0
  5 25  1  0  0  0  0
  5 26  1  0  0  0  0
  6  7  1  0  0  0  0
  6  8  1  0  0  0  0
  6 27  1  0  0  0  0
  7 28  1  0  0  0  0
  7 29  1  0  0  0  0
  7 30  1  0  0  0  0
  8 31  1  0  0  0  0
  8 32  1  0  0  0  0
  8 33  1  0  0  0  0
  9 10  1  0  0  0  0
  9 11  2  0  0  0  0
 10 34  1  0  0  0  0
 10 35  1  0  0  0  0
 10 36  1  0  0  0  0
 11 12  1  0  0  0  0
 12 13  1  0  0  0  0
 12 37  1  0  0  0  0
 12 38  1  0  0  0  0
 13 14  2  0  0  0  0
 13 15  1  0  0  0  0
 15 16  1  0  0  0  0
 15 39  1  0  0  0  0
 16 17  1  0  0  0  0
 16 40  1  0  0  0  0
 16 41  1  0  0  0  0
 17 21  1  0  0  0  0
 17 18  1  0  0  0  0
 17 42  1  0  0  0  0
 18 19  1  0  0  0  0
 18 43  1  0  0  0  0
 18 44  1  0  0  0  0
 19 20  1  0  0  0  0
 19 45  1  0  0  0  0
 19 46  1  0  0  0  0
 20 21  1  0  0  0  0
 20 47  1  0  0  0  0
 20 48  1  0  0  0  0
M  END
> <s_m_source_file>
AV-unprocessed.smi

> <i_m_source_file_index>
2203

> <i_lp_mmshare_version>
43012

> <i_f3d_flags>
0

> <s_epik_input>
W0NIM11jMW5uKFtDSDJdW0NIXShbQ0gzXSlbQ0gzXSljKFtDSDNdKWMxW0NIMl1DKD1PKVtOSF1bQ0gyXVtDQEBIXTJbQ0gyXVtDSDJdW0NIMl1PMg==

> <s_epik_cmdline>
J2VwaWtfcHl0aG9uJywgJy1waCcsICc3LjAnLCAnLXRuJywgJzgnLCAnLW1hJywgJzIwMCcsICctbWV0YWxfYmluZGluZycsICctaW1hZScsICc8aW5maWxlLm1hZT4nLCAnLW9tYWUnLCAnPG91dGZpbGUubWFlPic=

> <r_lp_tautomer_probability>
1

> <r_epik_Ionization_Penalty>
0.00306713

> <r_epik_Ionization_Penalty_Charging>
0

> <r_epik_Ionization_Penalty_Neutral>
0.00306713

> <r_epik_State_Penalty>
0.00215672

> <r_epik_Charging_Adjusted_Penalty>
0.00215672

> <i_epik_Tot_Q>
0

> <i_epik_Tot_abs_Q>
0

> <r_epik_Metal_State_Penalty>
-0

> <b_epik_Metal_Only>
0

> <s_lp_Force_Field>
OPLS_2005

> <r_lp_Energy>
15.0648

> <b_lp_Chiralities_Consistent>
1

> <s_lp_Variant>
AV-unprocessed.smi:2203-2

> <Gold.Version>
5.8.1

> <Gold.Id.Protein>
6NUR|6NUR_protein|mol2

> <Gold.PLP.Fitness>
43.8386

> <Gold.PLP.PLP>
-41.5435

> <Gold.PLP.part.hbond>
-2.8643

> <Gold.PLP.part.metal>
0.0000

> <Gold.PLP.part.buried>
-0.3755

> <Gold.PLP.part.nonpolar>
-38.2071

> <Gold.PLP.part.repulsive>
1.6547

> <Gold.PLP.ligand.clash>
0.0000

> <Gold.PLP.ligand.torsion>
0.4285

> <Gold.PLP.Chemscore.Hbond>
1.0372

> <Gold.PLP.Chemscore.CHOScore>
0.0000

> <Gold.PLP.Chemscore.Metal>
0.0000

> <Gold.Chemscore.Hbonds>
donor molecule, donor type, donor heavy atom, donor atom, acceptor molecule, acceptor atom, score
      L1  H    15    39       P1  7949  0.53
      P1  H  7997  8008       L1     3  0.38

> <Gold.PLP.Chemscore.Internal.Correction>
0.0404

> <Gold.Rescore>
     Score         DG    S(hbond)    S(metal)    S(lipo)     H(rot)  DE(clash)    DE(int)     intcor
     13.78     -14.81       0.17        0.00     110.67       1.63       0.63       0.40       ----

> <Gold.Chemscore.Fitness>
13.7805

> <Gold.Chemscore.DG>
-14.8134

> <Gold.Chemscore.ZeroCoef>
-5.4800

> <Gold.Chemscore.Hbond>
0.1693

> <Gold.Chemscore.Metal>
0.0000

> <Gold.Chemscore.Lipo>
110.6687

> <Gold.Chemscore.Internal_Hbond>
0.0000

> <Gold.Chemscore.DEClash>
0.6293

> <Gold.Chemscore.DEInternal>
0.4035

> <Gold.Chemscore.Rot>
1.6329

> <Gold.Chemscore.Internal.Correction>
   9.000000E+99

> <Gold.Chemscore.Hbonds>
donor molecule, donor type, donor heavy atom, donor atom, acceptor molecule, acceptor atom, score
      L1  H    15    39       P1  7949  0.04
      P1  H  7997  8008       L1     3  0.03

> <Gold.Chemscore.Hbond.Weighted>
-0.5654

> <Gold.Chemscore.Metal.Weighted>
-0.0000

> <Gold.Chemscore.Lipo.Weighted>
-12.9482

> <Gold.Chemscore.Internal_Hbond.Weighted>
0.0000

> <Gold.Chemscore.DEClash.Weighted>
0.6293

> <Gold.Chemscore.DEInternal.Weighted>
0.4035

> <Gold.Chemscore.Rot.Weighted>
4.1803

> <Gold.Chemscore.Internal.Correction.Weighted>
   9.000000E+99

> <Gold.Protein.RotatedTorsions>
[ 6907 6896 6895 6894 ] final -100.22 input  -60.11 | X-H torsion
[ 7974 7965 7964 7962 ] final -133.77 input  175.53 | X-H torsion
[ 8008 7997 7996 7995 ] final  -48.23 input   59.86 | X-H torsion
[ 10167 10162 10161 10158 ] final   89.28 input  -65.29 | X-H torsion
[ 10718 10713 10712 10709 ] final -143.98 input   66.30 | X-H torsion
[ 10763 10752 10751 10750 ] final   44.27 input  -60.55 | X-H torsion
[ 11005 11000 10999 10996 ] final  117.82 input  -57.11 | X-H torsion

> <Gold.Protein.ActiveResidues>
 VAL166  LYS551  ARG553  GLY616  TRP617  ASP618  TYR619  PRO620  LYS621  CYS622 
 ASP623  PHE694  ASN695  SER759  ASP760  ASP761  ALA762  ILE779  LEU786  VAL792 
 PHE793  MET794  SER795  GLU796  ALA797  LYS798  CYS799  TRP800  GLU811  SER814 

> <Gold.Protein.RotatedAtoms>
  150.7108  134.0921  159.3935 H   0  0  0  0  0  0  0  0  0  0  0  0  # atno 6907 bound_to 6896
  151.8907  135.0415  160.0507 H   0  0  0  0  0  0  0  0  0  0  0  0  # atno 6908 bound_to 6896
  152.2494  133.5166  159.5353 H   0  0  0  0  0  0  0  0  0  0  0  0  # atno 6909 bound_to 6896
  144.9163  140.6958  143.4993 H   0  0  0  0  0  0  0  0  0  0  0  0  # atno 7974 bound_to 7965
  154.4026  140.1326  156.4305 H   0  0  0  0  0  0  0  0  0  0  0  0  # atno 8008 bound_to 7997
  155.7555  140.3487  155.5152 H   0  0  0  0  0  0  0  0  0  0  0  0  # atno 8009 bound_to 7997
  155.8908  140.1003  157.1410 H   0  0  0  0  0  0  0  0  0  0  0  0  # atno 8010 bound_to 7997
  139.8588  144.6555  150.9083 H   0  0  0  0  0  0  0  0  0  0  0  0  # atno 10167 bound_to 10162
  156.3646  130.7756  151.1928 H   0  0  0  0  0  0  0  0  0  0  0  0  # atno 10718 bound_to 10713
  152.9844  135.6076  154.3247 H   0  0  0  0  0  0  0  0  0  0  0  0  # atno 10763 bound_to 10752
  154.2954  135.2774  155.2637 H   0  0  0  0  0  0  0  0  0  0  0  0  # atno 10764 bound_to 10752
  154.4913  135.5891  153.6518 H   0  0  0  0  0  0  0  0  0  0  0  0  # atno 10765 bound_to 10752
  139.9088  134.9614  156.7409 H   0  0  0  0  0  0  0  0  0  0  0  0  # atno 11005 bound_to 11000
  145.3370  139.1743  143.4506 LP  0  0  0  0  0  0  0  0  0  0  0  0  # atno 17320 bound_to 7965
  146.3183  140.3407  142.8648 LP  0  0  0  0  0  0  0  0  0  0  0  0  # atno 17321 bound_to 7965
  140.7778  143.3762  151.1558 LP  0  0  0  0  0  0  0  0  0  0  0  0  # atno 17342 bound_to 10162
  139.7394  143.8948  152.3045 LP  0  0  0  0  0  0  0  0  0  0  0  0  # atno 17343 bound_to 10162
  157.7477  131.0390  150.4530 LP  0  0  0  0  0  0  0  0  0  0  0  0  # atno 17370 bound_to 10713
  156.4746  130.4060  149.6497 LP  0  0  0  0  0  0  0  0  0  0  0  0  # atno 17371 bound_to 10713
  140.6850  133.9440  155.7932 LP  0  0  0  0  0  0  0  0  0  0  0  0  # atno 17394 bound_to 11000
  141.0483  134.0522  157.3816 LP  0  0  0  0  0  0  0  0  0  0  0  0  # atno 17395 bound_to 11000

$$$$
