AV-unprocessed.smi:591|AV-procd|sdf|3009|dock2
  -GOLD-   2262023513D 1   1.00000     0.00000
 Structure written by MMmdl.
 42 43  0  0  0  0  0  0  0  0  1 V2000
  151.4856  137.0764  159.2950 O   0  0  0  0  0  0  0  0  0  0  0  0
  151.2106  137.6071  158.2179 C   0  0  0  0  0  0  0  0  0  0  0  0
  152.2364  138.4845  157.4856 C   0  0  0  0  0  0  0  0  0  0  0  0
  151.7657  139.8601  157.2512 N   0  0  0  0  0  0  0  0  0  0  0  0
  152.0213  140.8068  158.2629 C   0  0  0  0  0  0  0  0  0  0  0  0
  151.6371  142.0947  158.1758 C   0  0  0  0  0  0  0  0  0  0  0  0
  151.9816  143.1074  159.2569 C   0  0  0  0  0  0  0  0  0  0  0  0
  152.5470  142.5138  160.3084 F   0  0  0  0  0  0  0  0  0  0  0  0
  152.8395  144.0070  158.7770 F   0  0  0  0  0  0  0  0  0  0  0  0
  150.8932  143.7544  159.6760 F   0  0  0  0  0  0  0  0  0  0  0  0
  150.9607  142.4847  156.9542 C   0  0  0  0  0  0  0  0  0  0  0  0
  150.7200  141.5951  155.9714 C   0  0  0  0  0  0  0  0  0  0  0  0
  151.1279  140.1933  156.0890 C   0  0  0  0  0  0  0  0  0  0  0  0
  150.9111  139.3706  155.1989 O   0  0  0  0  0  0  0  0  0  0  0  0
  150.0160  137.4795  157.6233 N   0  0  0  0  0  0  0  0  0  0  0  0
  148.9115  136.6959  158.1582 C   0  0  0  0  0  0  0  0  0  0  0  0
  148.6723  137.0390  159.6360 C   0  0  0  0  0  0  0  0  0  0  0  0
  147.8576  135.9814  160.3623 C   0  0  0  0  0  0  0  0  0  0  0  0
  147.5375  134.8066  159.7848 C   0  0  0  0  0  0  0  0  0  0  0  0
  146.7399  133.7092  160.4672 C   0  0  0  0  0  0  0  0  0  0  0  0
  146.6260  133.9245  161.9856 C   0  0  0  0  0  0  0  0  0  0  0  0
  146.3211  135.3909  162.3155 C   0  0  0  0  0  0  0  0  0  0  0  0
  147.4222  136.3253  161.7827 C   0  0  0  0  0  0  0  0  0  0  0  0
  153.1704  138.4983  158.0509 H   0  0  0  0  0  0  0  0  0  0  0  0
  152.4841  137.9996  156.5403 H   0  0  0  0  0  0  0  0  0  0  0  0
  152.5621  140.4190  159.1139 H   0  0  0  0  0  0  0  0  0  0  0  0
  150.6388  143.5077  156.8254 H   0  0  0  0  0  0  0  0  0  0  0  0
  150.2126  141.9212  155.0750 H   0  0  0  0  0  0  0  0  0  0  0  0
  149.8642  137.9504  156.7430 H   0  0  0  0  0  0  0  0  0  0  0  0
  148.0106  136.8988  157.5766 H   0  0  0  0  0  0  0  0  0  0  0  0
  149.1394  135.6353  158.0439 H   0  0  0  0  0  0  0  0  0  0  0  0
  149.6250  137.1605  160.1530 H   0  0  0  0  0  0  0  0  0  0  0  0
  148.1597  137.9995  159.7066 H   0  0  0  0  0  0  0  0  0  0  0  0
  147.8459  134.6050  158.7692 H   0  0  0  0  0  0  0  0  0  0  0  0
  145.7482  133.6829  160.0148 H   0  0  0  0  0  0  0  0  0  0  0  0
  147.2073  132.7454  160.2638 H   0  0  0  0  0  0  0  0  0  0  0  0
  145.8553  133.2727  162.3981 H   0  0  0  0  0  0  0  0  0  0  0  0
  147.5626  133.6377  162.4660 H   0  0  0  0  0  0  0  0  0  0  0  0
  145.3635  135.6659  161.8711 H   0  0  0  0  0  0  0  0  0  0  0  0
  146.2106  135.5227  163.3923 H   0  0  0  0  0  0  0  0  0  0  0  0
  148.2970  136.2672  162.4309 H   0  0  0  0  0  0  0  0  0  0  0  0
  147.0710  137.3571  161.8179 H   0  0  0  0  0  0  0  0  0  0  0  0
  1  2  2  0  0  0  0
  2  3  1  0  0  0  0
  2 15  1  0  0  0  0
  3  4  1  0  0  0  0
  3 24  1  0  0  0  0
  3 25  1  0  0  0  0
  4 13  1  0  0  0  0
  4  5  1  0  0  0  0
  5  6  2  0  0  0  0
  5 26  1  0  0  0  0
  6  7  1  0  0  0  0
  6 11  1  0  0  0  0
  7  8  1  0  0  0  0
  7  9  1  0  0  0  0
  7 10  1  0  0  0  0
 11 12  2  0  0  0  0
 11 27  1  0  0  0  0
 12 13  1  0  0  0  0
 12 28  1  0  0  0  0
 13 14  2  0  0  0  0
 15 16  1  0  0  0  0
 15 29  1  0  0  0  0
 16 17  1  0  0  0  0
 16 30  1  0  0  0  0
 16 31  1  0  0  0  0
 17 18  1  0  0  0  0
 17 32  1  0  0  0  0
 17 33  1  0  0  0  0
 18 23  1  0  0  0  0
 18 19  2  0  0  0  0
 19 20  1  0  0  0  0
 19 34  1  0  0  0  0
 20 21  1  0  0  0  0
 20 35  1  0  0  0  0
 20 36  1  0  0  0  0
 21 22  1  0  0  0  0
 21 37  1  0  0  0  0
 21 38  1  0  0  0  0
 22 23  1  0  0  0  0
 22 39  1  0  0  0  0
 22 40  1  0  0  0  0
 23 41  1  0  0  0  0
 23 42  1  0  0  0  0
M  END
> <s_m_source_file>
AV-unprocessed.smi

> <i_m_source_file_index>
591

> <i_lp_mmshare_version>
43012

> <i_f3d_flags>
0

> <s_epik_input>
Tz1jMVtjSF1bY0hdYyhDKEYpKEYpRilbY0hdbjFbQ0gyXUMoPU8pW05IXVtDSDJdW0NIMl1DMj1bQ0hdW0NIMl1bQ0gyXVtDSDJdW0NIMl0y

> <s_epik_cmdline>
J2VwaWtfcHl0aG9uJywgJy1waCcsICc3LjAnLCAnLXRuJywgJzgnLCAnLW1hJywgJzIwMCcsICctbWV0YWxfYmluZGluZycsICctaW1hZScsICc8aW5maWxlLm1hZT4nLCAnLW9tYWUnLCAnPG91dGZpbGUubWFlPic=

> <r_lp_tautomer_probability>
1

> <r_epik_Ionization_Penalty>
3.65086e-08

> <r_epik_Ionization_Penalty_Charging>
1.84051e-08

> <r_epik_Ionization_Penalty_Neutral>
1.81035e-08

> <r_epik_State_Penalty>
-0

> <r_epik_Charging_Adjusted_Penalty>
1.84051e-08

> <i_epik_Tot_Q>
0

> <i_epik_Tot_abs_Q>
0

> <r_epik_Metal_State_Penalty>
-0

> <b_epik_Metal_Only>
0

> <s_lp_Force_Field>
OPLS_2005

> <r_lp_Energy>
19.2896

> <b_lp_Chiralities_Consistent>
1

> <s_lp_Variant>
AV-unprocessed.smi:591-1

> <Gold.Version>
5.8.1

> <Gold.Id.Protein>
6NUR|6NUR_protein|mol2

> <Gold.PLP.Fitness>
50.6627

> <Gold.PLP.PLP>
-50.0512

> <Gold.PLP.part.hbond>
-1.0000

> <Gold.PLP.part.metal>
0.0000

> <Gold.PLP.part.buried>
-4.3010

> <Gold.PLP.part.nonpolar>
-45.0862

> <Gold.PLP.part.repulsive>
0.0980

> <Gold.PLP.ligand.clash>
1.2440

> <Gold.PLP.ligand.torsion>
0.6614

> <Gold.PLP.Chemscore.Hbond>
0.9913

> <Gold.PLP.Chemscore.CHOScore>
0.0000

> <Gold.PLP.Chemscore.Metal>
0.0000

> <Gold.Chemscore.Hbonds>
donor molecule, donor type, donor heavy atom, donor atom, acceptor molecule, acceptor atom, score
      P1  H  6896  6908       L1     1  1.00
      P1  H  7989  7998       L1    14  0.08

> <Gold.PLP.Chemscore.Internal.Correction>
0.2045

> <Gold.Rescore>
     Score         DG    S(hbond)    S(metal)    S(lipo)     H(rot)  DE(clash)    DE(int)     intcor
     13.43     -15.86       1.00        0.00     102.62       1.94       0.18       2.24       ----

> <Gold.Chemscore.Fitness>
13.4306

> <Gold.Chemscore.DG>
-15.8577

> <Gold.Chemscore.ZeroCoef>
-5.4800

> <Gold.Chemscore.Hbond>
0.9985

> <Gold.Chemscore.Metal>
0.0000

> <Gold.Chemscore.Lipo>
102.6213

> <Gold.Chemscore.Internal_Hbond>
0.0000

> <Gold.Chemscore.DEClash>
0.1837

> <Gold.Chemscore.DEInternal>
2.2435

> <Gold.Chemscore.Rot>
1.9390

> <Gold.Chemscore.Internal.Correction>
   9.000000E+99

> <Gold.Chemscore.Hbonds>
donor molecule, donor type, donor heavy atom, donor atom, acceptor molecule, acceptor atom, score
      P1  H  6896  6908       L1     1  0.94
      P1  H  7989  7998       L1    14  0.01

> <Gold.Chemscore.Hbond.Weighted>
-3.3350

> <Gold.Chemscore.Metal.Weighted>
-0.0000

> <Gold.Chemscore.Lipo.Weighted>
-12.0067

> <Gold.Chemscore.Internal_Hbond.Weighted>
0.0000

> <Gold.Chemscore.DEClash.Weighted>
0.1837

> <Gold.Chemscore.DEInternal.Weighted>
2.2435

> <Gold.Chemscore.Rot.Weighted>
4.9639

> <Gold.Chemscore.Internal.Correction.Weighted>
   9.000000E+99

> <Gold.Protein.RotatedTorsions>
[ 6907 6896 6895 6894 ] final -126.09 input  -60.11 | X-H torsion
[ 7974 7965 7964 7962 ] final  136.39 input  175.53 | X-H torsion
[ 8008 7997 7996 7995 ] final   21.24 input   59.86 | X-H torsion
[ 10167 10162 10161 10158 ] final -150.85 input  -65.29 | X-H torsion
[ 10718 10713 10712 10709 ] final  -88.65 input   66.30 | X-H torsion
[ 10763 10752 10751 10750 ] final   71.87 input  -60.55 | X-H torsion
[ 11005 11000 10999 10996 ] final -128.37 input  -57.11 | X-H torsion

> <Gold.Protein.ActiveResidues>
 VAL166  LYS551  ARG553  GLY616  TRP617  ASP618  TYR619  PRO620  LYS621  CYS622 
 ASP623  PHE694  ASN695  SER759  ASP760  ASP761  ALA762  ILE779  LEU786  VAL792 
 PHE793  MET794  SER795  GLU796  ALA797  LYS798  CYS799  TRP800  GLU811  SER814 

> <Gold.Protein.RotatedAtoms>
  150.8934  133.7213  159.2898 H   0  0  0  0  0  0  0  0  0  0  0  0  # atno 6907 bound_to 6896
  151.4756  135.1047  159.9773 H   0  0  0  0  0  0  0  0  0  0  0  0  # atno 6908 bound_to 6896
  152.4834  133.8263  159.7135 H   0  0  0  0  0  0  0  0  0  0  0  0  # atno 6909 bound_to 6896
  144.9569  139.4754  143.5498 H   0  0  0  0  0  0  0  0  0  0  0  0  # atno 7974 bound_to 7965
  154.9476  140.3061  155.5090 H   0  0  0  0  0  0  0  0  0  0  0  0  # atno 8008 bound_to 7997
  156.2990  140.2325  156.4488 H   0  0  0  0  0  0  0  0  0  0  0  0  # atno 8009 bound_to 7997
  154.8085  140.0430  157.1314 H   0  0  0  0  0  0  0  0  0  0  0  0  # atno 8010 bound_to 7997
  139.7318  143.8796  152.2537 H   0  0  0  0  0  0  0  0  0  0  0  0  # atno 10167 bound_to 10162
  155.9983  130.4843  150.5052 H   0  0  0  0  0  0  0  0  0  0  0  0  # atno 10718 bound_to 10713
  153.0424  135.5121  154.7658 H   0  0  0  0  0  0  0  0  0  0  0  0  # atno 10763 bound_to 10752
  154.6585  135.2935  154.9900 H   0  0  0  0  0  0  0  0  0  0  0  0  # atno 10764 bound_to 10752
  154.0759  135.6671  153.4883 H   0  0  0  0  0  0  0  0  0  0  0  0  # atno 10765 bound_to 10752
  140.9522  134.1050  157.4051 H   0  0  0  0  0  0  0  0  0  0  0  0  # atno 11005 bound_to 11000
  146.3340  139.8693  142.8843 LP  0  0  0  0  0  0  0  0  0  0  0  0  # atno 17320 bound_to 7965
  145.2759  141.0123  143.3745 LP  0  0  0  0  0  0  0  0  0  0  0  0  # atno 17321 bound_to 7965
  139.8722  144.7062  150.8975 LP  0  0  0  0  0  0  0  0  0  0  0  0  # atno 17342 bound_to 10162
  140.7772  143.3729  151.1616 LP  0  0  0  0  0  0  0  0  0  0  0  0  # atno 17343 bound_to 10162
  157.3031  131.0649  151.2054 LP  0  0  0  0  0  0  0  0  0  0  0  0  # atno 17370 bound_to 10713
  157.3026  130.6850  149.6172 LP  0  0  0  0  0  0  0  0  0  0  0  0  # atno 17371 bound_to 10713
  139.8851  135.0069  156.6412 LP  0  0  0  0  0  0  0  0  0  0  0  0  # atno 17394 bound_to 11000
  140.7587  133.8836  155.8401 LP  0  0  0  0  0  0  0  0  0  0  0  0  # atno 17395 bound_to 11000

$$$$
