#       Name:                AV-unprocessed.smi:2793
#       Creating user name   scv26
#       Creation time:       Fri Mar 27 15:21:18 2020


#       File generated by GOLD software.
#

@<TRIPOS>MOLECULE
AV-unprocessed.smi:2793
    34    35     1
SMALL
NO_CHARGES


@<TRIPOS>ATOM
      1 ****        -1.0801   1.4765   0.8658 O.2            1 S1                 0.0000
      2 ****        -0.4707   0.4645   0.5165 C.2            1 S1                 0.0000
      3 ****        -1.0590  -0.7154   0.2418 N.am           1 S1                 0.0000
      4 ****        -2.4421  -1.0352   0.2689 C.ar           1 S1                 0.0000
      5 ****        -2.7693  -2.3776  -0.0359 C.ar           1 S1                 0.0000
      6 ****        -4.0417  -2.8340  -0.0480 N.ar           1 S1                 0.0000
      7 ****        -5.0074  -1.9379   0.2469 C.ar           1 S1                 0.0000
      8 ****        -4.7009  -0.5963   0.5503 C.ar           1 S1                 0.0000
      9 ****        -3.4269  -0.1474   0.5619 N.ar           1 S1                 0.0000
     10 ****         1.0613   0.4865   0.3981 C.3            1 S1                 0.0000
     11 ****         1.6432   1.9183   0.3390 C.3            1 S1                 0.0000
     12 ****         3.1628   1.8780   0.1407 C.3            1 S1                 0.0000
     13 ****         3.5055   1.0062  -1.0711 C.3            1 S1                 0.0000
     14 ****         2.8439  -0.3738  -0.9374 C.3            1 S1                 0.0000
     15 ****         1.4358  -0.2250  -0.7827 O.3            1 S1                 0.0000
     16 ****        -0.4408  -1.4694  -0.0210 H              1 S1                 0.0000
     17 ****        -2.0007  -3.0994  -0.2718 H              1 S1                 0.0000
     18 ****        -6.0278  -2.2917   0.2412 H              1 S1                 0.0000
     19 ****        -5.4774   0.1167   0.7846 H              1 S1                 0.0000
     20 ****         1.4616  -0.0348   1.2694 H              1 S1                 0.0000
     21 ****         1.1859   2.4730  -0.4820 H              1 S1                 0.0000
     22 ****         1.4111   2.4647   1.2541 H              1 S1                 0.0000
     23 ****         3.5560   2.8862   0.0077 H              1 S1                 0.0000
     24 ****         3.6389   1.4705   1.0334 H              1 S1                 0.0000
     25 ****         3.1560   1.4911  -1.9835 H              1 S1                 0.0000
     26 ****         4.5866   0.9000  -1.1665 H              1 S1                 0.0000
     27 ****         3.0383  -0.9704  -1.8288 H              1 S1                 0.0000
     28 ****         3.2573  -0.9239  -0.0905 H              1 S1                 0.0000
     29 ****        -2.0753   1.4531   0.9607 LP             1 S1                 0.0000
     30 ****        -0.5796   2.3214   1.0544 LP             1 S1                 0.0000
     31 ****        -4.2565  -3.7864  -0.2643 LP             1 S1                 0.0000
     32 ****        -3.2163   0.8058   0.7787 LP             1 S1                 0.0000
     33 ****         1.0814   0.2703  -1.5759 LP             1 S1                 0.0000
     34 ****         1.0239  -1.1355  -0.7470 LP             1 S1                 0.0000
@<TRIPOS>BOND
    1    1    2 2     
    2    2    3 am    
    3    2   10 1     
    4    3    4 1     
    5    3   16 1     
    6    4    9 ar    
    7    4    5 ar    
    8    5    6 ar    
    9    5   17 1     
   10    6    7 ar    
   11    7    8 ar    
   12    7   18 1     
   13    8    9 ar    
   14    8   19 1     
   15   10   15 1     
   16   10   11 1     
   17   10   20 1     
   18   11   12 1     
   19   11   21 1     
   20   11   22 1     
   21   12   13 1     
   22   12   23 1     
   23   12   24 1     
   24   13   14 1     
   25   13   25 1     
   26   13   26 1     
   27   14   15 1     
   28   14   27 1     
   29   14   28 1     
   30    1   29 1     
   31    1   30 1     
   32    6   31 1     
   33    9   32 1     
   34   15   33 1     
   35   15   34 1     
@<TRIPOS>SUBSTRUCTURE
      1 S1             1
@<TRIPOS>SET
LONE_PAIRS      STATIC     ATOMS    <user>   **** ""
6 29 30 31 32 33 34
DONOR_HYDROGENS      STATIC     ATOMS    <user>   **** ""
1 16
ATOM$BLUE        STATIC     ATOMS    COLORGROUP SYSTEM
6 29 30 31 32 33 34
ATOM$RED        STATIC     ATOMS    COLORGROUP SYSTEM
1 16
