#       Name:                AV-unprocessed.smi:766
#       Creating user name   scv26
#       Creation time:       Fri Mar 27 01:05:31 2020


#       File generated by GOLD software.
#

@<TRIPOS>MOLECULE
AV-unprocessed.smi:766
    51    53     1
SMALL
NO_CHARGES


@<TRIPOS>ATOM
      1 ****        -5.6824   1.5096  -2.2281 C.3            1 S1                 0.0000
      2 ****        -4.4833   1.6378  -1.3051 C.ar           1 S1                 0.0000
      3 ****        -4.6934   1.9669   0.0532 C.ar           1 S1                 0.0000
      4 ****        -3.6054   2.0921   0.9446 C.ar           1 S1                 0.0000
      5 ****        -3.5787   2.3996   2.2940 N.2            1 S1                 0.0000
      6 ****        -2.2749   2.3609   2.5525 C.2            1 S1                 0.0000
      7 ****        -1.4522   2.0624   1.5285 N.pl3          1 S1                 0.0000
      8 ****        -0.0047   1.9578   1.5645 C.3            1 S1                 0.0000
      9 ****         0.4769   0.4943   1.5796 C.3            1 S1                 0.0000
     10 ****        -0.0303  -0.1552   2.7302 O.3            1 S1                 0.0000
     11 ****         2.0103   0.3904   1.5845 C.3            1 S1                 0.0000
     12 ****         2.4481  -1.0039   1.3780 N.4            1 S1                 1.0000
     13 ****         3.9133  -1.1861   1.3638 C.3            1 S1                 0.0000
     14 ****         4.3003  -2.6515   1.1055 C.3            1 S1                 0.0000
     15 ****         3.9726  -3.0817  -0.2423 N.pl3          1 S1                 0.0000
     16 ****         4.8023  -3.1623  -1.3411 C.2            1 S1                 0.0000
     17 ****         4.0500  -3.6183  -2.3854 C.2            1 S1                 0.0000
     18 ****         2.7561  -3.7927  -1.8201 C.2            1 S1                 0.0000
     19 ****         2.7124  -3.4689  -0.5375 N.2            1 S1                 0.0000
     20 ****        -2.2913   1.8781   0.4354 C.ar           1 S1                 0.0000
     21 ****        -2.0689   1.5535  -0.9141 C.ar           1 S1                 0.0000
     22 ****        -3.1669   1.4323  -1.7911 C.ar           1 S1                 0.0000
     23 ****        -2.9162   1.0804  -3.2466 C.3            1 S1                 0.0000
     24 ****        -6.6192   1.6250  -1.6820 H              1 S1                 0.0000
     25 ****        -5.6954   0.5305  -2.7075 H              1 S1                 0.0000
     26 ****        -5.6494   2.2751  -3.0036 H              1 S1                 0.0000
     27 ****        -5.6956   2.1256   0.4235 H              1 S1                 0.0000
     28 ****        -1.8960   2.5571   3.5450 H              1 S1                 0.0000
     29 ****         0.3923   2.4765   0.6912 H              1 S1                 0.0000
     30 ****         0.3647   2.4933   2.4405 H              1 S1                 0.0000
     31 ****         0.0858  -0.0173   0.6988 H              1 S1                 0.0000
     32 ****         0.2294   0.3347   3.4958 H              1 S1                 0.0000
     33 ****         2.4221   1.0006   0.7793 H              1 S1                 0.0000
     34 ****         2.4197   0.7757   2.5197 H              1 S1                 0.0000
     35 ****         2.0577  -1.5741   2.1151 H              1 S1                 0.0000
     36 ****         4.3577  -0.5411   0.6045 H              1 S1                 0.0000
     37 ****         4.3137  -0.8677   2.3270 H              1 S1                 0.0000
     38 ****         5.3741  -2.7781   1.2492 H              1 S1                 0.0000
     39 ****         3.8111  -3.3144   1.8209 H              1 S1                 0.0000
     40 ****         5.8469  -2.8924  -1.2900 H              1 S1                 0.0000
     41 ****         4.3751  -3.8022  -3.3987 H              1 S1                 0.0000
     42 ****         1.8538  -4.1416  -2.3002 H              1 S1                 0.0000
     43 ****        -1.0615   1.3980  -1.2708 H              1 S1                 0.0000
     44 ****        -1.8493   1.0198  -3.4630 H              1 S1                 0.0000
     45 ****        -3.3470   1.8359  -3.9039 H              1 S1                 0.0000
     46 ****        -3.3624   0.1153  -3.4870 H              1 S1                 0.0000
     47 ****         2.0790  -1.3297   0.4956 H              1 S1                 0.0000
     48 ****        -4.3395   2.5985   2.9117 LP             1 S1                 0.0000
     49 ****         0.3397  -1.0827   2.7831 LP             1 S1                 0.0000
     50 ****        -1.0282  -0.1968   2.6802 LP             1 S1                 0.0000
     51 ****         1.9232  -3.5032   0.0757 LP             1 S1                 0.0000
@<TRIPOS>BOND
    1    1    2 1     
    2    1   24 1     
    3    1   25 1     
    4    1   26 1     
    5    2   22 ar    
    6    2    3 ar    
    7    3    4 ar    
    8    3   27 1     
    9    4   20 ar    
   10    4    5 1     
   11    5    6 2     
   12    6    7 1     
   13    6   28 1     
   14    7    8 1     
   15    7   20 1     
   16    8    9 1     
   17    8   29 1     
   18    8   30 1     
   19    9   10 1     
   20    9   11 1     
   21    9   31 1     
   22   10   32 1     
   23   11   12 1     
   24   11   33 1     
   25   11   34 1     
   26   12   13 1     
   27   12   35 1     
   28   12   47 1     
   29   13   14 1     
   30   13   36 1     
   31   13   37 1     
   32   14   15 1     
   33   14   38 1     
   34   14   39 1     
   35   15   19 1     
   36   15   16 1     
   37   16   17 2     
   38   16   40 1     
   39   17   18 1     
   40   17   41 1     
   41   18   19 2     
   42   18   42 1     
   43   20   21 ar    
   44   21   22 ar    
   45   21   43 1     
   46   22   23 1     
   47   23   44 1     
   48   23   45 1     
   49   23   46 1     
   50    5   48 1     
   51   10   49 1     
   52   10   50 1     
   53   19   51 1     
@<TRIPOS>SUBSTRUCTURE
      1 S1             1
@<TRIPOS>SET
LONE_PAIRS      STATIC     ATOMS    <user>   **** ""
4 48 49 50 51
DONOR_HYDROGENS      STATIC     ATOMS    <user>   **** ""
3 32 35 47
ATOM$BLUE        STATIC     ATOMS    COLORGROUP SYSTEM
4 48 49 50 51
ATOM$RED        STATIC     ATOMS    COLORGROUP SYSTEM
3 32 35 47
