AV-unprocessed.smi:511|AV-procd|sdf|2764|dock6
  -GOLD-   2262023233D 1   1.00000     0.00000
 Structure written by MMmdl.
 46 48  0  0  0  0  0  0  0  0  2 V2000
  146.3208  142.6086  154.2812 C   0  0  0  0  0  0  0  0  0  0  0  0
  147.4208  141.8361  153.8336 O   0  0  0  0  0  0  0  0  0  0  0  0
  148.4207  141.6900  154.8269 C   0  0  0  0  0  0  0  0  0  0  0  0
  149.5898  140.8924  154.2369 C   0  0  0  0  0  0  0  0  0  0  0  0
  149.4854  139.4726  154.5618 N   0  0  0  0  0  0  0  0  0  0  0  0
  148.4126  138.6447  154.4380 C   0  0  0  0  0  0  0  0  0  0  0  0
  147.2040  139.0761  153.8919 N   0  0  0  0  0  0  0  0  0  0  0  0
  146.9394  139.2315  152.4627 C   0  0  0  0  0  0  0  0  0  0  0  0
  146.0940  138.0652  151.9170 C   0  0  0  0  0  0  0  0  0  0  0  0
  144.8279  137.9228  152.6748 N   0  3  0  0  0  0  0  0  0  0  0  0
  143.9854  136.8158  152.1748 C   0  0  0  0  0  0  0  0  0  0  0  0
  145.0664  137.8438  154.1355 C   0  0  0  0  0  0  0  0  0  0  0  0
  145.9323  139.0247  154.6068 C   0  0  0  0  0  0  0  0  0  0  0  0
  148.6055  137.4064  154.9013 N   0  0  0  0  0  0  0  0  0  0  0  0
  149.9229  137.4386  155.3321 C   0  0  0  0  0  0  0  0  0  0  0  0
  150.4665  138.6663  155.1398 C   0  0  0  0  0  0  0  0  0  0  0  0
  151.8447  138.9864  155.5320 C   0  0  0  0  0  0  0  0  0  0  0  0
  152.3513  140.0959  155.3816 O   0  0  0  0  0  0  0  0  0  0  0  0
  152.4986  137.9325  156.0787 N   0  0  0  0  0  0  0  0  0  0  0  0
  152.0135  136.6710  156.2930 C   0  0  0  0  0  0  0  0  0  0  0  0
  152.7403  135.8163  156.7983 O   0  0  0  0  0  0  0  0  0  0  0  0
  150.7148  136.4173  155.9259 N   0  0  0  0  0  0  0  0  0  0  0  0
  150.0990  135.1025  156.1156 C   0  0  0  0  0  0  0  0  0  0  0  0
  153.4537  138.0972  156.3619 H   0  0  0  0  0  0  0  0  0  0  0  0
  145.5809  142.6887  153.4847 H   0  0  0  0  0  0  0  0  0  0  0  0
  146.6320  143.6178  154.5539 H   0  0  0  0  0  0  0  0  0  0  0  0
  145.8383  142.1455  155.1429 H   0  0  0  0  0  0  0  0  0  0  0  0
  148.7612  142.6708  155.1624 H   0  0  0  0  0  0  0  0  0  0  0  0
  148.0118  141.1683  155.6937 H   0  0  0  0  0  0  0  0  0  0  0  0
  149.6127  141.0350  153.1599 H   0  0  0  0  0  0  0  0  0  0  0  0
  150.5422  141.2742  154.6036 H   0  0  0  0  0  0  0  0  0  0  0  0
  146.4373  140.1839  152.2889 H   0  0  0  0  0  0  0  0  0  0  0  0
  147.8784  139.2638  151.9107 H   0  0  0  0  0  0  0  0  0  0  0  0
  145.8734  138.2301  150.8618 H   0  0  0  0  0  0  0  0  0  0  0  0
  146.6627  137.1359  151.9832 H   0  0  0  0  0  0  0  0  0  0  0  0
  144.4818  135.8536  152.3076 H   0  0  0  0  0  0  0  0  0  0  0  0
  143.7689  136.9458  151.1139 H   0  0  0  0  0  0  0  0  0  0  0  0
  143.0342  136.7865  152.7074 H   0  0  0  0  0  0  0  0  0  0  0  0
  144.1126  137.8498  154.6643 H   0  0  0  0  0  0  0  0  0  0  0  0
  145.5599  136.9005  154.3763 H   0  0  0  0  0  0  0  0  0  0  0  0
  146.1205  138.9430  155.6783 H   0  0  0  0  0  0  0  0  0  0  0  0
  145.4013  139.9662  154.4593 H   0  0  0  0  0  0  0  0  0  0  0  0
  150.7224  134.3954  156.6637 H   0  0  0  0  0  0  0  0  0  0  0  0
  149.8696  134.6576  155.1470 H   0  0  0  0  0  0  0  0  0  0  0  0
  149.1644  135.2032  156.6686 H   0  0  0  0  0  0  0  0  0  0  0  0
  144.3081  138.7747  152.5192 H   0  0  0  0  0  0  0  0  0  0  0  0
  1  2  1  0  0  0  0
  1 25  1  0  0  0  0
  1 26  1  0  0  0  0
  1 27  1  0  0  0  0
  2  3  1  0  0  0  0
  3  4  1  0  0  0  0
  3 28  1  0  0  0  0
  3 29  1  0  0  0  0
  4  5  1  0  0  0  0
  4 30  1  0  0  0  0
  4 31  1  0  0  0  0
  5 16  1  0  0  0  0
  5  6  1  0  0  0  0
  6  7  1  0  0  0  0
  6 14  2  0  0  0  0
  7 13  1  0  0  0  0
  7  8  1  0  0  0  0
  8  9  1  0  0  0  0
  8 32  1  0  0  0  0
  8 33  1  0  0  0  0
  9 10  1  0  0  0  0
  9 34  1  0  0  0  0
  9 35  1  0  0  0  0
 10 11  1  0  0  0  0
 10 12  1  0  0  0  0
 10 46  1  0  0  0  0
 11 36  1  0  0  0  0
 11 37  1  0  0  0  0
 11 38  1  0  0  0  0
 12 13  1  0  0  0  0
 12 39  1  0  0  0  0
 12 40  1  0  0  0  0
 13 41  1  0  0  0  0
 13 42  1  0  0  0  0
 14 15  1  0  0  0  0
 15 22  1  0  0  0  0
 15 16  2  0  0  0  0
 16 17  1  0  0  0  0
 17 18  2  0  0  0  0
 17 19  1  0  0  0  0
 19 24  1  0  0  0  0
 19 20  1  0  0  0  0
 20 21  2  0  0  0  0
 20 22  1  0  0  0  0
 22 23  1  0  0  0  0
 23 43  1  0  0  0  0
 23 44  1  0  0  0  0
 23 45  1  0  0  0  0
M  CHG  1  10   1
M  END
> <s_m_source_file>
AV-unprocessed.smi

> <i_m_source_file_index>
511

> <i_lp_mmshare_version>
43012

> <i_f3d_flags>
0

> <s_epik_input>
W0NIM11uMWMoPU8pW25IXWMoPU8pYyhjMTIpbihbQ0gyXVtDSDJdT1tDSDNdKWMobjIpTjNbQ0gyXVtDSDJdTihbQ0gzXSlbQ0gyXVtDSDJdMw==

> <s_epik_cmdline>
J2VwaWtfcHl0aG9uJywgJy1waCcsICc3LjAnLCAnLXRuJywgJzgnLCAnLW1hJywgJzIwMCcsICctbWV0YWxfYmluZGluZycsICctaW1hZScsICc8aW5maWxlLm1hZT4nLCAnLW9tYWUnLCAnPG91dGZpbGUubWFlPic=

> <r_epik_Ionization_Penalty>
0.064781

> <r_epik_Ionization_Penalty_Charging>
0.0647789

> <r_epik_Ionization_Penalty_Neutral>
2.1607e-06

> <r_epik_State_Penalty>
0.0564218

> <r_epik_Charging_Adjusted_Penalty>
0.121201

> <i_epik_Tot_Q>
1

> <i_epik_Tot_abs_Q>
1

> <r_epik_Metal_State_Penalty>
0.0833038

> <b_epik_Metal_Only>
0

> <s_lp_Force_Field>
OPLS_2005

> <r_lp_Energy>
49.4722

> <b_lp_Chiralities_Consistent>
1

> <s_lp_Variant>
AV-unprocessed.smi:511-1

> <Gold.Version>
5.8.1

> <Gold.Id.Protein>
6NUR|6NUR_protein|mol2

> <Gold.PLP.Fitness>
41.2676

> <Gold.PLP.PLP>
-30.8453

> <Gold.PLP.part.hbond>
-4.1845

> <Gold.PLP.part.metal>
0.0000

> <Gold.PLP.part.buried>
4.2511

> <Gold.PLP.part.nonpolar>
-30.4788

> <Gold.PLP.part.repulsive>
0.4640

> <Gold.PLP.ligand.clash>
0.0000

> <Gold.PLP.ligand.torsion>
1.5871

> <Gold.PLP.Chemscore.Hbond>
4.3459

> <Gold.PLP.Chemscore.CHOScore>
0.0000

> <Gold.PLP.Chemscore.Metal>
0.0000

> <Gold.Chemscore.Hbonds>
donor molecule, donor type, donor heavy atom, donor atom, acceptor molecule, acceptor atom, score
      L1  H    10    46       P1 10175  2.00
      P1  H  7989  7998       L1    18  0.47
      P1  H  7997  8009       L1    18  0.73
      P1  H 10752 10764       L1    21  0.94

> <Gold.PLP.Chemscore.Internal.Correction>
0.5589

> <Gold.Rescore>
     Score         DG    S(hbond)    S(metal)    S(lipo)     H(rot)  DE(clash)    DE(int)     intcor
     13.23     -15.13       2.27        0.00      50.65       1.51       0.62       1.28       ----

> <Gold.Chemscore.Fitness>
13.2283

> <Gold.Chemscore.DG>
-15.1278

> <Gold.Chemscore.ZeroCoef>
-5.4800

> <Gold.Chemscore.Hbond>
2.2707

> <Gold.Chemscore.Metal>
0.0000

> <Gold.Chemscore.Lipo>
50.6468

> <Gold.Chemscore.Internal_Hbond>
0.0000

> <Gold.Chemscore.DEClash>
0.6218

> <Gold.Chemscore.DEInternal>
1.2776

> <Gold.Chemscore.Rot>
1.5086

> <Gold.Chemscore.Internal.Correction>
   9.000000E+99

> <Gold.Chemscore.Hbonds>
donor molecule, donor type, donor heavy atom, donor atom, acceptor molecule, acceptor atom, score
      L1  H    10    46       P1 10175  1.00
      P1  H  7989  7998       L1    18  0.30
      P1  H  7997  8009       L1    18  0.64
      P1  H 10752 10764       L1    21  0.32

> <Gold.Chemscore.Hbond.Weighted>
-7.5841

> <Gold.Chemscore.Metal.Weighted>
-0.0000

> <Gold.Chemscore.Lipo.Weighted>
-5.9257

> <Gold.Chemscore.Internal_Hbond.Weighted>
0.0000

> <Gold.Chemscore.DEClash.Weighted>
0.6218

> <Gold.Chemscore.DEInternal.Weighted>
1.2776

> <Gold.Chemscore.Rot.Weighted>
3.8620

> <Gold.Chemscore.Internal.Correction.Weighted>
   9.000000E+99

> <Gold.Protein.RotatedTorsions>
[ 6907 6896 6895 6894 ] final  112.10 input  -60.11 | X-H torsion
[ 7974 7965 7964 7962 ] final   23.47 input  175.53 | X-H torsion
[ 8008 7997 7996 7995 ] final -142.14 input   59.86 | X-H torsion
[ 10167 10162 10161 10158 ] final  134.96 input  -65.29 | X-H torsion
[ 10718 10713 10712 10709 ] final  -88.00 input   66.30 | X-H torsion
[ 10763 10752 10751 10750 ] final   15.09 input  -60.55 | X-H torsion
[ 11005 11000 10999 10996 ] final  155.17 input  -57.11 | X-H torsion

> <Gold.Protein.ActiveResidues>
 VAL166  LYS551  ARG553  GLY616  TRP617  ASP618  TYR619  PRO620  LYS621  CYS622 
 ASP623  PHE694  ASN695  SER759  ASP760  ASP761  ALA762  ILE779  LEU786  VAL792 
 PHE793  MET794  SER795  GLU796  ALA797  LYS798  CYS799  TRP800  GLU811  SER814 

> <Gold.Protein.RotatedAtoms>
  152.4934  133.8563  159.7227 H   0  0  0  0  0  0  0  0  0  0  0  0  # atno 6907 bound_to 6896
  150.9087  133.7016  159.2867 H   0  0  0  0  0  0  0  0  0  0  0  0  # atno 6908 bound_to 6896
  151.4433  135.1026  159.9729 H   0  0  0  0  0  0  0  0  0  0  0  0  # atno 6909 bound_to 6896
  146.1983  139.7740  142.8781 H   0  0  0  0  0  0  0  0  0  0  0  0  # atno 7974 bound_to 7965
  155.4893  140.0566  157.2956 H   0  0  0  0  0  0  0  0  0  0  0  0  # atno 8008 bound_to 7997
  154.4629  140.2005  156.0147 H   0  0  0  0  0  0  0  0  0  0  0  0  # atno 8009 bound_to 7997
  156.0923  140.3231  155.7836 H   0  0  0  0  0  0  0  0  0  0  0  0  # atno 8010 bound_to 7997
  139.5235  144.6541  151.5215 H   0  0  0  0  0  0  0  0  0  0  0  0  # atno 10167 bound_to 10162
  155.9984  130.4820  150.4952 H   0  0  0  0  0  0  0  0  0  0  0  0  # atno 10718 bound_to 10713
  153.1558  135.6787  153.8814 H   0  0  0  0  0  0  0  0  0  0  0  0  # atno 10763 bound_to 10752
  153.8226  135.3128  155.3413 H   0  0  0  0  0  0  0  0  0  0  0  0  # atno 10764 bound_to 10752
  154.7896  135.4842  154.0111 H   0  0  0  0  0  0  0  0  0  0  0  0  # atno 10765 bound_to 10752
  140.1557  134.8644  157.2511 H   0  0  0  0  0  0  0  0  0  0  0  0  # atno 11005 bound_to 11000
  145.3571  141.0319  143.3306 LP  0  0  0  0  0  0  0  0  0  0  0  0  # atno 17320 bound_to 7965
  144.8627  139.5154  143.6805 LP  0  0  0  0  0  0  0  0  0  0  0  0  # atno 17321 bound_to 7965
  140.6359  143.8986  150.6646 LP  0  0  0  0  0  0  0  0  0  0  0  0  # atno 17342 bound_to 10162
  140.2305  143.3739  152.1570 LP  0  0  0  0  0  0  0  0  0  0  0  0  # atno 17343 bound_to 10162
  157.2943  131.0632  151.2112 LP  0  0  0  0  0  0  0  0  0  0  0  0  # atno 17370 bound_to 10713
  157.3114  130.6891  149.6218 LP  0  0  0  0  0  0  0  0  0  0  0  0  # atno 17371 bound_to 10713
  140.2551  134.3637  155.7427 LP  0  0  0  0  0  0  0  0  0  0  0  0  # atno 17394 bound_to 11000
  141.2204  133.7338  156.8994 LP  0  0  0  0  0  0  0  0  0  0  0  0  # atno 17395 bound_to 11000

$$$$
