AV-unprocessed.smi:1645|AV-procd|sdf|6609|dock10
  -GOLD-   22720 7313D 1   1.00000     0.00000
 Structure written by MMmdl.
 56 59  0  0  0  0  0  0  0  0  3 V2000
  146.4839  139.5051  153.6996 O   0  0  0  0  0  0  0  0  0  0  0  0
  147.3712  138.8272  153.1833 C   0  0  0  0  0  0  0  0  0  0  0  0
  148.6779  138.8797  153.4961 N   0  0  0  0  0  0  0  0  0  0  0  0
  149.3467  139.7450  154.4058 C   0  0  0  0  0  0  0  0  0  0  0  0
  150.5129  139.2572  155.0317 C   0  0  0  0  0  0  0  0  0  0  0  0
  151.2212  140.0740  155.9363 C   0  0  0  0  0  0  0  0  0  0  0  0
  150.7554  141.3823  156.2204 C   0  0  0  0  0  0  0  0  0  0  0  0
  151.4105  142.2802  157.0933 N   0  0  0  0  0  0  0  0  0  0  0  0
  151.0897  143.7031  156.9436 C   0  0  0  0  0  0  0  0  0  0  0  0
  152.1750  144.5910  157.5756 C   0  0  0  0  0  0  0  0  0  0  0  0
  152.4390  144.1896  159.0337 C   0  0  0  0  0  0  0  0  0  0  0  0
  152.7970  142.6989  159.1078 C   0  0  0  0  0  0  0  0  0  0  0  0
  151.7085  141.8298  158.4544 C   0  0  0  0  0  0  0  0  0  0  0  0
  149.6216  141.7993  155.6067 N   0  3  0  0  0  0  0  0  0  0  0  0
  148.9127  141.0518  154.7335 C   0  0  0  0  0  0  0  0  0  0  0  0
  147.1403  137.9279  152.2154 N   0  0  0  0  0  0  0  0  0  0  0  0
  145.8373  137.6582  151.6078 C   0  0  1  0  0  0  0  0  0  0  0  0
  145.8990  136.5829  150.5060 C   0  0  0  0  0  0  0  0  0  0  0  0
  144.6335  135.7443  150.7127 C   0  0  0  0  0  0  0  0  0  0  0  0
  144.4493  135.7839  152.1680 N   0  3  2  0  0  0  0  0  0  0  0  0
  143.1820  135.2803  152.7350 C   0  0  0  0  0  0  0  0  0  0  0  0
  143.3135  135.2539  154.2730 C   0  0  0  0  0  0  0  0  0  0  0  0
  143.7752  136.6142  154.8449 C   0  0  0  0  0  0  0  0  0  0  0  0
  145.0304  137.1472  154.1197 C   0  0  0  0  0  0  0  0  0  0  0  0
  144.7653  137.1554  152.6035 C   0  0  1  0  0  0  0  0  0  0  0  0
  149.2809  138.2690  152.9645 H   0  0  0  0  0  0  0  0  0  0  0  0
  150.8724  138.2612  154.8171 H   0  0  0  0  0  0  0  0  0  0  0  0
  152.1098  139.6743  156.4010 H   0  0  0  0  0  0  0  0  0  0  0  0
  150.9779  143.9866  155.8974 H   0  0  0  0  0  0  0  0  0  0  0  0
  150.1290  143.8936  157.4238 H   0  0  0  0  0  0  0  0  0  0  0  0
  153.0978  144.5039  157.0003 H   0  0  0  0  0  0  0  0  0  0  0  0
  151.8765  145.6384  157.5242 H   0  0  0  0  0  0  0  0  0  0  0  0
  153.2462  144.7926  159.4507 H   0  0  0  0  0  0  0  0  0  0  0  0
  151.5535  144.3883  159.6388 H   0  0  0  0  0  0  0  0  0  0  0  0
  153.7496  142.5286  158.6042 H   0  0  0  0  0  0  0  0  0  0  0  0
  152.9397  142.3991  160.1464 H   0  0  0  0  0  0  0  0  0  0  0  0
  150.7943  141.8619  159.0486 H   0  0  0  0  0  0  0  0  0  0  0  0
  152.0576  140.7970  158.4463 H   0  0  0  0  0  0  0  0  0  0  0  0
  148.0324  141.5375  154.3418 H   0  0  0  0  0  0  0  0  0  0  0  0
  147.9277  137.4124  151.8499 H   0  0  0  0  0  0  0  0  0  0  0  0
  145.4675  138.5773  151.1483 H   0  0  0  0  0  0  0  0  0  0  0  0
  145.9571  137.0096  149.5041 H   0  0  0  0  0  0  0  0  0  0  0  0
  146.7759  135.9483  150.6439 H   0  0  0  0  0  0  0  0  0  0  0  0
  143.7786  136.2091  150.2187 H   0  0  0  0  0  0  0  0  0  0  0  0
  144.7384  134.7245  150.3411 H   0  0  0  0  0  0  0  0  0  0  0  0
  142.3516  135.9166  152.4253 H   0  0  0  0  0  0  0  0  0  0  0  0
  142.9813  134.2772  152.3572 H   0  0  0  0  0  0  0  0  0  0  0  0
  142.3650  134.9608  154.7242 H   0  0  0  0  0  0  0  0  0  0  0  0
  144.0358  134.4868  154.5558 H   0  0  0  0  0  0  0  0  0  0  0  0
  142.9662  137.3385  154.7411 H   0  0  0  0  0  0  0  0  0  0  0  0
  143.9699  136.5244  155.9140 H   0  0  0  0  0  0  0  0  0  0  0  0
  145.2610  138.1520  154.4747 H   0  0  0  0  0  0  0  0  0  0  0  0
  145.8920  136.5201  154.3527 H   0  0  0  0  0  0  0  0  0  0  0  0
  143.8773  137.7664  152.4261 H   0  0  0  0  0  0  0  0  0  0  0  0
  145.1815  135.1988  152.5444 H   0  0  0  0  0  0  0  0  0  0  0  0
  149.2843  142.7402  155.8113 H   0  0  0  0  0  0  0  0  0  0  0  0
  1  2  2  0  0  0  0
  2  3  1  0  0  0  0
  2 16  1  0  0  0  0
  3  4  1  0  0  0  0
  3 26  1  0  0  0  0
  4 15  1  0  0  0  0
  4  5  2  0  0  0  0
  5  6  1  0  0  0  0
  5 27  1  0  0  0  0
  6  7  2  0  0  0  0
  6 28  1  0  0  0  0
  7  8  1  0  0  0  0
  7 14  1  0  0  0  0
  8 13  1  0  0  0  0
  8  9  1  0  0  0  0
  9 10  1  0  0  0  0
  9 29  1  0  0  0  0
  9 30  1  0  0  0  0
 10 11  1  0  0  0  0
 10 31  1  0  0  0  0
 10 32  1  0  0  0  0
 11 12  1  0  0  0  0
 11 33  1  0  0  0  0
 11 34  1  0  0  0  0
 12 13  1  0  0  0  0
 12 35  1  0  0  0  0
 12 36  1  0  0  0  0
 13 37  1  0  0  0  0
 13 38  1  0  0  0  0
 14 15  2  0  0  0  0
 14 56  1  0  0  0  0
 15 39  1  0  0  0  0
 16 17  1  0  0  0  0
 16 40  1  0  0  0  0
 17 25  1  0  0  0  0
 17 18  1  0  0  0  0
 17 41  1  0  0  0  0
 18 19  1  0  0  0  0
 18 42  1  0  0  0  0
 18 43  1  0  0  0  0
 19 20  1  0  0  0  0
 19 44  1  0  0  0  0
 19 45  1  0  0  0  0
 20 25  1  0  0  0  0
 20 21  1  0  0  0  0
 20 55  1  0  0  0  0
 21 22  1  0  0  0  0
 21 46  1  0  0  0  0
 21 47  1  0  0  0  0
 22 23  1  0  0  0  0
 22 48  1  0  0  0  0
 22 49  1  0  0  0  0
 23 24  1  0  0  0  0
 23 50  1  0  0  0  0
 23 51  1  0  0  0  0
 24 25  1  0  0  0  0
 24 52  1  0  0  0  0
 24 53  1  0  0  0  0
 25 54  1  0  0  0  0
M  CHG  1  14   1
M  CHG  1  20   1
M  END
> <s_m_source_file>
AV-unprocessed.smi

> <i_m_source_file_index>
1645

> <i_lp_mmshare_version>
43012

> <i_f3d_flags>
0

> <s_epik_input>
W0NIMl0xW0NIMl1bQ0gyXVtDSDJdW0NASF0oTjEyKVtDQEBIXShbQ0gyXVtDSDJdMilbTkhdQyg9TylbTkhdYzNbY0hdW2NIXWMobltjSF0zKU40W0NIMl1bQ0gyXVtDSDJdW0NIMl1bQ0gyXTQ=

> <s_epik_cmdline>
J2VwaWtfcHl0aG9uJywgJy1waCcsICc3LjAnLCAnLXRuJywgJzgnLCAnLW1hJywgJzIwMCcsICctbWV0YWxfYmluZGluZycsICctaW1hZScsICc8aW5maWxlLm1hZT4nLCAnLW9tYWUnLCAnPG91dGZpbGUubWFlPic=

> <r_lp_tautomer_probability>
0.999994

> <r_epik_Ionization_Penalty>
1.26838

> <r_epik_Ionization_Penalty_Charging>
1.26836

> <r_epik_Ionization_Penalty_Neutral>
1.95562e-05

> <r_epik_State_Penalty>
1.33841

> <r_epik_Charging_Adjusted_Penalty>
2.60677

> <i_epik_Tot_Q>
2

> <i_epik_Tot_abs_Q>
2

> <r_epik_Metal_State_Penalty>
1.40601

> <b_epik_Metal_Only>
0

> <s_lp_Force_Field>
OPLS_2005

> <r_lp_Energy>
64.599

> <b_lp_Chiralities_Consistent>
1

> <s_lp_Variant>
AV-unprocessed.smi:1645-10

> <Gold.Version>
5.8.1

> <Gold.Id.Protein>
6NUR|6NUR_protein|mol2

> <Gold.PLP.Fitness>
53.9839

> <Gold.PLP.PLP>
-45.5395

> <Gold.PLP.part.hbond>
-3.6271

> <Gold.PLP.part.metal>
0.0000

> <Gold.PLP.part.buried>
2.4294

> <Gold.PLP.part.nonpolar>
-44.9495

> <Gold.PLP.part.repulsive>
0.4608

> <Gold.PLP.ligand.clash>
0.0000

> <Gold.PLP.ligand.torsion>
0.7497

> <Gold.PLP.Chemscore.Hbond>
3.2288

> <Gold.PLP.Chemscore.CHOScore>
0.0000

> <Gold.PLP.Chemscore.Metal>
0.0000

> <Gold.Chemscore.Hbonds>
donor molecule, donor type, donor heavy atom, donor atom, acceptor molecule, acceptor atom, score
      L1  H     3    26       P1  7948  0.23
      L1  H    14    56       P1  8028  2.00
      L1  H    16    40       P1  7948  1.00

> <Gold.PLP.Chemscore.Internal.Correction>
0.2574

> <Gold.Rescore>
     Score         DG    S(hbond)    S(metal)    S(lipo)     H(rot)  DE(clash)    DE(int)     intcor
     19.17     -23.63       1.96        0.00     121.17       1.00       0.78       3.69       ----

> <Gold.Chemscore.Fitness>
19.1716

> <Gold.Chemscore.DG>
-23.6321

> <Gold.Chemscore.ZeroCoef>
-5.4800

> <Gold.Chemscore.Hbond>
1.9567

> <Gold.Chemscore.Metal>
0.0000

> <Gold.Chemscore.Lipo>
121.1681

> <Gold.Chemscore.Internal_Hbond>
0.0000

> <Gold.Chemscore.DEClash>
0.7752

> <Gold.Chemscore.DEInternal>
3.6854

> <Gold.Chemscore.Rot>
1.0000

> <Gold.Chemscore.Internal.Correction>
   9.000000E+99

> <Gold.Chemscore.Hbonds>
donor molecule, donor type, donor heavy atom, donor atom, acceptor molecule, acceptor atom, score
      L1  H     3    26       P1  7948  0.21
      L1  H    14    56       P1  8028  0.93
      L1  H    16    40       P1  7948  0.92

> <Gold.Chemscore.Hbond.Weighted>
-6.5354

> <Gold.Chemscore.Metal.Weighted>
-0.0000

> <Gold.Chemscore.Lipo.Weighted>
-14.1767

> <Gold.Chemscore.Internal_Hbond.Weighted>
0.0000

> <Gold.Chemscore.DEClash.Weighted>
0.7752

> <Gold.Chemscore.DEInternal.Weighted>
3.6854

> <Gold.Chemscore.Rot.Weighted>
2.5600

> <Gold.Chemscore.Internal.Correction.Weighted>
   9.000000E+99

> <Gold.Protein.RotatedTorsions>
[ 6907 6896 6895 6894 ] final  137.50 input  -60.11 | X-H torsion
[ 7974 7965 7964 7962 ] final  133.76 input  175.53 | X-H torsion
[ 8008 7997 7996 7995 ] final -117.30 input   59.86 | X-H torsion
[ 10167 10162 10161 10158 ] final -138.99 input  -65.29 | X-H torsion
[ 10718 10713 10712 10709 ] final  -62.65 input   66.30 | X-H torsion
[ 10763 10752 10751 10750 ] final  -17.85 input  -60.55 | X-H torsion
[ 11005 11000 10999 10996 ] final   66.46 input  -57.11 | X-H torsion

> <Gold.Protein.ActiveResidues>
 VAL166  LYS551  ARG553  GLY616  TRP617  ASP618  TYR619  PRO620  LYS621  CYS622 
 ASP623  PHE694  ASN695  SER759  ASP760  ASP761  ALA762  ILE779  LEU786  VAL792 
 PHE793  MET794  SER795  GLU796  ALA797  LYS798  CYS799  TRP800  GLU811  SER814 

> <Gold.Protein.RotatedAtoms>
  152.2773  133.5438  159.5475 H   0  0  0  0  0  0  0  0  0  0  0  0  # atno 6907 bound_to 6896
  150.7182  134.0613  159.3841 H   0  0  0  0  0  0  0  0  0  0  0  0  # atno 6908 bound_to 6896
  151.8525  135.0553  160.0511 H   0  0  0  0  0  0  0  0  0  0  0  0  # atno 6909 bound_to 6896
  144.9833  139.4482  143.5375 H   0  0  0  0  0  0  0  0  0  0  0  0  # atno 7974 bound_to 7965
  155.0815  140.0394  157.2640 H   0  0  0  0  0  0  0  0  0  0  0  0  # atno 8008 bound_to 7997
  154.6903  140.2652  155.6794 H   0  0  0  0  0  0  0  0  0  0  0  0  # atno 8009 bound_to 7997
  156.2726  140.2761  156.1479 H   0  0  0  0  0  0  0  0  0  0  0  0  # atno 8010 bound_to 7997
  139.8423  143.7305  152.2662 H   0  0  0  0  0  0  0  0  0  0  0  0  # atno 10167 bound_to 10162
  156.0841  130.4211  150.1166 H   0  0  0  0  0  0  0  0  0  0  0  0  # atno 10718 bound_to 10713
  153.5803  135.7005  153.5466 H   0  0  0  0  0  0  0  0  0  0  0  0  # atno 10763 bound_to 10752
  153.3267  135.4059  155.1461 H   0  0  0  0  0  0  0  0  0  0  0  0  # atno 10764 bound_to 10752
  154.8618  135.3709  154.5330 H   0  0  0  0  0  0  0  0  0  0  0  0  # atno 10765 bound_to 10752
  139.9830  134.6712  156.0227 H   0  0  0  0  0  0  0  0  0  0  0  0  # atno 11005 bound_to 11000
  146.3413  139.9119  142.8779 LP  0  0  0  0  0  0  0  0  0  0  0  0  # atno 17320 bound_to 7965
  145.2390  141.0002  143.3947 LP  0  0  0  0  0  0  0  0  0  0  0  0  # atno 17321 bound_to 7965
  139.7546  144.7524  151.0454 LP  0  0  0  0  0  0  0  0  0  0  0  0  # atno 17342 bound_to 10162
  140.7797  143.4820  151.0006 LP  0  0  0  0  0  0  0  0  0  0  0  0  # atno 17343 bound_to 10162
  156.9190  130.9677  151.3551 LP  0  0  0  0  0  0  0  0  0  0  0  0  # atno 17370 bound_to 10713
  157.5969  130.8484  149.8743 LP  0  0  0  0  0  0  0  0  0  0  0  0  # atno 17371 bound_to 10713
  141.1500  133.6550  156.3983 LP  0  0  0  0  0  0  0  0  0  0  0  0  # atno 17394 bound_to 11000
  140.5057  134.6443  157.5265 LP  0  0  0  0  0  0  0  0  0  0  0  0  # atno 17395 bound_to 11000

$$$$
