AV-unprocessed.smi:91|AV-procd|sdf|837|dock5
  -GOLD-   2262017263D 1   1.00000     0.00000
 Structure written by MMmdl.
 60 63  0  0  0  0  0  0  0  0  1 V2000
  145.1363  135.9223  162.1847 C   0  0  0  0  0  0  0  0  0  0  0  0
  145.5512  134.6625  162.6825 O   0  0  0  0  0  0  0  0  0  0  0  0
  146.9627  134.5536  162.7764 C   0  0  0  0  0  0  0  0  0  0  0  0
  147.5679  134.3190  161.3855 C   0  0  2  0  0  0  0  0  0  0  0  0
  147.6593  135.6046  160.5443 C   0  0  0  0  0  0  0  0  0  0  0  0
  148.1378  135.2831  159.2052 N   0  0  0  0  0  0  0  0  0  0  0  0
  148.5770  136.2932  158.4139 C   0  0  0  0  0  0  0  0  0  0  0  0
  147.9334  136.5758  157.2496 N   0  0  0  0  0  0  0  0  0  0  0  0
  148.3649  137.5668  156.4637 C   0  0  0  0  0  0  0  0  0  0  0  0
  149.3984  138.3898  156.6497 N   0  0  0  0  0  0  0  0  0  0  0  0
  150.0419  138.1186  157.8209 C   0  0  0  0  0  0  0  0  0  0  0  0
  149.7014  137.0976  158.7528 C   0  0  0  0  0  0  0  0  0  0  0  0
  150.5748  137.1331  159.8338 N   0  0  0  0  0  0  0  0  0  0  0  0
  151.3885  138.1141  159.5543 C   0  0  0  0  0  0  0  0  0  0  0  0
  151.1368  138.7648  158.3684 N   0  0  0  0  0  0  0  0  0  0  0  0
  151.8799  139.8903  157.8286 C   0  0  0  0  0  0  0  0  0  0  0  0
  151.0314  141.1825  157.7331 C   0  0  2  0  0  0  0  0  0  0  0  0
  150.2455  141.2774  156.4025 C   0  0  0  0  0  0  0  0  0  0  0  0
  150.9238  140.6161  155.3538 O   0  0  0  0  0  0  0  0  0  0  0  0
  151.8828  142.4477  158.0090 C   0  0  1  0  0  0  0  0  0  0  0  0
  151.1078  143.7539  158.0059 C   0  0  0  0  0  0  0  0  0  0  0  0
  152.0560  144.6895  158.7458 C   0  0  0  0  0  0  0  0  0  0  0  0
  152.7115  143.8772  159.7122 O   0  0  0  0  0  0  0  0  0  0  0  0
  152.5135  142.5001  159.4059 C   0  0  0  0  0  0  0  0  0  0  0  0
  147.3196  134.2781  158.5359 C   0  0  0  0  0  0  0  0  0  0  0  0
  147.2162  132.9932  159.3871 C   0  0  0  0  0  0  0  0  0  0  0  0
  146.1163  132.0827  158.8202 C   0  0  0  0  0  0  0  0  0  0  0  0
  148.5507  132.2179  159.4176 C   0  0  0  0  0  0  0  0  0  0  0  0
  146.7854  133.3329  160.7103 O   0  0  0  0  0  0  0  0  0  0  0  0
  144.0483  135.9555  162.1317 H   0  0  0  0  0  0  0  0  0  0  0  0
  145.5280  136.0980  161.1819 H   0  0  0  0  0  0  0  0  0  0  0  0
  145.4665  136.7321  162.8365 H   0  0  0  0  0  0  0  0  0  0  0  0
  147.3720  135.4703  163.2038 H   0  0  0  0  0  0  0  0  0  0  0  0
  147.2357  133.7343  163.4432 H   0  0  0  0  0  0  0  0  0  0  0  0
  148.5724  133.9240  161.5372 H   0  0  0  0  0  0  0  0  0  0  0  0
  146.6816  136.0828  160.4686 H   0  0  0  0  0  0  0  0  0  0  0  0
  148.3330  136.3130  161.0283 H   0  0  0  0  0  0  0  0  0  0  0  0
  147.8004  137.7228  155.5563 H   0  0  0  0  0  0  0  0  0  0  0  0
  152.1965  138.3977  160.2131 H   0  0  0  0  0  0  0  0  0  0  0  0
  152.7466  140.0454  158.4711 H   0  0  0  0  0  0  0  0  0  0  0  0
  152.2715  139.6169  156.8483 H   0  0  0  0  0  0  0  0  0  0  0  0
  150.2825  141.1261  158.5246 H   0  0  0  0  0  0  0  0  0  0  0  0
  149.2504  140.8445  156.5028 H   0  0  0  0  0  0  0  0  0  0  0  0
  150.0899  142.3172  156.1161 H   0  0  0  0  0  0  0  0  0  0  0  0
  151.7505  140.2975  155.6830 H   0  0  0  0  0  0  0  0  0  0  0  0
  152.6813  142.5206  157.2687 H   0  0  0  0  0  0  0  0  0  0  0  0
  150.8696  144.1119  157.0040 H   0  0  0  0  0  0  0  0  0  0  0  0
  150.1759  143.6479  158.5632 H   0  0  0  0  0  0  0  0  0  0  0  0
  152.8054  145.0900  158.0619 H   0  0  0  0  0  0  0  0  0  0  0  0
  151.5378  145.5279  159.2116 H   0  0  0  0  0  0  0  0  0  0  0  0
  151.8385  142.0810  160.1533 H   0  0  0  0  0  0  0  0  0  0  0  0
  153.4541  141.9510  159.4575 H   0  0  0  0  0  0  0  0  0  0  0  0
  146.3262  134.7023  158.3828 H   0  0  0  0  0  0  0  0  0  0  0  0
  147.7060  134.0350  157.5465 H   0  0  0  0  0  0  0  0  0  0  0  0
  146.3419  131.7757  157.7983 H   0  0  0  0  0  0  0  0  0  0  0  0
  145.1511  132.5901  158.8074 H   0  0  0  0  0  0  0  0  0  0  0  0
  146.0036  131.1796  159.4207 H   0  0  0  0  0  0  0  0  0  0  0  0
  148.8131  131.8568  158.4226 H   0  0  0  0  0  0  0  0  0  0  0  0
  148.4871  131.3515  160.0766 H   0  0  0  0  0  0  0  0  0  0  0  0
  149.3832  132.8327  159.7581 H   0  0  0  0  0  0  0  0  0  0  0  0
  1  2  1  0  0  0  0
  1 30  1  0  0  0  0
  1 31  1  0  0  0  0
  1 32  1  0  0  0  0
  2  3  1  0  0  0  0
  3  4  1  0  0  0  0
  3 33  1  0  0  0  0
  3 34  1  0  0  0  0
  4 29  1  0  0  0  0
  4  5  1  0  0  0  0
  4 35  1  0  0  0  0
  5  6  1  0  0  0  0
  5 36  1  0  0  0  0
  5 37  1  0  0  0  0
  6  7  1  0  0  0  0
  6 25  1  0  0  0  0
  7 12  1  0  0  0  0
  7  8  2  0  0  0  0
  8  9  1  0  0  0  0
  9 10  2  0  0  0  0
  9 38  1  0  0  0  0
 10 11  1  0  0  0  0
 11 15  1  0  0  0  0
 11 12  2  0  0  0  0
 12 13  1  0  0  0  0
 13 14  2  0  0  0  0
 14 15  1  0  0  0  0
 14 39  1  0  0  0  0
 15 16  1  0  0  0  0
 16 17  1  0  0  0  0
 16 40  1  0  0  0  0
 16 41  1  0  0  0  0
 17 18  1  0  0  0  0
 17 20  1  0  0  0  0
 17 42  1  0  0  0  0
 18 19  1  0  0  0  0
 18 43  1  0  0  0  0
 18 44  1  0  0  0  0
 19 45  1  0  0  0  0
 20 24  1  0  0  0  0
 20 21  1  0  0  0  0
 20 46  1  0  0  0  0
 21 22  1  0  0  0  0
 21 47  1  0  0  0  0
 21 48  1  0  0  0  0
 22 23  1  0  0  0  0
 22 49  1  0  0  0  0
 22 50  1  0  0  0  0
 23 24  1  0  0  0  0
 24 51  1  0  0  0  0
 24 52  1  0  0  0  0
 25 26  1  0  0  0  0
 25 53  1  0  0  0  0
 25 54  1  0  0  0  0
 26 27  1  0  0  0  0
 26 28  1  0  0  0  0
 26 29  1  0  0  0  0
 27 55  1  0  0  0  0
 27 56  1  0  0  0  0
 27 57  1  0  0  0  0
 28 58  1  0  0  0  0
 28 59  1  0  0  0  0
 28 60  1  0  0  0  0
M  END
> <s_m_source_file>
AV-unprocessed.smi

> <i_m_source_file_index>
91

> <i_lp_mmshare_version>
43012

> <i_f3d_flags>
0

> <s_epik_input>
W0NIM11PW0NIMl1bQ0BASF0oTzEpW0NIMl1OKFtDSDJdQzEoW0NIM10pW0NIM10pYyhuW2NIXW4yKWMoYzIzKW5bY0hdbjNbQ0gyXVtDQEhdKFtDSDJdW09IXSlbQ0BASF00W0NIMl1bQ0gyXU9bQ0gyXTQ=

> <s_epik_cmdline>
J2VwaWtfcHl0aG9uJywgJy1waCcsICc3LjAnLCAnLXRuJywgJzgnLCAnLW1hJywgJzIwMCcsICctbWV0YWxfYmluZGluZycsICctaW1hZScsICc8aW5maWxlLm1hZT4nLCAnLW9tYWUnLCAnPG91dGZpbGUubWFlPic=

> <r_lp_tautomer_probability>
1

> <r_epik_Ionization_Penalty>
8.63591e-05

> <r_epik_Ionization_Penalty_Charging>
0

> <r_epik_Ionization_Penalty_Neutral>
8.63591e-05

> <r_epik_State_Penalty>
-0

> <r_epik_Charging_Adjusted_Penalty>
0

> <i_epik_Tot_Q>
0

> <i_epik_Tot_abs_Q>
0

> <r_epik_Metal_State_Penalty>
-0

> <b_epik_Metal_Only>
0

> <s_lp_Force_Field>
OPLS_2005

> <r_lp_Energy>
47.5582

> <b_lp_Chiralities_Consistent>
1

> <s_lp_Variant>
AV-unprocessed.smi:91-5

> <Gold.Version>
5.8.1

> <Gold.Id.Protein>
6NUR|6NUR_protein|mol2

> <Gold.PLP.Fitness>
44.6682

> <Gold.PLP.PLP>
-41.1410

> <Gold.PLP.part.hbond>
-2.1182

> <Gold.PLP.part.metal>
0.0000

> <Gold.PLP.part.buried>
-7.2678

> <Gold.PLP.part.nonpolar>
-31.1537

> <Gold.PLP.part.repulsive>
0.0014

> <Gold.PLP.ligand.clash>
0.0000

> <Gold.PLP.ligand.torsion>
1.4028

> <Gold.PLP.Chemscore.Hbond>
1.9350

> <Gold.PLP.Chemscore.CHOScore>
0.0000

> <Gold.PLP.Chemscore.Metal>
0.0000

> <Gold.Chemscore.Hbonds>
donor molecule, donor type, donor heavy atom, donor atom, acceptor molecule, acceptor atom, score
      P1  H  6896  6908       L1    13  0.80
      P1  H  7989  7998       L1    19  0.59

> <Gold.PLP.Chemscore.Internal.Correction>
0.5278

> <Gold.Rescore>
     Score         DG    S(hbond)    S(metal)    S(lipo)     H(rot)  DE(clash)    DE(int)     intcor
     13.18     -15.03       1.62        0.00     101.79       3.03       0.06       1.80       ----

> <Gold.Chemscore.Fitness>
13.1773

> <Gold.Chemscore.DG>
-15.0335

> <Gold.Chemscore.ZeroCoef>
-5.4800

> <Gold.Chemscore.Hbond>
1.6159

> <Gold.Chemscore.Metal>
0.0000

> <Gold.Chemscore.Lipo>
101.7884

> <Gold.Chemscore.Internal_Hbond>
0.0000

> <Gold.Chemscore.DEClash>
0.0601

> <Gold.Chemscore.DEInternal>
1.7961

> <Gold.Chemscore.Rot>
3.0284

> <Gold.Chemscore.Internal.Correction>
   9.000000E+99

> <Gold.Chemscore.Hbonds>
donor molecule, donor type, donor heavy atom, donor atom, acceptor molecule, acceptor atom, score
      P1  H  6896  6908       L1    13  0.27
      P1  H  7989  7998       L1    19  0.05

> <Gold.Chemscore.Hbond.Weighted>
-5.3970

> <Gold.Chemscore.Metal.Weighted>
-0.0000

> <Gold.Chemscore.Lipo.Weighted>
-11.9092

> <Gold.Chemscore.Internal_Hbond.Weighted>
0.0000

> <Gold.Chemscore.DEClash.Weighted>
0.0601

> <Gold.Chemscore.DEInternal.Weighted>
1.7961

> <Gold.Chemscore.Rot.Weighted>
7.7528

> <Gold.Chemscore.Internal.Correction.Weighted>
   9.000000E+99

> <Gold.Protein.RotatedTorsions>
[ 6907 6896 6895 6894 ] final -138.63 input  -60.11 | X-H torsion
[ 7974 7965 7964 7962 ] final -103.69 input  175.53 | X-H torsion
[ 8008 7997 7996 7995 ] final  166.24 input   59.86 | X-H torsion
[ 10167 10162 10161 10158 ] final  -95.70 input  -65.29 | X-H torsion
[ 10718 10713 10712 10709 ] final -131.85 input   66.30 | X-H torsion
[ 10763 10752 10751 10750 ] final  179.91 input  -60.55 | X-H torsion
[ 11005 11000 10999 10996 ] final  135.38 input  -57.11 | X-H torsion

> <Gold.Protein.ActiveResidues>
 VAL166  LYS551  ARG553  GLY616  TRP617  ASP618  TYR619  PRO620  LYS621  CYS622 
 ASP623  PHE694  ASN695  SER759  ASP760  ASP761  ALA762  ILE779  LEU786  VAL792 
 PHE793  MET794  SER795  GLU796  ALA797  LYS798  CYS799  TRP800  GLU811  SER814 

> <Gold.Protein.RotatedAtoms>
  151.0375  133.5735  159.2654 H   0  0  0  0  0  0  0  0  0  0  0  0  # atno 6907 bound_to 6896
  151.2794  135.0708  159.9173 H   0  0  0  0  0  0  0  0  0  0  0  0  # atno 6908 bound_to 6896
  152.5357  134.0092  159.7984 H   0  0  0  0  0  0  0  0  0  0  0  0  # atno 6909 bound_to 6896
  145.2527  140.9243  143.3086 H   0  0  0  0  0  0  0  0  0  0  0  0  # atno 7974 bound_to 7965
  156.1735  140.1648  156.8405 H   0  0  0  0  0  0  0  0  0  0  0  0  # atno 8008 bound_to 7997
  154.5281  140.0763  156.8330 H   0  0  0  0  0  0  0  0  0  0  0  0  # atno 8009 bound_to 7997
  155.3463  140.3387  155.4241 H   0  0  0  0  0  0  0  0  0  0  0  0  # atno 8010 bound_to 7997
  140.3015  143.3160  152.0244 H   0  0  0  0  0  0  0  0  0  0  0  0  # atno 10167 bound_to 10162
  156.2286  130.7023  151.0834 H   0  0  0  0  0  0  0  0  0  0  0  0  # atno 10718 bound_to 10713
  154.5268  135.2797  155.1215 H   0  0  0  0  0  0  0  0  0  0  0  0  # atno 10763 bound_to 10752
  154.2751  135.6296  153.5329 H   0  0  0  0  0  0  0  0  0  0  0  0  # atno 10764 bound_to 10752
  152.9948  135.5637  154.5771 H   0  0  0  0  0  0  0  0  0  0  0  0  # atno 10765 bound_to 10752
  139.9976  134.9491  156.9999 H   0  0  0  0  0  0  0  0  0  0  0  0  # atno 11005 bound_to 11000
  144.9488  139.4106  143.6412 LP  0  0  0  0  0  0  0  0  0  0  0  0  # atno 17320 bound_to 7965
  146.3298  139.8485  142.8877 LP  0  0  0  0  0  0  0  0  0  0  0  0  # atno 17321 bound_to 7965
  139.4914  144.6452  151.6792 LP  0  0  0  0  0  0  0  0  0  0  0  0  # atno 17342 bound_to 10162
  140.5647  144.0209  150.6187 LP  0  0  0  0  0  0  0  0  0  0  0  0  # atno 17343 bound_to 10162
  157.7122  131.0728  150.6459 LP  0  0  0  0  0  0  0  0  0  0  0  0  # atno 17370 bound_to 10713
  156.6525  130.4489  149.5714 LP  0  0  0  0  0  0  0  0  0  0  0  0  # atno 17371 bound_to 10713
  140.4789  134.1310  155.7214 LP  0  0  0  0  0  0  0  0  0  0  0  0  # atno 17394 bound_to 11000
  141.1616  133.8781  157.1830 LP  0  0  0  0  0  0  0  0  0  0  0  0  # atno 17395 bound_to 11000

$$$$
