AV-unprocessed.smi:698|AV-procd|sdf|3398|dock7
  -GOLD-   22720 0383D 1   1.00000     0.00000
 Structure written by MMmdl.
 33 34  0  0  0  0  0  0  0  0  1 V2000
  154.8111  140.2277  161.0046 C   0  0  0  0  0  0  0  0  0  0  0  0
  153.7052  140.8177  160.1265 C   0  0  0  0  0  0  0  0  0  0  0  0
  153.4543  142.1567  160.5431 O   0  0  0  0  0  0  0  0  0  0  0  0
  152.6507  142.9516  159.7515 C   0  0  0  0  0  0  0  0  0  0  0  0
  152.4356  144.2890  160.1342 C   0  0  0  0  0  0  0  0  0  0  0  0
  151.6163  145.0952  159.3240 C   0  0  0  0  0  0  0  0  0  0  0  0
  151.0431  144.5355  158.1662 C   0  0  0  0  0  0  0  0  0  0  0  0
  151.3028  143.1842  157.8479 C   0  0  0  0  0  0  0  0  0  0  0  0
  150.6784  142.7118  156.6632 N   0  0  0  0  0  0  0  0  0  0  0  0
  150.5407  141.4402  156.2428 C   0  0  0  0  0  0  0  0  0  0  0  0
  150.9396  140.4520  156.8609 O   0  0  0  0  0  0  0  0  0  0  0  0
  149.8105  141.2646  154.9059 C   0  0  1  0  0  0  0  0  0  0  0  0
  149.7071  139.8060  154.4193 C   0  0  0  0  0  0  0  0  0  0  0  0
  148.2286  139.4903  154.5389 C   0  0  0  0  0  0  0  0  0  0  0  0
  147.5984  140.8620  154.3457 C   0  0  0  0  0  0  0  0  0  0  0  0
  148.4677  141.7159  155.0717 O   0  0  0  0  0  0  0  0  0  0  0  0
  152.0969  142.4178  158.6350 N   0  0  0  0  0  0  0  0  0  0  0  0
  155.0398  139.2042  160.7067 H   0  0  0  0  0  0  0  0  0  0  0  0
  154.5121  140.2124  162.0529 H   0  0  0  0  0  0  0  0  0  0  0  0
  155.7280  140.8122  160.9249 H   0  0  0  0  0  0  0  0  0  0  0  0
  154.0183  140.7981  159.0812 H   0  0  0  0  0  0  0  0  0  0  0  0
  152.8020  140.2123  160.2196 H   0  0  0  0  0  0  0  0  0  0  0  0
  152.8897  144.6875  161.0294 H   0  0  0  0  0  0  0  0  0  0  0  0
  151.4297  146.1261  159.5858 H   0  0  0  0  0  0  0  0  0  0  0  0
  150.4101  145.1410  157.5337 H   0  0  0  0  0  0  0  0  0  0  0  0
  150.2851  143.4232  156.0649 H   0  0  0  0  0  0  0  0  0  0  0  0
  150.2932  141.8691  154.1357 H   0  0  0  0  0  0  0  0  0  0  0  0
  150.0168  139.7471  153.3752 H   0  0  0  0  0  0  0  0  0  0  0  0
  150.3222  139.0992  154.9777 H   0  0  0  0  0  0  0  0  0  0  0  0
  147.8855  138.7553  153.8104 H   0  0  0  0  0  0  0  0  0  0  0  0
  148.0050  139.1143  155.5382 H   0  0  0  0  0  0  0  0  0  0  0  0
  147.5984  141.1478  153.2927 H   0  0  0  0  0  0  0  0  0  0  0  0
  146.5761  140.9153  154.7202 H   0  0  0  0  0  0  0  0  0  0  0  0
  1  2  1  0  0  0  0
  1 18  1  0  0  0  0
  1 19  1  0  0  0  0
  1 20  1  0  0  0  0
  2  3  1  0  0  0  0
  2 21  1  0  0  0  0
  2 22  1  0  0  0  0
  3  4  1  0  0  0  0
  4 17  1  0  0  0  0
  4  5  2  0  0  0  0
  5  6  1  0  0  0  0
  5 23  1  0  0  0  0
  6  7  2  0  0  0  0
  6 24  1  0  0  0  0
  7  8  1  0  0  0  0
  7 25  1  0  0  0  0
  8  9  1  0  0  0  0
  8 17  2  0  0  0  0
  9 10  1  0  0  0  0
  9 26  1  0  0  0  0
 10 11  2  0  0  0  0
 10 12  1  0  0  0  0
 12 16  1  0  0  0  0
 12 13  1  0  0  0  0
 12 27  1  0  0  0  0
 13 14  1  0  0  0  0
 13 28  1  0  0  0  0
 13 29  1  0  0  0  0
 14 15  1  0  0  0  0
 14 30  1  0  0  0  0
 14 31  1  0  0  0  0
 15 16  1  0  0  0  0
 15 32  1  0  0  0  0
 15 33  1  0  0  0  0
M  END
> <s_m_source_file>
AV-unprocessed.smi

> <i_m_source_file_index>
698

> <i_lp_mmshare_version>
43012

> <i_f3d_flags>
0

> <s_epik_input>
W0NIM11bQ0gyXU9jMVtjSF1bY0hdW2NIXWMobjEpW05IXUMoPU8pW0NAQEhdMltDSDJdW0NIMl1bQ0gyXU8y

> <s_epik_cmdline>
J2VwaWtfcHl0aG9uJywgJy1waCcsICc3LjAnLCAnLXRuJywgJzgnLCAnLW1hJywgJzIwMCcsICctbWV0YWxfYmluZGluZycsICctaW1hZScsICc8aW5maWxlLm1hZT4nLCAnLW9tYWUnLCAnPG91dGZpbGUubWFlPic=

> <r_lp_tautomer_probability>
1

> <r_epik_Ionization_Penalty>
3.42089e-05

> <r_epik_Ionization_Penalty_Charging>
0

> <r_epik_Ionization_Penalty_Neutral>
3.42089e-05

> <r_epik_State_Penalty>
-0

> <r_epik_Charging_Adjusted_Penalty>
0

> <i_epik_Tot_Q>
0

> <i_epik_Tot_abs_Q>
0

> <r_epik_Metal_State_Penalty>
-0

> <b_epik_Metal_Only>
0

> <s_lp_Force_Field>
OPLS_2005

> <r_lp_Energy>
20.5333

> <b_lp_Chiralities_Consistent>
1

> <s_lp_Variant>
AV-unprocessed.smi:698-2

> <Gold.Version>
5.8.1

> <Gold.Id.Protein>
6NUR|6NUR_protein|mol2

> <Gold.PLP.Fitness>
39.4042

> <Gold.PLP.PLP>
-36.5942

> <Gold.PLP.part.hbond>
-1.0000

> <Gold.PLP.part.metal>
0.0000

> <Gold.PLP.part.buried>
-4.7354

> <Gold.PLP.part.nonpolar>
-30.8951

> <Gold.PLP.part.repulsive>
0.4218

> <Gold.PLP.ligand.clash>
0.0000

> <Gold.PLP.ligand.torsion>
0.1014

> <Gold.PLP.Chemscore.Hbond>
1.0000

> <Gold.PLP.Chemscore.CHOScore>
0.0000

> <Gold.PLP.Chemscore.Metal>
0.0000

> <Gold.Chemscore.Hbonds>
donor molecule, donor type, donor heavy atom, donor atom, acceptor molecule, acceptor atom, score
      L1  H     9    26       P1  8028  1.00

> <Gold.PLP.Chemscore.Internal.Correction>
0.0127

> <Gold.Rescore>
     Score         DG    S(hbond)    S(metal)    S(lipo)     H(rot)  DE(clash)    DE(int)     intcor
     12.81     -14.21       0.99        0.00      77.33       1.42       0.02       1.38       ----

> <Gold.Chemscore.Fitness>
12.8066

> <Gold.Chemscore.DG>
-14.2067

> <Gold.Chemscore.ZeroCoef>
-5.4800

> <Gold.Chemscore.Hbond>
0.9913

> <Gold.Chemscore.Metal>
0.0000

> <Gold.Chemscore.Lipo>
77.3252

> <Gold.Chemscore.Internal_Hbond>
0.0000

> <Gold.Chemscore.DEClash>
0.0170

> <Gold.Chemscore.DEInternal>
1.3832

> <Gold.Chemscore.Rot>
1.4185

> <Gold.Chemscore.Internal.Correction>
   9.000000E+99

> <Gold.Chemscore.Hbonds>
donor molecule, donor type, donor heavy atom, donor atom, acceptor molecule, acceptor atom, score
      L1  H     9    26       P1  8028  0.95

> <Gold.Chemscore.Hbond.Weighted>
-3.3110

> <Gold.Chemscore.Metal.Weighted>
-0.0000

> <Gold.Chemscore.Lipo.Weighted>
-9.0470

> <Gold.Chemscore.Internal_Hbond.Weighted>
0.0000

> <Gold.Chemscore.DEClash.Weighted>
0.0170

> <Gold.Chemscore.DEInternal.Weighted>
1.3832

> <Gold.Chemscore.Rot.Weighted>
3.6313

> <Gold.Chemscore.Internal.Correction.Weighted>
   9.000000E+99

> <Gold.Protein.RotatedTorsions>
[ 6907 6896 6895 6894 ] final  -32.13 input  -60.11 | X-H torsion
[ 7974 7965 7964 7962 ] final   79.90 input  175.53 | X-H torsion
[ 8008 7997 7996 7995 ] final  109.26 input   59.86 | X-H torsion
[ 10167 10162 10161 10158 ] final  -92.49 input  -65.29 | X-H torsion
[ 10718 10713 10712 10709 ] final  111.78 input   66.30 | X-H torsion
[ 10763 10752 10751 10750 ] final  -17.62 input  -60.55 | X-H torsion
[ 11005 11000 10999 10996 ] final   92.45 input  -57.11 | X-H torsion

> <Gold.Protein.ActiveResidues>
 VAL166  LYS551  ARG553  GLY616  TRP617  ASP618  TYR619  PRO620  LYS621  CYS622 
 ASP623  PHE694  ASN695  SER759  ASP760  ASP761  ALA762  ILE779  LEU786  VAL792 
 PHE793  MET794  SER795  GLU796  ALA797  LYS798  CYS799  TRP800  GLU811  SER814 

> <Gold.Protein.RotatedAtoms>
  151.0829  134.9869  159.8364 H   0  0  0  0  0  0  0  0  0  0  0  0  # atno 6907 bound_to 6896
  152.5421  134.2160  159.8779 H   0  0  0  0  0  0  0  0  0  0  0  0  # atno 6908 bound_to 6896
  151.2191  133.4469  159.2633 H   0  0  0  0  0  0  0  0  0  0  0  0  # atno 6909 bound_to 6896
  145.6582  139.2464  143.1938 H   0  0  0  0  0  0  0  0  0  0  0  0  # atno 7974 bound_to 7965
  156.1966  140.3061  155.9440 H   0  0  0  0  0  0  0  0  0  0  0  0  # atno 8008 bound_to 7997
  155.3051  140.0448  157.3049 H   0  0  0  0  0  0  0  0  0  0  0  0  # atno 8009 bound_to 7997
  154.5517  140.2293  155.8483 H   0  0  0  0  0  0  0  0  0  0  0  0  # atno 8010 bound_to 7997
  140.3343  143.2977  151.9907 H   0  0  0  0  0  0  0  0  0  0  0  0  # atno 10167 bound_to 10162
  157.6427  131.0956  150.6798 H   0  0  0  0  0  0  0  0  0  0  0  0  # atno 10718 bound_to 10713
  153.5766  135.7006  153.5481 H   0  0  0  0  0  0  0  0  0  0  0  0  # atno 10763 bound_to 10752
  153.3297  135.4050  155.1485 H   0  0  0  0  0  0  0  0  0  0  0  0  # atno 10764 bound_to 10752
  154.8624  135.3716  154.5292 H   0  0  0  0  0  0  0  0  0  0  0  0  # atno 10765 bound_to 10752
  139.8823  134.8733  156.3574 H   0  0  0  0  0  0  0  0  0  0  0  0  # atno 11005 bound_to 11000
  146.1148  140.7384  142.9486 LP  0  0  0  0  0  0  0  0  0  0  0  0  # atno 17320 bound_to 7965
  144.7098  140.3996  143.7089 LP  0  0  0  0  0  0  0  0  0  0  0  0  # atno 17321 bound_to 7965
  139.4851  144.6209  151.7256 LP  0  0  0  0  0  0  0  0  0  0  0  0  # atno 17342 bound_to 10162
  140.5368  144.0643  150.6073 LP  0  0  0  0  0  0  0  0  0  0  0  0  # atno 17343 bound_to 10162
  156.7120  130.4654  149.5545 LP  0  0  0  0  0  0  0  0  0  0  0  0  # atno 17370 bound_to 10713
  156.1724  130.6445  151.0853 LP  0  0  0  0  0  0  0  0  0  0  0  0  # atno 17371 bound_to 10713
  140.9553  133.7424  156.0327 LP  0  0  0  0  0  0  0  0  0  0  0  0  # atno 17394 bound_to 11000
  140.8056  134.3458  157.5427 LP  0  0  0  0  0  0  0  0  0  0  0  0  # atno 17395 bound_to 11000

$$$$
