#       Name:                AV-unprocessed.smi:1715
#       Creating user name   scv26
#       Creation time:       Fri Mar 27 08:11:30 2020


#       File generated by GOLD software.
#

@<TRIPOS>MOLECULE
AV-unprocessed.smi:1715
    46    47     1
SMALL
NO_CHARGES


@<TRIPOS>ATOM
      1 ****        -4.3716   1.0487   0.5672 C.3            1 S1                 0.0000
      2 ****        -3.7373   1.1809  -0.8279 C.3            1 S1                 0.0000
      3 ****        -2.1984   1.2705  -0.7951 C.3            1 S1                 0.0000
      4 ****        -1.5619  -0.0066  -0.4893 N.3            1 S1                 0.0000
      5 ****        -0.1063   0.1282  -0.4752 C.3            1 S1                 0.0000
      6 ****         0.6549  -1.0932   0.0735 C.3            1 S1                 0.0000
      7 ****         2.0910  -0.8464   0.1181 N.am           1 S1                 0.0000
      8 ****         2.7275  -0.1740   1.0874 C.2            1 S1                 0.0000
      9 ****         2.1583   0.3187   2.0617 O.2            1 S1                 0.0000
     10 ****         4.0485  -0.1125   0.8517 N.am           1 S1                 0.0000
     11 ****         5.0378   0.5154   1.6499 C.2            1 S1                 0.0000
     12 ****         6.4255   0.5441   1.3437 C.2            1 S1                 0.0000
     13 ****         7.1110   1.2026   2.2673 N.2            1 S1                 0.0000
     14 ****         6.1744   1.5936   3.1607 N.pl3          1 S1                 0.0000
     15 ****         4.8981   1.1976   2.8260 C.2            1 S1                 0.0000
     16 ****        -2.0252  -1.0079  -1.4456 C.3            1 S1                 0.0000
     17 ****        -3.5591  -1.1429  -1.4408 C.3            1 S1                 0.0000
     18 ****        -4.0550  -2.1253  -2.5069 C.3            1 S1                 0.0000
     19 ****        -4.1505   0.1287  -1.7010 O.3            1 S1                 0.0000
     20 ****         6.4190   2.1240   3.9850 H              1 S1                 0.0000
     21 ****        -4.1394   1.9185   1.1822 H              1 S1                 0.0000
     22 ****        -4.0117   0.1691   1.1005 H              1 S1                 0.0000
     23 ****        -5.4569   0.9754   0.4951 H              1 S1                 0.0000
     24 ****        -4.1172   2.1057  -1.2630 H              1 S1                 0.0000
     25 ****        -1.8478   1.6245  -1.7660 H              1 S1                 0.0000
     26 ****        -1.8939   2.0236  -0.0673 H              1 S1                 0.0000
     27 ****         0.2513   0.3615  -1.4792 H              1 S1                 0.0000
     28 ****         0.1557   0.9887   0.1421 H              1 S1                 0.0000
     29 ****         0.2879  -1.3585   1.0666 H              1 S1                 0.0000
     30 ****         0.4986  -1.9651  -0.5605 H              1 S1                 0.0000
     31 ****         2.6395  -1.2157  -0.6447 H              1 S1                 0.0000
     32 ****         4.3825  -0.5614   0.0115 H              1 S1                 0.0000
     33 ****         6.9471   0.1181   0.4992 H              1 S1                 0.0000
     34 ****         4.0402   1.4326   3.4383 H              1 S1                 0.0000
     35 ****        -1.6842  -0.7457  -2.4485 H              1 S1                 0.0000
     36 ****        -1.5937  -1.9808  -1.2131 H              1 S1                 0.0000
     37 ****        -3.8894  -1.5020  -0.4656 H              1 S1                 0.0000
     38 ****        -3.6476  -3.1230  -2.3415 H              1 S1                 0.0000
     39 ****        -3.7612  -1.8044  -3.5067 H              1 S1                 0.0000
     40 ****        -5.1422  -2.2035  -2.4883 H              1 S1                 0.0000
     41 ****        -1.8217  -0.3087   0.4278 LP             1 S1                 0.0000
     42 ****         1.1675   0.2274   2.1608 LP             1 S1                 0.0000
     43 ****         2.6869   0.8100   2.7539 LP             1 S1                 0.0000
     44 ****         8.0962   1.3717   2.2967 LP             1 S1                 0.0000
     45 ****        -3.9167   0.3931  -2.6367 LP             1 S1                 0.0000
     46 ****        -5.1424   0.0310  -1.6202 LP             1 S1                 0.0000
@<TRIPOS>BOND
    1    1    2 1     
    2    1   21 1     
    3    1   22 1     
    4    1   23 1     
    5    2   19 1     
    6    2    3 1     
    7    2   24 1     
    8    3    4 1     
    9    3   25 1     
   10    3   26 1     
   11    4    5 1     
   12    4   16 1     
   13    5    6 1     
   14    5   27 1     
   15    5   28 1     
   16    6    7 1     
   17    6   29 1     
   18    6   30 1     
   19    7    8 am    
   20    7   31 1     
   21    8    9 2     
   22    8   10 am    
   23   10   11 1     
   24   10   32 1     
   25   11   15 2     
   26   11   12 1     
   27   12   13 2     
   28   12   33 1     
   29   13   14 1     
   30   14   20 1     
   31   14   15 1     
   32   15   34 1     
   33   16   17 1     
   34   16   35 1     
   35   16   36 1     
   36   17   18 1     
   37   17   19 1     
   38   17   37 1     
   39   18   38 1     
   40   18   39 1     
   41   18   40 1     
   42    4   41 1     
   43    9   42 1     
   44    9   43 1     
   45   13   44 1     
   46   19   45 1     
   47   19   46 1     
@<TRIPOS>SUBSTRUCTURE
      1 S1             1
@<TRIPOS>SET
LONE_PAIRS      STATIC     ATOMS    <user>   **** ""
6 41 42 43 44 45 46
DONOR_HYDROGENS      STATIC     ATOMS    <user>   **** ""
3 31 32 20
ATOM$BLUE        STATIC     ATOMS    COLORGROUP SYSTEM
6 41 42 43 44 45 46
ATOM$RED        STATIC     ATOMS    COLORGROUP SYSTEM
3 31 32 20
