AV-unprocessed.smi:1434|AV-procd|sdf|5852|dock4
  -GOLD-   22720 5523D 1   1.00000     0.00000
 Structure written by MMmdl.
 45 46  0  0  0  0  0  0  0  0  2 V2000
  151.2054  138.1179  156.8769 C   0  0  0  0  0  0  0  0  0  0  0  0
  151.9502  139.4780  155.8912 S   0  0  0  0  0  0  0  0  0  0  0  0
  151.7382  140.7523  156.5938 O   0  0  0  0  0  0  0  0  0  0  0  0
  153.3053  139.0727  155.4873 O   0  0  0  0  0  0  0  0  0  0  0  0
  150.9625  139.4962  154.4774 N   0  0  0  0  0  0  0  0  0  0  0  0
  149.5400  139.8073  154.6242 C   0  0  1  0  0  0  0  0  0  0  0  0
  149.3518  141.2870  155.0210 C   0  0  0  0  0  0  0  0  0  0  0  0
  147.8676  141.6999  154.9917 C   0  0  0  0  0  0  0  0  0  0  0  0
  147.2052  141.2908  153.6630 C   0  0  0  0  0  0  0  0  0  0  0  0
  147.3821  139.8404  153.4737 N   0  0  0  0  0  0  0  0  0  0  0  0
  146.4370  138.8883  153.6766 C   0  0  0  0  0  0  0  0  0  0  0  0
  145.4234  139.0745  154.3512 O   0  0  0  0  0  0  0  0  0  0  0  0
  146.7122  137.6963  153.1228 N   0  0  0  0  0  0  0  0  0  0  0  0
  145.8575  136.5217  153.2253 C   0  0  0  0  0  0  0  0  0  0  0  0
  144.9964  136.3648  151.9650 C   0  0  0  0  0  0  0  0  0  0  0  0
  145.1546  134.9956  151.3329 C   0  0  0  0  0  0  0  0  0  0  0  0
  144.0452  134.2290  150.9142 C   0  0  0  0  0  0  0  0  0  0  0  0
  144.2637  132.9672  150.3227 C   0  0  0  0  0  0  0  0  0  0  0  0
  145.5845  132.4994  150.1620 C   0  0  0  0  0  0  0  0  0  0  0  0
  146.6552  133.3069  150.5967 C   0  0  0  0  0  0  0  0  0  0  0  0
  146.4052  134.5102  151.1584 N   0  3  0  0  0  0  0  0  0  0  0  0
  148.7997  139.4966  153.3090 C   0  0  0  0  0  0  0  0  0  0  0  0
  151.7641  137.9963  157.8049 H   0  0  0  0  0  0  0  0  0  0  0  0
  151.2460  137.1904  156.3064 H   0  0  0  0  0  0  0  0  0  0  0  0
  150.1681  138.3586  157.1075 H   0  0  0  0  0  0  0  0  0  0  0  0
  151.0952  138.6473  153.9281 H   0  0  0  0  0  0  0  0  0  0  0  0
  149.1248  139.1714  155.4080 H   0  0  0  0  0  0  0  0  0  0  0  0
  149.7715  141.4754  156.0095 H   0  0  0  0  0  0  0  0  0  0  0  0
  149.9057  141.9203  154.3263 H   0  0  0  0  0  0  0  0  0  0  0  0
  147.3409  141.2260  155.8211 H   0  0  0  0  0  0  0  0  0  0  0  0
  147.7774  142.7761  155.1420 H   0  0  0  0  0  0  0  0  0  0  0  0
  146.1646  141.6146  153.6545 H   0  0  0  0  0  0  0  0  0  0  0  0
  147.6780  141.8205  152.8346 H   0  0  0  0  0  0  0  0  0  0  0  0
  147.5684  137.6030  152.5960 H   0  0  0  0  0  0  0  0  0  0  0  0
  146.4733  135.6316  153.3660 H   0  0  0  0  0  0  0  0  0  0  0  0
  145.2239  136.6198  154.1082 H   0  0  0  0  0  0  0  0  0  0  0  0
  143.9443  136.5242  152.2060 H   0  0  0  0  0  0  0  0  0  0  0  0
  145.2642  137.1280  151.2328 H   0  0  0  0  0  0  0  0  0  0  0  0
  143.0392  134.6022  151.0406 H   0  0  0  0  0  0  0  0  0  0  0  0
  143.4280  132.3662  149.9950 H   0  0  0  0  0  0  0  0  0  0  0  0
  145.7728  131.5363  149.7104 H   0  0  0  0  0  0  0  0  0  0  0  0
  147.6957  133.0297  150.5121 H   0  0  0  0  0  0  0  0  0  0  0  0
  149.2191  140.0814  152.4886 H   0  0  0  0  0  0  0  0  0  0  0  0
  148.9441  138.4517  153.0289 H   0  0  0  0  0  0  0  0  0  0  0  0
  147.1957  135.0785  151.4636 H   0  0  0  0  0  0  0  0  0  0  0  0
  1  2  1  0  0  0  0
  1 23  1  0  0  0  0
  1 24  1  0  0  0  0
  1 25  1  0  0  0  0
  2  3  2  0  0  0  0
  2  4  2  0  0  0  0
  2  5  1  0  0  0  0
  5  6  1  0  0  0  0
  5 26  1  0  0  0  0
  6 22  1  0  0  0  0
  6  7  1  0  0  0  0
  6 27  1  0  0  0  0
  7  8  1  0  0  0  0
  7 28  1  0  0  0  0
  7 29  1  0  0  0  0
  8  9  1  0  0  0  0
  8 30  1  0  0  0  0
  8 31  1  0  0  0  0
  9 10  1  0  0  0  0
  9 32  1  0  0  0  0
  9 33  1  0  0  0  0
 10 11  1  0  0  0  0
 10 22  1  0  0  0  0
 11 12  2  0  0  0  0
 11 13  1  0  0  0  0
 13 14  1  0  0  0  0
 13 34  1  0  0  0  0
 14 15  1  0  0  0  0
 14 35  1  0  0  0  0
 14 36  1  0  0  0  0
 15 16  1  0  0  0  0
 15 37  1  0  0  0  0
 15 38  1  0  0  0  0
 16 21  1  0  0  0  0
 16 17  2  0  0  0  0
 17 18  1  0  0  0  0
 17 39  1  0  0  0  0
 18 19  2  0  0  0  0
 18 40  1  0  0  0  0
 19 20  1  0  0  0  0
 19 41  1  0  0  0  0
 20 21  2  0  0  0  0
 20 42  1  0  0  0  0
 21 45  1  0  0  0  0
 22 43  1  0  0  0  0
 22 44  1  0  0  0  0
M  CHG  1  21   1
M  END
> <s_m_source_file>
AV-unprocessed.smi

> <i_m_source_file_index>
1434

> <i_lp_mmshare_version>
43012

> <i_f3d_flags>
0

> <s_epik_input>
W0NIM11TKD1PKSg9TylbTkhdW0NAQEhdMVtDSDJdW0NIMl1bQ0gyXU4oW0NIMl0xKUMoPU8pW05IXVtDSDJdW0NIMl1jMltjSF1bY0hdW2NIXVtjSF1uMg==

> <s_epik_cmdline>
J2VwaWtfcHl0aG9uJywgJy1waCcsICc3LjAnLCAnLXRuJywgJzgnLCAnLW1hJywgJzIwMCcsICctbWV0YWxfYmluZGluZycsICctaW1hZScsICc8aW5maWxlLm1hZT4nLCAnLW9tYWUnLCAnPG91dGZpbGUubWFlPic=

> <r_epik_Ionization_Penalty>
1.55113

> <r_epik_Ionization_Penalty_Charging>
1.55107

> <r_epik_Ionization_Penalty_Neutral>
6.01346e-05

> <r_epik_State_Penalty>
1.64529

> <r_epik_Charging_Adjusted_Penalty>
3.19637

> <i_epik_Tot_Q>
1

> <i_epik_Tot_abs_Q>
1

> <r_epik_Metal_State_Penalty>
1.69621

> <b_epik_Metal_Only>
0

> <s_lp_Force_Field>
OPLS_2005

> <r_lp_Energy>
28.1725

> <b_lp_Chiralities_Consistent>
1

> <s_lp_Variant>
AV-unprocessed.smi:1434-4

> <Gold.Version>
5.8.1

> <Gold.Id.Protein>
6NUR|6NUR_protein|mol2

> <Gold.PLP.Fitness>
47.7331

> <Gold.PLP.PLP>
-34.9401

> <Gold.PLP.part.hbond>
-3.9122

> <Gold.PLP.part.metal>
0.0000

> <Gold.PLP.part.buried>
0.9069

> <Gold.PLP.part.nonpolar>
-31.4645

> <Gold.PLP.part.repulsive>
1.0118

> <Gold.PLP.ligand.clash>
0.0000

> <Gold.PLP.ligand.torsion>
1.0266

> <Gold.PLP.Chemscore.Hbond>
4.8800

> <Gold.PLP.Chemscore.CHOScore>
0.0000

> <Gold.PLP.Chemscore.Metal>
0.0000

> <Gold.Chemscore.Hbonds>
donor molecule, donor type, donor heavy atom, donor atom, acceptor molecule, acceptor atom, score
      L1  H    13    34       P1  7948  0.80
      L1  H    21    45       P1  7948  1.72
      P1  H  7989  7998       L1     5  1.00
      P1  H  7997  8008       L1     4  0.98

> <Gold.PLP.Chemscore.Internal.Correction>
0.2062

> <Gold.Rescore>
     Score         DG    S(hbond)    S(metal)    S(lipo)     H(rot)  DE(clash)    DE(int)     intcor
     14.04     -17.88       2.47        0.00      82.12       2.13       1.50       2.34       ----

> <Gold.Chemscore.Fitness>
14.0425

> <Gold.Chemscore.DG>
-17.8775

> <Gold.Chemscore.ZeroCoef>
-5.4800

> <Gold.Chemscore.Hbond>
2.4699

> <Gold.Chemscore.Metal>
0.0000

> <Gold.Chemscore.Lipo>
82.1160

> <Gold.Chemscore.Internal_Hbond>
0.0000

> <Gold.Chemscore.DEClash>
1.4966

> <Gold.Chemscore.DEInternal>
2.3385

> <Gold.Chemscore.Rot>
2.1326

> <Gold.Chemscore.Internal.Correction>
   9.000000E+99

> <Gold.Chemscore.Hbonds>
donor molecule, donor type, donor heavy atom, donor atom, acceptor molecule, acceptor atom, score
      L1  H    13    34       P1  7948  0.77
      L1  H    21    45       P1  7948  0.69
      P1  H  7989  7998       L1     5  0.12
      P1  H  7997  8008       L1     4  0.85

> <Gold.Chemscore.Hbond.Weighted>
-8.2495

> <Gold.Chemscore.Metal.Weighted>
-0.0000

> <Gold.Chemscore.Lipo.Weighted>
-9.6076

> <Gold.Chemscore.Internal_Hbond.Weighted>
0.0000

> <Gold.Chemscore.DEClash.Weighted>
1.4966

> <Gold.Chemscore.DEInternal.Weighted>
2.3385

> <Gold.Chemscore.Rot.Weighted>
5.4595

> <Gold.Chemscore.Internal.Correction.Weighted>
   9.000000E+99

> <Gold.Protein.RotatedTorsions>
[ 6907 6896 6895 6894 ] final  135.68 input  -60.11 | X-H torsion
[ 7974 7965 7964 7962 ] final  -53.12 input  175.53 | X-H torsion
[ 8008 7997 7996 7995 ] final   -9.99 input   59.86 | X-H torsion
[ 10167 10162 10161 10158 ] final  109.47 input  -65.29 | X-H torsion
[ 10718 10713 10712 10709 ] final  -85.45 input   66.30 | X-H torsion
[ 10763 10752 10751 10750 ] final  168.03 input  -60.55 | X-H torsion
[ 11005 11000 10999 10996 ] final -110.25 input  -57.11 | X-H torsion

> <Gold.Protein.ActiveResidues>
 VAL166  LYS551  ARG553  GLY616  TRP617  ASP618  TYR619  PRO620  LYS621  CYS622 
 ASP623  PHE694  ASN695  SER759  ASP760  ASP761  ALA762  ILE779  LEU786  VAL792 
 PHE793  MET794  SER795  GLU796  ALA797  LYS798  CYS799  TRP800  GLU811  SER814 

> <Gold.Protein.RotatedAtoms>
  152.2978  133.5625  159.5598 H   0  0  0  0  0  0  0  0  0  0  0  0  # atno 6907 bound_to 6896
  150.7264  134.0335  159.3750 H   0  0  0  0  0  0  0  0  0  0  0  0  # atno 6908 bound_to 6896
  151.8237  135.0644  160.0479 H   0  0  0  0  0  0  0  0  0  0  0  0  # atno 6909 bound_to 6896
  145.9004  140.7999  142.9746 H   0  0  0  0  0  0  0  0  0  0  0  0  # atno 7974 bound_to 7965
  154.5596  140.2340  155.8356 H   0  0  0  0  0  0  0  0  0  0  0  0  # atno 8008 bound_to 7997
  156.2018  140.3050  155.9502 H   0  0  0  0  0  0  0  0  0  0  0  0  # atno 8009 bound_to 7997
  155.2914  140.0427  157.3014 H   0  0  0  0  0  0  0  0  0  0  0  0  # atno 8010 bound_to 7997
  139.6764  144.7122  151.1595 H   0  0  0  0  0  0  0  0  0  0  0  0  # atno 10167 bound_to 10162
  155.9997  130.4731  150.4564 H   0  0  0  0  0  0  0  0  0  0  0  0  # atno 10718 bound_to 10713
  154.3626  135.2753  155.2311 H   0  0  0  0  0  0  0  0  0  0  0  0  # atno 10763 bound_to 10752
  154.4493  135.5935  153.6184 H   0  0  0  0  0  0  0  0  0  0  0  0  # atno 10764 bound_to 10752
  152.9842  135.6038  154.3848 H   0  0  0  0  0  0  0  0  0  0  0  0  # atno 10765 bound_to 10752
  141.0802  133.9232  157.2304 H   0  0  0  0  0  0  0  0  0  0  0  0  # atno 11005 bound_to 11000
  144.6735  140.1668  143.7418 LP  0  0  0  0  0  0  0  0  0  0  0  0  # atno 17320 bound_to 7965
  145.8798  139.2317  143.1612 LP  0  0  0  0  0  0  0  0  0  0  0  0  # atno 17321 bound_to 7965
  140.7637  143.5766  150.8939 LP  0  0  0  0  0  0  0  0  0  0  0  0  # atno 17342 bound_to 10162
  139.9435  143.6355  152.3048 LP  0  0  0  0  0  0  0  0  0  0  0  0  # atno 17343 bound_to 10162
  157.2592  131.0563  151.2331 LP  0  0  0  0  0  0  0  0  0  0  0  0  # atno 17370 bound_to 10713
  157.3452  130.7053  149.6406 LP  0  0  0  0  0  0  0  0  0  0  0  0  # atno 17371 bound_to 10713
  139.9616  135.0153  156.9276 LP  0  0  0  0  0  0  0  0  0  0  0  0  # atno 17394 bound_to 11000
  140.5484  134.0651  155.7362 LP  0  0  0  0  0  0  0  0  0  0  0  0  # atno 17395 bound_to 11000

$$$$
