AV-unprocessed.smi:1022|AV-procd|sdf|4458|dock6
  -GOLD-   22720 2433D 1   1.00000     0.00000
 Structure written by MMmdl.
 33 34  0  0  0  0  0  0  0  0  1 V2000
  150.3658  130.5553  154.7938 C   0  0  0  0  0  0  0  0  0  0  0  0
  150.0954  131.5431  155.7724 O   0  0  0  0  0  0  0  0  0  0  0  0
  150.3360  132.8592  155.3001 C   0  0  0  0  0  0  0  0  0  0  0  0
  149.0294  133.4453  154.7436 C   0  0  2  0  0  0  0  0  0  0  0  0
  148.4754  132.5974  153.5878 C   0  0  0  0  0  0  0  0  0  0  0  0
  149.2624  134.8144  154.2907 N   0  0  0  0  0  0  0  0  0  0  0  0
  149.7373  135.8125  155.0496 C   0  0  0  0  0  0  0  0  0  0  0  0
  150.0277  135.6828  156.2393 O   0  0  0  0  0  0  0  0  0  0  0  0
  149.8428  136.9512  154.3427 N   0  0  0  0  0  0  0  0  0  0  0  0
  150.3044  138.2201  154.7819 C   0  0  0  0  0  0  0  0  0  0  0  0
  151.2932  138.9006  154.1861 N   0  0  0  0  0  0  0  0  0  0  0  0
  151.5419  140.1116  154.8167 N   0  0  0  0  0  0  0  0  0  0  0  0
  150.7369  140.3126  155.8668 C   0  0  0  0  0  0  0  0  0  0  0  0
  150.8154  141.5452  156.7048 C   0  0  0  0  0  0  0  0  0  0  0  0
  151.2418  141.4949  158.1558 C   0  0  0  0  0  0  0  0  0  0  0  0
  149.8079  141.7974  157.8027 C   0  0  0  0  0  0  0  0  0  0  0  0
  149.5882  139.0136  156.1740 S   0  0  0  0  0  0  0  0  0  0  0  0
  150.1625  129.5667  155.2059 H   0  0  0  0  0  0  0  0  0  0  0  0
  151.4115  130.5826  154.4849 H   0  0  0  0  0  0  0  0  0  0  0  0
  149.7363  130.6887  153.9131 H   0  0  0  0  0  0  0  0  0  0  0  0
  150.7251  133.4872  156.1036 H   0  0  0  0  0  0  0  0  0  0  0  0
  151.0927  132.8282  154.5144 H   0  0  0  0  0  0  0  0  0  0  0  0
  148.2941  133.4477  155.5502 H   0  0  0  0  0  0  0  0  0  0  0  0
  148.2871  131.5728  153.9088 H   0  0  0  0  0  0  0  0  0  0  0  0
  149.1742  132.5610  152.7514 H   0  0  0  0  0  0  0  0  0  0  0  0
  147.5329  133.0020  153.2173 H   0  0  0  0  0  0  0  0  0  0  0  0
  149.0545  135.0109  153.3225 H   0  0  0  0  0  0  0  0  0  0  0  0
  149.5550  136.9061  153.3764 H   0  0  0  0  0  0  0  0  0  0  0  0
  151.1419  142.3949  156.1082 H   0  0  0  0  0  0  0  0  0  0  0  0
  151.4493  140.5235  158.6000 H   0  0  0  0  0  0  0  0  0  0  0  0
  151.8512  142.3161  158.5275 H   0  0  0  0  0  0  0  0  0  0  0  0
  149.4600  142.8193  157.9394 H   0  0  0  0  0  0  0  0  0  0  0  0
  149.0690  141.0226  157.9985 H   0  0  0  0  0  0  0  0  0  0  0  0
  1  2  1  0  0  0  0
  1 18  1  0  0  0  0
  1 19  1  0  0  0  0
  1 20  1  0  0  0  0
  2  3  1  0  0  0  0
  3  4  1  0  0  0  0
  3 21  1  0  0  0  0
  3 22  1  0  0  0  0
  4  5  1  0  0  0  0
  4  6  1  0  0  0  0
  4 23  1  0  0  0  0
  5 24  1  0  0  0  0
  5 25  1  0  0  0  0
  5 26  1  0  0  0  0
  6  7  1  0  0  0  0
  6 27  1  0  0  0  0
  7  8  2  0  0  0  0
  7  9  1  0  0  0  0
  9 10  1  0  0  0  0
  9 28  1  0  0  0  0
 10 17  1  0  0  0  0
 10 11  2  0  0  0  0
 11 12  1  0  0  0  0
 12 13  2  0  0  0  0
 13 14  1  0  0  0  0
 13 17  1  0  0  0  0
 14 16  1  0  0  0  0
 14 15  1  0  0  0  0
 14 29  1  0  0  0  0
 15 16  1  0  0  0  0
 15 30  1  0  0  0  0
 15 31  1  0  0  0  0
 16 32  1  0  0  0  0
 16 33  1  0  0  0  0
M  END
> <s_m_source_file>
AV-unprocessed.smi

> <i_m_source_file_index>
1022

> <i_lp_mmshare_version>
43012

> <i_f3d_flags>
0

> <s_epik_input>
W0NIM11PW0NIMl1bQ0BIXShbQ0gzXSlbTkhdQyg9TylbTkhdYzFubmMoczEpW0NIXTJbQ0gyXVtDSDJdMg==

> <s_epik_cmdline>
J2VwaWtfcHl0aG9uJywgJy1waCcsICc3LjAnLCAnLXRuJywgJzgnLCAnLW1hJywgJzIwMCcsICctbWV0YWxfYmluZGluZycsICctaW1hZScsICc8aW5maWxlLm1hZT4nLCAnLW9tYWUnLCAnPG91dGZpbGUubWFlPic=

> <r_lp_tautomer_probability>
1

> <r_epik_Ionization_Penalty>
0.00129266

> <r_epik_Ionization_Penalty_Charging>
0

> <r_epik_Ionization_Penalty_Neutral>
0.00129266

> <r_epik_State_Penalty>
-0

> <r_epik_Charging_Adjusted_Penalty>
0

> <i_epik_Tot_Q>
0

> <i_epik_Tot_abs_Q>
0

> <r_epik_Metal_State_Penalty>
0.30857

> <b_epik_Metal_Only>
0

> <s_lp_Force_Field>
OPLS_2005

> <r_lp_Energy>
1.45425

> <b_lp_Chiralities_Consistent>
1

> <s_lp_Variant>
AV-unprocessed.smi:1022-1

> <Gold.Version>
5.8.1

> <Gold.Id.Protein>
6NUR|6NUR_protein|mol2

> <Gold.PLP.Fitness>
32.4287

> <Gold.PLP.PLP>
-25.7496

> <Gold.PLP.part.hbond>
-3.9226

> <Gold.PLP.part.metal>
0.0000

> <Gold.PLP.part.buried>
-3.2052

> <Gold.PLP.part.nonpolar>
-19.7952

> <Gold.PLP.part.repulsive>
0.3164

> <Gold.PLP.ligand.clash>
0.0000

> <Gold.PLP.ligand.torsion>
0.7902

> <Gold.PLP.Chemscore.Hbond>
2.7000

> <Gold.PLP.Chemscore.CHOScore>
0.0000

> <Gold.PLP.Chemscore.Metal>
0.0000

> <Gold.Chemscore.Hbonds>
donor molecule, donor type, donor heavy atom, donor atom, acceptor molecule, acceptor atom, score
      L1  H     6    27       P1  7948  0.95
      L1  H     9    28       P1  7948  1.00
      P1  H  7989  7998       L1    12  0.63

> <Gold.PLP.Chemscore.Internal.Correction>
0.1595

> <Gold.Rescore>
     Score         DG    S(hbond)    S(metal)    S(lipo)     H(rot)  DE(clash)    DE(int)     intcor
     12.11     -13.23       2.08        0.00      44.74       1.73       0.19       0.93       ----

> <Gold.Chemscore.Fitness>
12.1112

> <Gold.Chemscore.DG>
-13.2310

> <Gold.Chemscore.ZeroCoef>
-5.4800

> <Gold.Chemscore.Hbond>
2.0809

> <Gold.Chemscore.Metal>
0.0000

> <Gold.Chemscore.Lipo>
44.7361

> <Gold.Chemscore.Internal_Hbond>
0.0000

> <Gold.Chemscore.DEClash>
0.1921

> <Gold.Chemscore.DEInternal>
0.9277

> <Gold.Chemscore.Rot>
1.7318

> <Gold.Chemscore.Internal.Correction>
   9.000000E+99

> <Gold.Chemscore.Hbonds>
donor molecule, donor type, donor heavy atom, donor atom, acceptor molecule, acceptor atom, score
      L1  H     6    27       P1  7948  0.21
      L1  H     9    28       P1  7948  0.78
      P1  H  7989  7998       L1    12  0.05

> <Gold.Chemscore.Hbond.Weighted>
-6.9503

> <Gold.Chemscore.Metal.Weighted>
-0.0000

> <Gold.Chemscore.Lipo.Weighted>
-5.2341

> <Gold.Chemscore.Internal_Hbond.Weighted>
0.0000

> <Gold.Chemscore.DEClash.Weighted>
0.1921

> <Gold.Chemscore.DEInternal.Weighted>
0.9277

> <Gold.Chemscore.Rot.Weighted>
4.4335

> <Gold.Chemscore.Internal.Correction.Weighted>
   9.000000E+99

> <Gold.Protein.RotatedTorsions>
[ 6907 6896 6895 6894 ] final   43.66 input  -60.11 | X-H torsion
[ 7974 7965 7964 7962 ] final -159.01 input  175.53 | X-H torsion
[ 8008 7997 7996 7995 ] final -100.77 input   59.86 | X-H torsion
[ 10167 10162 10161 10158 ] final   93.89 input  -65.29 | X-H torsion
[ 10718 10713 10712 10709 ] final   -3.77 input   66.30 | X-H torsion
[ 10763 10752 10751 10750 ] final  -60.15 input  -60.55 | X-H torsion
[ 11005 11000 10999 10996 ] final  -93.79 input  -57.11 | X-H torsion

> <Gold.Protein.ActiveResidues>
 VAL166  LYS551  ARG553  GLY616  TRP617  ASP618  TYR619  PRO620  LYS621  CYS622 
 ASP623  PHE694  ASN695  SER759  ASP760  ASP761  ALA762  ILE779  LEU786  VAL792 
 PHE793  MET794  SER795  GLU796  ALA797  LYS798  CYS799  TRP800  GLU811  SER814 

> <Gold.Protein.RotatedAtoms>
  152.2230  134.8394  160.0483 H   0  0  0  0  0  0  0  0  0  0  0  0  # atno 6907 bound_to 6896
  151.9171  133.3571  159.3892 H   0  0  0  0  0  0  0  0  0  0  0  0  # atno 6908 bound_to 6896
  150.7005  134.4598  159.5419 H   0  0  0  0  0  0  0  0  0  0  0  0  # atno 6909 bound_to 6896
  144.7482  140.3746  143.6068 H   0  0  0  0  0  0  0  0  0  0  0  0  # atno 7974 bound_to 7965
  154.8333  140.0438  157.1491 H   0  0  0  0  0  0  0  0  0  0  0  0  # atno 8008 bound_to 7997
  154.9128  140.3016  155.5237 H   0  0  0  0  0  0  0  0  0  0  0  0  # atno 8009 bound_to 7997
  156.2988  140.2355  156.4169 H   0  0  0  0  0  0  0  0  0  0  0  0  # atno 8010 bound_to 7997
  139.8136  144.6762  150.9609 H   0  0  0  0  0  0  0  0  0  0  0  0  # atno 10167 bound_to 10162
  156.7711  130.5300  149.5767 H   0  0  0  0  0  0  0  0  0  0  0  0  # atno 10718 bound_to 10713
  154.2647  135.6301  153.5288 H   0  0  0  0  0  0  0  0  0  0  0  0  # atno 10763 bound_to 10752
  152.9890  135.5596  154.5665 H   0  0  0  0  0  0  0  0  0  0  0  0  # atno 10764 bound_to 10752
  154.5222  135.2883  155.1228 H   0  0  0  0  0  0  0  0  0  0  0  0  # atno 10765 bound_to 10752
  141.1488  133.7911  157.0208 H   0  0  0  0  0  0  0  0  0  0  0  0  # atno 11005 bound_to 11000
  145.7042  139.1668  143.2575 LP  0  0  0  0  0  0  0  0  0  0  0  0  # atno 17320 bound_to 7965
  146.1394  140.7079  142.9374 LP  0  0  0  0  0  0  0  0  0  0  0  0  # atno 17321 bound_to 7965
  140.7817  143.4161  151.0915 LP  0  0  0  0  0  0  0  0  0  0  0  0  # atno 17342 bound_to 10162
  139.7826  143.8334  152.3140 LP  0  0  0  0  0  0  0  0  0  0  0  0  # atno 17343 bound_to 10162
  156.1277  130.6156  151.0288 LP  0  0  0  0  0  0  0  0  0  0  0  0  # atno 17370 bound_to 10713
  157.6690  131.0865  150.7658 LP  0  0  0  0  0  0  0  0  0  0  0  0  # atno 17371 bound_to 10713
  140.0817  134.9644  157.1635 LP  0  0  0  0  0  0  0  0  0  0  0  0  # atno 17394 bound_to 11000
  140.3567  134.2539  155.7192 LP  0  0  0  0  0  0  0  0  0  0  0  0  # atno 17395 bound_to 11000

$$$$
