AV-unprocessed.smi:1763|AV-procd|sdf|7131|dock2
  -GOLD-   22720 8363D 1   1.00000     0.00000
 Structure written by MMmdl.
 42 43  0  0  0  0  0  0  0  0  3 V2000
  151.0320  133.0008  156.5506 C   0  0  0  0  0  0  0  0  0  0  0  0
  150.0388  133.6623  157.3889 N   0  5  0  0  0  0  0  0  0  0  0  0
  149.1790  134.6119  156.9268 C   0  0  0  0  0  0  0  0  0  0  0  0
  148.5060  135.4524  157.5316 O   0  0  0  0  0  0  0  0  0  0  0  0
  149.0806  134.5688  155.3967 C   0  0  0  0  0  0  0  0  0  0  0  0
  149.4636  135.8763  154.8044 N   0  3  2  0  0  0  0  0  0  0  0  0
  150.8887  136.2131  155.0467 C   0  0  0  0  0  0  0  0  0  0  0  0
  151.2961  137.4907  154.2904 C   0  0  0  0  0  0  0  0  0  0  0  0
  150.3845  138.6827  154.6308 C   0  0  2  0  0  0  0  0  0  0  0  0
  150.6466  139.1587  155.9891 N   0  0  0  0  0  0  0  0  0  0  0  0
  151.1217  140.3724  156.3062 C   0  0  0  0  0  0  0  0  0  0  0  0
  151.3872  141.2356  155.4692 O   0  0  0  0  0  0  0  0  0  0  0  0
  151.2613  140.5091  157.6368 N   0  0  0  0  0  0  0  0  0  0  0  0
  151.7276  141.6405  158.3584 C   0  0  0  0  0  0  0  0  0  0  0  0
  151.6302  142.8714  157.6706 C   0  0  0  0  0  0  0  0  0  0  0  0
  152.0667  144.0531  158.3005 C   0  0  0  0  0  0  0  0  0  0  0  0
  152.5898  143.9736  159.6035 C   0  0  0  0  0  0  0  0  0  0  0  0
  152.6521  142.7087  160.2169 C   0  0  0  0  0  0  0  0  0  0  0  0
  152.2346  141.5750  159.6151 N   0  0  0  0  0  0  0  0  0  0  0  0
  148.9085  138.2806  154.4393 C   0  0  0  0  0  0  0  0  0  0  0  0
  148.5592  136.9890  155.1987 C   0  0  0  0  0  0  0  0  0  0  0  0
  151.5976  132.2534  157.1069 H   0  0  0  0  0  0  0  0  0  0  0  0
  151.7628  133.7002  156.1437 H   0  0  0  0  0  0  0  0  0  0  0  0
  150.5839  132.4819  155.7027 H   0  0  0  0  0  0  0  0  0  0  0  0
  149.7044  133.7705  154.9910 H   0  0  0  0  0  0  0  0  0  0  0  0
  148.0502  134.3205  155.1365 H   0  0  0  0  0  0  0  0  0  0  0  0
  151.0582  136.3317  156.1179 H   0  0  0  0  0  0  0  0  0  0  0  0
  151.5212  135.3885  154.7158 H   0  0  0  0  0  0  0  0  0  0  0  0
  152.3374  137.7369  154.5024 H   0  0  0  0  0  0  0  0  0  0  0  0
  151.2438  137.2977  153.2179 H   0  0  0  0  0  0  0  0  0  0  0  0
  150.6201  139.4935  153.9391 H   0  0  0  0  0  0  0  0  0  0  0  0
  150.4610  138.5120  156.7417 H   0  0  0  0  0  0  0  0  0  0  0  0
  151.0045  139.7121  158.1999 H   0  0  0  0  0  0  0  0  0  0  0  0
  151.2254  142.9152  156.6698 H   0  0  0  0  0  0  0  0  0  0  0  0
  152.0008  145.0036  157.7920 H   0  0  0  0  0  0  0  0  0  0  0  0
  152.9349  144.8577  160.1188 H   0  0  0  0  0  0  0  0  0  0  0  0
  153.0472  142.6038  161.2167 H   0  0  0  0  0  0  0  0  0  0  0  0
  148.2453  139.0887  154.7502 H   0  0  0  0  0  0  0  0  0  0  0  0
  148.7161  138.1278  153.3765 H   0  0  0  0  0  0  0  0  0  0  0  0
  147.5229  136.7241  154.9873 H   0  0  0  0  0  0  0  0  0  0  0  0
  148.6269  137.1519  156.2754 H   0  0  0  0  0  0  0  0  0  0  0  0
  149.3636  135.7532  153.8062 H   0  0  0  0  0  0  0  0  0  0  0  0
  1  2  1  0  0  0  0
  1 22  1  0  0  0  0
  1 23  1  0  0  0  0
  1 24  1  0  0  0  0
  2  3  1  0  0  0  0
  3  4  2  0  0  0  0
  3  5  1  0  0  0  0
  5  6  1  0  0  0  0
  5 25  1  0  0  0  0
  5 26  1  0  0  0  0
  6 21  1  0  0  0  0
  6  7  1  0  0  0  0
  6 42  1  0  0  0  0
  7  8  1  0  0  0  0
  7 27  1  0  0  0  0
  7 28  1  0  0  0  0
  8  9  1  0  0  0  0
  8 29  1  0  0  0  0
  8 30  1  0  0  0  0
  9 10  1  0  0  0  0
  9 20  1  0  0  0  0
  9 31  1  0  0  0  0
 10 11  1  0  0  0  0
 10 32  1  0  0  0  0
 11 12  2  0  0  0  0
 11 13  1  0  0  0  0
 13 14  1  0  0  0  0
 13 33  1  0  0  0  0
 14 19  1  0  0  0  0
 14 15  2  0  0  0  0
 15 16  1  0  0  0  0
 15 34  1  0  0  0  0
 16 17  2  0  0  0  0
 16 35  1  0  0  0  0
 17 18  1  0  0  0  0
 17 36  1  0  0  0  0
 18 19  2  0  0  0  0
 18 37  1  0  0  0  0
 20 21  1  0  0  0  0
 20 38  1  0  0  0  0
 20 39  1  0  0  0  0
 21 40  1  0  0  0  0
 21 41  1  0  0  0  0
M  CHG  1   2  -1
M  CHG  1   6   1
M  END
> <s_m_source_file>
AV-unprocessed.smi

> <i_m_source_file_index>
1763

> <i_lp_mmshare_version>
43012

> <i_f3d_flags>
0

> <s_epik_input>
W0NIM11bTkhdQyg9TylbQ0gyXU4xW0NIMl1bQ0gyXVtDSF0oW0NIMl1bQ0gyXTEpW05IXUMoPU8pW05IXWMyW2NIXVtjSF1bY0hdW2NIXW4y

> <s_epik_cmdline>
J2VwaWtfcHl0aG9uJywgJy1waCcsICc3LjAnLCAnLXRuJywgJzgnLCAnLW1hJywgJzIwMCcsICctbWV0YWxfYmluZGluZycsICctaW1hZScsICc8aW5maWxlLm1hZT4nLCAnLW9tYWUnLCAnPG91dGZpbGUubWFlPic=

> <r_epik_Ionization_Penalty>
6.1395

> <r_epik_Ionization_Penalty_Charging>
6.13946

> <r_epik_Ionization_Penalty_Neutral>
3.77655e-05

> <r_epik_State_Penalty>
6.9595

> <r_epik_Charging_Adjusted_Penalty>
13.099

> <i_epik_Tot_Q>
0

> <i_epik_Tot_abs_Q>
2

> <r_epik_Metal_State_Penalty>
2.8914

> <b_epik_Metal_Only>
1

> <s_lp_Force_Field>
OPLS_2005

> <r_lp_Energy>
12.7162

> <b_lp_Chiralities_Consistent>
1

> <s_lp_Variant>
AV-unprocessed.smi:1763-5

> <Gold.Version>
5.8.1

> <Gold.Id.Protein>
6NUR|6NUR_protein|mol2

> <Gold.PLP.Fitness>
45.5334

> <Gold.PLP.PLP>
-32.3454

> <Gold.PLP.part.hbond>
-3.0000

> <Gold.PLP.part.metal>
0.0000

> <Gold.PLP.part.buried>
-0.3821

> <Gold.PLP.part.nonpolar>
-29.4683

> <Gold.PLP.part.repulsive>
0.1794

> <Gold.PLP.ligand.clash>
0.0000

> <Gold.PLP.ligand.torsion>
0.1928

> <Gold.PLP.Chemscore.Hbond>
4.4992

> <Gold.PLP.Chemscore.CHOScore>
0.0000

> <Gold.PLP.Chemscore.Metal>
0.0000

> <Gold.Chemscore.Hbonds>
donor molecule, donor type, donor heavy atom, donor atom, acceptor molecule, acceptor atom, score
      L1  H     6    42       P1  7948  2.00
      P1  H  6896  6908       L1     2  2.00
      P1  H  7989  7998       L1    12  0.50

> <Gold.PLP.Chemscore.Internal.Correction>
0.0759

> <Gold.Rescore>
     Score         DG    S(hbond)    S(metal)    S(lipo)     H(rot)  DE(clash)    DE(int)     intcor
     13.57     -17.84       2.06        0.00      83.40       1.67       1.30       2.97       ----

> <Gold.Chemscore.Fitness>
13.5656

> <Gold.Chemscore.DG>
-17.8366

> <Gold.Chemscore.ZeroCoef>
-5.4800

> <Gold.Chemscore.Hbond>
2.0603

> <Gold.Chemscore.Metal>
0.0000

> <Gold.Chemscore.Lipo>
83.4021

> <Gold.Chemscore.Internal_Hbond>
0.0000

> <Gold.Chemscore.DEClash>
1.3013

> <Gold.Chemscore.DEInternal>
2.9697

> <Gold.Chemscore.Rot>
1.6730

> <Gold.Chemscore.Internal.Correction>
   9.000000E+99

> <Gold.Chemscore.Hbonds>
donor molecule, donor type, donor heavy atom, donor atom, acceptor molecule, acceptor atom, score
      L1  H     6    42       P1  7948  0.52
      P1  H  6896  6908       L1     2  0.50
      P1  H  7989  7998       L1    12  0.48

> <Gold.Chemscore.Hbond.Weighted>
-6.8816

> <Gold.Chemscore.Metal.Weighted>
-0.0000

> <Gold.Chemscore.Lipo.Weighted>
-9.7580

> <Gold.Chemscore.Internal_Hbond.Weighted>
0.0000

> <Gold.Chemscore.DEClash.Weighted>
1.3013

> <Gold.Chemscore.DEInternal.Weighted>
2.9697

> <Gold.Chemscore.Rot.Weighted>
4.2830

> <Gold.Chemscore.Internal.Correction.Weighted>
   9.000000E+99

> <Gold.Protein.RotatedTorsions>
[ 6907 6896 6895 6894 ] final  114.99 input  -60.11 | X-H torsion
[ 7974 7965 7964 7962 ] final -147.57 input  175.53 | X-H torsion
[ 8008 7997 7996 7995 ] final -129.87 input   59.86 | X-H torsion
[ 10167 10162 10161 10158 ] final -174.67 input  -65.29 | X-H torsion
[ 10718 10713 10712 10709 ] final   15.33 input   66.30 | X-H torsion
[ 10763 10752 10751 10750 ] final -108.51 input  -60.55 | X-H torsion
[ 11005 11000 10999 10996 ] final  143.87 input  -57.11 | X-H torsion

> <Gold.Protein.ActiveResidues>
 VAL166  LYS551  ARG553  GLY616  TRP617  ASP618  TYR619  PRO620  LYS621  CYS622 
 ASP623  PHE694  ASN695  SER759  ASP760  ASP761  ALA762  ILE779  LEU786  VAL792 
 PHE793  MET794  SER795  GLU796  ALA797  LYS798  CYS799  TRP800  GLU811  SER814 

> <Gold.Protein.RotatedAtoms>
  152.4769  133.8159  159.7027 H   0  0  0  0  0  0  0  0  0  0  0  0  # atno 6907 bound_to 6896
  150.8791  133.7387  159.2944 H   0  0  0  0  0  0  0  0  0  0  0  0  # atno 6908 bound_to 6896
  151.4897  135.1060  159.9852 H   0  0  0  0  0  0  0  0  0  0  0  0  # atno 6909 bound_to 6896
  144.8085  140.5309  143.5659 H   0  0  0  0  0  0  0  0  0  0  0  0  # atno 7974 bound_to 7965
  155.2864  140.0446  157.3019 H   0  0  0  0  0  0  0  0  0  0  0  0  # atno 8008 bound_to 7997
  154.5567  140.2334  155.8367 H   0  0  0  0  0  0  0  0  0  0  0  0  # atno 8009 bound_to 7997
  156.2013  140.3025  155.9539 H   0  0  0  0  0  0  0  0  0  0  0  0  # atno 8010 bound_to 7997
  139.5621  144.1844  152.1255 H   0  0  0  0  0  0  0  0  0  0  0  0  # atno 10167 bound_to 10162
  157.0519  130.6273  149.5769 H   0  0  0  0  0  0  0  0  0  0  0  0  # atno 10718 bound_to 10713
  154.8140  135.4635  154.0592 H   0  0  0  0  0  0  0  0  0  0  0  0  # atno 10763 bound_to 10752
  153.2000  135.6867  153.8250 H   0  0  0  0  0  0  0  0  0  0  0  0  # atno 10764 bound_to 10752
  153.7738  135.3266  155.3333 H   0  0  0  0  0  0  0  0  0  0  0  0  # atno 10765 bound_to 10752
  140.0588  134.9216  157.1147 H   0  0  0  0  0  0  0  0  0  0  0  0  # atno 11005 bound_to 11000
  145.5381  139.1475  143.3462 LP  0  0  0  0  0  0  0  0  0  0  0  0  # atno 17320 bound_to 7965
  146.2380  140.5521  142.8946 LP  0  0  0  0  0  0  0  0  0  0  0  0  # atno 17321 bound_to 7965
  140.1360  144.5246  150.6773 LP  0  0  0  0  0  0  0  0  0  0  0  0  # atno 17342 bound_to 10162
  140.6902  143.2372  151.5152 LP  0  0  0  0  0  0  0  0  0  0  0  0  # atno 17343 bound_to 10162
  156.0005  130.5083  150.7644 LP  0  0  0  0  0  0  0  0  0  0  0  0  # atno 17370 bound_to 10713
  157.5023  131.0919  151.0299 LP  0  0  0  0  0  0  0  0  0  0  0  0  # atno 17371 bound_to 10713
  140.3803  134.2295  155.7171 LP  0  0  0  0  0  0  0  0  0  0  0  0  # atno 17394 bound_to 11000
  141.1964  133.8084  157.0674 LP  0  0  0  0  0  0  0  0  0  0  0  0  # atno 17395 bound_to 11000

$$$$
