#       Name:                AV-unprocessed.smi:174
#       Creating user name   scv26
#       Creation time:       Thu Mar 26 19:20:15 2020


#       File generated by GOLD software.
#

@<TRIPOS>MOLECULE
AV-unprocessed.smi:174
    63    66     1
SMALL
NO_CHARGES


@<TRIPOS>ATOM
      1 ****        -6.6475   3.3004   3.3050 N.am           1 S1                 0.0000
      2 ****        -5.9441   2.2987   2.7728 C.2            1 S1                 0.0000
      3 ****        -6.4789   1.2659   2.3722 O.2            1 S1                 0.0000
      4 ****        -4.4219   2.4879   2.7049 C.3            1 S1                 0.0000
      5 ****        -3.7689   1.6058   1.7265 N.am           1 S1                 0.0000
      6 ****        -3.1469   0.3937   2.2837 C.3            1 S1                 0.0000
      7 ****        -2.8199  -0.6761   1.2285 C.3            1 S1                 0.0000
      8 ****        -2.2067  -0.0549   0.0620 N.3            1 S1                 0.0000
      9 ****        -0.8712   0.1733   0.1771 C.ar           1 S1                 0.0000
     10 ****        -0.3946   1.4473   0.2015 N.ar           1 S1                 0.0000
     11 ****         0.9149   1.6777   0.3313 C.ar           1 S1                 0.0000
     12 ****         1.9092   0.7962   0.4508 N.ar           1 S1                 0.0000
     13 ****         1.4389  -0.4834   0.4256 C.ar           1 S1                 0.0000
     14 ****         0.0783  -0.8805   0.2929 C.ar           1 S1                 0.0000
     15 ****        -0.0114  -2.2679   0.2961 N.2            1 S1                 0.0000
     16 ****         1.2244  -2.6676   0.4231 C.2            1 S1                 0.0000
     17 ****         2.1599  -1.6618   0.5032 N.pl3          1 S1                 0.0000
     18 ****         3.5967  -1.8233   0.6293 C.3            1 S1                 0.0000
     19 ****         4.2791  -2.1967  -0.7034 C.3            1 S1                 0.0000
     20 ****         5.6621  -2.3290  -0.4428 O.3            1 S1                 0.0000
     21 ****         4.0749  -1.1659  -1.8365 C.3            1 S1                 0.0000
     22 ****         4.8453  -1.4726  -3.1241 C.3            1 S1                 0.0000
     23 ****         4.0297  -0.7910  -4.2134 C.3            1 S1                 0.0000
     24 ****         2.7108  -0.4385  -3.5232 C.3            1 S1                 0.0000
     25 ****         2.7365  -1.1753  -2.3113 O.3            1 S1                 0.0000
     26 ****        -3.0405   0.9672  -0.5825 C.3            1 S1                 0.0000
     27 ****        -3.7417   1.9198   0.4052 C.2            1 S1                 0.0000
     28 ****        -4.2591   2.9420  -0.0461 O.2            1 S1                 0.0000
     29 ****        -7.6523   3.2268   3.3688 H              1 S1                 0.0000
     30 ****        -6.1759   4.1287   3.6380 H              1 S1                 0.0000
     31 ****        -4.1915   3.5318   2.4831 H              1 S1                 0.0000
     32 ****        -4.0123   2.3032   3.6990 H              1 S1                 0.0000
     33 ****        -2.2277   0.6967   2.7867 H              1 S1                 0.0000
     34 ****        -3.7916  -0.0389   3.0501 H              1 S1                 0.0000
     35 ****        -2.1991  -1.4591   1.6634 H              1 S1                 0.0000
     36 ****        -3.7396  -1.1666   0.9064 H              1 S1                 0.0000
     37 ****         1.2070   2.7174   0.3409 H              1 S1                 0.0000
     38 ****         1.4913  -3.7140   0.4533 H              1 S1                 0.0000
     39 ****         4.0173  -0.8978   1.0250 H              1 S1                 0.0000
     40 ****         3.7846  -2.5935   1.3787 H              1 S1                 0.0000
     41 ****         3.9146  -3.1700  -1.0345 H              1 S1                 0.0000
     42 ****         5.9956  -1.4903  -0.1624 H              1 S1                 0.0000
     43 ****         4.3229  -0.1617  -1.4866 H              1 S1                 0.0000
     44 ****         5.8773  -1.1223  -3.0879 H              1 S1                 0.0000
     45 ****         4.8636  -2.5484  -3.3048 H              1 S1                 0.0000
     46 ****         4.5231   0.1062  -4.5886 H              1 S1                 0.0000
     47 ****         3.8723  -1.4663  -5.0552 H              1 S1                 0.0000
     48 ****         2.6680   0.6272  -3.2933 H              1 S1                 0.0000
     49 ****         1.8379  -0.6940  -4.1241 H              1 S1                 0.0000
     50 ****        -2.4785   1.5440  -1.3187 H              1 S1                 0.0000
     51 ****        -3.8165   0.4506  -1.1479 H              1 S1                 0.0000
     52 ****        -7.4706   1.1576   2.4402 LP             1 S1                 0.0000
     53 ****        -5.9218   0.5346   1.9786 LP             1 S1                 0.0000
     54 ****        -2.1960  -0.7550  -0.6519 LP             1 S1                 0.0000
     55 ****        -1.0287   2.2164   0.1218 LP             1 S1                 0.0000
     56 ****         2.8739   1.0419   0.5465 LP             1 S1                 0.0000
     57 ****        -0.8344  -2.8307   0.2188 LP             1 S1                 0.0000
     58 ****         6.1359  -2.6197  -1.2741 LP             1 S1                 0.0000
     59 ****         5.8064  -3.0075   0.2776 LP             1 S1                 0.0000
     60 ****         2.1323  -0.7481  -1.6387 LP             1 S1                 0.0000
     61 ****         2.4392  -2.1157  -2.4766 LP             1 S1                 0.0000
     62 ****        -4.7232   3.5804   0.5679 LP             1 S1                 0.0000
     63 ****        -4.2151   3.1337  -1.0265 LP             1 S1                 0.0000
@<TRIPOS>BOND
    1    1    2 am    
    2    1   29 1     
    3    1   30 1     
    4    2    3 2     
    5    2    4 1     
    6    4    5 1     
    7    4   31 1     
    8    4   32 1     
    9    5   27 am    
   10    5    6 1     
   11    6    7 1     
   12    6   33 1     
   13    6   34 1     
   14    7    8 1     
   15    7   35 1     
   16    7   36 1     
   17    8    9 1     
   18    8   26 1     
   19    9   14 ar    
   20    9   10 ar    
   21   10   11 ar    
   22   11   12 ar    
   23   11   37 1     
   24   12   13 ar    
   25   13   17 1     
   26   13   14 ar    
   27   14   15 1     
   28   15   16 2     
   29   16   17 1     
   30   16   38 1     
   31   17   18 1     
   32   18   19 1     
   33   18   39 1     
   34   18   40 1     
   35   19   20 1     
   36   19   21 1     
   37   19   41 1     
   38   20   42 1     
   39   21   25 1     
   40   21   22 1     
   41   21   43 1     
   42   22   23 1     
   43   22   44 1     
   44   22   45 1     
   45   23   24 1     
   46   23   46 1     
   47   23   47 1     
   48   24   25 1     
   49   24   48 1     
   50   24   49 1     
   51   26   27 1     
   52   26   50 1     
   53   26   51 1     
   54   27   28 2     
   55    3   52 1     
   56    3   53 1     
   57    8   54 1     
   58   10   55 1     
   59   12   56 1     
   60   15   57 1     
   61   20   58 1     
   62   20   59 1     
   63   25   60 1     
   64   25   61 1     
   65   28   62 1     
   66   28   63 1     
@<TRIPOS>SUBSTRUCTURE
      1 S1             1
@<TRIPOS>SET
LONE_PAIRS      STATIC     ATOMS    <user>   **** ""
12 52 53 54 55 56 57 58 59 60 61 62 63
DONOR_HYDROGENS      STATIC     ATOMS    <user>   **** ""
3 29 30 42
ATOM$BLUE        STATIC     ATOMS    COLORGROUP SYSTEM
12 52 53 54 55 56 57 58 59 60 61 62 63
ATOM$RED        STATIC     ATOMS    COLORGROUP SYSTEM
3 29 30 42
