AV-unprocessed.smi:1723|AV-procd|sdf|6945|dock10
  -GOLD-   22720 8153D 1   1.00000     0.00000
 Structure written by MMmdl.
 38 38  0  0  0  0  0  0  0  0  1 V2000
  146.5975  142.3586  154.6506 C   0  0  0  0  0  0  0  0  0  0  0  0
  147.6292  141.6436  153.7713 C   0  0  0  0  0  0  0  0  0  0  0  0
  147.2127  140.2078  153.4231 C   0  0  0  0  0  0  0  0  0  0  0  0
  147.3208  139.2556  154.6194 C   0  0  0  0  0  0  0  0  0  0  0  0
  148.4728  139.6099  155.3753 O   0  0  0  0  0  0  0  0  0  0  0  0
  149.7187  139.4637  154.6991 C   0  0  2  0  0  0  0  0  0  0  0  0
  149.9746  137.9594  154.5208 C   0  0  0  0  0  0  0  0  0  0  0  0
  150.8440  140.1316  155.5062 C   0  0  0  0  0  0  0  0  0  0  0  0
  151.9785  140.1812  155.0322 O   0  0  0  0  0  0  0  0  0  0  0  0
  150.4870  140.5941  156.7211 N   0  0  0  0  0  0  0  0  0  0  0  0
  151.2611  141.2428  157.6985 C   0  0  0  0  0  0  0  0  0  0  0  0
  150.9712  142.4505  158.2501 C   0  0  0  0  0  0  0  0  0  0  0  0
  151.8146  143.0577  159.2661 C   0  0  0  0  0  0  0  0  0  0  0  0
  151.5272  144.4478  159.8124 C   0  0  0  0  0  0  0  0  0  0  0  0
  150.2193  144.6362  159.9930 F   0  0  0  0  0  0  0  0  0  0  0  0
  152.1427  144.6399  160.9794 F   0  0  0  0  0  0  0  0  0  0  0  0
  151.9646  145.3698  158.9558 F   0  0  0  0  0  0  0  0  0  0  0  0
  152.9071  142.3631  159.6332 C   0  0  0  0  0  0  0  0  0  0  0  0
  153.1999  141.1109  159.0891 N   0  0  0  0  0  0  0  0  0  0  0  0
  152.4522  140.4999  158.1430 C   0  0  0  0  0  0  0  0  0  0  0  0
  152.7808  139.3959  157.7097 O   0  0  0  0  0  0  0  0  0  0  0  0
  154.0280  140.6447  159.4308 H   0  0  0  0  0  0  0  0  0  0  0  0
  146.9185  143.3754  154.8776 H   0  0  0  0  0  0  0  0  0  0  0  0
  146.4567  141.8354  155.5968 H   0  0  0  0  0  0  0  0  0  0  0  0
  145.6292  142.4188  154.1531 H   0  0  0  0  0  0  0  0  0  0  0  0
  147.7770  142.2138  152.8534 H   0  0  0  0  0  0  0  0  0  0  0  0
  148.5907  141.6313  154.2859 H   0  0  0  0  0  0  0  0  0  0  0  0
  146.1861  140.2054  153.0546 H   0  0  0  0  0  0  0  0  0  0  0  0
  147.8347  139.8352  152.6085 H   0  0  0  0  0  0  0  0  0  0  0  0
  146.4290  139.3343  155.2428 H   0  0  0  0  0  0  0  0  0  0  0  0
  147.3849  138.2267  154.2635 H   0  0  0  0  0  0  0  0  0  0  0  0
  149.6490  139.9178  153.7085 H   0  0  0  0  0  0  0  0  0  0  0  0
  150.9291  137.7748  154.0265 H   0  0  0  0  0  0  0  0  0  0  0  0
  149.1949  137.5059  153.9086 H   0  0  0  0  0  0  0  0  0  0  0  0
  149.9855  137.4369  155.4783 H   0  0  0  0  0  0  0  0  0  0  0  0
  149.5289  140.4254  156.9933 H   0  0  0  0  0  0  0  0  0  0  0  0
  150.0878  142.9970  157.9647 H   0  0  0  0  0  0  0  0  0  0  0  0
  153.6333  142.7083  160.3543 H   0  0  0  0  0  0  0  0  0  0  0  0
  1  2  1  0  0  0  0
  1 23  1  0  0  0  0
  1 24  1  0  0  0  0
  1 25  1  0  0  0  0
  2  3  1  0  0  0  0
  2 26  1  0  0  0  0
  2 27  1  0  0  0  0
  3  4  1  0  0  0  0
  3 28  1  0  0  0  0
  3 29  1  0  0  0  0
  4  5  1  0  0  0  0
  4 30  1  0  0  0  0
  4 31  1  0  0  0  0
  5  6  1  0  0  0  0
  6  7  1  0  0  0  0
  6  8  1  0  0  0  0
  6 32  1  0  0  0  0
  7 33  1  0  0  0  0
  7 34  1  0  0  0  0
  7 35  1  0  0  0  0
  8  9  2  0  0  0  0
  8 10  1  0  0  0  0
 10 11  1  0  0  0  0
 10 36  1  0  0  0  0
 11 20  1  0  0  0  0
 11 12  2  0  0  0  0
 12 13  1  0  0  0  0
 12 37  1  0  0  0  0
 13 14  1  0  0  0  0
 13 18  2  0  0  0  0
 14 15  1  0  0  0  0
 14 16  1  0  0  0  0
 14 17  1  0  0  0  0
 18 19  1  0  0  0  0
 18 38  1  0  0  0  0
 19 22  1  0  0  0  0
 19 20  1  0  0  0  0
 20 21  2  0  0  0  0
M  END
> <s_m_source_file>
AV-unprocessed.smi

> <i_m_source_file_index>
1723

> <i_lp_mmshare_version>
43012

> <i_f3d_flags>
0

> <s_epik_input>
W0NIM11bQ0gyXVtDSDJdW0NIMl1PW0NASF0oW0NIM10pQyg9TylbTkhdYzFbY0hdYyhDKEYpKEYpRilbY0hdW25IXWMxPU8=

> <s_epik_cmdline>
J2VwaWtfcHl0aG9uJywgJy1waCcsICc3LjAnLCAnLXRuJywgJzgnLCAnLW1hJywgJzIwMCcsICctbWV0YWxfYmluZGluZycsICctaW1hZScsICc8aW5maWxlLm1hZT4nLCAnLW9tYWUnLCAnPG91dGZpbGUubWFlPic=

> <r_lp_tautomer_probability>
0.999

> <r_epik_Ionization_Penalty>
0.00763408

> <r_epik_Ionization_Penalty_Charging>
0.00763398

> <r_epik_Ionization_Penalty_Neutral>
9.29819e-08

> <r_epik_State_Penalty>
0.00571302

> <r_epik_Charging_Adjusted_Penalty>
0.013347

> <i_epik_Tot_Q>
0

> <i_epik_Tot_abs_Q>
0

> <r_epik_Metal_State_Penalty>
0.392814

> <b_epik_Metal_Only>
0

> <s_lp_Force_Field>
OPLS_2005

> <r_lp_Energy>
19.1413

> <b_lp_Chiralities_Consistent>
1

> <s_lp_Variant>
AV-unprocessed.smi:1723-1

> <Gold.Version>
5.8.1

> <Gold.Id.Protein>
6NUR|6NUR_protein|mol2

> <Gold.PLP.Fitness>
45.4259

> <Gold.PLP.PLP>
-43.8968

> <Gold.PLP.part.hbond>
-2.0000

> <Gold.PLP.part.metal>
0.0000

> <Gold.PLP.part.buried>
-5.6963

> <Gold.PLP.part.nonpolar>
-36.8221

> <Gold.PLP.part.repulsive>
0.2040

> <Gold.PLP.ligand.clash>
0.0000

> <Gold.PLP.ligand.torsion>
1.7038

> <Gold.PLP.Chemscore.Hbond>
1.5840

> <Gold.PLP.Chemscore.CHOScore>
0.0000

> <Gold.PLP.Chemscore.Metal>
0.0000

> <Gold.Chemscore.Hbonds>
donor molecule, donor type, donor heavy atom, donor atom, acceptor molecule, acceptor atom, score
      P1  H  7989  7998       L1     9  0.80
      P1  H  7997  8009       L1    21  0.75

> <Gold.PLP.Chemscore.Internal.Correction>
0.1847

> <Gold.Rescore>
     Score         DG    S(hbond)    S(metal)    S(lipo)     H(rot)  DE(clash)    DE(int)     intcor
     11.26     -12.41       0.96        0.00      75.32       1.99       0.05       1.10       ----

> <Gold.Chemscore.Fitness>
11.2619

> <Gold.Chemscore.DG>
-12.4069

> <Gold.Chemscore.ZeroCoef>
-5.4800

> <Gold.Chemscore.Hbond>
0.9641

> <Gold.Chemscore.Metal>
0.0000

> <Gold.Chemscore.Lipo>
75.3236

> <Gold.Chemscore.Internal_Hbond>
0.0000

> <Gold.Chemscore.DEClash>
0.0465

> <Gold.Chemscore.DEInternal>
1.0985

> <Gold.Chemscore.Rot>
1.9946

> <Gold.Chemscore.Internal.Correction>
   9.000000E+99

> <Gold.Chemscore.Hbonds>
donor molecule, donor type, donor heavy atom, donor atom, acceptor molecule, acceptor atom, score
      P1  H  7989  7998       L1     9  0.24
      P1  H  7997  8009       L1    21  0.09

> <Gold.Chemscore.Hbond.Weighted>
-3.2202

> <Gold.Chemscore.Metal.Weighted>
-0.0000

> <Gold.Chemscore.Lipo.Weighted>
-8.8129

> <Gold.Chemscore.Internal_Hbond.Weighted>
0.0000

> <Gold.Chemscore.DEClash.Weighted>
0.0465

> <Gold.Chemscore.DEInternal.Weighted>
1.0985

> <Gold.Chemscore.Rot.Weighted>
5.1062

> <Gold.Chemscore.Internal.Correction.Weighted>
   9.000000E+99

> <Gold.Protein.RotatedTorsions>
[ 6907 6896 6895 6894 ] final  -50.47 input  -60.11 | X-H torsion
[ 7974 7965 7964 7962 ] final  143.46 input  175.53 | X-H torsion
[ 8008 7997 7996 7995 ] final  167.90 input   59.86 | X-H torsion
[ 10167 10162 10161 10158 ] final  -10.75 input  -65.29 | X-H torsion
[ 10718 10713 10712 10709 ] final   84.96 input   66.30 | X-H torsion
[ 10763 10752 10751 10750 ] final -166.53 input  -60.55 | X-H torsion
[ 11005 11000 10999 10996 ] final  124.08 input  -57.11 | X-H torsion

> <Gold.Protein.ActiveResidues>
 VAL166  LYS551  ARG553  GLY616  TRP617  ASP618  TYR619  PRO620  LYS621  CYS622 
 ASP623  PHE694  ASN695  SER759  ASP760  ASP761  ALA762  ILE779  LEU786  VAL792 
 PHE793  MET794  SER795  GLU796  ALA797  LYS798  CYS799  TRP800  GLU811  SER814 

> <Gold.Protein.RotatedAtoms>
  150.8704  134.8076  159.7149 H   0  0  0  0  0  0  0  0  0  0  0  0  # atno 6907 bound_to 6896
  152.4710  134.4956  159.9719 H   0  0  0  0  0  0  0  0  0  0  0  0  # atno 6908 bound_to 6896
  151.5046  133.3459  159.2910 H   0  0  0  0  0  0  0  0  0  0  0  0  # atno 6909 bound_to 6896
  144.8919  139.5547  143.5794 H   0  0  0  0  0  0  0  0  0  0  0  0  # atno 7974 bound_to 7965
  156.1593  140.1604  156.8639 H   0  0  0  0  0  0  0  0  0  0  0  0  # atno 8008 bound_to 7997
  154.5145  140.0793  156.8091 H   0  0  0  0  0  0  0  0  0  0  0  0  # atno 8009 bound_to 7997
  155.3739  140.3401  155.4246 H   0  0  0  0  0  0  0  0  0  0  0  0  # atno 8010 bound_to 7997
  140.7121  143.5714  150.9088 H   0  0  0  0  0  0  0  0  0  0  0  0  # atno 10167 bound_to 10162
  157.6907  131.0155  150.2750 H   0  0  0  0  0  0  0  0  0  0  0  0  # atno 10718 bound_to 10713
  154.6823  135.2956  154.9596 H   0  0  0  0  0  0  0  0  0  0  0  0  # atno 10763 bound_to 10752
  154.0586  135.6634  153.4813 H   0  0  0  0  0  0  0  0  0  0  0  0  # atno 10764 bound_to 10752
  153.0556  135.5147  154.7873 H   0  0  0  0  0  0  0  0  0  0  0  0  # atno 10765 bound_to 10752
  139.9342  134.9640  156.8356 H   0  0  0  0  0  0  0  0  0  0  0  0  # atno 11005 bound_to 11000
  146.3058  139.7577  142.9057 LP  0  0  0  0  0  0  0  0  0  0  0  0  # atno 17320 bound_to 7965
  145.3769  141.0352  143.3200 LP  0  0  0  0  0  0  0  0  0  0  0  0  # atno 17321 bound_to 7965
  139.9440  143.6348  152.3046 LP  0  0  0  0  0  0  0  0  0  0  0  0  # atno 17342 bound_to 10162
  139.6843  144.7653  151.1551 LP  0  0  0  0  0  0  0  0  0  0  0  0  # atno 17343 bound_to 10162
  156.3307  130.3800  149.7494 LP  0  0  0  0  0  0  0  0  0  0  0  0  # atno 17370 bound_to 10713
  156.5035  130.8139  151.3141 LP  0  0  0  0  0  0  0  0  0  0  0  0  # atno 17371 bound_to 10713
  140.6120  134.0074  155.7581 LP  0  0  0  0  0  0  0  0  0  0  0  0  # atno 17394 bound_to 11000
  141.0947  133.9862  157.3179 LP  0  0  0  0  0  0  0  0  0  0  0  0  # atno 17395 bound_to 11000

$$$$
