#       Name:                AV-unprocessed.smi:3240
#       Creating user name   scv26
#       Creation time:       Fri Mar 27 18:24:56 2020


#       File generated by GOLD software.
#

@<TRIPOS>MOLECULE
AV-unprocessed.smi:3240
    47    48     1
SMALL
NO_CHARGES


@<TRIPOS>ATOM
      1 ****        -6.6525  -0.3649  -1.2853 C.3            1 S1                 0.0000
      2 ****        -5.3731  -1.0035  -0.8273 C.2            1 S1                 0.0000
      3 ****        -5.2173  -2.1278   0.0324 C.2            1 S1                 0.0000
      4 ****        -3.9498  -2.4422   0.2436 N.2            1 S1                 0.0000
      5 ****        -3.2528  -1.5291  -0.4658 N.pl3          1 S1                 0.0000
      6 ****        -1.8005  -1.5649  -0.4674 C.3            1 S1                 0.0000
      7 ****        -1.1683  -0.4258   0.3598 C.3            1 S1                 0.0000
      8 ****        -1.6419  -0.4274   1.8285 C.3            1 S1                 0.0000
      9 ****         0.2917  -0.5145   0.2575 N.3            1 S1                 0.0000
     10 ****         1.0377   0.6140   0.8229 C.3            1 S1                 0.0000
     11 ****         2.5586   0.5046   0.5704 C.3            1 S1                 0.0000
     12 ****         3.0234  -0.5945   1.3331 O.3            1 S1                 0.0000
     13 ****         2.9039   0.2931  -0.9261 C.3            1 S1                 0.0000
     14 ****         4.4181   0.3247  -1.2035 C.3            1 S1                 0.0000
     15 ****         5.0602   1.6147  -0.6753 C.3            1 S1                 0.0000
     16 ****         4.7734   1.7955   0.8212 C.3            1 S1                 0.0000
     17 ****         3.2610   1.7750   1.1064 C.3            1 S1                 0.0000
     18 ****        -4.0870  -0.6520  -1.1257 C.2            1 S1                 0.0000
     19 ****        -7.4499  -1.0986  -1.4038 H              1 S1                 0.0000
     20 ****        -6.5338   0.1371  -2.2457 H              1 S1                 0.0000
     21 ****        -7.0049   0.3814  -0.5731 H              1 S1                 0.0000
     22 ****        -5.9848  -2.7222   0.5060 H              1 S1                 0.0000
     23 ****        -1.4694  -2.5349  -0.0915 H              1 S1                 0.0000
     24 ****        -1.4674  -1.5050  -1.5045 H              1 S1                 0.0000
     25 ****        -1.4893   0.5150  -0.0890 H              1 S1                 0.0000
     26 ****        -2.7282  -0.3735   1.8986 H              1 S1                 0.0000
     27 ****        -1.2592   0.4282   2.3834 H              1 S1                 0.0000
     28 ****        -1.3228  -1.3332   2.3451 H              1 S1                 0.0000
     29 ****         0.5563  -0.6406  -0.7143 H              1 S1                 0.0000
     30 ****         0.6716   1.5411   0.3799 H              1 S1                 0.0000
     31 ****         0.8595   0.6947   1.8950 H              1 S1                 0.0000
     32 ****         2.5368  -1.3623   1.0738 H              1 S1                 0.0000
     33 ****         2.4978  -0.6525  -1.2868 H              1 S1                 0.0000
     34 ****         2.4237   1.0740  -1.5173 H              1 S1                 0.0000
     35 ****         4.8962  -0.5383  -0.7385 H              1 S1                 0.0000
     36 ****         4.5994   0.2342  -2.2747 H              1 S1                 0.0000
     37 ****         6.1367   1.5925  -0.8478 H              1 S1                 0.0000
     38 ****         4.6741   2.4710  -1.2296 H              1 S1                 0.0000
     39 ****         5.2681   1.0053   1.3872 H              1 S1                 0.0000
     40 ****         5.2019   2.7356   1.1690 H              1 S1                 0.0000
     41 ****         2.8112   2.6555   0.6454 H              1 S1                 0.0000
     42 ****         3.0898   1.8782   2.1788 H              1 S1                 0.0000
     43 ****        -3.6994   0.1436  -1.7445 H              1 S1                 0.0000
     44 ****        -3.5890  -3.1885   0.8030 LP             1 S1                 0.0000
     45 ****         0.5444  -1.3030   0.8182 LP             1 S1                 0.0000
     46 ****         2.8796  -0.4157   2.3064 LP             1 S1                 0.0000
     47 ****         3.9980  -0.7377   1.1609 LP             1 S1                 0.0000
@<TRIPOS>BOND
    1    1    2 1     
    2    1   19 1     
    3    1   20 1     
    4    1   21 1     
    5    2   18 2     
    6    2    3 1     
    7    3    4 2     
    8    3   22 1     
    9    4    5 1     
   10    5    6 1     
   11    5   18 1     
   12    6    7 1     
   13    6   23 1     
   14    6   24 1     
   15    7    8 1     
   16    7    9 1     
   17    7   25 1     
   18    8   26 1     
   19    8   27 1     
   20    8   28 1     
   21    9   10 1     
   22    9   29 1     
   23   10   11 1     
   24   10   30 1     
   25   10   31 1     
   26   11   17 1     
   27   11   12 1     
   28   11   13 1     
   29   12   32 1     
   30   13   14 1     
   31   13   33 1     
   32   13   34 1     
   33   14   15 1     
   34   14   35 1     
   35   14   36 1     
   36   15   16 1     
   37   15   37 1     
   38   15   38 1     
   39   16   17 1     
   40   16   39 1     
   41   16   40 1     
   42   17   41 1     
   43   17   42 1     
   44   18   43 1     
   45    4   44 1     
   46    9   45 1     
   47   12   46 1     
   48   12   47 1     
@<TRIPOS>SUBSTRUCTURE
      1 S1             1
@<TRIPOS>SET
LONE_PAIRS      STATIC     ATOMS    <user>   **** ""
4 44 45 46 47
DONOR_HYDROGENS      STATIC     ATOMS    <user>   **** ""
2 29 32
ATOM$BLUE        STATIC     ATOMS    COLORGROUP SYSTEM
4 44 45 46 47
ATOM$RED        STATIC     ATOMS    COLORGROUP SYSTEM
2 29 32
