#       Name:                AV-unprocessed.smi:2457
#       Creating user name   scv26
#       Creation time:       Fri Mar 27 13:34:29 2020


#       File generated by GOLD software.
#

@<TRIPOS>MOLECULE
AV-unprocessed.smi:2457
    43    44     1
SMALL
NO_CHARGES


@<TRIPOS>ATOM
      1 ****        -2.0623   1.1606   4.6408 C.3            1 S1                 0.0000
      2 ****        -2.0961   1.1137   3.1458 C.2            1 S1                 0.0000
      3 ****        -2.6834   0.1518   2.3625 C.2            1 S1                 0.0000
      4 ****        -2.4906   0.4902   0.6646 S.3            1 S1                 0.0000
      5 ****        -1.6059   1.9527   1.0875 C.2            1 S1                 0.0000
      6 ****        -1.0272   2.8836   0.0653 C.3            1 S1                 0.0000
      7 ****        -1.6305   4.2925   0.1564 C.3            1 S1                 0.0000
      8 ****         0.5180   2.8889   0.0526 C.3            1 S1                 0.0000
      9 ****         1.0918   1.5458   0.0318 N.am           1 S1                 0.0000
     10 ****         1.0938   0.7288  -1.0300 C.2            1 S1                 0.0000
     11 ****         0.6453   1.0336  -2.1353 O.2            1 S1                 0.0000
     12 ****         1.6201  -0.4678  -0.7353 N.am           1 S1                 0.0000
     13 ****         1.7112  -1.5957  -1.6575 C.3            1 S1                 0.0000
     14 ****         0.3854  -2.3852  -1.6579 C.3            1 S1                 0.0000
     15 ****         0.3951  -3.5564  -2.6528 C.3            1 S1                 0.0000
     16 ****         1.4891  -4.5853  -2.3340 C.3            1 S1                 0.0000
     17 ****         3.1405  -3.8430  -2.4382 S.3            1 S1                 0.0000
     18 ****         2.9037  -2.4832  -1.2609 C.3            1 S1                 0.0000
     19 ****        -1.4817   2.1282   2.4067 N.2            1 S1                 0.0000
     20 ****        -2.6185   0.3315   5.0787 H              1 S1                 0.0000
     21 ****        -2.5021   2.0855   5.0148 H              1 S1                 0.0000
     22 ****        -1.0394   1.1054   5.0136 H              1 S1                 0.0000
     23 ****        -3.2173  -0.7317   2.6795 H              1 S1                 0.0000
     24 ****        -1.3428   2.4933  -0.9030 H              1 S1                 0.0000
     25 ****        -2.7163   4.2612   0.0612 H              1 S1                 0.0000
     26 ****        -1.2476   4.9348  -0.6369 H              1 S1                 0.0000
     27 ****        -1.3928   4.7645   1.1101 H              1 S1                 0.0000
     28 ****         0.8932   3.4683  -0.7923 H              1 S1                 0.0000
     29 ****         0.8879   3.3820   0.9518 H              1 S1                 0.0000
     30 ****         1.4801   1.2037   0.8985 H              1 S1                 0.0000
     31 ****         1.9560  -0.6210   0.2042 H              1 S1                 0.0000
     32 ****         1.8961  -1.2125  -2.6632 H              1 S1                 0.0000
     33 ****         0.1758  -2.7591  -0.6548 H              1 S1                 0.0000
     34 ****        -0.4398  -1.7185  -1.9117 H              1 S1                 0.0000
     35 ****        -0.5774  -4.0493  -2.6348 H              1 S1                 0.0000
     36 ****         0.5276  -3.1781  -3.6673 H              1 S1                 0.0000
     37 ****         1.3457  -4.9956  -1.3340 H              1 S1                 0.0000
     38 ****         1.4371  -5.4201  -3.0333 H              1 S1                 0.0000
     39 ****         3.8222  -1.8960  -1.2298 H              1 S1                 0.0000
     40 ****         2.7572  -2.9007  -0.2641 H              1 S1                 0.0000
     41 ****         0.2483   1.9397  -2.2813 LP             1 S1                 0.0000
     42 ****         0.6779   0.3750  -2.8871 LP             1 S1                 0.0000
     43 ****        -1.0012   2.9016   2.8200 LP             1 S1                 0.0000
@<TRIPOS>BOND
    1    1    2 1     
    2    1   20 1     
    3    1   21 1     
    4    1   22 1     
    5    2   19 1     
    6    2    3 2     
    7    3    4 1     
    8    3   23 1     
    9    4    5 1     
   10    5    6 1     
   11    5   19 2     
   12    6    7 1     
   13    6    8 1     
   14    6   24 1     
   15    7   25 1     
   16    7   26 1     
   17    7   27 1     
   18    8    9 1     
   19    8   28 1     
   20    8   29 1     
   21    9   10 am    
   22    9   30 1     
   23   10   11 2     
   24   10   12 am    
   25   12   13 1     
   26   12   31 1     
   27   13   18 1     
   28   13   14 1     
   29   13   32 1     
   30   14   15 1     
   31   14   33 1     
   32   14   34 1     
   33   15   16 1     
   34   15   35 1     
   35   15   36 1     
   36   16   17 1     
   37   16   37 1     
   38   16   38 1     
   39   17   18 1     
   40   18   39 1     
   41   18   40 1     
   42   11   41 1     
   43   11   42 1     
   44   19   43 1     
@<TRIPOS>SUBSTRUCTURE
      1 S1             1
@<TRIPOS>SET
LONE_PAIRS      STATIC     ATOMS    <user>   **** ""
3 41 42 43
DONOR_HYDROGENS      STATIC     ATOMS    <user>   **** ""
2 30 31
ATOM$BLUE        STATIC     ATOMS    COLORGROUP SYSTEM
3 41 42 43
ATOM$RED        STATIC     ATOMS    COLORGROUP SYSTEM
2 30 31
