AV-unprocessed.smi:476|AV-procd|sdf|2669|dock4
  -GOLD-   2262023 83D 1   1.00000     0.00000
 Structure written by MMmdl.
 39 40  0  0  0  0  0  0  0  0  1 V2000
  146.1427  143.7939  153.2895 C   0  0  0  0  0  0  0  0  0  0  0  0
  145.9518  142.7603  154.3855 C   0  0  0  0  0  0  0  0  0  0  0  0
  144.9290  142.7187  155.2459 C   0  0  0  0  0  0  0  0  0  0  0  0
  145.0208  141.3601  156.3400 S   0  0  0  0  0  0  0  0  0  0  0  0
  146.5516  140.8243  155.5595 C   0  0  0  0  0  0  0  0  0  0  0  0
  147.1673  139.8213  155.9170 O   0  0  0  0  0  0  0  0  0  0  0  0
  146.8773  141.7188  154.5399 N   0  0  0  0  0  0  0  0  0  0  0  0
  148.0870  141.5736  153.7198 C   0  0  0  0  0  0  0  0  0  0  0  0
  149.3363  141.2671  154.5545 C   0  0  0  0  0  0  0  0  0  0  0  0
  149.9302  140.1949  154.4329 O   0  0  0  0  0  0  0  0  0  0  0  0
  149.7278  142.2323  155.3996 N   0  0  0  0  0  0  0  0  0  0  0  0
  150.8492  142.1334  156.3291 C   0  0  0  0  0  0  0  0  0  0  0  0
  150.4289  142.3653  157.7954 C   0  0  0  0  0  0  0  0  0  0  0  0
  151.5253  142.0571  158.8051 C   0  0  0  0  0  0  0  0  0  0  0  0
  151.9165  142.9561  159.7296 C   0  0  0  0  0  0  0  0  0  0  0  0
  153.0264  142.7149  160.7369 C   0  0  0  0  0  0  0  0  0  0  0  0
  153.8925  141.4985  160.3705 C   0  0  0  0  0  0  0  0  0  0  0  0
  153.0241  140.3163  159.9222 C   0  0  0  0  0  0  0  0  0  0  0  0
  152.1700  140.6803  158.6944 C   0  0  0  0  0  0  0  0  0  0  0  0
  145.2135  144.3363  153.1132 H   0  0  0  0  0  0  0  0  0  0  0  0
  146.4331  143.3286  152.3475 H   0  0  0  0  0  0  0  0  0  0  0  0
  146.9070  144.5158  153.5777 H   0  0  0  0  0  0  0  0  0  0  0  0
  144.1038  143.4139  155.2939 H   0  0  0  0  0  0  0  0  0  0  0  0
  147.9682  140.8050  152.9569 H   0  0  0  0  0  0  0  0  0  0  0  0
  148.2497  142.5016  153.1682 H   0  0  0  0  0  0  0  0  0  0  0  0
  149.1868  143.0846  155.4290 H   0  0  0  0  0  0  0  0  0  0  0  0
  151.3393  141.1643  156.2243 H   0  0  0  0  0  0  0  0  0  0  0  0
  151.5866  142.8811  156.0364 H   0  0  0  0  0  0  0  0  0  0  0  0
  150.1158  143.4031  157.9170 H   0  0  0  0  0  0  0  0  0  0  0  0
  149.5529  141.7601  158.0298 H   0  0  0  0  0  0  0  0  0  0  0  0
  151.4299  143.9193  159.7831 H   0  0  0  0  0  0  0  0  0  0  0  0
  153.6504  143.6061  160.8053 H   0  0  0  0  0  0  0  0  0  0  0  0
  152.5683  142.5719  161.7159 H   0  0  0  0  0  0  0  0  0  0  0  0
  154.5749  141.7679  159.5632 H   0  0  0  0  0  0  0  0  0  0  0  0
  154.5147  141.2145  161.2196 H   0  0  0  0  0  0  0  0  0  0  0  0
  153.6478  139.4505  159.6975 H   0  0  0  0  0  0  0  0  0  0  0  0
  152.3710  140.0209  160.7444 H   0  0  0  0  0  0  0  0  0  0  0  0
  151.3966  139.9252  158.5516 H   0  0  0  0  0  0  0  0  0  0  0  0
  152.7915  140.6689  157.7985 H   0  0  0  0  0  0  0  0  0  0  0  0
  1  2  1  0  0  0  0
  1 20  1  0  0  0  0
  1 21  1  0  0  0  0
  1 22  1  0  0  0  0
  2  7  1  0  0  0  0
  2  3  2  0  0  0  0
  3  4  1  0  0  0  0
  3 23  1  0  0  0  0
  4  5  1  0  0  0  0
  5  6  2  0  0  0  0
  5  7  1  0  0  0  0
  7  8  1  0  0  0  0
  8  9  1  0  0  0  0
  8 24  1  0  0  0  0
  8 25  1  0  0  0  0
  9 10  2  0  0  0  0
  9 11  1  0  0  0  0
 11 12  1  0  0  0  0
 11 26  1  0  0  0  0
 12 13  1  0  0  0  0
 12 27  1  0  0  0  0
 12 28  1  0  0  0  0
 13 14  1  0  0  0  0
 13 29  1  0  0  0  0
 13 30  1  0  0  0  0
 14 19  1  0  0  0  0
 14 15  2  0  0  0  0
 15 16  1  0  0  0  0
 15 31  1  0  0  0  0
 16 17  1  0  0  0  0
 16 32  1  0  0  0  0
 16 33  1  0  0  0  0
 17 18  1  0  0  0  0
 17 34  1  0  0  0  0
 17 35  1  0  0  0  0
 18 19  1  0  0  0  0
 18 36  1  0  0  0  0
 18 37  1  0  0  0  0
 19 38  1  0  0  0  0
 19 39  1  0  0  0  0
M  END
> <s_m_source_file>
AV-unprocessed.smi

> <i_m_source_file_index>
476

> <i_lp_mmshare_version>
43012

> <i_f3d_flags>
0

> <s_epik_input>
W0NIM11jMVtjSF1zYyg9TyluMVtDSDJdQyg9TylbTkhdW0NIMl1bQ0gyXUMyPVtDSF1bQ0gyXVtDSDJdW0NIMl1bQ0gyXTI=

> <s_epik_cmdline>
J2VwaWtfcHl0aG9uJywgJy1waCcsICc3LjAnLCAnLXRuJywgJzgnLCAnLW1hJywgJzIwMCcsICctbWV0YWxfYmluZGluZycsICctaW1hZScsICc8aW5maWxlLm1hZT4nLCAnLW9tYWUnLCAnPG91dGZpbGUubWFlPic=

> <r_lp_tautomer_probability>
1

> <r_epik_Ionization_Penalty>
1.31088e-06

> <r_epik_Ionization_Penalty_Charging>
1.18065e-06

> <r_epik_Ionization_Penalty_Neutral>
1.30231e-07

> <r_epik_State_Penalty>
-0

> <r_epik_Charging_Adjusted_Penalty>
1.18065e-06

> <i_epik_Tot_Q>
0

> <i_epik_Tot_abs_Q>
0

> <r_epik_Metal_State_Penalty>
-0

> <b_epik_Metal_Only>
0

> <s_lp_Force_Field>
OPLS_2005

> <r_lp_Energy>
10.5339

> <b_lp_Chiralities_Consistent>
1

> <s_lp_Variant>
AV-unprocessed.smi:476-1

> <Gold.Version>
5.8.1

> <Gold.Id.Protein>
6NUR|6NUR_protein|mol2

> <Gold.PLP.Fitness>
46.1215

> <Gold.PLP.PLP>
-40.7072

> <Gold.PLP.part.hbond>
-2.0000

> <Gold.PLP.part.metal>
0.0000

> <Gold.PLP.part.buried>
-5.0342

> <Gold.PLP.part.nonpolar>
-33.1095

> <Gold.PLP.part.repulsive>
0.2924

> <Gold.PLP.ligand.clash>
0.0000

> <Gold.PLP.ligand.torsion>
0.2614

> <Gold.PLP.Chemscore.Hbond>
1.9680

> <Gold.PLP.Chemscore.CHOScore>
0.0000

> <Gold.PLP.Chemscore.Metal>
0.0000

> <Gold.Chemscore.Hbonds>
donor molecule, donor type, donor heavy atom, donor atom, acceptor molecule, acceptor atom, score
      L1  H    11    26       P1  8028  1.00
      P1  H  7989  7998       L1    10  0.87

> <Gold.PLP.Chemscore.Internal.Correction>
0.0330

> <Gold.Rescore>
     Score         DG    S(hbond)    S(metal)    S(lipo)     H(rot)  DE(clash)    DE(int)     intcor
     17.74     -18.27       1.59        0.00     101.50       1.72       0.29       0.25       ----

> <Gold.Chemscore.Fitness>
17.7351

> <Gold.Chemscore.DG>
-18.2742

> <Gold.Chemscore.ZeroCoef>
-5.4800

> <Gold.Chemscore.Hbond>
1.5945

> <Gold.Chemscore.Metal>
0.0000

> <Gold.Chemscore.Lipo>
101.5003

> <Gold.Chemscore.Internal_Hbond>
0.0000

> <Gold.Chemscore.DEClash>
0.2912

> <Gold.Chemscore.DEInternal>
0.2480

> <Gold.Chemscore.Rot>
1.7215

> <Gold.Chemscore.Internal.Correction>
   9.000000E+99

> <Gold.Chemscore.Hbonds>
donor molecule, donor type, donor heavy atom, donor atom, acceptor molecule, acceptor atom, score
      L1  H    11    26       P1  8028  0.99
      P1  H  7989  7998       L1    10  0.18

> <Gold.Chemscore.Hbond.Weighted>
-5.3257

> <Gold.Chemscore.Metal.Weighted>
-0.0000

> <Gold.Chemscore.Lipo.Weighted>
-11.8755

> <Gold.Chemscore.Internal_Hbond.Weighted>
0.0000

> <Gold.Chemscore.DEClash.Weighted>
0.2912

> <Gold.Chemscore.DEInternal.Weighted>
0.2480

> <Gold.Chemscore.Rot.Weighted>
4.4070

> <Gold.Chemscore.Internal.Correction.Weighted>
   9.000000E+99

> <Gold.Protein.RotatedTorsions>
[ 6907 6896 6895 6894 ] final   -0.05 input  -60.11 | X-H torsion
[ 7974 7965 7964 7962 ] final  -23.30 input  175.53 | X-H torsion
[ 8008 7997 7996 7995 ] final -175.41 input   59.86 | X-H torsion
[ 10167 10162 10161 10158 ] final   75.30 input  -65.29 | X-H torsion
[ 10718 10713 10712 10709 ] final  -74.55 input   66.30 | X-H torsion
[ 10763 10752 10751 10750 ] final -128.45 input  -60.55 | X-H torsion
[ 11005 11000 10999 10996 ] final  155.08 input  -57.11 | X-H torsion

> <Gold.Protein.ActiveResidues>
 VAL166  LYS551  ARG553  GLY616  TRP617  ASP618  TYR619  PRO620  LYS621  CYS622 
 ASP623  PHE694  ASN695  SER759  ASP760  ASP761  ALA762  ILE779  LEU786  VAL792 
 PHE793  MET794  SER795  GLU796  ALA797  LYS798  CYS799  TRP800  GLU811  SER814 

> <Gold.Protein.RotatedAtoms>
  151.5685  135.1063  159.9989 H   0  0  0  0  0  0  0  0  0  0  0  0  # atno 6907 bound_to 6896
  152.4412  133.7448  159.6672 H   0  0  0  0  0  0  0  0  0  0  0  0  # atno 6908 bound_to 6896
  150.8318  133.8009  159.3119 H   0  0  0  0  0  0  0  0  0  0  0  0  # atno 6909 bound_to 6896
  146.1624  140.4597  142.8566 H   0  0  0  0  0  0  0  0  0  0  0  0  # atno 7974 bound_to 7965
  155.9822  140.1184  157.0716 H   0  0  0  0  0  0  0  0  0  0  0  0  # atno 8008 bound_to 7997
  154.4186  140.1142  156.5519 H   0  0  0  0  0  0  0  0  0  0  0  0  # atno 8009 bound_to 7997
  155.6455  140.3473  155.4732 H   0  0  0  0  0  0  0  0  0  0  0  0  # atno 8010 bound_to 7997
  140.0044  144.5662  150.7710 H   0  0  0  0  0  0  0  0  0  0  0  0  # atno 10167 bound_to 10162
  156.0239  130.4419  150.2909 H   0  0  0  0  0  0  0  0  0  0  0  0  # atno 10718 bound_to 10713
  154.8756  135.3928  154.3759 H   0  0  0  0  0  0  0  0  0  0  0  0  # atno 10763 bound_to 10752
  153.4513  135.7028  153.6112 H   0  0  0  0  0  0  0  0  0  0  0  0  # atno 10764 bound_to 10752
  153.4651  135.3803  155.2329 H   0  0  0  0  0  0  0  0  0  0  0  0  # atno 10765 bound_to 10752
  140.1548  134.8650  157.2501 H   0  0  0  0  0  0  0  0  0  0  0  0  # atno 11005 bound_to 11000
  144.8046  140.6275  143.6456 LP  0  0  0  0  0  0  0  0  0  0  0  0  # atno 17320 bound_to 7965
  145.4553  139.1519  143.3896 LP  0  0  0  0  0  0  0  0  0  0  0  0  # atno 17321 bound_to 7965
  140.7406  143.2807  151.3608 LP  0  0  0  0  0  0  0  0  0  0  0  0  # atno 17342 bound_to 10162
  139.6249  144.0834  152.2425 LP  0  0  0  0  0  0  0  0  0  0  0  0  # atno 17343 bound_to 10162
  157.1012  131.0196  151.3084 LP  0  0  0  0  0  0  0  0  0  0  0  0  # atno 17370 bound_to 10713
  157.4778  130.7747  149.7385 LP  0  0  0  0  0  0  0  0  0  0  0  0  # atno 17371 bound_to 10713
  140.2560  134.3626  155.7424 LP  0  0  0  0  0  0  0  0  0  0  0  0  # atno 17394 bound_to 11000
  141.2203  133.7343  156.9008 LP  0  0  0  0  0  0  0  0  0  0  0  0  # atno 17395 bound_to 11000

$$$$
