AV-unprocessed.smi:759|AV-procd|sdf|3620|dock2
  -GOLD-   22720 1 13D 1   1.00000     0.00000
 Structure written by MMmdl.
 24 25  0  0  0  0  0  0  0  0  2 V2000
  151.7554  138.1111  158.7242 C   0  0  0  0  0  0  0  0  0  0  0  0
  152.7190  138.3856  157.8468 N   0  0  0  0  0  0  0  0  0  0  0  0
  152.8019  139.7252  157.6972 N   0  0  0  0  0  0  0  0  0  0  0  0
  151.8489  140.1597  158.5237 C   0  0  0  0  0  0  0  0  0  0  0  0
  151.5755  141.6234  158.6876 C   0  0  1  0  0  0  0  0  0  0  0  0
  152.8162  142.3962  159.1738 C   0  0  0  0  0  0  0  0  0  0  0  0
  152.4948  143.8922  159.3143 C   0  0  0  0  0  0  0  0  0  0  0  0
  151.9090  144.4544  158.0080 C   0  0  0  0  0  0  0  0  0  0  0  0
  150.7106  143.6893  157.5992 N   0  3  0  0  0  0  0  0  0  0  0  0
  150.9822  142.2473  157.4081 C   0  0  0  0  0  0  0  0  0  0  0  0
  151.1543  139.1932  159.2008 N   0  0  0  0  0  0  0  0  0  0  0  0
  153.3121  137.7334  157.3533 H   0  0  0  0  0  0  0  0  0  0  0  0
  151.4902  137.1064  159.0191 H   0  0  0  0  0  0  0  0  0  0  0  0
  150.8176  141.7230  159.4671 H   0  0  0  0  0  0  0  0  0  0  0  0
  153.1618  141.9970  160.1281 H   0  0  0  0  0  0  0  0  0  0  0  0
  153.6366  142.2679  158.4661 H   0  0  0  0  0  0  0  0  0  0  0  0
  151.7841  144.0397  160.1285 H   0  0  0  0  0  0  0  0  0  0  0  0
  153.3957  144.4427  159.5870 H   0  0  0  0  0  0  0  0  0  0  0  0
  151.6354  145.5019  158.1361 H   0  0  0  0  0  0  0  0  0  0  0  0
  152.6516  144.4138  157.2099 H   0  0  0  0  0  0  0  0  0  0  0  0
  150.0049  143.7916  158.3147 H   0  0  0  0  0  0  0  0  0  0  0  0
  151.6679  142.1263  156.5682 H   0  0  0  0  0  0  0  0  0  0  0  0
  150.0527  141.7466  157.1355 H   0  0  0  0  0  0  0  0  0  0  0  0
  150.3556  144.0727  156.7348 H   0  0  0  0  0  0  0  0  0  0  0  0
  1 11  2  0  0  0  0
  1 13  1  0  0  0  0
  1  2  1  0  0  0  0
  2 12  1  0  0  0  0
  2  3  1  0  0  0  0
  3  4  2  0  0  0  0
  4 11  1  0  0  0  0
  4  5  1  0  0  0  0
  5 10  1  0  0  0  0
  5  6  1  0  0  0  0
  5 14  1  0  0  0  0
  6  7  1  0  0  0  0
  6 15  1  0  0  0  0
  6 16  1  0  0  0  0
  7  8  1  0  0  0  0
  7 17  1  0  0  0  0
  7 18  1  0  0  0  0
  8  9  1  0  0  0  0
  8 19  1  0  0  0  0
  8 20  1  0  0  0  0
  9 10  1  0  0  0  0
  9 21  1  0  0  0  0
  9 24  1  0  0  0  0
 10 22  1  0  0  0  0
 10 23  1  0  0  0  0
M  CHG  1   9   1
M  END
> <s_m_source_file>
AV-unprocessed.smi

> <i_m_source_file_index>
759

> <i_lp_mmshare_version>
43012

> <i_f3d_flags>
0

> <s_epik_input>
W25IXTFbY0hdbm5jMVtDQEBIXTJbQ0gyXVtDSDJdW0NIMl1bTkhdW0NIMl0y

> <s_epik_cmdline>
J2VwaWtfcHl0aG9uJywgJy1waCcsICc3LjAnLCAnLXRuJywgJzgnLCAnLW1hJywgJzIwMCcsICctbWV0YWxfYmluZGluZycsICctaW1hZScsICc8aW5maWxlLm1hZT4nLCAnLW9tYWUnLCAnPG91dGZpbGUubWFlPic=

> <r_lp_tautomer_probability>
0.948284

> <r_epik_Ionization_Penalty>
0.0050177

> <r_epik_Ionization_Penalty_Charging>
0.000345518

> <r_epik_Ionization_Penalty_Neutral>
0.00467218

> <r_epik_State_Penalty>
0.271452

> <r_epik_Charging_Adjusted_Penalty>
0.271797

> <i_epik_Tot_Q>
1

> <i_epik_Tot_abs_Q>
1

> <r_epik_Metal_State_Penalty>
0.537172

> <b_epik_Metal_Only>
0

> <s_lp_Force_Field>
OPLS_2005

> <r_lp_Energy>
9.69095

> <b_lp_Chiralities_Consistent>
1

> <s_lp_Variant>
AV-unprocessed.smi:759-2

> <Gold.Version>
5.8.1

> <Gold.Id.Protein>
6NUR|6NUR_protein|mol2

> <Gold.PLP.Fitness>
32.6173

> <Gold.PLP.PLP>
-23.6940

> <Gold.PLP.part.hbond>
-2.3486

> <Gold.PLP.part.metal>
0.0000

> <Gold.PLP.part.buried>
-3.5006

> <Gold.PLP.part.nonpolar>
-18.5245

> <Gold.PLP.part.repulsive>
0.0867

> <Gold.PLP.ligand.clash>
0.0000

> <Gold.PLP.ligand.torsion>
0.0597

> <Gold.PLP.Chemscore.Hbond>
3.0000

> <Gold.PLP.Chemscore.CHOScore>
0.0000

> <Gold.PLP.Chemscore.Metal>
0.0000

> <Gold.Chemscore.Hbonds>
donor molecule, donor type, donor heavy atom, donor atom, acceptor molecule, acceptor atom, score
      L1  H     9    24       P1  8028  2.00
      P1  H  7997  8010       L1     3  1.00

> <Gold.PLP.Chemscore.Internal.Correction>
0.0427

> <Gold.Rescore>
     Score         DG    S(hbond)    S(metal)    S(lipo)     H(rot)  DE(clash)    DE(int)     intcor
     15.30     -15.41       1.82        0.00      54.81       1.00       0.00       0.11       ----

> <Gold.Chemscore.Fitness>
15.2976

> <Gold.Chemscore.DG>
-15.4085

> <Gold.Chemscore.ZeroCoef>
-5.4800

> <Gold.Chemscore.Hbond>
1.8191

> <Gold.Chemscore.Metal>
0.0000

> <Gold.Chemscore.Lipo>
54.8106

> <Gold.Chemscore.Internal_Hbond>
0.0000

> <Gold.Chemscore.DEClash>
0.0015

> <Gold.Chemscore.DEInternal>
0.1094

> <Gold.Chemscore.Rot>
1.0000

> <Gold.Chemscore.Internal.Correction>
   9.000000E+99

> <Gold.Chemscore.Hbonds>
donor molecule, donor type, donor heavy atom, donor atom, acceptor molecule, acceptor atom, score
      L1  H     9    24       P1  8028  0.95
      P1  H  7997  8010       L1     3  0.55

> <Gold.Chemscore.Hbond.Weighted>
-6.0757

> <Gold.Chemscore.Metal.Weighted>
-0.0000

> <Gold.Chemscore.Lipo.Weighted>
-6.4128

> <Gold.Chemscore.Internal_Hbond.Weighted>
0.0000

> <Gold.Chemscore.DEClash.Weighted>
0.0015

> <Gold.Chemscore.DEInternal.Weighted>
0.1094

> <Gold.Chemscore.Rot.Weighted>
2.5600

> <Gold.Chemscore.Internal.Correction.Weighted>
   9.000000E+99

> <Gold.Protein.RotatedTorsions>
[ 6907 6896 6895 6894 ] final -178.68 input  -60.11 | X-H torsion
[ 7974 7965 7964 7962 ] final  -86.43 input  175.53 | X-H torsion
[ 8008 7997 7996 7995 ] final   40.56 input   59.86 | X-H torsion
[ 10167 10162 10161 10158 ] final   -4.29 input  -65.29 | X-H torsion
[ 10718 10713 10712 10709 ] final  134.03 input   66.30 | X-H torsion
[ 10763 10752 10751 10750 ] final   53.20 input  -60.55 | X-H torsion
[ 11005 11000 10999 10996 ] final  -44.00 input  -57.11 | X-H torsion

> <Gold.Protein.ActiveResidues>
 VAL166  LYS551  ARG553  GLY616  TRP617  ASP618  TYR619  PRO620  LYS621  CYS622 
 ASP623  PHE694  ASN695  SER759  ASP760  ASP761  ALA762  ILE779  LEU786  VAL792 
 PHE793  MET794  SER795  GLU796  ALA797  LYS798  CYS799  TRP800  GLU811  SER814 

> <Gold.Protein.RotatedAtoms>
  151.6411  133.3326  159.3130 H   0  0  0  0  0  0  0  0  0  0  0  0  # atno 6907 bound_to 6896
  150.8007  134.7103  159.6609 H   0  0  0  0  0  0  0  0  0  0  0  0  # atno 6908 bound_to 6896
  152.4099  134.6146  160.0086 H   0  0  0  0  0  0  0  0  0  0  0  0  # atno 6909 bound_to 6896
  145.4800  140.9557  143.1870 H   0  0  0  0  0  0  0  0  0  0  0  0  # atno 7974 bound_to 7965
  155.2551  140.3355  155.4278 H   0  0  0  0  0  0  0  0  0  0  0  0  # atno 8008 bound_to 7997
  156.2199  140.1804  156.7545 H   0  0  0  0  0  0  0  0  0  0  0  0  # atno 8009 bound_to 7997
  154.5809  140.0654  156.9087 H   0  0  0  0  0  0  0  0  0  0  0  0  # atno 8010 bound_to 7997
  140.6922  143.6440  150.8409 H   0  0  0  0  0  0  0  0  0  0  0  0  # atno 10167 bound_to 10162
  157.4713  131.1080  150.9798 H   0  0  0  0  0  0  0  0  0  0  0  0  # atno 10718 bound_to 10713
  152.9793  135.5787  154.4703 H   0  0  0  0  0  0  0  0  0  0  0  0  # atno 10763 bound_to 10752
  154.4267  135.2772  155.1942 H   0  0  0  0  0  0  0  0  0  0  0  0  # atno 10764 bound_to 10752
  154.3668  135.6176  153.5773 H   0  0  0  0  0  0  0  0  0  0  0  0  # atno 10765 bound_to 10752
  141.0421  133.6775  156.2812 H   0  0  0  0  0  0  0  0  0  0  0  0  # atno 11005 bound_to 11000
  144.7894  139.6358  143.7120 LP  0  0  0  0  0  0  0  0  0  0  0  0  # atno 17320 bound_to 7965
  146.2347  139.5881  142.9532 LP  0  0  0  0  0  0  0  0  0  0  0  0  # atno 17321 bound_to 7965
  140.0154  143.5598  152.2822 LP  0  0  0  0  0  0  0  0  0  0  0  0  # atno 17342 bound_to 10162
  139.6337  144.7647  151.2483 LP  0  0  0  0  0  0  0  0  0  0  0  0  # atno 17343 bound_to 10162
  157.0562  130.5807  149.5378 LP  0  0  0  0  0  0  0  0  0  0  0  0  # atno 17370 bound_to 10713
  156.0075  130.5163  150.7879 LP  0  0  0  0  0  0  0  0  0  0  0  0  # atno 17371 bound_to 10713
  140.6214  134.5358  157.5548 LP  0  0  0  0  0  0  0  0  0  0  0  0  # atno 17394 bound_to 11000
  139.9284  134.8011  156.1001 LP  0  0  0  0  0  0  0  0  0  0  0  0  # atno 17395 bound_to 11000

$$$$
