AV-unprocessed.smi:3019|AV-procd|sdf|11489|dock4
  -GOLD-   2272016433D 1   1.00000     0.00000
 Structure written by MMmdl.
 30 31  0  0  0  0  0  0  0  0  1 V2000
  152.3145  143.5795  161.5291 C   0  0  0  0  0  0  0  0  0  0  0  0
  152.1685  143.9417  160.0437 C   0  0  0  0  0  0  0  0  0  0  0  0
  151.0242  144.9373  159.8037 C   0  0  0  0  0  0  0  0  0  0  0  0
  152.0253  142.7206  159.1879 C   0  0  0  0  0  0  0  0  0  0  0  0
  152.0920  141.4852  159.6895 N   0  0  0  0  0  0  0  0  0  0  0  0
  151.9437  140.5877  158.6924 N   0  0  0  0  0  0  0  0  0  0  0  0
  151.7772  141.3757  157.6307 C   0  0  0  0  0  0  0  0  0  0  0  0
  151.6158  140.7955  156.2601 C   0  0  2  0  0  0  0  0  0  0  0  0
  150.2688  141.1868  155.6209 C   0  0  0  0  0  0  0  0  0  0  0  0
  150.1056  140.5164  154.3317 N   0  0  0  0  0  0  0  0  0  0  0  0
  150.2499  139.0679  154.4699 C   0  0  0  0  0  0  0  0  0  0  0  0
  151.5936  138.7245  155.1383 C   0  0  0  0  0  0  0  0  0  0  0  0
  151.6802  139.3776  156.4000 O   0  0  0  0  0  0  0  0  0  0  0  0
  151.8365  142.7215  157.8721 N   0  0  0  0  0  0  0  0  0  0  0  0
  153.1701  142.9228  161.6905 H   0  0  0  0  0  0  0  0  0  0  0  0
  151.4269  143.0667  161.9016 H   0  0  0  0  0  0  0  0  0  0  0  0
  152.4630  144.4712  162.1386 H   0  0  0  0  0  0  0  0  0  0  0  0
  153.0924  144.4397  159.7453 H   0  0  0  0  0  0  0  0  0  0  0  0
  150.9724  145.2293  158.7543 H   0  0  0  0  0  0  0  0  0  0  0  0
  151.1624  145.8443  160.3925 H   0  0  0  0  0  0  0  0  0  0  0  0
  150.0600  144.5071  160.0774 H   0  0  0  0  0  0  0  0  0  0  0  0
  152.4440  141.1356  155.6347 H   0  0  0  0  0  0  0  0  0  0  0  0
  149.4505  140.9082  156.2862 H   0  0  0  0  0  0  0  0  0  0  0  0
  150.2133  142.2679  155.4908 H   0  0  0  0  0  0  0  0  0  0  0  0
  149.4307  138.6692  155.0697 H   0  0  0  0  0  0  0  0  0  0  0  0
  150.1843  138.5901  153.4924 H   0  0  0  0  0  0  0  0  0  0  0  0
  151.6713  137.6484  155.2933 H   0  0  0  0  0  0  0  0  0  0  0  0
  152.4321  139.0158  154.5035 H   0  0  0  0  0  0  0  0  0  0  0  0
  149.1900  140.7317  153.9502 H   0  0  0  0  0  0  0  0  0  0  0  0
  152.2386  141.2202  160.6529 H   0  0  0  0  0  0  0  0  0  0  0  0
  1  2  1  0  0  0  0
  1 15  1  0  0  0  0
  1 16  1  0  0  0  0
  1 17  1  0  0  0  0
  2  3  1  0  0  0  0
  2  4  1  0  0  0  0
  2 18  1  0  0  0  0
  3 19  1  0  0  0  0
  3 20  1  0  0  0  0
  3 21  1  0  0  0  0
  4 14  2  0  0  0  0
  4  5  1  0  0  0  0
  5  6  1  0  0  0  0
  5 30  1  0  0  0  0
  6  7  2  0  0  0  0
  7  8  1  0  0  0  0
  7 14  1  0  0  0  0
  8 13  1  0  0  0  0
  8  9  1  0  0  0  0
  8 22  1  0  0  0  0
  9 10  1  0  0  0  0
  9 23  1  0  0  0  0
  9 24  1  0  0  0  0
 10 11  1  0  0  0  0
 10 29  1  0  0  0  0
 11 12  1  0  0  0  0
 11 25  1  0  0  0  0
 11 26  1  0  0  0  0
 12 13  1  0  0  0  0
 12 27  1  0  0  0  0
 12 28  1  0  0  0  0
M  END
> <s_m_source_file>
AV-unprocessed.smi

> <i_m_source_file_index>
3019

> <i_lp_mmshare_version>
43012

> <i_f3d_flags>
0

> <s_epik_input>
W0NIM11bQ0hdKFtDSDNdKWMxbltuSF1jKG4xKVtDQEBIXTJbQ0gyXVtOSF1bQ0gyXVtDSDJdTzI=

> <s_epik_cmdline>
J2VwaWtfcHl0aG9uJywgJy1waCcsICc3LjAnLCAnLXRuJywgJzgnLCAnLW1hJywgJzIwMCcsICctbWV0YWxfYmluZGluZycsICctaW1hZScsICc8aW5maWxlLm1hZT4nLCAnLW9tYWUnLCAnPG91dGZpbGUubWFlPic=

> <r_lp_tautomer_probability>
0.948284

> <r_epik_Ionization_Penalty>
1.10045

> <r_epik_Ionization_Penalty_Charging>
0

> <r_epik_Ionization_Penalty_Neutral>
1.10045

> <r_epik_State_Penalty>
1.2625

> <r_epik_Charging_Adjusted_Penalty>
1.2625

> <i_epik_Tot_Q>
0

> <i_epik_Tot_abs_Q>
0

> <r_epik_Metal_State_Penalty>
1.57133

> <b_epik_Metal_Only>
0

> <s_lp_Force_Field>
OPLS_2005

> <r_lp_Energy>
11.1222

> <b_lp_Chiralities_Consistent>
1

> <s_lp_Variant>
AV-unprocessed.smi:3019-5

> <Gold.Version>
5.8.1

> <Gold.Id.Protein>
6NUR|6NUR_protein|mol2

> <Gold.PLP.Fitness>
32.1913

> <Gold.PLP.PLP>
-29.8385

> <Gold.PLP.part.hbond>
-1.3423

> <Gold.PLP.part.metal>
0.0000

> <Gold.PLP.part.buried>
-4.3190

> <Gold.PLP.part.nonpolar>
-23.4299

> <Gold.PLP.part.repulsive>
0.1868

> <Gold.PLP.ligand.clash>
0.0000

> <Gold.PLP.ligand.torsion>
0.0986

> <Gold.PLP.Chemscore.Hbond>
0.8320

> <Gold.PLP.Chemscore.CHOScore>
0.0000

> <Gold.PLP.Chemscore.Metal>
0.0000

> <Gold.Chemscore.Hbonds>
donor molecule, donor type, donor heavy atom, donor atom, acceptor molecule, acceptor atom, score
      P1  H  7989  7998       L1    10  0.85

> <Gold.PLP.Chemscore.Internal.Correction>
0.0539

> <Gold.Rescore>
     Score         DG    S(hbond)    S(metal)    S(lipo)     H(rot)  DE(clash)    DE(int)     intcor
     10.48     -10.64       0.31        0.00      62.80       1.26       0.02       0.14       ----

> <Gold.Chemscore.Fitness>
10.4849

> <Gold.Chemscore.DG>
-10.6428

> <Gold.Chemscore.ZeroCoef>
-5.4800

> <Gold.Chemscore.Hbond>
0.3116

> <Gold.Chemscore.Metal>
0.0000

> <Gold.Chemscore.Lipo>
62.7965

> <Gold.Chemscore.Internal_Hbond>
0.0000

> <Gold.Chemscore.DEClash>
0.0210

> <Gold.Chemscore.DEInternal>
0.1368

> <Gold.Chemscore.Rot>
1.2598

> <Gold.Chemscore.Internal.Correction>
   9.000000E+99

> <Gold.Chemscore.Hbonds>
donor molecule, donor type, donor heavy atom, donor atom, acceptor molecule, acceptor atom, score
      P1  H  7989  7998       L1    10  0.09

> <Gold.Chemscore.Hbond.Weighted>
-1.0407

> <Gold.Chemscore.Metal.Weighted>
-0.0000

> <Gold.Chemscore.Lipo.Weighted>
-7.3472

> <Gold.Chemscore.Internal_Hbond.Weighted>
0.0000

> <Gold.Chemscore.DEClash.Weighted>
0.0210

> <Gold.Chemscore.DEInternal.Weighted>
0.1368

> <Gold.Chemscore.Rot.Weighted>
3.2251

> <Gold.Chemscore.Internal.Correction.Weighted>
   9.000000E+99

> <Gold.Protein.RotatedTorsions>
[ 6907 6896 6895 6894 ] final  -41.00 input  -60.11 | X-H torsion
[ 7974 7965 7964 7962 ] final -159.17 input  175.53 | X-H torsion
[ 8008 7997 7996 7995 ] final  -77.08 input   59.86 | X-H torsion
[ 10167 10162 10161 10158 ] final  130.52 input  -65.29 | X-H torsion
[ 10718 10713 10712 10709 ] final   96.01 input   66.30 | X-H torsion
[ 10763 10752 10751 10750 ] final -166.07 input  -60.55 | X-H torsion
[ 11005 11000 10999 10996 ] final   74.29 input  -57.11 | X-H torsion

> <Gold.Protein.ActiveResidues>
 VAL166  LYS551  ARG553  GLY616  TRP617  ASP618  TYR619  PRO620  LYS621  CYS622 
 ASP623  PHE694  ASN695  SER759  ASP760  ASP761  ALA762  ILE779  LEU786  VAL792 
 PHE793  MET794  SER795  GLU796  ALA797  LYS798  CYS799  TRP800  GLU811  SER814 

> <Gold.Protein.RotatedAtoms>
  150.9719  134.9090  159.7792 H   0  0  0  0  0  0  0  0  0  0  0  0  # atno 6907 bound_to 6896
  152.5193  134.3529  159.9267 H   0  0  0  0  0  0  0  0  0  0  0  0  # atno 6908 bound_to 6896
  151.3538  133.3874  159.2717 H   0  0  0  0  0  0  0  0  0  0  0  0  # atno 6909 bound_to 6896
  144.7476  140.3723  143.6073 H   0  0  0  0  0  0  0  0  0  0  0  0  # atno 7974 bound_to 7965
  154.5564  140.0716  156.8749 H   0  0  0  0  0  0  0  0  0  0  0  0  # atno 8008 bound_to 7997
  155.2895  140.3377  155.4235 H   0  0  0  0  0  0  0  0  0  0  0  0  # atno 8009 bound_to 7997
  156.2005  140.1720  156.7895 H   0  0  0  0  0  0  0  0  0  0  0  0  # atno 8010 bound_to 7997
  139.5426  144.6745  151.4575 H   0  0  0  0  0  0  0  0  0  0  0  0  # atno 10167 bound_to 10162
  157.6932  131.0564  150.4426 H   0  0  0  0  0  0  0  0  0  0  0  0  # atno 10718 bound_to 10713
  154.6870  135.2964  154.9533 H   0  0  0  0  0  0  0  0  0  0  0  0  # atno 10763 bound_to 10752
  154.0509  135.6644  153.4804 H   0  0  0  0  0  0  0  0  0  0  0  0  # atno 10764 bound_to 10752
  153.0586  135.5129  154.7942 H   0  0  0  0  0  0  0  0  0  0  0  0  # atno 10765 bound_to 10752
  139.9398  134.7420  156.1130 H   0  0  0  0  0  0  0  0  0  0  0  0  # atno 11005 bound_to 11000
  145.7065  139.1674  143.2563 LP  0  0  0  0  0  0  0  0  0  0  0  0  # atno 17320 bound_to 7965
  146.1378  140.7099  142.9381 LP  0  0  0  0  0  0  0  0  0  0  0  0  # atno 17321 bound_to 7965
  140.6662  143.8392  150.6945 LP  0  0  0  0  0  0  0  0  0  0  0  0  # atno 17342 bound_to 10162
  140.1802  143.4121  152.1938 LP  0  0  0  0  0  0  0  0  0  0  0  0  # atno 17343 bound_to 10162
  156.4783  130.4068  149.6476 LP  0  0  0  0  0  0  0  0  0  0  0  0  # atno 17370 bound_to 10713
  156.3531  130.7442  151.2405 LP  0  0  0  0  0  0  0  0  0  0  0  0  # atno 17371 bound_to 10713
  141.1028  133.6671  156.2793 LP  0  0  0  0  0  0  0  0  0  0  0  0  # atno 17394 bound_to 11000
  140.5981  134.5583  157.5512 LP  0  0  0  0  0  0  0  0  0  0  0  0  # atno 17395 bound_to 11000

$$$$
