AV-unprocessed.smi:2294|AV-procd|sdf|9216|dock6
  -GOLD-   2272012433D 1   1.00000     0.00000
 Structure written by MMmdl.
 34 35  0  0  0  0  0  0  0  0  1 V2000
  148.0590  138.5274  153.5395 C   0  0  0  0  0  0  0  0  0  0  0  0
  149.0115  139.3599  154.3794 C   0  0  0  0  0  0  0  0  0  0  0  0
  148.5491  140.6300  154.7356 N   0  0  0  0  0  0  0  0  0  0  0  0
  149.2927  141.4092  155.4505 C   0  0  0  0  0  0  0  0  0  0  0  0
  150.5679  141.0153  155.8901 N   0  0  0  0  0  0  0  0  0  0  0  0
  151.3135  141.9983  156.6953 C   0  0  0  0  0  0  0  0  0  0  0  0
  150.5546  142.4044  157.9785 C   0  0  2  0  0  0  0  0  0  0  0  0
  149.9731  143.6793  157.7849 O   0  0  0  0  0  0  0  0  0  0  0  0
  151.4869  142.3914  159.1836 C   0  0  0  0  0  0  0  0  0  0  0  0
  151.7390  143.5782  159.9089 C   0  0  0  0  0  0  0  0  0  0  0  0
  152.6090  143.5655  161.0161 C   0  0  0  0  0  0  0  0  0  0  0  0
  153.2374  142.3675  161.4044 C   0  0  0  0  0  0  0  0  0  0  0  0
  152.9981  141.1833  160.6819 C   0  0  0  0  0  0  0  0  0  0  0  0
  152.1284  141.1935  159.5738 C   0  0  0  0  0  0  0  0  0  0  0  0
  151.9186  140.0462  158.8843 F   0  0  0  0  0  0  0  0  0  0  0  0
  151.0964  139.7951  155.5842 C   0  0  0  0  0  0  0  0  0  0  0  0
  152.2170  139.4581  155.9705 O   0  0  0  0  0  0  0  0  0  0  0  0
  150.2388  138.9192  154.7690 C   0  0  0  0  0  0  0  0  0  0  0  0
  150.7951  137.5468  154.4088 C   0  0  0  0  0  0  0  0  0  0  0  0
  148.5105  138.2850  152.5772 H   0  0  0  0  0  0  0  0  0  0  0  0
  147.1282  139.0621  153.3472 H   0  0  0  0  0  0  0  0  0  0  0  0
  147.8092  137.5983  154.0522 H   0  0  0  0  0  0  0  0  0  0  0  0
  148.9826  142.4120  155.7505 H   0  0  0  0  0  0  0  0  0  0  0  0
  152.2710  141.5531  156.9748 H   0  0  0  0  0  0  0  0  0  0  0  0
  151.5913  142.8813  156.1165 H   0  0  0  0  0  0  0  0  0  0  0  0
  149.7374  141.7074  158.1673 H   0  0  0  0  0  0  0  0  0  0  0  0
  150.0997  143.9331  156.8834 H   0  0  0  0  0  0  0  0  0  0  0  0
  151.2682  144.5057  159.6172 H   0  0  0  0  0  0  0  0  0  0  0  0
  152.7953  144.4762  161.5662 H   0  0  0  0  0  0  0  0  0  0  0  0
  153.9051  142.3577  162.2534 H   0  0  0  0  0  0  0  0  0  0  0  0
  153.4841  140.2650  160.9767 H   0  0  0  0  0  0  0  0  0  0  0  0
  151.0137  136.9802  155.3143 H   0  0  0  0  0  0  0  0  0  0  0  0
  151.7218  137.6526  153.8437 H   0  0  0  0  0  0  0  0  0  0  0  0
  150.1116  136.9502  153.8070 H   0  0  0  0  0  0  0  0  0  0  0  0
  1  2  1  0  0  0  0
  1 20  1  0  0  0  0
  1 21  1  0  0  0  0
  1 22  1  0  0  0  0
  2 18  2  0  0  0  0
  2  3  1  0  0  0  0
  3  4  2  0  0  0  0
  4  5  1  0  0  0  0
  4 23  1  0  0  0  0
  5  6  1  0  0  0  0
  5 16  1  0  0  0  0
  6  7  1  0  0  0  0
  6 24  1  0  0  0  0
  6 25  1  0  0  0  0
  7  8  1  0  0  0  0
  7  9  1  0  0  0  0
  7 26  1  0  0  0  0
  8 27  1  0  0  0  0
  9 14  1  0  0  0  0
  9 10  2  0  0  0  0
 10 11  1  0  0  0  0
 10 28  1  0  0  0  0
 11 12  2  0  0  0  0
 11 29  1  0  0  0  0
 12 13  1  0  0  0  0
 12 30  1  0  0  0  0
 13 14  2  0  0  0  0
 13 31  1  0  0  0  0
 14 15  1  0  0  0  0
 16 17  2  0  0  0  0
 16 18  1  0  0  0  0
 18 19  1  0  0  0  0
 19 32  1  0  0  0  0
 19 33  1  0  0  0  0
 19 34  1  0  0  0  0
M  END
> <s_m_source_file>
AV-unprocessed.smi

> <i_m_source_file_index>
2294

> <i_lp_mmshare_version>
43012

> <i_f3d_flags>
0

> <s_epik_input>
W0NIM11jMW5bY0hdbihjKD1PKWMxW0NIM10pW0NIMl1bQ0BIXShbT0hdKWMyW2NIXVtjSF1bY0hdW2NIXWMyRg==

> <s_epik_cmdline>
J2VwaWtfcHl0aG9uJywgJy1waCcsICc3LjAnLCAnLXRuJywgJzgnLCAnLW1hJywgJzIwMCcsICctbWV0YWxfYmluZGluZycsICctaW1hZScsICc8aW5maWxlLm1hZT4nLCAnLW9tYWUnLCAnPG91dGZpbGUubWFlPic=

> <r_lp_tautomer_probability>
1

> <r_epik_Ionization_Penalty>
5.07259e-05

> <r_epik_Ionization_Penalty_Charging>
7.56727e-08

> <r_epik_Ionization_Penalty_Neutral>
5.06502e-05

> <r_epik_State_Penalty>
-0

> <r_epik_Charging_Adjusted_Penalty>
7.56727e-08

> <i_epik_Tot_Q>
0

> <i_epik_Tot_abs_Q>
0

> <r_epik_Metal_State_Penalty>
-0

> <b_epik_Metal_Only>
0

> <s_lp_Force_Field>
OPLS_2005

> <r_lp_Energy>
20.4384

> <b_lp_Chiralities_Consistent>
1

> <s_lp_Variant>
AV-unprocessed.smi:2294-1

> <Gold.Version>
5.8.1

> <Gold.Id.Protein>
6NUR|6NUR_protein|mol2

> <Gold.PLP.Fitness>
44.2962

> <Gold.PLP.PLP>
-39.2923

> <Gold.PLP.part.hbond>
-2.0894

> <Gold.PLP.part.metal>
0.0000

> <Gold.PLP.part.buried>
-2.1235

> <Gold.PLP.part.nonpolar>
-36.1682

> <Gold.PLP.part.repulsive>
0.0927

> <Gold.PLP.ligand.clash>
0.1759

> <Gold.PLP.ligand.torsion>
0.6455

> <Gold.PLP.Chemscore.Hbond>
1.1542

> <Gold.PLP.Chemscore.CHOScore>
1.0000

> <Gold.PLP.Chemscore.Metal>
0.0000

> <Gold.Chemscore.Hbonds>
donor molecule, donor type, donor heavy atom, donor atom, acceptor molecule, acceptor atom, score
      L1  H     8    27       P1  8028  0.59
      L1  C     4    23       P1  8028  1.00

> <Gold.PLP.Chemscore.Internal.Correction>
0.0081

> <Gold.Rescore>
     Score         DG    S(hbond)    S(metal)    S(lipo)     H(rot)  DE(clash)    DE(int)     intcor
     15.04     -15.90       1.07        0.00     102.82       2.02       0.15       0.72       ----

> <Gold.Chemscore.Fitness>
15.0352

> <Gold.Chemscore.DG>
-15.9046

> <Gold.Chemscore.ZeroCoef>
-5.4800

> <Gold.Chemscore.Hbond>
1.0662

> <Gold.Chemscore.Metal>
0.0000

> <Gold.Chemscore.Lipo>
102.8180

> <Gold.Chemscore.Internal_Hbond>
0.0000

> <Gold.Chemscore.DEClash>
0.1501

> <Gold.Chemscore.DEInternal>
0.7192

> <Gold.Chemscore.Rot>
2.0181

> <Gold.Chemscore.Internal.Correction>
   9.000000E+99

> <Gold.Chemscore.Hbonds>
donor molecule, donor type, donor heavy atom, donor atom, acceptor molecule, acceptor atom, score
      L1  H     8    27       P1  8028  0.59
      P1  H  7997  8010       L1    17  0.02

> <Gold.Chemscore.Hbond.Weighted>
-3.5613

> <Gold.Chemscore.Metal.Weighted>
-0.0000

> <Gold.Chemscore.Lipo.Weighted>
-12.0297

> <Gold.Chemscore.Internal_Hbond.Weighted>
0.0000

> <Gold.Chemscore.DEClash.Weighted>
0.1501

> <Gold.Chemscore.DEInternal.Weighted>
0.7192

> <Gold.Chemscore.Rot.Weighted>
5.1663

> <Gold.Chemscore.Internal.Correction.Weighted>
   9.000000E+99

> <Gold.Protein.RotatedTorsions>
[ 6907 6896 6895 6894 ] final -100.42 input  -60.11 | X-H torsion
[ 7974 7965 7964 7962 ] final -111.84 input  175.53 | X-H torsion
[ 8008 7997 7996 7995 ] final  117.20 input   59.86 | X-H torsion
[ 10167 10162 10161 10158 ] final  116.25 input  -65.29 | X-H torsion
[ 10718 10713 10712 10709 ] final  -90.32 input   66.30 | X-H torsion
[ 10763 10752 10751 10750 ] final   -7.15 input  -60.55 | X-H torsion
[ 11005 11000 10999 10996 ] final -100.15 input  -57.11 | X-H torsion

> <Gold.Protein.ActiveResidues>
 VAL166  LYS551  ARG553  GLY616  TRP617  ASP618  TYR619  PRO620  LYS621  CYS622 
 ASP623  PHE694  ASN695  SER759  ASP760  ASP761  ALA762  ILE779  LEU786  VAL792 
 PHE793  MET794  SER795  GLU796  ALA797  LYS798  CYS799  TRP800  GLU811  SER814 

> <Gold.Protein.RotatedAtoms>
  150.7115  134.0890  159.3924 H   0  0  0  0  0  0  0  0  0  0  0  0  # atno 6907 bound_to 6896
  151.8875  135.0427  160.0504 H   0  0  0  0  0  0  0  0  0  0  0  0  # atno 6908 bound_to 6896
  152.2518  133.5186  159.5366 H   0  0  0  0  0  0  0  0  0  0  0  0  # atno 6909 bound_to 6896
  145.1512  140.8830  143.3645 H   0  0  0  0  0  0  0  0  0  0  0  0  # atno 7974 bound_to 7965
  156.2481  140.2901  156.0642 H   0  0  0  0  0  0  0  0  0  0  0  0  # atno 8008 bound_to 7997
  155.1742  140.0402  157.2886 H   0  0  0  0  0  0  0  0  0  0  0  0  # atno 8009 bound_to 7997
  154.6304  140.2498  155.7447 H   0  0  0  0  0  0  0  0  0  0  0  0  # atno 8010 bound_to 7997
  139.6260  144.7108  151.2532 H   0  0  0  0  0  0  0  0  0  0  0  0  # atno 10167 bound_to 10162
  155.9987  130.4905  150.5305 H   0  0  0  0  0  0  0  0  0  0  0  0  # atno 10718 bound_to 10713
  153.4223  135.7010  153.6285 H   0  0  0  0  0  0  0  0  0  0  0  0  # atno 10763 bound_to 10752
  153.4735  135.3709  155.2404 H   0  0  0  0  0  0  0  0  0  0  0  0  # atno 10764 bound_to 10752
  154.8722  135.4048  154.3594 H   0  0  0  0  0  0  0  0  0  0  0  0  # atno 10765 bound_to 10752
  141.1282  133.8376  157.1065 H   0  0  0  0  0  0  0  0  0  0  0  0  # atno 11005 bound_to 11000
  145.0429  139.3245  143.5968 LP  0  0  0  0  0  0  0  0  0  0  0  0  # atno 17320 bound_to 7965
  146.3494  139.9808  142.8696 LP  0  0  0  0  0  0  0  0  0  0  0  0  # atno 17321 bound_to 7965
  140.7411  143.6567  150.8200 LP  0  0  0  0  0  0  0  0  0  0  0  0  # atno 17342 bound_to 10162
  140.0185  143.5567  152.2810 LP  0  0  0  0  0  0  0  0  0  0  0  0  # atno 17343 bound_to 10162
  157.3255  131.0690  151.1900 LP  0  0  0  0  0  0  0  0  0  0  0  0  # atno 17370 bound_to 10713
  157.2798  130.6745  149.6060 LP  0  0  0  0  0  0  0  0  0  0  0  0  # atno 17371 bound_to 10713
  140.0301  134.9905  157.0764 LP  0  0  0  0  0  0  0  0  0  0  0  0  # atno 17394 bound_to 11000
  140.4299  134.1792  155.7167 LP  0  0  0  0  0  0  0  0  0  0  0  0  # atno 17395 bound_to 11000

$$$$
