AV-unprocessed.smi:828|AV-procd|sdf|3859|dock4
  -GOLD-   22720 1313D 1   1.00000     0.00000
 Structure written by MMmdl.
 35 36  0  0  0  0  0  0  0  0  2 V2000
  150.1036  141.9737  155.9432 C   0  0  0  0  0  0  0  0  0  0  0  0
  149.7579  140.7510  155.1639 C   0  0  0  0  0  0  0  0  0  0  0  0
  150.6791  139.8769  154.7406 N   0  0  0  0  0  0  0  0  0  0  0  0
  150.1180  138.8201  154.0373 N   0  0  0  0  0  0  0  0  0  0  0  0
  148.7853  138.9299  153.9496 C   0  0  0  0  0  0  0  0  0  0  0  0
  147.9580  137.9869  153.2838 N   0  0  0  0  0  0  0  0  0  0  0  0
  146.6240  137.8421  153.3699 C   0  0  0  0  0  0  0  0  0  0  0  0
  145.8761  138.5301  154.0650 O   0  0  0  0  0  0  0  0  0  0  0  0
  146.1932  136.8358  152.5947 N   0  0  0  0  0  0  0  0  0  0  0  0
  144.8017  136.4177  152.4438 C   0  0  0  0  0  0  0  0  0  0  0  0
  144.6243  135.3983  151.2906 C   0  0  1  0  0  0  0  0  0  0  0  0
  145.8308  134.4704  151.0783 C   0  0  0  0  0  0  0  0  0  0  0  0
  145.2295  133.2422  150.4112 C   0  0  0  0  0  0  0  0  0  0  0  0
  143.8850  133.1148  151.1195 C   0  0  0  0  0  0  0  0  0  0  0  0
  143.4337  134.4999  151.3840 N   0  3  1  0  0  0  0  0  0  0  0  0
  142.5704  134.6117  152.5834 C   0  0  0  0  0  0  0  0  0  0  0  0
  148.1022  140.3496  154.7238 S   0  0  0  0  0  0  0  0  0  0  0  0
  151.0685  141.8529  156.4368 H   0  0  0  0  0  0  0  0  0  0  0  0
  149.3455  142.1607  156.7039 H   0  0  0  0  0  0  0  0  0  0  0  0
  150.1546  142.8363  155.2789 H   0  0  0  0  0  0  0  0  0  0  0  0
  148.4403  137.3512  152.6656 H   0  0  0  0  0  0  0  0  0  0  0  0
  146.8796  136.3262  152.0574 H   0  0  0  0  0  0  0  0  0  0  0  0
  144.4246  136.0146  153.3851 H   0  0  0  0  0  0  0  0  0  0  0  0
  144.2256  137.3200  152.2390 H   0  0  0  0  0  0  0  0  0  0  0  0
  144.4801  135.9627  150.3680 H   0  0  0  0  0  0  0  0  0  0  0  0
  146.6202  134.9303  150.4830 H   0  0  0  0  0  0  0  0  0  0  0  0
  146.2599  134.1816  152.0388 H   0  0  0  0  0  0  0  0  0  0  0  0
  145.0795  133.4283  149.3467 H   0  0  0  0  0  0  0  0  0  0  0  0
  145.8512  132.3528  150.5174 H   0  0  0  0  0  0  0  0  0  0  0  0
  143.1530  132.5599  150.5321 H   0  0  0  0  0  0  0  0  0  0  0  0
  144.0274  132.5854  152.0635 H   0  0  0  0  0  0  0  0  0  0  0  0
  143.1186  134.3725  153.4954 H   0  0  0  0  0  0  0  0  0  0  0  0
  141.7336  133.9169  152.5055 H   0  0  0  0  0  0  0  0  0  0  0  0
  142.1503  135.6131  152.6755 H   0  0  0  0  0  0  0  0  0  0  0  0
  142.8514  134.7557  150.5993 H   0  0  0  0  0  0  0  0  0  0  0  0
  1  2  1  0  0  0  0
  1 18  1  0  0  0  0
  1 19  1  0  0  0  0
  1 20  1  0  0  0  0
  2 17  1  0  0  0  0
  2  3  2  0  0  0  0
  3  4  1  0  0  0  0
  4  5  2  0  0  0  0
  5  6  1  0  0  0  0
  5 17  1  0  0  0  0
  6  7  1  0  0  0  0
  6 21  1  0  0  0  0
  7  8  2  0  0  0  0
  7  9  1  0  0  0  0
  9 10  1  0  0  0  0
  9 22  1  0  0  0  0
 10 11  1  0  0  0  0
 10 23  1  0  0  0  0
 10 24  1  0  0  0  0
 11 15  1  0  0  0  0
 11 12  1  0  0  0  0
 11 25  1  0  0  0  0
 12 13  1  0  0  0  0
 12 26  1  0  0  0  0
 12 27  1  0  0  0  0
 13 14  1  0  0  0  0
 13 28  1  0  0  0  0
 13 29  1  0  0  0  0
 14 15  1  0  0  0  0
 14 30  1  0  0  0  0
 14 31  1  0  0  0  0
 15 16  1  0  0  0  0
 15 35  1  0  0  0  0
 16 32  1  0  0  0  0
 16 33  1  0  0  0  0
 16 34  1  0  0  0  0
M  CHG  1  15   1
M  END
> <s_m_source_file>
AV-unprocessed.smi

> <i_m_source_file_index>
828

> <i_lp_mmshare_version>
43012

> <i_f3d_flags>
0

> <s_epik_input>
W0NIM11jMW5uYyhzMSlbTkhdQyg9TylbTkhdW0NIMl1bQ0BASF0yW0NIMl1bQ0gyXVtDSDJdTjJbQ0gzXQ==

> <s_epik_cmdline>
J2VwaWtfcHl0aG9uJywgJy1waCcsICc3LjAnLCAnLXRuJywgJzgnLCAnLW1hJywgJzIwMCcsICctbWV0YWxfYmluZGluZycsICctaW1hZScsICc8aW5maWxlLm1hZT4nLCAnLW9tYWUnLCAnPG91dGZpbGUubWFlPic=

> <r_lp_tautomer_probability>
1

> <r_epik_Ionization_Penalty>
0.00466477

> <r_epik_Ionization_Penalty_Charging>
0.00372199

> <r_epik_Ionization_Penalty_Neutral>
0.000942783

> <r_epik_State_Penalty>
-0

> <r_epik_Charging_Adjusted_Penalty>
0.00372199

> <i_epik_Tot_Q>
1

> <i_epik_Tot_abs_Q>
1

> <r_epik_Metal_State_Penalty>
0.28212

> <b_epik_Metal_Only>
0

> <s_lp_Force_Field>
OPLS_2005

> <r_lp_Energy>
28.4237

> <b_lp_Chiralities_Consistent>
1

> <s_lp_Variant>
AV-unprocessed.smi:828-2

> <Gold.Version>
5.8.1

> <Gold.Id.Protein>
6NUR|6NUR_protein|mol2

> <Gold.PLP.Fitness>
36.5672

> <Gold.PLP.PLP>
-25.6742

> <Gold.PLP.part.hbond>
-3.7448

> <Gold.PLP.part.metal>
0.0000

> <Gold.PLP.part.buried>
-3.4108

> <Gold.PLP.part.nonpolar>
-19.9763

> <Gold.PLP.part.repulsive>
0.4962

> <Gold.PLP.ligand.clash>
0.0000

> <Gold.PLP.ligand.torsion>
0.3965

> <Gold.PLP.Chemscore.Hbond>
3.8942

> <Gold.PLP.Chemscore.CHOScore>
0.0000

> <Gold.PLP.Chemscore.Metal>
0.0000

> <Gold.Chemscore.Hbonds>
donor molecule, donor type, donor heavy atom, donor atom, acceptor molecule, acceptor atom, score
      L1  H     6    21       P1  7948  0.81
      L1  H     9    22       P1  7948  0.73
      L1  H    15    35       P1 10186  1.27
      P1  H  7989  7998       L1     3  1.00

> <Gold.PLP.Chemscore.Internal.Correction>
0.0034

> <Gold.Rescore>
     Score         DG    S(hbond)    S(metal)    S(lipo)     H(rot)  DE(clash)    DE(int)     intcor
     13.62     -15.15       2.05        0.00      53.06       1.33       0.01       1.52       ----

> <Gold.Chemscore.Fitness>
13.6184

> <Gold.Chemscore.DG>
-15.1475

> <Gold.Chemscore.ZeroCoef>
-5.4800

> <Gold.Chemscore.Hbond>
2.0549

> <Gold.Chemscore.Metal>
0.0000

> <Gold.Chemscore.Lipo>
53.0558

> <Gold.Chemscore.Internal_Hbond>
0.0000

> <Gold.Chemscore.DEClash>
0.0050

> <Gold.Chemscore.DEInternal>
1.5240

> <Gold.Chemscore.Rot>
1.3294

> <Gold.Chemscore.Internal.Correction>
   9.000000E+99

> <Gold.Chemscore.Hbonds>
donor molecule, donor type, donor heavy atom, donor atom, acceptor molecule, acceptor atom, score
      L1  H     6    21       P1  7948  0.80
      L1  H     9    22       P1  7948  0.70
      L1  H    15    35       P1 10186  0.12
      P1  H  7989  7998       L1     3  0.19

> <Gold.Chemscore.Hbond.Weighted>
-6.8633

> <Gold.Chemscore.Metal.Weighted>
-0.0000

> <Gold.Chemscore.Lipo.Weighted>
-6.2075

> <Gold.Chemscore.Internal_Hbond.Weighted>
0.0000

> <Gold.Chemscore.DEClash.Weighted>
0.0050

> <Gold.Chemscore.DEInternal.Weighted>
1.5240

> <Gold.Chemscore.Rot.Weighted>
3.4033

> <Gold.Chemscore.Internal.Correction.Weighted>
   9.000000E+99

> <Gold.Protein.RotatedTorsions>
[ 6907 6896 6895 6894 ] final  149.68 input  -60.11 | X-H torsion
[ 7974 7965 7964 7962 ] final  -33.34 input  175.53 | X-H torsion
[ 8008 7997 7996 7995 ] final  -45.18 input   59.86 | X-H torsion
[ 10167 10162 10161 10158 ] final  179.91 input  -65.29 | X-H torsion
[ 10718 10713 10712 10709 ] final   63.74 input   66.30 | X-H torsion
[ 10763 10752 10751 10750 ] final  178.76 input  -60.55 | X-H torsion
[ 11005 11000 10999 10996 ] final   89.71 input  -57.11 | X-H torsion

> <Gold.Protein.ActiveResidues>
 VAL166  LYS551  ARG553  GLY616  TRP617  ASP618  TYR619  PRO620  LYS621  CYS622 
 ASP623  PHE694  ASN695  SER759  ASP760  ASP761  ALA762  ILE779  LEU786  VAL792 
 PHE793  MET794  SER795  GLU796  ALA797  LYS798  CYS799  TRP800  GLU811  SER814 

> <Gold.Protein.RotatedAtoms>
  152.1247  133.4373  159.4691 H   0  0  0  0  0  0  0  0  0  0  0  0  # atno 6907 bound_to 6896
  150.6874  134.2493  159.4513 H   0  0  0  0  0  0  0  0  0  0  0  0  # atno 6908 bound_to 6896
  152.0372  134.9732  160.0624 H   0  0  0  0  0  0  0  0  0  0  0  0  # atno 6909 bound_to 6896
  146.0918  140.5905  142.8861 H   0  0  0  0  0  0  0  0  0  0  0  0  # atno 7974 bound_to 7965
  154.4000  140.1403  156.3805 H   0  0  0  0  0  0  0  0  0  0  0  0  # atno 8008 bound_to 7997
  155.8008  140.3476  155.5381 H   0  0  0  0  0  0  0  0  0  0  0  0  # atno 8009 bound_to 7997
  155.8486  140.0938  157.1680 H   0  0  0  0  0  0  0  0  0  0  0  0  # atno 8010 bound_to 7997
  139.5357  144.2505  152.0788 H   0  0  0  0  0  0  0  0  0  0  0  0  # atno 10167 bound_to 10162
  157.5992  130.9122  149.9755 H   0  0  0  0  0  0  0  0  0  0  0  0  # atno 10718 bound_to 10713
  154.5118  135.2789  155.1336 H   0  0  0  0  0  0  0  0  0  0  0  0  # atno 10763 bound_to 10752
  154.2928  135.6263  153.5396 H   0  0  0  0  0  0  0  0  0  0  0  0  # atno 10764 bound_to 10752
  152.9920  135.5678  154.5586 H   0  0  0  0  0  0  0  0  0  0  0  0  # atno 10765 bound_to 10752
  139.8870  134.8569  156.3181 H   0  0  0  0  0  0  0  0  0  0  0  0  # atno 11005 bound_to 11000
  144.7366  140.4825  143.6899 LP  0  0  0  0  0  0  0  0  0  0  0  0  # atno 17320 bound_to 7965
  145.6024  139.1505  143.3121 LP  0  0  0  0  0  0  0  0  0  0  0  0  # atno 17321 bound_to 7965
  140.1975  144.4691  150.6448 LP  0  0  0  0  0  0  0  0  0  0  0  0  # atno 17342 bound_to 10162
  140.6562  143.2238  151.5964 LP  0  0  0  0  0  0  0  0  0  0  0  0  # atno 17343 bound_to 10162
  156.1061  130.3652  150.0131 LP  0  0  0  0  0  0  0  0  0  0  0  0  # atno 17370 bound_to 10713
  156.8238  130.9368  151.3640 LP  0  0  0  0  0  0  0  0  0  0  0  0  # atno 17371 bound_to 10713
  140.9805  133.7270  156.0665 LP  0  0  0  0  0  0  0  0  0  0  0  0  # atno 17394 bound_to 11000
  140.7756  134.3784  157.5498 LP  0  0  0  0  0  0  0  0  0  0  0  0  # atno 17395 bound_to 11000

$$$$
