AV-unprocessed.smi:3210|AV-procd|sdf|12272|dock6
  -GOLD-   2272018103D 1   1.00000     0.00000
 Structure written by MMmdl.
 35 36  0  0  0  0  0  0  0  0  2 V2000
  146.9576  140.4679  153.1803 O   0  0  0  0  0  0  0  0  0  0  0  0
  147.2642  139.3349  152.8067 C   0  0  0  0  0  0  0  0  0  0  0  0
  146.4837  138.6413  151.6884 C   0  0  0  0  0  0  0  0  0  0  0  0
  146.5939  137.1695  151.7546 N   0  3  0  0  0  0  0  0  0  0  0  0
  145.7911  136.4590  150.7413 C   0  0  0  0  0  0  0  0  0  0  0  0
  144.8813  135.4098  151.3964 C   0  0  0  0  0  0  0  0  0  0  0  0
  145.1085  134.0841  150.8544 N   0  0  0  0  0  0  0  0  0  0  0  0
  144.1859  133.1949  150.3436 C   0  0  0  0  0  0  0  0  0  0  0  0
  144.8690  132.0759  149.9624 C   0  0  0  0  0  0  0  0  0  0  0  0
  146.2210  132.3768  150.2887 C   0  0  0  0  0  0  0  0  0  0  0  0
  146.3606  133.5793  150.8238 N   0  0  0  0  0  0  0  0  0  0  0  0
  148.2811  138.6366  153.3338 N   0  0  0  0  0  0  0  0  0  0  0  0
  149.1519  139.1057  154.4045 C   0  0  0  0  0  0  0  0  0  0  0  0
  150.6353  139.0598  154.0909 C   0  0  0  0  0  0  0  0  0  0  0  0
  151.4495  137.8336  154.4305 C   0  0  0  0  0  0  0  0  0  0  0  0
  151.6678  139.1187  155.1924 C   0  0  0  0  0  0  0  0  0  0  0  0
  145.4339  138.9297  151.7577 H   0  0  0  0  0  0  0  0  0  0  0  0
  146.8572  138.9894  150.7242 H   0  0  0  0  0  0  0  0  0  0  0  0
  147.5649  136.9184  151.6339 H   0  0  0  0  0  0  0  0  0  0  0  0
  145.1891  137.1809  150.1878 H   0  0  0  0  0  0  0  0  0  0  0  0
  146.4634  135.9830  150.0262 H   0  0  0  0  0  0  0  0  0  0  0  0
  145.0491  135.3755  152.4739 H   0  0  0  0  0  0  0  0  0  0  0  0
  143.8327  135.6704  151.2465 H   0  0  0  0  0  0  0  0  0  0  0  0
  143.1325  133.4286  150.2934 H   0  0  0  0  0  0  0  0  0  0  0  0
  144.4644  131.1776  149.5199 H   0  0  0  0  0  0  0  0  0  0  0  0
  147.0983  131.7615  150.1542 H   0  0  0  0  0  0  0  0  0  0  0  0
  148.4657  137.7122  152.9708 H   0  0  0  0  0  0  0  0  0  0  0  0
  148.8688  140.1308  154.6449 H   0  0  0  0  0  0  0  0  0  0  0  0
  148.9688  138.5213  155.3074 H   0  0  0  0  0  0  0  0  0  0  0  0
  150.9024  139.5480  153.1554 H   0  0  0  0  0  0  0  0  0  0  0  0
  150.9498  137.0200  154.9526 H   0  0  0  0  0  0  0  0  0  0  0  0
  152.2192  137.5305  153.7236 H   0  0  0  0  0  0  0  0  0  0  0  0
  152.5833  139.6722  154.9936 H   0  0  0  0  0  0  0  0  0  0  0  0
  151.3130  139.1586  156.2203 H   0  0  0  0  0  0  0  0  0  0  0  0
  146.2978  136.8703  152.6728 H   0  0  0  0  0  0  0  0  0  0  0  0
  1  2  2  0  0  0  0
  2  3  1  0  0  0  0
  2 12  1  0  0  0  0
  3  4  1  0  0  0  0
  3 17  1  0  0  0  0
  3 18  1  0  0  0  0
  4  5  1  0  0  0  0
  4 19  1  0  0  0  0
  4 35  1  0  0  0  0
  5  6  1  0  0  0  0
  5 20  1  0  0  0  0
  5 21  1  0  0  0  0
  6  7  1  0  0  0  0
  6 22  1  0  0  0  0
  6 23  1  0  0  0  0
  7 11  1  0  0  0  0
  7  8  1  0  0  0  0
  8  9  2  0  0  0  0
  8 24  1  0  0  0  0
  9 10  1  0  0  0  0
  9 25  1  0  0  0  0
 10 11  2  0  0  0  0
 10 26  1  0  0  0  0
 12 13  1  0  0  0  0
 12 27  1  0  0  0  0
 13 14  1  0  0  0  0
 13 28  1  0  0  0  0
 13 29  1  0  0  0  0
 14 16  1  0  0  0  0
 14 15  1  0  0  0  0
 14 30  1  0  0  0  0
 15 16  1  0  0  0  0
 15 31  1  0  0  0  0
 15 32  1  0  0  0  0
 16 33  1  0  0  0  0
 16 34  1  0  0  0  0
M  CHG  1   4   1
M  END
> <s_m_source_file>
AV-unprocessed.smi

> <i_m_source_file_index>
3210

> <i_lp_mmshare_version>
43012

> <i_f3d_flags>
0

> <s_epik_input>
W0NIMl0xW0NIMl1bQ0hdMVtDSDJdW05IXUMoPU8pW0NIMl1bTkhdW0NIMl1bQ0gyXW4yW2NIXVtjSF1bY0hdbjI=

> <s_epik_cmdline>
J2VwaWtfcHl0aG9uJywgJy1waCcsICc3LjAnLCAnLXRuJywgJzgnLCAnLW1hJywgJzIwMCcsICctbWV0YWxfYmluZGluZycsICctaW1hZScsICc8aW5maWxlLm1hZT4nLCAnLW9tYWUnLCAnPG91dGZpbGUubWFlPic=

> <r_lp_tautomer_probability>
1

> <r_epik_Ionization_Penalty>
0.20724

> <r_epik_Ionization_Penalty_Charging>
0.207237

> <r_epik_Ionization_Penalty_Neutral>
3.19342e-06

> <r_epik_State_Penalty>
0.197611

> <r_epik_Charging_Adjusted_Penalty>
0.404848

> <i_epik_Tot_Q>
1

> <i_epik_Tot_abs_Q>
1

> <r_epik_Metal_State_Penalty>
0.197786

> <b_epik_Metal_Only>
0

> <s_lp_Force_Field>
OPLS_2005

> <r_lp_Energy>
10.8837

> <b_lp_Chiralities_Consistent>
1

> <s_lp_Variant>
AV-unprocessed.smi:3210-1

> <Gold.Version>
5.8.1

> <Gold.Id.Protein>
6NUR|6NUR_protein|mol2

> <Gold.PLP.Fitness>
49.1492

> <Gold.PLP.PLP>
-36.3862

> <Gold.PLP.part.hbond>
-3.0000

> <Gold.PLP.part.metal>
0.0000

> <Gold.PLP.part.buried>
-0.7131

> <Gold.PLP.part.nonpolar>
-33.3670

> <Gold.PLP.part.repulsive>
0.5159

> <Gold.PLP.ligand.clash>
0.0000

> <Gold.PLP.ligand.torsion>
1.4253

> <Gold.PLP.Chemscore.Hbond>
3.0000

> <Gold.PLP.Chemscore.CHOScore>
2.0000

> <Gold.PLP.Chemscore.Metal>
0.0000

> <Gold.Chemscore.Hbonds>
donor molecule, donor type, donor heavy atom, donor atom, acceptor molecule, acceptor atom, score
      L1  H     4    19       P1  7948  2.00
      L1  H    12    27       P1  7948  1.00
      L1  C     8    24       P1 10186  1.00
      L1  C    10    26       P1 10747  1.00

> <Gold.PLP.Chemscore.Internal.Correction>
0.6137

> <Gold.Rescore>
     Score         DG    S(hbond)    S(metal)    S(lipo)     H(rot)  DE(clash)    DE(int)     intcor
     13.10     -15.38       1.94        0.00      81.05       2.37       0.87       1.40       ----

> <Gold.Chemscore.Fitness>
13.1017

> <Gold.Chemscore.DG>
-15.3791

> <Gold.Chemscore.ZeroCoef>
-5.4800

> <Gold.Chemscore.Hbond>
1.9423

> <Gold.Chemscore.Metal>
0.0000

> <Gold.Chemscore.Lipo>
81.0522

> <Gold.Chemscore.Internal_Hbond>
0.0000

> <Gold.Chemscore.DEClash>
0.8742

> <Gold.Chemscore.DEInternal>
1.4031

> <Gold.Chemscore.Rot>
2.3715

> <Gold.Chemscore.Internal.Correction>
   9.000000E+99

> <Gold.Chemscore.Hbonds>
donor molecule, donor type, donor heavy atom, donor atom, acceptor molecule, acceptor atom, score
      L1  H     4    19       P1  7948  0.93
      L1  H    12    27       P1  7948  1.00

> <Gold.Chemscore.Hbond.Weighted>
-6.4871

> <Gold.Chemscore.Metal.Weighted>
-0.0000

> <Gold.Chemscore.Lipo.Weighted>
-9.4831

> <Gold.Chemscore.Internal_Hbond.Weighted>
0.0000

> <Gold.Chemscore.DEClash.Weighted>
0.8742

> <Gold.Chemscore.DEInternal.Weighted>
1.4031

> <Gold.Chemscore.Rot.Weighted>
6.0712

> <Gold.Chemscore.Internal.Correction.Weighted>
   9.000000E+99

> <Gold.Protein.RotatedTorsions>
[ 6907 6896 6895 6894 ] final  -19.45 input  -60.11 | X-H torsion
[ 7974 7965 7964 7962 ] final   16.37 input  175.53 | X-H torsion
[ 8008 7997 7996 7995 ] final  158.52 input   59.86 | X-H torsion
[ 10167 10162 10161 10158 ] final  -40.32 input  -65.29 | X-H torsion
[ 10718 10713 10712 10709 ] final    0.26 input   66.30 | X-H torsion
[ 10763 10752 10751 10750 ] final -176.16 input  -60.55 | X-H torsion
[ 11005 11000 10999 10996 ] final  -23.40 input  -57.11 | X-H torsion

> <Gold.Protein.ActiveResidues>
 VAL166  LYS551  ARG553  GLY616  TRP617  ASP618  TYR619  PRO620  LYS621  CYS622 
 ASP623  PHE694  ASN695  SER759  ASP760  ASP761  ALA762  ILE779  LEU786  VAL792 
 PHE793  MET794  SER795  GLU796  ALA797  LYS798  CYS799  TRP800  GLU811  SER814 

> <Gold.Protein.RotatedAtoms>
  151.2629  135.0660  159.9104 H   0  0  0  0  0  0  0  0  0  0  0  0  # atno 6907 bound_to 6896
  152.5363  134.0212  159.7993 H   0  0  0  0  0  0  0  0  0  0  0  0  # atno 6908 bound_to 6896
  151.0438  133.5633  159.2679 H   0  0  0  0  0  0  0  0  0  0  0  0  # atno 6909 bound_to 6896
  146.2251  139.8758  142.8579 H   0  0  0  0  0  0  0  0  0  0  0  0  # atno 7974 bound_to 7965
  156.2297  140.1856  156.7273 H   0  0  0  0  0  0  0  0  0  0  0  0  # atno 8008 bound_to 7997
  154.6001  140.0637  156.9385 H   0  0  0  0  0  0  0  0  0  0  0  0  # atno 8009 bound_to 7997
  155.2188  140.3306  155.4321 H   0  0  0  0  0  0  0  0  0  0  0  0  # atno 8010 bound_to 7997
  140.7038  143.3160  151.2908 H   0  0  0  0  0  0  0  0  0  0  0  0  # atno 10167 bound_to 10162
  156.8308  130.5488  149.5687 H   0  0  0  0  0  0  0  0  0  0  0  0  # atno 10718 bound_to 10713
  154.5757  135.2832  155.0783 H   0  0  0  0  0  0  0  0  0  0  0  0  # atno 10763 bound_to 10752
  154.2138  135.6403  153.5127 H   0  0  0  0  0  0  0  0  0  0  0  0  # atno 10764 bound_to 10752
  153.0072  135.5498  154.6395 H   0  0  0  0  0  0  0  0  0  0  0  0  # atno 10765 bound_to 10752
  140.8748  133.7695  156.0230 H   0  0  0  0  0  0  0  0  0  0  0  0  # atno 11005 bound_to 11000
  145.2562  141.0061  143.3852 LP  0  0  0  0  0  0  0  0  0  0  0  0  # atno 17320 bound_to 7965
  144.9335  139.4271  143.6484 LP  0  0  0  0  0  0  0  0  0  0  0  0  # atno 17321 bound_to 7965
  139.6599  144.0208  152.2685 LP  0  0  0  0  0  0  0  0  0  0  0  0  # atno 17342 bound_to 10162
  139.9772  144.6453  150.7934 LP  0  0  0  0  0  0  0  0  0  0  0  0  # atno 17343 bound_to 10162
  156.0935  130.5914  150.9774 LP  0  0  0  0  0  0  0  0  0  0  0  0  # atno 17370 bound_to 10713
  157.6408  131.0910  150.8256 LP  0  0  0  0  0  0  0  0  0  0  0  0  # atno 17371 bound_to 10713
  140.8531  134.2930  157.5267 LP  0  0  0  0  0  0  0  0  0  0  0  0  # atno 17394 bound_to 11000
  139.8715  134.9478  156.3979 LP  0  0  0  0  0  0  0  0  0  0  0  0  # atno 17395 bound_to 11000

$$$$
