AV-unprocessed.smi:2033|AV-procd|sdf|8262|dock5
  -GOLD-   2272010533D 1   1.00000     0.00000
 Structure written by MMmdl.
 32 33  0  0  0  0  0  0  0  0  2 V2000
  152.8408  143.0352  161.8444 C   0  0  0  0  0  0  0  0  0  0  0  0
  152.5025  142.3523  160.5639 C   0  0  0  0  0  0  0  0  0  0  0  0
  151.3033  142.4547  159.9857 N   0  0  0  0  0  0  0  0  0  0  0  0
  151.2288  141.7296  158.8050 N   0  0  0  0  0  0  0  0  0  0  0  0
  152.3663  141.0831  158.5122 C   0  0  0  0  0  0  0  0  0  0  0  0
  152.5033  140.3275  157.4103 N   0  5  0  0  0  0  0  0  0  0  0  0
  151.4101  139.8001  156.8134 C   0  0  0  0  0  0  0  0  0  0  0  0
  151.0008  138.6426  156.9312 O   0  0  0  0  0  0  0  0  0  0  0  0
  150.7509  140.6667  156.0289 N   0  0  0  0  0  0  0  0  0  0  0  0
  149.5390  140.3851  155.2540 C   0  0  1  0  0  0  0  0  0  0  0  0
  149.1401  141.6862  154.5203 C   0  0  0  0  0  0  0  0  0  0  0  0
  147.6547  141.7438  154.1223 C   0  0  0  0  0  0  0  0  0  0  0  0
  147.2185  140.6970  153.0858 C   0  0  0  0  0  0  0  0  0  0  0  0
  147.3723  139.2451  153.5701 C   0  0  0  0  0  0  0  0  0  0  0  0
  148.7552  138.7905  153.5094 N   0  0  0  0  0  0  0  0  0  0  0  0
  149.7931  139.2713  154.2108 C   0  0  0  0  0  0  0  0  0  0  0  0
  150.9272  138.8333  154.0175 O   0  0  0  0  0  0  0  0  0  0  0  0
  153.6482  141.3460  159.6944 S   0  0  0  0  0  0  0  0  0  0  0  0
  152.4373  142.4708  162.6850 H   0  0  0  0  0  0  0  0  0  0  0  0
  152.4187  144.0405  161.8598 H   0  0  0  0  0  0  0  0  0  0  0  0
  153.9223  143.1103  161.9593 H   0  0  0  0  0  0  0  0  0  0  0  0
  151.1282  141.5998  155.9564 H   0  0  0  0  0  0  0  0  0  0  0  0
  148.7445  140.0834  155.9388 H   0  0  0  0  0  0  0  0  0  0  0  0
  149.3257  142.5362  155.1788 H   0  0  0  0  0  0  0  0  0  0  0  0
  149.7727  141.8527  153.6465 H   0  0  0  0  0  0  0  0  0  0  0  0
  147.0377  141.6468  155.0165 H   0  0  0  0  0  0  0  0  0  0  0  0
  147.4419  142.7357  153.7224 H   0  0  0  0  0  0  0  0  0  0  0  0
  146.1682  140.8721  152.8503 H   0  0  0  0  0  0  0  0  0  0  0  0
  147.7618  140.8423  152.1511 H   0  0  0  0  0  0  0  0  0  0  0  0
  146.9705  139.1180  154.5762 H   0  0  0  0  0  0  0  0  0  0  0  0
  146.7909  138.5882  152.9226 H   0  0  0  0  0  0  0  0  0  0  0  0
  148.9541  138.0558  152.8463 H   0  0  0  0  0  0  0  0  0  0  0  0
  1  2  1  0  0  0  0
  1 19  1  0  0  0  0
  1 20  1  0  0  0  0
  1 21  1  0  0  0  0
  2 18  1  0  0  0  0
  2  3  2  0  0  0  0
  3  4  1  0  0  0  0
  4  5  2  0  0  0  0
  5  6  1  0  0  0  0
  5 18  1  0  0  0  0
  6  7  1  0  0  0  0
  7  8  2  0  0  0  0
  7  9  1  0  0  0  0
  9 10  1  0  0  0  0
  9 22  1  0  0  0  0
 10 16  1  0  0  0  0
 10 11  1  0  0  0  0
 10 23  1  0  0  0  0
 11 12  1  0  0  0  0
 11 24  1  0  0  0  0
 11 25  1  0  0  0  0
 12 13  1  0  0  0  0
 12 26  1  0  0  0  0
 12 27  1  0  0  0  0
 13 14  1  0  0  0  0
 13 28  1  0  0  0  0
 13 29  1  0  0  0  0
 14 15  1  0  0  0  0
 14 30  1  0  0  0  0
 14 31  1  0  0  0  0
 15 16  1  0  0  0  0
 15 32  1  0  0  0  0
 16 17  2  0  0  0  0
M  CHG  1   6  -1
M  END
> <s_m_source_file>
AV-unprocessed.smi

> <i_m_source_file_index>
2033

> <i_lp_mmshare_version>
43012

> <i_f3d_flags>
0

> <s_epik_input>
W0NIM11jMW5uYyhzMSlbTkhdQyg9TylbTkhdW0NAQEhdMltDSDJdW0NIMl1bQ0gyXVtDSDJdW05IXUMyPU8=

> <s_epik_cmdline>
J2VwaWtfcHl0aG9uJywgJy1waCcsICc3LjAnLCAnLXRuJywgJzgnLCAnLW1hJywgJzIwMCcsICctbWV0YWxfYmluZGluZycsICctaW1hZScsICc8aW5maWxlLm1hZT4nLCAnLW9tYWUnLCAnPG91dGZpbGUubWFlPic=

> <r_lp_tautomer_probability>
1

> <r_epik_Ionization_Penalty>
4.07233

> <r_epik_Ionization_Penalty_Charging>
3.9374

> <r_epik_Ionization_Penalty_Neutral>
0.134927

> <r_epik_State_Penalty>
3.93663

> <r_epik_Charging_Adjusted_Penalty>
7.87404

> <i_epik_Tot_Q>
-1

> <i_epik_Tot_abs_Q>
1

> <r_epik_Metal_State_Penalty>
0.602812

> <b_epik_Metal_Only>
1

> <s_lp_Force_Field>
OPLS_2005

> <r_lp_Energy>
8.77885

> <b_lp_Chiralities_Consistent>
1

> <s_lp_Variant>
AV-unprocessed.smi:2033-4

> <Gold.Version>
5.8.1

> <Gold.Id.Protein>
6NUR|6NUR_protein|mol2

> <Gold.PLP.Fitness>
42.1201

> <Gold.PLP.PLP>
-33.8269

> <Gold.PLP.part.hbond>
-4.6722

> <Gold.PLP.part.metal>
0.0000

> <Gold.PLP.part.buried>
-0.8339

> <Gold.PLP.part.nonpolar>
-27.7872

> <Gold.PLP.part.repulsive>
0.3972

> <Gold.PLP.ligand.clash>
0.0000

> <Gold.PLP.ligand.torsion>
0.8454

> <Gold.PLP.Chemscore.Hbond>
3.3263

> <Gold.PLP.Chemscore.CHOScore>
0.0000

> <Gold.PLP.Chemscore.Metal>
0.0000

> <Gold.Chemscore.Hbonds>
donor molecule, donor type, donor heavy atom, donor atom, acceptor molecule, acceptor atom, score
      L1  H    15    32       P1  7948  0.98
      P1  H  7989  7998       L1    17  0.31
      P1  H  7997  8010       L1     6  1.92

> <Gold.PLP.Chemscore.Internal.Correction>
0.0052

> <Gold.Rescore>
     Score         DG    S(hbond)    S(metal)    S(lipo)     H(rot)  DE(clash)    DE(int)     intcor
     15.58     -16.65       1.88        0.00      63.58       1.00       0.18       0.89       ----

> <Gold.Chemscore.Fitness>
15.5848

> <Gold.Chemscore.DG>
-16.6547

> <Gold.Chemscore.ZeroCoef>
-5.4800

> <Gold.Chemscore.Hbond>
1.8849

> <Gold.Chemscore.Metal>
0.0000

> <Gold.Chemscore.Lipo>
63.5814

> <Gold.Chemscore.Internal_Hbond>
0.0000

> <Gold.Chemscore.DEClash>
0.1819

> <Gold.Chemscore.DEInternal>
0.8880

> <Gold.Chemscore.Rot>
1.0000

> <Gold.Chemscore.Internal.Correction>
   9.000000E+99

> <Gold.Chemscore.Hbonds>
donor molecule, donor type, donor heavy atom, donor atom, acceptor molecule, acceptor atom, score
      L1  H    15    32       P1  7948  0.91
      P1  H  7989  7998       L1    17  0.02
      P1  H  7997  8010       L1     6  0.81

> <Gold.Chemscore.Hbond.Weighted>
-6.2957

> <Gold.Chemscore.Metal.Weighted>
-0.0000

> <Gold.Chemscore.Lipo.Weighted>
-7.4390

> <Gold.Chemscore.Internal_Hbond.Weighted>
0.0000

> <Gold.Chemscore.DEClash.Weighted>
0.1819

> <Gold.Chemscore.DEInternal.Weighted>
0.8880

> <Gold.Chemscore.Rot.Weighted>
2.5600

> <Gold.Chemscore.Internal.Correction.Weighted>
   9.000000E+99

> <Gold.Protein.RotatedTorsions>
[ 6907 6896 6895 6894 ] final  134.48 input  -60.11 | X-H torsion
[ 7974 7965 7964 7962 ] final -162.61 input  175.53 | X-H torsion
[ 8008 7997 7996 7995 ] final   57.82 input   59.86 | X-H torsion
[ 10167 10162 10161 10158 ] final  169.00 input  -65.29 | X-H torsion
[ 10718 10713 10712 10709 ] final  -66.99 input   66.30 | X-H torsion
[ 10763 10752 10751 10750 ] final   89.01 input  -60.55 | X-H torsion
[ 11005 11000 10999 10996 ] final -175.64 input  -57.11 | X-H torsion

> <Gold.Protein.ActiveResidues>
 VAL166  LYS551  ARG553  GLY616  TRP617  ASP618  TYR619  PRO620  LYS621  CYS622 
 ASP623  PHE694  ASN695  SER759  ASP760  ASP761  ALA762  ILE779  LEU786  VAL792 
 PHE793  MET794  SER795  GLU796  ALA797  LYS798  CYS799  TRP800  GLU811  SER814 

> <Gold.Protein.RotatedAtoms>
  152.3108  133.5750  159.5679 H   0  0  0  0  0  0  0  0  0  0  0  0  # atno 6907 bound_to 6896
  150.7322  134.0155  159.3693 H   0  0  0  0  0  0  0  0  0  0  0  0  # atno 6908 bound_to 6896
  151.8048  135.0698  160.0456 H   0  0  0  0  0  0  0  0  0  0  0  0  # atno 6909 bound_to 6896
  144.7352  140.3227  143.6168 H   0  0  0  0  0  0  0  0  0  0  0  0  # atno 7974 bound_to 7965
  155.5399  140.3484  155.4444 H   0  0  0  0  0  0  0  0  0  0  0  0  # atno 8008 bound_to 7997
  156.0658  140.1351  156.9913 H   0  0  0  0  0  0  0  0  0  0  0  0  # atno 8009 bound_to 7997
  154.4503  140.0976  156.6570 H   0  0  0  0  0  0  0  0  0  0  0  0  # atno 8010 bound_to 7997
  139.4981  144.3754  151.9680 H   0  0  0  0  0  0  0  0  0  0  0  0  # atno 10167 bound_to 10162
  156.0582  130.4271  150.1789 H   0  0  0  0  0  0  0  0  0  0  0  0  # atno 10718 bound_to 10713
  153.1827  135.4486  155.0048 H   0  0  0  0  0  0  0  0  0  0  0  0  # atno 10763 bound_to 10752
  154.8040  135.3267  154.7480 H   0  0  0  0  0  0  0  0  0  0  0  0  # atno 10764 bound_to 10752
  153.7943  135.6967  153.4921 H   0  0  0  0  0  0  0  0  0  0  0  0  # atno 10765 bound_to 10752
  140.4611  134.6254  157.4843 H   0  0  0  0  0  0  0  0  0  0  0  0  # atno 11005 bound_to 11000
  145.7552  139.1806  143.2299 LP  0  0  0  0  0  0  0  0  0  0  0  0  # atno 17320 bound_to 7965
  146.1030  140.7521  142.9540 LP  0  0  0  0  0  0  0  0  0  0  0  0  # atno 17321 bound_to 7965
  140.3190  144.3450  150.6014 LP  0  0  0  0  0  0  0  0  0  0  0  0  # atno 17342 bound_to 10162
  140.5738  143.2178  151.7552 LP  0  0  0  0  0  0  0  0  0  0  0  0  # atno 17343 bound_to 10162
  156.9861  130.9879  151.3426 LP  0  0  0  0  0  0  0  0  0  0  0  0  # atno 17370 bound_to 10713
  157.5569  130.8220  149.8216 LP  0  0  0  0  0  0  0  0  0  0  0  0  # atno 17371 bound_to 10713
  139.9945  134.6933  155.9633 LP  0  0  0  0  0  0  0  0  0  0  0  0  # atno 17394 bound_to 11000
  141.1621  133.6538  156.4353 LP  0  0  0  0  0  0  0  0  0  0  0  0  # atno 17395 bound_to 11000

$$$$
