AV-unprocessed.smi:1883|AV-procd|sdf|7645|dock2
  -GOLD-   22720 9373D 1   1.00000     0.00000
 Structure written by MMmdl.
 36 38  0  0  0  0  0  0  0  0  2 V2000
  151.8421  137.7929  154.5660 C   0  0  0  0  0  0  0  0  0  0  0  0
  150.6391  138.6626  154.4173 C   0  0  0  0  0  0  0  0  0  0  0  0
  149.5564  138.4064  153.6297 N   0  3  0  0  0  0  0  0  0  0  0  0
  148.6325  139.4463  153.7444 C   0  0  0  0  0  0  0  0  0  0  0  0
  147.3924  139.6356  153.1424 C   0  0  0  0  0  0  0  0  0  0  0  0
  146.6995  140.8173  153.4787 C   0  0  0  0  0  0  0  0  0  0  0  0
  147.2418  141.7553  154.3814 C   0  0  0  0  0  0  0  0  0  0  0  0
  148.5000  141.5525  154.9858 C   0  0  0  0  0  0  0  0  0  0  0  0
  149.1781  140.3822  154.6465 C   0  0  0  0  0  0  0  0  0  0  0  0
  150.4152  139.8578  155.0346 N   0  0  0  0  0  0  0  0  0  0  0  0
  151.2483  140.6132  155.9822 C   0  0  0  0  0  0  0  0  0  0  0  0
  150.5209  140.9372  157.3022 C   0  0  1  0  0  0  0  0  0  0  0  0
  149.9889  139.7502  157.8594 O   0  0  0  0  0  0  0  0  0  0  0  0
  151.4403  141.6794  158.2626 C   0  0  0  0  0  0  0  0  0  0  0  0
  151.2192  143.0429  158.5617 C   0  0  0  0  0  0  0  0  0  0  0  0
  152.0634  143.7202  159.4628 C   0  0  0  0  0  0  0  0  0  0  0  0
  151.8448  145.0264  159.7436 F   0  0  0  0  0  0  0  0  0  0  0  0
  153.1326  143.0389  160.0739 C   0  0  0  0  0  0  0  0  0  0  0  0
  153.3550  141.6791  159.7858 C   0  0  0  0  0  0  0  0  0  0  0  0
  152.5111  140.9993  158.8860 C   0  0  0  0  0  0  0  0  0  0  0  0
  152.7314  139.6871  158.6297 F   0  0  0  0  0  0  0  0  0  0  0  0
  151.6975  136.8456  154.0460 H   0  0  0  0  0  0  0  0  0  0  0  0
  152.0301  137.5843  155.6194 H   0  0  0  0  0  0  0  0  0  0  0  0
  152.7176  138.2892  154.1472 H   0  0  0  0  0  0  0  0  0  0  0  0
  146.9748  138.9185  152.4510 H   0  0  0  0  0  0  0  0  0  0  0  0
  145.7327  141.0077  153.0357 H   0  0  0  0  0  0  0  0  0  0  0  0
  146.6813  142.6488  154.6153 H   0  0  0  0  0  0  0  0  0  0  0  0
  148.9066  142.2756  155.6773 H   0  0  0  0  0  0  0  0  0  0  0  0
  152.1463  140.0262  156.1783 H   0  0  0  0  0  0  0  0  0  0  0  0
  151.5821  141.5269  155.4884 H   0  0  0  0  0  0  0  0  0  0  0  0
  149.6640  141.5768  157.0898 H   0  0  0  0  0  0  0  0  0  0  0  0
  149.3036  139.9853  158.4664 H   0  0  0  0  0  0  0  0  0  0  0  0
  150.3982  143.5762  158.1052 H   0  0  0  0  0  0  0  0  0  0  0  0
  153.7792  143.5578  160.7662 H   0  0  0  0  0  0  0  0  0  0  0  0
  154.1729  141.1556  160.2586 H   0  0  0  0  0  0  0  0  0  0  0  0
  149.4597  137.5794  153.0549 H   0  0  0  0  0  0  0  0  0  0  0  0
  1  2  1  0  0  0  0
  1 22  1  0  0  0  0
  1 23  1  0  0  0  0
  1 24  1  0  0  0  0
  2 10  1  0  0  0  0
  2  3  2  0  0  0  0
  3  4  1  0  0  0  0
  3 36  1  0  0  0  0
  4  9  2  0  0  0  0
  4  5  1  0  0  0  0
  5  6  2  0  0  0  0
  5 25  1  0  0  0  0
  6  7  1  0  0  0  0
  6 26  1  0  0  0  0
  7  8  2  0  0  0  0
  7 27  1  0  0  0  0
  8  9  1  0  0  0  0
  8 28  1  0  0  0  0
  9 10  1  0  0  0  0
 10 11  1  0  0  0  0
 11 12  1  0  0  0  0
 11 29  1  0  0  0  0
 11 30  1  0  0  0  0
 12 13  1  0  0  0  0
 12 14  1  0  0  0  0
 12 31  1  0  0  0  0
 13 32  1  0  0  0  0
 14 20  1  0  0  0  0
 14 15  2  0  0  0  0
 15 16  1  0  0  0  0
 15 33  1  0  0  0  0
 16 17  1  0  0  0  0
 16 18  2  0  0  0  0
 18 19  1  0  0  0  0
 18 34  1  0  0  0  0
 19 20  2  0  0  0  0
 19 35  1  0  0  0  0
 20 21  1  0  0  0  0
M  CHG  1   3   1
M  END
> <s_m_source_file>
AV-unprocessed.smi

> <i_m_source_file_index>
1883

> <i_lp_mmshare_version>
43012

> <i_f3d_flags>
0

> <s_epik_input>
W2NIXTFbY0hdW2NIXVtjSF1jKGMxMiluKGMobjIpW0NIM10pW0NIMl1bQ0BIXShbT0hdKWMzW2NIXWMoRilbY0hdW2NIXWMzRg==

> <s_epik_cmdline>
J2VwaWtfcHl0aG9uJywgJy1waCcsICc3LjAnLCAnLXRuJywgJzgnLCAnLW1hJywgJzIwMCcsICctbWV0YWxfYmluZGluZycsICctaW1hZScsICc8aW5maWxlLm1hZT4nLCAnLW9tYWUnLCAnPG91dGZpbGUubWFlPic=

> <r_epik_Ionization_Penalty>
0.963871

> <r_epik_Ionization_Penalty_Charging>
0.963868

> <r_epik_Ionization_Penalty_Neutral>
3.53208e-06

> <r_epik_State_Penalty>
1.00924

> <r_epik_Charging_Adjusted_Penalty>
1.9731

> <i_epik_Tot_Q>
1

> <i_epik_Tot_abs_Q>
1

> <r_epik_Metal_State_Penalty>
4.98304

> <b_epik_Metal_Only>
0

> <s_lp_Force_Field>
OPLS_2005

> <r_lp_Energy>
14.9969

> <b_lp_Chiralities_Consistent>
1

> <s_lp_Variant>
AV-unprocessed.smi:1883-4

> <Gold.Version>
5.8.1

> <Gold.Id.Protein>
6NUR|6NUR_protein|mol2

> <Gold.PLP.Fitness>
57.4543

> <Gold.PLP.PLP>
-51.7933

> <Gold.PLP.part.hbond>
-2.0000

> <Gold.PLP.part.metal>
0.0000

> <Gold.PLP.part.buried>
1.7227

> <Gold.PLP.part.nonpolar>
-51.8082

> <Gold.PLP.part.repulsive>
0.0665

> <Gold.PLP.ligand.clash>
0.0000

> <Gold.PLP.ligand.torsion>
0.1837

> <Gold.PLP.Chemscore.Hbond>
2.0000

> <Gold.PLP.Chemscore.CHOScore>
0.0000

> <Gold.PLP.Chemscore.Metal>
0.0000

> <Gold.Chemscore.Hbonds>
donor molecule, donor type, donor heavy atom, donor atom, acceptor molecule, acceptor atom, score
      L1  H     3    36       P1  7948  2.00

> <Gold.PLP.Chemscore.Internal.Correction>
0.0283

> <Gold.Rescore>
     Score         DG    S(hbond)    S(metal)    S(lipo)     H(rot)  DE(clash)    DE(int)     intcor
     16.77     -18.27       0.97        0.00     124.18       1.94       0.16       1.34       ----

> <Gold.Chemscore.Fitness>
16.7720

> <Gold.Chemscore.DG>
-18.2742

> <Gold.Chemscore.ZeroCoef>
-5.4800

> <Gold.Chemscore.Hbond>
0.9656

> <Gold.Chemscore.Metal>
0.0000

> <Gold.Chemscore.Lipo>
124.1794

> <Gold.Chemscore.Internal_Hbond>
0.0000

> <Gold.Chemscore.DEClash>
0.1594

> <Gold.Chemscore.DEInternal>
1.3428

> <Gold.Chemscore.Rot>
1.9375

> <Gold.Chemscore.Internal.Correction>
   9.000000E+99

> <Gold.Chemscore.Hbonds>
donor molecule, donor type, donor heavy atom, donor atom, acceptor molecule, acceptor atom, score
      L1  H     3    36       P1  7948  0.88

> <Gold.Chemscore.Hbond.Weighted>
-3.2251

> <Gold.Chemscore.Metal.Weighted>
-0.0000

> <Gold.Chemscore.Lipo.Weighted>
-14.5290

> <Gold.Chemscore.Internal_Hbond.Weighted>
0.0000

> <Gold.Chemscore.DEClash.Weighted>
0.1594

> <Gold.Chemscore.DEInternal.Weighted>
1.3428

> <Gold.Chemscore.Rot.Weighted>
4.9599

> <Gold.Chemscore.Internal.Correction.Weighted>
   9.000000E+99

> <Gold.Protein.RotatedTorsions>
[ 6907 6896 6895 6894 ] final    1.87 input  -60.11 | X-H torsion
[ 7974 7965 7964 7962 ] final -112.35 input  175.53 | X-H torsion
[ 8008 7997 7996 7995 ] final -157.12 input   59.86 | X-H torsion
[ 10167 10162 10161 10158 ] final  161.85 input  -65.29 | X-H torsion
[ 10718 10713 10712 10709 ] final  -44.00 input   66.30 | X-H torsion
[ 10763 10752 10751 10750 ] final  -16.61 input  -60.55 | X-H torsion
[ 11005 11000 10999 10996 ] final   93.62 input  -57.11 | X-H torsion

> <Gold.Protein.ActiveResidues>
 VAL166  LYS551  ARG553  GLY616  TRP617  ASP618  TYR619  PRO620  LYS621  CYS622 
 ASP623  PHE694  ASN695  SER759  ASP760  ASP761  ALA762  ILE779  LEU786  VAL792 
 PHE793  MET794  SER795  GLU796  ALA797  LYS798  CYS799  TRP800  GLU811  SER814 

> <Gold.Protein.RotatedAtoms>
  151.5997  135.1048  160.0057 H   0  0  0  0  0  0  0  0  0  0  0  0  # atno 6907 bound_to 6896
  152.4264  133.7198  159.6537 H   0  0  0  0  0  0  0  0  0  0  0  0  # atno 6908 bound_to 6896
  150.8153  133.8276  159.3185 H   0  0  0  0  0  0  0  0  0  0  0  0  # atno 6909 bound_to 6896
  145.1450  140.8798  143.3680 H   0  0  0  0  0  0  0  0  0  0  0  0  # atno 7974 bound_to 7965
  155.7276  140.0798  157.2303 H   0  0  0  0  0  0  0  0  0  0  0  0  # atno 8008 bound_to 7997
  154.4037  140.1601  156.2527 H   0  0  0  0  0  0  0  0  0  0  0  0  # atno 8009 bound_to 7997
  155.9139  140.3402  155.6123 H   0  0  0  0  0  0  0  0  0  0  0  0  # atno 8010 bound_to 7997
  139.4854  144.4496  151.8847 H   0  0  0  0  0  0  0  0  0  0  0  0  # atno 10167 bound_to 10162
  156.2431  130.4181  149.8736 H   0  0  0  0  0  0  0  0  0  0  0  0  # atno 10718 bound_to 10713
  153.5612  135.7009  153.5546 H   0  0  0  0  0  0  0  0  0  0  0  0  # atno 10763 bound_to 10752
  153.3428  135.4016  155.1585 H   0  0  0  0  0  0  0  0  0  0  0  0  # atno 10764 bound_to 10752
  154.8647  135.3746  154.5129 H   0  0  0  0  0  0  0  0  0  0  0  0  # atno 10765 bound_to 10752
  139.8808  134.8800  156.3744 H   0  0  0  0  0  0  0  0  0  0  0  0  # atno 11005 bound_to 11000
  145.0491  139.3196  143.5937 LP  0  0  0  0  0  0  0  0  0  0  0  0  # atno 17320 bound_to 7965
  146.3501  139.9893  142.8687 LP  0  0  0  0  0  0  0  0  0  0  0  0  # atno 17321 bound_to 7965
  140.3952  144.2565  150.5896 LP  0  0  0  0  0  0  0  0  0  0  0  0  # atno 17342 bound_to 10162
  140.5109  143.2291  151.8537 LP  0  0  0  0  0  0  0  0  0  0  0  0  # atno 17343 bound_to 10162
  156.6311  130.8666  151.3495 LP  0  0  0  0  0  0  0  0  0  0  0  0  # atno 17370 bound_to 10713
  157.7184  130.9526  150.1342 LP  0  0  0  0  0  0  0  0  0  0  0  0  # atno 17371 bound_to 10713
  140.9442  133.7494  156.0186 LP  0  0  0  0  0  0  0  0  0  0  0  0  # atno 17394 bound_to 11000
  140.8183  134.3319  157.5390 LP  0  0  0  0  0  0  0  0  0  0  0  0  # atno 17395 bound_to 11000

$$$$
