AV-unprocessed.smi:1703|AV-procd|sdf|6856|dock3
  -GOLD-   22720 8 43D 1   1.00000     0.00000
 Structure written by MMmdl.
 48 50  0  0  0  0  0  0  0  0  1 V2000
  154.3079  135.3993  163.5564 C   0  0  0  0  0  0  0  0  0  0  0  0
  153.8460  136.4829  162.5768 C   0  0  2  0  0  0  0  0  0  0  0  0
  154.1114  136.0949  161.1093 C   0  0  0  0  0  0  0  0  0  0  0  0
  153.7389  137.1652  160.1863 N   0  0  0  0  0  0  0  0  0  0  0  0
  153.9964  136.8252  158.7855 C   0  0  0  0  0  0  0  0  0  0  0  0
  153.7086  137.9455  157.7661 C   0  0  1  0  0  0  0  0  0  0  0  0
  154.6887  137.8872  156.7486 O   0  0  0  0  0  0  0  0  0  0  0  0
  152.3117  137.7893  157.1345 C   0  0  0  0  0  0  0  0  0  0  0  0
  151.7664  139.0517  156.6508 N   0  0  0  0  0  0  0  0  0  0  0  0
  151.2708  139.3336  155.4190 C   0  0  0  0  0  0  0  0  0  0  0  0
  151.2214  138.2958  154.3333 C   0  0  0  0  0  0  0  0  0  0  0  0
  149.9136  137.9992  153.8877 O   0  0  0  0  0  0  0  0  0  0  0  0
  150.8239  140.5803  155.2489 N   0  0  0  0  0  0  0  0  0  0  0  0
  151.0578  141.1608  156.4797 C   0  0  0  0  0  0  0  0  0  0  0  0
  150.8049  142.4735  156.9386 C   0  0  0  0  0  0  0  0  0  0  0  0
  151.1310  142.8426  158.2600 C   0  0  0  0  0  0  0  0  0  0  0  0
  151.7120  141.9065  159.1398 C   0  0  0  0  0  0  0  0  0  0  0  0
  151.9723  140.5936  158.7021 C   0  0  0  0  0  0  0  0  0  0  0  0
  151.6468  140.2304  157.3814 C   0  0  0  0  0  0  0  0  0  0  0  0
  154.4502  138.3809  160.5657 C   0  0  0  0  0  0  0  0  0  0  0  0
  154.1823  138.7742  162.0309 C   0  0  2  0  0  0  0  0  0  0  0  0
  154.9862  140.0062  162.4594 C   0  0  0  0  0  0  0  0  0  0  0  0
  154.5468  137.6867  162.8761 O   0  0  0  0  0  0  0  0  0  0  0  0
  153.7809  134.4613  163.3804 H   0  0  0  0  0  0  0  0  0  0  0  0
  154.1171  135.6991  164.5872 H   0  0  0  0  0  0  0  0  0  0  0  0
  155.3767  135.2072  163.4578 H   0  0  0  0  0  0  0  0  0  0  0  0
  152.7775  136.6519  162.7213 H   0  0  0  0  0  0  0  0  0  0  0  0
  155.1671  135.8493  160.9822 H   0  0  0  0  0  0  0  0  0  0  0  0
  153.5509  135.1880  160.8873 H   0  0  0  0  0  0  0  0  0  0  0  0
  155.0413  136.5310  158.6734 H   0  0  0  0  0  0  0  0  0  0  0  0
  153.4129  135.9417  158.5217 H   0  0  0  0  0  0  0  0  0  0  0  0
  153.7660  138.9228  158.2420 H   0  0  0  0  0  0  0  0  0  0  0  0
  154.2994  138.1934  155.9435 H   0  0  0  0  0  0  0  0  0  0  0  0
  152.3522  137.0867  156.3012 H   0  0  0  0  0  0  0  0  0  0  0  0
  151.6172  137.3554  157.8532 H   0  0  0  0  0  0  0  0  0  0  0  0
  151.7964  138.6383  153.4734 H   0  0  0  0  0  0  0  0  0  0  0  0
  151.6843  137.3779  154.6952 H   0  0  0  0  0  0  0  0  0  0  0  0
  149.9768  137.3961  153.1628 H   0  0  0  0  0  0  0  0  0  0  0  0
  150.3586  143.1973  156.2727 H   0  0  0  0  0  0  0  0  0  0  0  0
  150.9329  143.8483  158.6008 H   0  0  0  0  0  0  0  0  0  0  0  0
  151.9567  142.1962  160.1511 H   0  0  0  0  0  0  0  0  0  0  0  0
  152.4129  139.8731  159.3752 H   0  0  0  0  0  0  0  0  0  0  0  0
  155.5225  138.2424  160.4162 H   0  0  0  0  0  0  0  0  0  0  0  0
  154.1491  139.2015  159.9133 H   0  0  0  0  0  0  0  0  0  0  0  0
  153.1198  138.9854  162.1639 H   0  0  0  0  0  0  0  0  0  0  0  0
  154.7378  140.8709  161.8438 H   0  0  0  0  0  0  0  0  0  0  0  0
  156.0582  139.8283  162.3711 H   0  0  0  0  0  0  0  0  0  0  0  0
  154.7756  140.2658  163.4971 H   0  0  0  0  0  0  0  0  0  0  0  0
  1  2  1  0  0  0  0
  1 24  1  0  0  0  0
  1 25  1  0  0  0  0
  1 26  1  0  0  0  0
  2 23  1  0  0  0  0
  2  3  1  0  0  0  0
  2 27  1  0  0  0  0
  3  4  1  0  0  0  0
  3 28  1  0  0  0  0
  3 29  1  0  0  0  0
  4  5  1  0  0  0  0
  4 20  1  0  0  0  0
  5  6  1  0  0  0  0
  5 30  1  0  0  0  0
  5 31  1  0  0  0  0
  6  7  1  0  0  0  0
  6  8  1  0  0  0  0
  6 32  1  0  0  0  0
  7 33  1  0  0  0  0
  8  9  1  0  0  0  0
  8 34  1  0  0  0  0
  8 35  1  0  0  0  0
  9 19  1  0  0  0  0
  9 10  1  0  0  0  0
 10 11  1  0  0  0  0
 10 13  2  0  0  0  0
 11 12  1  0  0  0  0
 11 36  1  0  0  0  0
 11 37  1  0  0  0  0
 12 38  1  0  0  0  0
 13 14  1  0  0  0  0
 14 19  2  0  0  0  0
 14 15  1  0  0  0  0
 15 16  2  0  0  0  0
 15 39  1  0  0  0  0
 16 17  1  0  0  0  0
 16 40  1  0  0  0  0
 17 18  2  0  0  0  0
 17 41  1  0  0  0  0
 18 19  1  0  0  0  0
 18 42  1  0  0  0  0
 20 21  1  0  0  0  0
 20 43  1  0  0  0  0
 20 44  1  0  0  0  0
 21 22  1  0  0  0  0
 21 23  1  0  0  0  0
 21 45  1  0  0  0  0
 22 46  1  0  0  0  0
 22 47  1  0  0  0  0
 22 48  1  0  0  0  0
M  END
> <s_m_source_file>
AV-unprocessed.smi

> <i_m_source_file_index>
1703

> <i_lp_mmshare_version>
43012

> <i_f3d_flags>
0

> <s_epik_input>
W0NIM11bQ0BASF0xW0NIMl1OKFtDSDJdW0NASF0oTzEpW0NIM10pW0NIMl1bQ0BIXShbT0hdKVtDSDJdbihjKG4yKVtDSDJdW09IXSljKGMyMylbY0hdW2NIXVtjSF1bY0hdMw==

> <s_epik_cmdline>
J2VwaWtfcHl0aG9uJywgJy1waCcsICc3LjAnLCAnLXRuJywgJzgnLCAnLW1hJywgJzIwMCcsICctbWV0YWxfYmluZGluZycsICctaW1hZScsICc8aW5maWxlLm1hZT4nLCAnLW9tYWUnLCAnPG91dGZpbGUubWFlPic=

> <r_epik_Ionization_Penalty>
0.307685

> <r_epik_Ionization_Penalty_Charging>
0

> <r_epik_Ionization_Penalty_Neutral>
0.307685

> <r_epik_State_Penalty>
0.277856

> <r_epik_Charging_Adjusted_Penalty>
0.277856

> <i_epik_Tot_Q>
0

> <i_epik_Tot_abs_Q>
0

> <r_epik_Metal_State_Penalty>
0.238959

> <b_epik_Metal_Only>
0

> <s_lp_Force_Field>
OPLS_2005

> <r_lp_Energy>
30.3815

> <b_lp_Chiralities_Consistent>
1

> <s_lp_Variant>
AV-unprocessed.smi:1703-4

> <Gold.Version>
5.8.1

> <Gold.Id.Protein>
6NUR|6NUR_protein|mol2

> <Gold.PLP.Fitness>
43.2344

> <Gold.PLP.PLP>
-38.9543

> <Gold.PLP.part.hbond>
-3.1260

> <Gold.PLP.part.metal>
0.0000

> <Gold.PLP.part.buried>
-3.8430

> <Gold.PLP.part.nonpolar>
-31.0753

> <Gold.PLP.part.repulsive>
0.0598

> <Gold.PLP.ligand.clash>
0.0000

> <Gold.PLP.ligand.torsion>
0.8578

> <Gold.PLP.Chemscore.Hbond>
1.9760

> <Gold.PLP.Chemscore.CHOScore>
0.0000

> <Gold.PLP.Chemscore.Metal>
0.0000

> <Gold.Chemscore.Hbonds>
donor molecule, donor type, donor heavy atom, donor atom, acceptor molecule, acceptor atom, score
      L1  H    12    38       P1  7948  0.94
      P1  H  7989  7998       L1    13  0.80

> <Gold.PLP.Chemscore.Internal.Correction>
0.0677

> <Gold.Rescore>
     Score         DG    S(hbond)    S(metal)    S(lipo)     H(rot)  DE(clash)    DE(int)     intcor
     15.62     -16.82       1.68        0.00     111.92       2.88       0.39       0.82       ----

> <Gold.Chemscore.Fitness>
15.6157

> <Gold.Chemscore.DG>
-16.8231

> <Gold.Chemscore.ZeroCoef>
-5.4800

> <Gold.Chemscore.Hbond>
1.6814

> <Gold.Chemscore.Metal>
0.0000

> <Gold.Chemscore.Lipo>
111.9160

> <Gold.Chemscore.Internal_Hbond>
0.0000

> <Gold.Chemscore.DEClash>
0.3875

> <Gold.Chemscore.DEInternal>
0.8199

> <Gold.Chemscore.Rot>
2.8778

> <Gold.Chemscore.Internal.Correction>
   9.000000E+99

> <Gold.Chemscore.Hbonds>
donor molecule, donor type, donor heavy atom, donor atom, acceptor molecule, acceptor atom, score
      L1  H    12    38       P1  7948  0.23
      P1  H  7989  7998       L1    13  0.13

> <Gold.Chemscore.Hbond.Weighted>
-5.6160

> <Gold.Chemscore.Metal.Weighted>
-0.0000

> <Gold.Chemscore.Lipo.Weighted>
-13.0942

> <Gold.Chemscore.Internal_Hbond.Weighted>
0.0000

> <Gold.Chemscore.DEClash.Weighted>
0.3875

> <Gold.Chemscore.DEInternal.Weighted>
0.8199

> <Gold.Chemscore.Rot.Weighted>
7.3671

> <Gold.Chemscore.Internal.Correction.Weighted>
   9.000000E+99

> <Gold.Protein.RotatedTorsions>
[ 6907 6896 6895 6894 ] final   57.87 input  -60.11 | X-H torsion
[ 7974 7965 7964 7962 ] final -175.28 input  175.53 | X-H torsion
[ 8008 7997 7996 7995 ] final   99.79 input   59.86 | X-H torsion
[ 10167 10162 10161 10158 ] final  -40.68 input  -65.29 | X-H torsion
[ 10718 10713 10712 10709 ] final   17.52 input   66.30 | X-H torsion
[ 10763 10752 10751 10750 ] final  130.94 input  -60.55 | X-H torsion
[ 11005 11000 10999 10996 ] final  106.90 input  -57.11 | X-H torsion

> <Gold.Protein.ActiveResidues>
 VAL166  LYS551  ARG553  GLY616  TRP617  ASP618  TYR619  PRO620  LYS621  CYS622 
 ASP623  PHE694  ASN695  SER759  ASP760  ASP761  ALA762  ILE779  LEU786  VAL792 
 PHE793  MET794  SER795  GLU796  ALA797  LYS798  CYS799  TRP800  GLU811  SER814 

> <Gold.Protein.RotatedAtoms>
  152.3771  134.6647  160.0155 H   0  0  0  0  0  0  0  0  0  0  0  0  # atno 6907 bound_to 6896
  151.6921  133.3305  159.3253 H   0  0  0  0  0  0  0  0  0  0  0  0  # atno 6908 bound_to 6896
  150.7718  134.6625  159.6392 H   0  0  0  0  0  0  0  0  0  0  0  0  # atno 6909 bound_to 6896
  144.7128  140.1344  143.6396 H   0  0  0  0  0  0  0  0  0  0  0  0  # atno 7974 bound_to 7965
  156.1140  140.3223  155.8113 H   0  0  0  0  0  0  0  0  0  0  0  0  # atno 8008 bound_to 7997
  155.4623  140.0540  157.3006 H   0  0  0  0  0  0  0  0  0  0  0  0  # atno 8009 bound_to 7997
  154.4780  140.2040  155.9846 H   0  0  0  0  0  0  0  0  0  0  0  0  # atno 8010 bound_to 7997
  140.7027  143.3139  151.2959 H   0  0  0  0  0  0  0  0  0  0  0  0  # atno 10167 bound_to 10162
  157.0833  130.6397  149.5831 H   0  0  0  0  0  0  0  0  0  0  0  0  # atno 10718 bound_to 10713
  153.7661  135.3189  155.3345 H   0  0  0  0  0  0  0  0  0  0  0  0  # atno 10763 bound_to 10752
  154.8213  135.4601  154.0790 H   0  0  0  0  0  0  0  0  0  0  0  0  # atno 10764 bound_to 10752
  153.2035  135.6926  153.8285 H   0  0  0  0  0  0  0  0  0  0  0  0  # atno 10765 bound_to 10752
  139.8820  134.9384  156.5737 H   0  0  0  0  0  0  0  0  0  0  0  0  # atno 11005 bound_to 11000
  145.9258  139.2574  143.1354 LP  0  0  0  0  0  0  0  0  0  0  0  0  # atno 17320 bound_to 7965
  145.9574  140.8862  143.0228 LP  0  0  0  0  0  0  0  0  0  0  0  0  # atno 17321 bound_to 7965
  139.6571  144.0256  152.2667 LP  0  0  0  0  0  0  0  0  0  0  0  0  # atno 17342 bound_to 10162
  139.9812  144.6427  150.7899 LP  0  0  0  0  0  0  0  0  0  0  0  0  # atno 17343 bound_to 10162
  155.9918  130.4973  150.7313 LP  0  0  0  0  0  0  0  0  0  0  0  0  # atno 17370 bound_to 10713
  157.4782  131.0900  151.0566 LP  0  0  0  0  0  0  0  0  0  0  0  0  # atno 17371 bound_to 10713
  140.8079  133.8453  155.8784 LP  0  0  0  0  0  0  0  0  0  0  0  0  # atno 17394 bound_to 11000
  140.9533  134.1750  157.4711 LP  0  0  0  0  0  0  0  0  0  0  0  0  # atno 17395 bound_to 11000

$$$$
