AV-unprocessed.smi:415|AV-procd|sdf|2518|dock3
  -GOLD-   2262022473D 1   1.00000     0.00000
 Structure written by MMmdl.
 53 54  0  0  0  0  0  0  0  0  1 V2000
  150.0006  133.0865  154.4130 C   0  0  0  0  0  0  0  0  0  0  0  0
  149.2492  134.2869  154.3898 O   0  0  0  0  0  0  0  0  0  0  0  0
  149.1219  134.8752  155.6735 C   0  0  0  0  0  0  0  0  0  0  0  0
  148.7807  136.3679  155.5365 C   0  0  0  0  0  0  0  0  0  0  0  0
  149.9557  137.2182  155.4897 N   0  0  0  0  0  0  0  0  0  0  0  0
  150.2115  138.0985  154.4422 C   0  0  0  0  0  0  0  0  0  0  0  0
  149.3080  138.2012  153.3996 N   0  0  0  0  0  0  0  0  0  0  0  0
  151.3220  138.8684  154.4234 C   0  0  0  0  0  0  0  0  0  0  0  0
  152.3078  138.8223  155.4940 C   0  0  0  0  0  0  0  0  0  0  0  0
  153.3421  139.4901  155.4787 O   0  0  0  0  0  0  0  0  0  0  0  0
  152.0132  137.9448  156.5626 N   0  0  0  0  0  0  0  0  0  0  0  0
  152.9818  137.8352  157.6792 C   0  0  0  0  0  0  0  0  0  0  0  0
  153.3901  139.1777  158.3129 C   0  0  0  0  0  0  0  0  0  0  0  0
  154.5285  139.3039  158.7619 O   0  0  0  0  0  0  0  0  0  0  0  0
  152.4786  140.1657  158.3362 N   0  0  0  0  0  0  0  0  0  0  0  0
  152.6757  141.5218  158.8410 C   0  0  2  0  0  0  0  0  0  0  0  0
  152.9862  141.4416  160.3480 C   0  0  0  0  0  0  0  0  0  0  0  0
  153.1103  142.8333  160.9830 C   0  0  0  0  0  0  0  0  0  0  0  0
  151.8526  143.6764  160.7202 C   0  0  0  0  0  0  0  0  0  0  0  0
  151.5338  143.7950  159.2158 C   0  0  1  0  0  0  0  0  0  0  0  0
  152.5238  144.7346  158.4978 C   0  0  0  0  0  0  0  0  0  0  0  0
  151.4151  142.3867  158.5743 C   0  0  1  0  0  0  0  0  0  0  0  0
  151.0281  142.4510  157.0831 C   0  0  0  0  0  0  0  0  0  0  0  0
  150.8500  137.1408  156.5883 C   0  0  0  0  0  0  0  0  0  0  0  0
  150.6395  136.3864  157.5420 O   0  0  0  0  0  0  0  0  0  0  0  0
  150.0615  132.6732  153.4063 H   0  0  0  0  0  0  0  0  0  0  0  0
  149.5325  132.3396  155.0557 H   0  0  0  0  0  0  0  0  0  0  0  0
  151.0174  133.2653  154.7654 H   0  0  0  0  0  0  0  0  0  0  0  0
  148.3249  134.3718  156.2226 H   0  0  0  0  0  0  0  0  0  0  0  0
  150.0412  134.7459  156.2467 H   0  0  0  0  0  0  0  0  0  0  0  0
  148.1536  136.5737  154.6679 H   0  0  0  0  0  0  0  0  0  0  0  0
  148.1944  136.7096  156.3891 H   0  0  0  0  0  0  0  0  0  0  0  0
  148.4601  137.6528  153.3731 H   0  0  0  0  0  0  0  0  0  0  0  0
  149.4699  138.8119  152.6119 H   0  0  0  0  0  0  0  0  0  0  0  0
  151.4941  139.5384  153.5931 H   0  0  0  0  0  0  0  0  0  0  0  0
  152.5995  137.1905  158.4719 H   0  0  0  0  0  0  0  0  0  0  0  0
  153.8897  137.3272  157.3499 H   0  0  0  0  0  0  0  0  0  0  0  0
  151.5703  139.9642  157.9444 H   0  0  0  0  0  0  0  0  0  0  0  0
  153.5301  141.9832  158.3438 H   0  0  0  0  0  0  0  0  0  0  0  0
  152.1965  140.8871  160.8576 H   0  0  0  0  0  0  0  0  0  0  0  0
  153.9082  140.8817  160.5098 H   0  0  0  0  0  0  0  0  0  0  0  0
  153.2708  142.7352  162.0571 H   0  0  0  0  0  0  0  0  0  0  0  0
  153.9911  143.3409  160.5887 H   0  0  0  0  0  0  0  0  0  0  0  0
  151.0054  143.2171  161.2313 H   0  0  0  0  0  0  0  0  0  0  0  0
  151.9683  144.6669  161.1618 H   0  0  0  0  0  0  0  0  0  0  0  0
  150.5549  144.2702  159.1393 H   0  0  0  0  0  0  0  0  0  0  0  0
  153.5347  144.3288  158.4743 H   0  0  0  0  0  0  0  0  0  0  0  0
  152.5710  145.7023  158.9977 H   0  0  0  0  0  0  0  0  0  0  0  0
  152.2206  144.9252  157.4687 H   0  0  0  0  0  0  0  0  0  0  0  0
  150.5816  141.8936  159.0777 H   0  0  0  0  0  0  0  0  0  0  0  0
  151.8569  142.8025  156.4685 H   0  0  0  0  0  0  0  0  0  0  0  0
  150.1833  143.1217  156.9243 H   0  0  0  0  0  0  0  0  0  0  0  0
  150.7341  141.4715  156.7047 H   0  0  0  0  0  0  0  0  0  0  0  0
  1  2  1  0  0  0  0
  1 26  1  0  0  0  0
  1 27  1  0  0  0  0
  1 28  1  0  0  0  0
  2  3  1  0  0  0  0
  3  4  1  0  0  0  0
  3 29  1  0  0  0  0
  3 30  1  0  0  0  0
  4  5  1  0  0  0  0
  4 31  1  0  0  0  0
  4 32  1  0  0  0  0
  5 24  1  0  0  0  0
  5  6  1  0  0  0  0
  6  7  1  0  0  0  0
  6  8  2  0  0  0  0
  7 33  1  0  0  0  0
  7 34  1  0  0  0  0
  8  9  1  0  0  0  0
  8 35  1  0  0  0  0
  9 10  2  0  0  0  0
  9 11  1  0  0  0  0
 11 12  1  0  0  0  0
 11 24  1  0  0  0  0
 12 13  1  0  0  0  0
 12 36  1  0  0  0  0
 12 37  1  0  0  0  0
 13 14  2  0  0  0  0
 13 15  1  0  0  0  0
 15 16  1  0  0  0  0
 15 38  1  0  0  0  0
 16 22  1  0  0  0  0
 16 17  1  0  0  0  0
 16 39  1  0  0  0  0
 17 18  1  0  0  0  0
 17 40  1  0  0  0  0
 17 41  1  0  0  0  0
 18 19  1  0  0  0  0
 18 42  1  0  0  0  0
 18 43  1  0  0  0  0
 19 20  1  0  0  0  0
 19 44  1  0  0  0  0
 19 45  1  0  0  0  0
 20 21  1  0  0  0  0
 20 22  1  0  0  0  0
 20 46  1  0  0  0  0
 21 47  1  0  0  0  0
 21 48  1  0  0  0  0
 21 49  1  0  0  0  0
 22 23  1  0  0  0  0
 22 50  1  0  0  0  0
 23 51  1  0  0  0  0
 23 52  1  0  0  0  0
 23 53  1  0  0  0  0
 24 25  2  0  0  0  0
M  END
> <s_m_source_file>
AV-unprocessed.smi

> <i_m_source_file_index>
415

> <i_lp_mmshare_version>
43012

> <i_f3d_flags>
0

> <s_epik_input>
W0NIM11PW0NIMl1bQ0gyXW4xYyhbTkgyXSlbY0hdYyg9TyluKGMxPU8pW0NIMl1DKD1PKVtOSF1bQ0BASF0yW0NIMl1bQ0gyXVtDSDJdW0NAQEhdKFtDSDNdKVtDQEhdMltDSDNd

> <s_epik_cmdline>
J2VwaWtfcHl0aG9uJywgJy1waCcsICc3LjAnLCAnLXRuJywgJzgnLCAnLW1hJywgJzIwMCcsICctbWV0YWxfYmluZGluZycsICctaW1hZScsICc8aW5maWxlLm1hZT4nLCAnLW9tYWUnLCAnPG91dGZpbGUubWFlPic=

> <r_lp_tautomer_probability>
1

> <r_epik_Ionization_Penalty>
8.6647e-06

> <r_epik_Ionization_Penalty_Charging>
1.81162e-08

> <r_epik_Ionization_Penalty_Neutral>
8.64658e-06

> <r_epik_State_Penalty>
-0

> <r_epik_Charging_Adjusted_Penalty>
1.81162e-08

> <i_epik_Tot_Q>
0

> <i_epik_Tot_abs_Q>
0

> <r_epik_Metal_State_Penalty>
-0

> <b_epik_Metal_Only>
0

> <s_lp_Force_Field>
OPLS_2005

> <r_lp_Energy>
23.489

> <b_lp_Chiralities_Consistent>
1

> <s_lp_Variant>
AV-unprocessed.smi:415-1

> <Gold.Version>
5.8.1

> <Gold.Id.Protein>
6NUR|6NUR_protein|mol2

> <Gold.PLP.Fitness>
52.5112

> <Gold.PLP.PLP>
-44.9660

> <Gold.PLP.part.hbond>
-3.9458

> <Gold.PLP.part.metal>
0.0000

> <Gold.PLP.part.buried>
-5.4777

> <Gold.PLP.part.nonpolar>
-35.7632

> <Gold.PLP.part.repulsive>
0.9085

> <Gold.PLP.ligand.clash>
0.0000

> <Gold.PLP.ligand.torsion>
0.7567

> <Gold.PLP.Chemscore.Hbond>
3.0000

> <Gold.PLP.Chemscore.CHOScore>
0.0000

> <Gold.PLP.Chemscore.Metal>
0.0000

> <Gold.Chemscore.Hbonds>
donor molecule, donor type, donor heavy atom, donor atom, acceptor molecule, acceptor atom, score
      L1  H     7    34       P1  7957  1.00
      P1  H  7997  8008       L1    10  0.75
      P1  H  7997  8010       L1    14  0.80

> <Gold.PLP.Chemscore.Internal.Correction>
0.0587

> <Gold.Rescore>
     Score         DG    S(hbond)    S(metal)    S(lipo)     H(rot)  DE(clash)    DE(int)     intcor
     18.16     -21.47       2.82        0.00     105.77       2.26       0.15       3.15       ----

> <Gold.Chemscore.Fitness>
18.1636

> <Gold.Chemscore.DG>
-21.4662

> <Gold.Chemscore.ZeroCoef>
-5.4800

> <Gold.Chemscore.Hbond>
2.8168

> <Gold.Chemscore.Metal>
0.0000

> <Gold.Chemscore.Lipo>
105.7723

> <Gold.Chemscore.Internal_Hbond>
0.0000

> <Gold.Chemscore.DEClash>
0.1477

> <Gold.Chemscore.DEInternal>
3.1549

> <Gold.Chemscore.Rot>
2.2645

> <Gold.Chemscore.Internal.Correction>
   9.000000E+99

> <Gold.Chemscore.Hbonds>
donor molecule, donor type, donor heavy atom, donor atom, acceptor molecule, acceptor atom, score
      L1  H     7    33       P1  7948  0.04
      L1  H     7    34       P1  7957  0.85
      P1  H  7997  8008       L1    10  0.71
      P1  H  7997  8010       L1    14  0.12

> <Gold.Chemscore.Hbond.Weighted>
-9.4080

> <Gold.Chemscore.Metal.Weighted>
-0.0000

> <Gold.Chemscore.Lipo.Weighted>
-12.3754

> <Gold.Chemscore.Internal_Hbond.Weighted>
0.0000

> <Gold.Chemscore.DEClash.Weighted>
0.1477

> <Gold.Chemscore.DEInternal.Weighted>
3.1549

> <Gold.Chemscore.Rot.Weighted>
5.7972

> <Gold.Chemscore.Internal.Correction.Weighted>
   9.000000E+99

> <Gold.Protein.RotatedTorsions>
[ 6907 6896 6895 6894 ] final  171.37 input  -60.11 | X-H torsion
[ 7974 7965 7964 7962 ] final    3.20 input  175.53 | X-H torsion
[ 8008 7997 7996 7995 ] final   -5.71 input   59.86 | X-H torsion
[ 10167 10162 10161 10158 ] final -136.61 input  -65.29 | X-H torsion
[ 10718 10713 10712 10709 ] final  -59.03 input   66.30 | X-H torsion
[ 10763 10752 10751 10750 ] final   28.95 input  -60.55 | X-H torsion
[ 11005 11000 10999 10996 ] final   13.94 input  -57.11 | X-H torsion

> <Gold.Protein.ActiveResidues>
 VAL166  LYS551  ARG553  GLY616  TRP617  ASP618  TYR619  PRO620  LYS621  CYS622 
 ASP623  PHE694  ASN695  SER759  ASP760  ASP761  ALA762  ILE779  LEU786  VAL792 
 PHE793  MET794  SER795  GLU796  ALA797  LYS798  CYS799  TRP800  GLU811  SER814 

> <Gold.Protein.RotatedAtoms>
  151.8013  133.3370  159.3527 H   0  0  0  0  0  0  0  0  0  0  0  0  # atno 6907 bound_to 6896
  150.7357  134.5751  159.5919 H   0  0  0  0  0  0  0  0  0  0  0  0  # atno 6908 bound_to 6896
  152.3141  134.7463  160.0381 H   0  0  0  0  0  0  0  0  0  0  0  0  # atno 6909 bound_to 6896
  146.2445  140.0721  142.8362 H   0  0  0  0  0  0  0  0  0  0  0  0  # atno 7974 bound_to 7965
  154.6011  140.2451  155.7792 H   0  0  0  0  0  0  0  0  0  0  0  0  # atno 8008 bound_to 7997
  156.2311  140.2966  156.0144 H   0  0  0  0  0  0  0  0  0  0  0  0  # atno 8009 bound_to 7997
  155.2210  140.0400  157.2938 H   0  0  0  0  0  0  0  0  0  0  0  0  # atno 8010 bound_to 7997
  139.8661  143.7016  152.2645 H   0  0  0  0  0  0  0  0  0  0  0  0  # atno 10167 bound_to 10162
  156.1091  130.4177  150.0659 H   0  0  0  0  0  0  0  0  0  0  0  0  # atno 10718 bound_to 10713
  153.0460  135.6501  154.0816 H   0  0  0  0  0  0  0  0  0  0  0  0  # atno 10763 bound_to 10752
  154.0514  135.2895  155.3341 H   0  0  0  0  0  0  0  0  0  0  0  0  # atno 10764 bound_to 10752
  154.6717  135.5353  153.8213 H   0  0  0  0  0  0  0  0  0  0  0  0  # atno 10765 bound_to 10752
  140.4750  134.0992  155.7740 H   0  0  0  0  0  0  0  0  0  0  0  0  # atno 11005 bound_to 11000
  145.0807  140.9219  143.4827 LP  0  0  0  0  0  0  0  0  0  0  0  0  # atno 17320 bound_to 7965
  145.0873  139.2916  143.5753 LP  0  0  0  0  0  0  0  0  0  0  0  0  # atno 17321 bound_to 7965
  139.7328  144.7578  151.0775 LP  0  0  0  0  0  0  0  0  0  0  0  0  # atno 17342 bound_to 10162
  140.7768  143.5067  150.9703 LP  0  0  0  0  0  0  0  0  0  0  0  0  # atno 17343 bound_to 10162
  156.8626  130.9497  151.3616 LP  0  0  0  0  0  0  0  0  0  0  0  0  # atno 17370 bound_to 10713
  157.6271  130.8700  149.9208 LP  0  0  0  0  0  0  0  0  0  0  0  0  # atno 17371 bound_to 10713
  141.1558  133.8884  157.1979 LP  0  0  0  0  0  0  0  0  0  0  0  0  # atno 17394 bound_to 11000
  139.9861  135.0081  156.9866 LP  0  0  0  0  0  0  0  0  0  0  0  0  # atno 17395 bound_to 11000

$$$$
