#       Name:                AV-unprocessed.smi:1750
#       Creating user name   scv26
#       Creation time:       Fri Mar 27 08:26:57 2020


#       File generated by GOLD software.
#

@<TRIPOS>MOLECULE
AV-unprocessed.smi:1750
    42    43     1
SMALL
NO_CHARGES


@<TRIPOS>ATOM
      1 ****        -7.7308   1.0514   0.4974 C.3            1 S1                 0.0000
      2 ****        -6.2015   1.1293   0.5601 C.3            1 S1                 0.0000
      3 ****        -5.5514  -0.2442   0.7783 C.3            1 S1                 0.0000
      4 ****        -4.0623  -0.1708   0.8491 C.2            1 S1                 0.0000
      5 ****        -3.4024   0.0406   1.9948 N.2            1 S1                 0.0000
      6 ****        -2.0280   0.0890   1.8093 N.2            1 S1                 0.0000
      7 ****        -1.6909  -0.0720   0.5223 C.2            1 S1                 0.0000
      8 ****        -0.3513  -0.0658   0.0508 N.am           1 S1                 0.0000
      9 ****         0.7821   0.0521   0.7647 C.2            1 S1                 0.0000
     10 ****         0.8449   0.1868   1.9872 O.2            1 S1                 0.0000
     11 ****         1.8621   0.0019  -0.0259 N.am           1 S1                 0.0000
     12 ****         3.2343   0.0842   0.4551 C.3            1 S1                 0.0000
     13 ****         4.2245   0.0278  -0.7158 C.3            1 S1                 0.0000
     14 ****         5.6843   0.1788  -0.2931 C.3            1 S1                 0.0000
     15 ****         6.4031  -0.4946  -1.4395 C.3            1 S1                 0.0000
     16 ****         5.4710  -1.6625  -1.7500 C.3            1 S1                 0.0000
     17 ****         4.1642  -1.2386  -1.3684 O.3            1 S1                 0.0000
     18 ****        -3.0404  -0.2918  -0.5786 S.3            1 S1                 0.0000
     19 ****        -8.1632   2.0390   0.3354 H              1 S1                 0.0000
     20 ****        -8.1432   0.6563   1.4262 H              1 S1                 0.0000
     21 ****        -8.0600   0.4062  -0.3175 H              1 S1                 0.0000
     22 ****        -5.8253   1.5691  -0.3642 H              1 S1                 0.0000
     23 ****        -5.9097   1.8049   1.3651 H              1 S1                 0.0000
     24 ****        -5.9240  -0.6930   1.6999 H              1 S1                 0.0000
     25 ****        -5.8268  -0.9215  -0.0309 H              1 S1                 0.0000
     26 ****        -0.2424  -0.1743  -0.9468 H              1 S1                 0.0000
     27 ****         1.7313  -0.1145  -1.0202 H              1 S1                 0.0000
     28 ****         3.3648   1.0185   1.0034 H              1 S1                 0.0000
     29 ****         3.4273  -0.7308   1.1544 H              1 S1                 0.0000
     30 ****         3.9864   0.7981  -1.4516 H              1 S1                 0.0000
     31 ****         5.9814   1.2183  -0.1520 H              1 S1                 0.0000
     32 ****         5.8759  -0.3613   0.6354 H              1 S1                 0.0000
     33 ****         6.4583   0.1808  -2.2944 H              1 S1                 0.0000
     34 ****         7.4152  -0.8119  -1.1871 H              1 S1                 0.0000
     35 ****         5.5050  -1.9502  -2.8010 H              1 S1                 0.0000
     36 ****         5.7391  -2.5341  -1.1520 H              1 S1                 0.0000
     37 ****        -3.8490   0.1509   2.8827 LP             1 S1                 0.0000
     38 ****        -1.3681   0.2274   2.5477 LP             1 S1                 0.0000
     39 ****         0.0060   0.2156   2.5308 LP             1 S1                 0.0000
     40 ****         1.7347   0.2672   2.4363 LP             1 S1                 0.0000
     41 ****         3.5910  -1.1622  -2.1843 LP             1 S1                 0.0000
     42 ****         3.7680  -1.9125  -0.7447 LP             1 S1                 0.0000
@<TRIPOS>BOND
    1    1    2 1     
    2    1   19 1     
    3    1   20 1     
    4    1   21 1     
    5    2    3 1     
    6    2   22 1     
    7    2   23 1     
    8    3    4 1     
    9    3   24 1     
   10    3   25 1     
   11    4   18 1     
   12    4    5 2     
   13    5    6 1     
   14    6    7 2     
   15    7    8 1     
   16    7   18 1     
   17    8    9 am    
   18    8   26 1     
   19    9   10 2     
   20    9   11 am    
   21   11   12 1     
   22   11   27 1     
   23   12   13 1     
   24   12   28 1     
   25   12   29 1     
   26   13   17 1     
   27   13   14 1     
   28   13   30 1     
   29   14   15 1     
   30   14   31 1     
   31   14   32 1     
   32   15   16 1     
   33   15   33 1     
   34   15   34 1     
   35   16   17 1     
   36   16   35 1     
   37   16   36 1     
   38    5   37 1     
   39    6   38 1     
   40   10   39 1     
   41   10   40 1     
   42   17   41 1     
   43   17   42 1     
@<TRIPOS>SUBSTRUCTURE
      1 S1             1
@<TRIPOS>SET
LONE_PAIRS      STATIC     ATOMS    <user>   **** ""
6 37 38 39 40 41 42
DONOR_HYDROGENS      STATIC     ATOMS    <user>   **** ""
2 26 27
ATOM$BLUE        STATIC     ATOMS    COLORGROUP SYSTEM
6 37 38 39 40 41 42
ATOM$RED        STATIC     ATOMS    COLORGROUP SYSTEM
2 26 27
