#       Name:                AV-unprocessed.smi:1884
#       Creating user name   scv26
#       Creation time:       Fri Mar 27 09:37:22 2020


#       File generated by GOLD software.
#

@<TRIPOS>MOLECULE
AV-unprocessed.smi:1884
    46    48     1
SMALL
NO_CHARGES


@<TRIPOS>ATOM
      1 ****        -2.4238   0.5292  -2.3541 C.3            1 S1                 0.0000
      2 ****        -3.0272   0.5177  -0.9857 C.2            1 S1                 0.0000
      3 ****        -4.3456   0.5431  -0.7894 N.2            1 S1                 0.0000
      4 ****        -4.4468   0.5299   0.5885 C.ar           1 S1                 0.0000
      5 ****        -5.5851   0.5447   1.4261 C.ar           1 S1                 0.0000
      6 ****        -5.4398   0.5262   2.8287 C.ar           1 S1                 0.0000
      7 ****        -4.1570   0.4922   3.4131 C.ar           1 S1                 0.0000
      8 ****        -3.0096   0.4758   2.5970 C.ar           1 S1                 0.0000
      9 ****        -3.1600   0.4950   1.1973 C.ar           1 S1                 0.0000
     10 ****        -2.2628   0.4841   0.1333 N.pl3          1 S1                 0.0000
     11 ****        -0.8093   0.4480   0.2245 C.3            1 S1                 0.0000
     12 ****        -0.2414  -0.9840   0.1475 C.3            1 S1                 0.0000
     13 ****        -0.7646  -1.7680   1.2012 O.3            1 S1                 0.0000
     14 ****         1.2910  -1.0138   0.2410 C.3            1 S1                 0.0000
     15 ****         1.8405  -0.3928  -0.9137 O.3            1 S1                 0.0000
     16 ****         3.2122  -0.2992  -1.0127 C.ar           1 S1                 0.0000
     17 ****         3.7290   0.3536  -2.1507 C.ar           1 S1                 0.0000
     18 ****         5.1181   0.4935  -2.3347 C.ar           1 S1                 0.0000
     19 ****         6.0115  -0.0227  -1.3756 C.ar           1 S1                 0.0000
     20 ****         7.4459   0.1168  -1.5633 C.1            1 S1                 0.0000
     21 ****         8.5879   0.2275  -1.7127 N.1            1 S1                 0.0000
     22 ****         5.5080  -0.6758  -0.2334 C.ar           1 S1                 0.0000
     23 ****         4.1182  -0.8145  -0.0512 C.ar           1 S1                 0.0000
     24 ****        -3.2045   0.5289  -3.1156 H              1 S1                 0.0000
     25 ****        -1.8005  -0.3522  -2.5028 H              1 S1                 0.0000
     26 ****        -1.8137   1.4222  -2.4901 H              1 S1                 0.0000
     27 ****        -6.5722   0.5702   0.9885 H              1 S1                 0.0000
     28 ****        -6.3167   0.5385   3.4594 H              1 S1                 0.0000
     29 ****        -4.0546   0.4782   4.4883 H              1 S1                 0.0000
     30 ****        -2.0261   0.4466   3.0421 H              1 S1                 0.0000
     31 ****        -0.3929   1.0657  -0.5714 H              1 S1                 0.0000
     32 ****        -0.5096   0.9229   1.1595 H              1 S1                 0.0000
     33 ****        -0.5468  -1.4528  -0.7883 H              1 S1                 0.0000
     34 ****        -1.7071  -1.7744   1.1294 H              1 S1                 0.0000
     35 ****         1.6212  -0.5037   1.1477 H              1 S1                 0.0000
     36 ****         1.6331  -2.0491   0.2911 H              1 S1                 0.0000
     37 ****         3.0520   0.7526  -2.8918 H              1 S1                 0.0000
     38 ****         5.4913   0.9980  -3.2146 H              1 S1                 0.0000
     39 ****         6.1837  -1.0750   0.5096 H              1 S1                 0.0000
     40 ****         3.7730  -1.3228   0.8362 H              1 S1                 0.0000
     41 ****        -5.0783   0.5660  -1.4695 LP             1 S1                 0.0000
     42 ****        -0.4956  -1.3747   2.0804 LP             1 S1                 0.0000
     43 ****        -0.4144  -2.7022   1.1330 LP             1 S1                 0.0000
     44 ****         1.4764   0.5378  -0.9515 LP             1 S1                 0.0000
     45 ****         1.5204  -0.9086  -1.7084 LP             1 S1                 0.0000
     46 ****         9.5749   0.3232  -1.8418 LP             1 S1                 0.0000
@<TRIPOS>BOND
    1    1    2 1     
    2    1   24 1     
    3    1   25 1     
    4    1   26 1     
    5    2   10 1     
    6    2    3 2     
    7    3    4 1     
    8    4    9 ar    
    9    4    5 ar    
   10    5    6 ar    
   11    5   27 1     
   12    6    7 ar    
   13    6   28 1     
   14    7    8 ar    
   15    7   29 1     
   16    8    9 ar    
   17    8   30 1     
   18    9   10 1     
   19   10   11 1     
   20   11   12 1     
   21   11   31 1     
   22   11   32 1     
   23   12   13 1     
   24   12   14 1     
   25   12   33 1     
   26   13   34 1     
   27   14   15 1     
   28   14   35 1     
   29   14   36 1     
   30   15   16 1     
   31   16   23 ar    
   32   16   17 ar    
   33   17   18 ar    
   34   17   37 1     
   35   18   19 ar    
   36   18   38 1     
   37   19   20 1     
   38   19   22 ar    
   39   20   21 3     
   40   22   23 ar    
   41   22   39 1     
   42   23   40 1     
   43    3   41 1     
   44   13   42 1     
   45   13   43 1     
   46   15   44 1     
   47   15   45 1     
   48   21   46 1     
@<TRIPOS>SUBSTRUCTURE
      1 S1             1
@<TRIPOS>SET
LONE_PAIRS      STATIC     ATOMS    <user>   **** ""
6 41 42 43 44 45 46
DONOR_HYDROGENS      STATIC     ATOMS    <user>   **** ""
1 34
ATOM$BLUE        STATIC     ATOMS    COLORGROUP SYSTEM
6 41 42 43 44 45 46
ATOM$RED        STATIC     ATOMS    COLORGROUP SYSTEM
1 34
