AV-unprocessed.smi:148|AV-procd|sdf|1229|dock10
  -GOLD-   2262018433D 1   1.00000     0.00000
 Structure written by MMmdl.
 63 67  0  0  0  0  0  0  0  0  1 V2000
  148.2188  142.2764  155.0552 O   0  0  0  0  0  0  0  0  0  0  0  0
  149.2228  141.4533  154.4986 C   0  0  0  0  0  0  0  0  0  0  0  0
  149.7117  140.3935  155.5166 C   0  0  1  0  0  0  0  0  0  0  0  0
  149.9327  139.0054  154.8604 C   0  0  0  0  0  0  0  0  0  0  0  0
  148.6952  138.3159  154.5393 N   0  0  0  0  0  0  0  0  0  0  0  0
  147.7732  138.6818  153.5842 C   0  0  0  0  0  0  0  0  0  0  0  0
  146.7291  137.9034  153.4913 N   0  0  0  0  0  0  0  0  0  0  0  0
  146.9496  136.9296  154.4566 C   0  0  0  0  0  0  0  0  0  0  0  0
  146.2195  135.7965  154.9001 C   0  0  0  0  0  0  0  0  0  0  0  0
  145.0192  135.4644  154.3711 N   0  0  0  0  0  0  0  0  0  0  0  0
  144.0021  136.4220  154.8091 C   0  0  0  0  0  0  0  0  0  0  0  0
  142.5928  135.9835  154.3906 C   0  0  0  0  0  0  0  0  0  0  0  0
  142.5365  135.7503  152.8778 C   0  0  0  0  0  0  0  0  0  0  0  0
  143.5965  134.7181  152.4757 C   0  0  0  0  0  0  0  0  0  0  0  0
  145.0190  135.1447  152.9299 C   0  0  2  0  0  0  0  0  0  0  0  0
  146.1333  134.1230  152.5116 C   0  0  2  0  0  0  0  0  0  0  0  0
  146.1605  133.8613  150.9875 C   0  0  0  0  0  0  0  0  0  0  0  0
  146.0872  132.3417  150.7870 C   0  0  0  0  0  0  0  0  0  0  0  0
  145.5086  131.7915  152.0876 C   0  0  0  0  0  0  0  0  0  0  0  0
  146.1024  132.7121  153.1512 C   0  0  2  0  0  0  0  0  0  0  0  0
  145.4358  132.5996  154.3919 O   0  0  0  0  0  0  0  0  0  0  0  0
  146.7571  135.0407  155.8943 N   0  0  0  0  0  0  0  0  0  0  0  0
  147.9339  135.3813  156.4283 C   0  0  0  0  0  0  0  0  0  0  0  0
  148.7205  136.4165  156.1243 N   0  0  0  0  0  0  0  0  0  0  0  0
  148.1822  137.1712  155.1236 C   0  0  0  0  0  0  0  0  0  0  0  0
  150.9420  140.9028  156.3207 C   0  0  1  0  0  0  0  0  0  0  0  0
  150.7672  142.1948  157.0990 C   0  0  0  0  0  0  0  0  0  0  0  0
  152.0029  142.1712  157.9911 C   0  0  0  0  0  0  0  0  0  0  0  0
  152.1953  140.8004  158.3244 O   0  0  0  0  0  0  0  0  0  0  0  0
  151.5012  139.9665  157.3985 C   0  0  0  0  0  0  0  0  0  0  0  0
  148.4735  143.1795  154.9426 H   0  0  0  0  0  0  0  0  0  0  0  0
  148.7910  140.9862  153.6139 H   0  0  0  0  0  0  0  0  0  0  0  0
  150.0504  142.0747  154.1558 H   0  0  0  0  0  0  0  0  0  0  0  0
  148.9045  140.2611  156.2388 H   0  0  0  0  0  0  0  0  0  0  0  0
  150.5165  139.0957  153.9452 H   0  0  0  0  0  0  0  0  0  0  0  0
  150.4968  138.3499  155.5227 H   0  0  0  0  0  0  0  0  0  0  0  0
  147.9011  139.5509  152.9554 H   0  0  0  0  0  0  0  0  0  0  0  0
  144.0397  136.5312  155.8941 H   0  0  0  0  0  0  0  0  0  0  0  0
  144.2193  137.4032  154.3838 H   0  0  0  0  0  0  0  0  0  0  0  0
  142.3195  135.0677  154.9166 H   0  0  0  0  0  0  0  0  0  0  0  0
  141.8641  136.7405  154.6814 H   0  0  0  0  0  0  0  0  0  0  0  0
  141.5443  135.4046  152.5865 H   0  0  0  0  0  0  0  0  0  0  0  0
  142.7115  136.6878  152.3489 H   0  0  0  0  0  0  0  0  0  0  0  0
  143.3228  133.7616  152.9187 H   0  0  0  0  0  0  0  0  0  0  0  0
  143.5553  134.5732  151.3974 H   0  0  0  0  0  0  0  0  0  0  0  0
  145.2430  136.0811  152.4164 H   0  0  0  0  0  0  0  0  0  0  0  0
  147.1042  134.5557  152.7518 H   0  0  0  0  0  0  0  0  0  0  0  0
  145.3272  134.3453  150.4798 H   0  0  0  0  0  0  0  0  0  0  0  0
  147.0664  134.2648  150.5340 H   0  0  0  0  0  0  0  0  0  0  0  0
  145.4932  132.0637  149.9159 H   0  0  0  0  0  0  0  0  0  0  0  0
  147.0925  131.9444  150.6408 H   0  0  0  0  0  0  0  0  0  0  0  0
  144.4212  131.8713  152.0712 H   0  0  0  0  0  0  0  0  0  0  0  0
  145.7635  130.7437  152.2495 H   0  0  0  0  0  0  0  0  0  0  0  0
  147.1338  132.3997  153.3221 H   0  0  0  0  0  0  0  0  0  0  0  0
  144.5382  132.3501  154.2307 H   0  0  0  0  0  0  0  0  0  0  0  0
  148.2957  134.7338  157.2134 H   0  0  0  0  0  0  0  0  0  0  0  0
  151.7495  141.0889  155.6107 H   0  0  0  0  0  0  0  0  0  0  0  0
  150.7206  143.0780  156.4616 H   0  0  0  0  0  0  0  0  0  0  0  0
  149.8773  142.1755  157.7266 H   0  0  0  0  0  0  0  0  0  0  0  0
  152.8766  142.5241  157.4415 H   0  0  0  0  0  0  0  0  0  0  0  0
  151.8905  142.7881  158.8828 H   0  0  0  0  0  0  0  0  0  0  0  0
  150.7117  139.4484  157.9412 H   0  0  0  0  0  0  0  0  0  0  0  0
  152.1675  139.2127  156.9785 H   0  0  0  0  0  0  0  0  0  0  0  0
  1  2  1  0  0  0  0
  1 31  1  0  0  0  0
  2  3  1  0  0  0  0
  2 32  1  0  0  0  0
  2 33  1  0  0  0  0
  3  4  1  0  0  0  0
  3 26  1  0  0  0  0
  3 34  1  0  0  0  0
  4  5  1  0  0  0  0
  4 35  1  0  0  0  0
  4 36  1  0  0  0  0
  5 25  1  0  0  0  0
  5  6  1  0  0  0  0
  6  7  2  0  0  0  0
  6 37  1  0  0  0  0
  7  8  1  0  0  0  0
  8 25  2  0  0  0  0
  8  9  1  0  0  0  0
  9 10  1  0  0  0  0
  9 22  2  0  0  0  0
 10 15  1  0  0  0  0
 10 11  1  0  0  0  0
 11 12  1  0  0  0  0
 11 38  1  0  0  0  0
 11 39  1  0  0  0  0
 12 13  1  0  0  0  0
 12 40  1  0  0  0  0
 12 41  1  0  0  0  0
 13 14  1  0  0  0  0
 13 42  1  0  0  0  0
 13 43  1  0  0  0  0
 14 15  1  0  0  0  0
 14 44  1  0  0  0  0
 14 45  1  0  0  0  0
 15 16  1  0  0  0  0
 15 46  1  0  0  0  0
 16 20  1  0  0  0  0
 16 17  1  0  0  0  0
 16 47  1  0  0  0  0
 17 18  1  0  0  0  0
 17 48  1  0  0  0  0
 17 49  1  0  0  0  0
 18 19  1  0  0  0  0
 18 50  1  0  0  0  0
 18 51  1  0  0  0  0
 19 20  1  0  0  0  0
 19 52  1  0  0  0  0
 19 53  1  0  0  0  0
 20 21  1  0  0  0  0
 20 54  1  0  0  0  0
 21 55  1  0  0  0  0
 22 23  1  0  0  0  0
 23 24  2  0  0  0  0
 23 56  1  0  0  0  0
 24 25  1  0  0  0  0
 26 30  1  0  0  0  0
 26 27  1  0  0  0  0
 26 57  1  0  0  0  0
 27 28  1  0  0  0  0
 27 58  1  0  0  0  0
 27 59  1  0  0  0  0
 28 29  1  0  0  0  0
 28 60  1  0  0  0  0
 28 61  1  0  0  0  0
 29 30  1  0  0  0  0
 30 62  1  0  0  0  0
 30 63  1  0  0  0  0
M  END
> <s_m_source_file>
AV-unprocessed.smi

> <i_m_source_file_index>
148

> <i_lp_mmshare_version>
43012

> <i_f3d_flags>
0

> <s_epik_input>
W0NIMl0xT1tDSDJdW0NIMl1bQ0BIXTFbQ0BIXShbQ0gyXVtPSF0pW0NIMl1uKFtjSF1uMiljKGMyMyluW2NIXW5jM040W0NIMl1bQ0gyXVtDSDJdW0NIMl1bQ0BIXTRbQ0BASF01W0NIMl1bQ0gyXVtDSDJdW0NASF01W09IXQ==

> <s_epik_cmdline>
J2VwaWtfcHl0aG9uJywgJy1waCcsICc3LjAnLCAnLXRuJywgJzgnLCAnLW1hJywgJzIwMCcsICctbWV0YWxfYmluZGluZycsICctaW1hZScsICc8aW5maWxlLm1hZT4nLCAnLW9tYWUnLCAnPG91dGZpbGUubWFlPic=

> <r_lp_tautomer_probability>
1

> <r_epik_Ionization_Penalty>
0.00556303

> <r_epik_Ionization_Penalty_Charging>
0

> <r_epik_Ionization_Penalty_Neutral>
0.00556303

> <r_epik_State_Penalty>
0.00401767

> <r_epik_Charging_Adjusted_Penalty>
0.00401767

> <i_epik_Tot_Q>
0

> <i_epik_Tot_abs_Q>
0

> <r_epik_Metal_State_Penalty>
-0

> <b_epik_Metal_Only>
0

> <s_lp_Force_Field>
OPLS_2005

> <r_lp_Energy>
73.9782

> <b_lp_Chiralities_Consistent>
1

> <s_lp_Variant>
AV-unprocessed.smi:148-28

> <Gold.Version>
5.8.1

> <Gold.Id.Protein>
6NUR|6NUR_protein|mol2

> <Gold.PLP.Fitness>
42.6182

> <Gold.PLP.PLP>
-35.0152

> <Gold.PLP.part.hbond>
-2.0000

> <Gold.PLP.part.metal>
0.0000

> <Gold.PLP.part.buried>
-6.2890

> <Gold.PLP.part.nonpolar>
-27.7790

> <Gold.PLP.part.repulsive>
0.2804

> <Gold.PLP.ligand.clash>
0.0000

> <Gold.PLP.ligand.torsion>
0.8778

> <Gold.PLP.Chemscore.Hbond>
2.0000

> <Gold.PLP.Chemscore.CHOScore>
0.9968

> <Gold.PLP.Chemscore.Metal>
0.0000

> <Gold.Chemscore.Hbonds>
donor molecule, donor type, donor heavy atom, donor atom, acceptor molecule, acceptor atom, score
      L1  H     1    31       P1  8028  1.00
      L1  H    21    55       P1 10957  1.00
      L1  C     6    37       P1  7957  1.00

> <Gold.PLP.Chemscore.Internal.Correction>
0.3682

> <Gold.Rescore>
     Score         DG    S(hbond)    S(metal)    S(lipo)     H(rot)  DE(clash)    DE(int)     intcor
     12.73     -13.54       1.85        0.00      88.72       3.32       0.01       0.80       ----

> <Gold.Chemscore.Fitness>
12.7260

> <Gold.Chemscore.DG>
-13.5355

> <Gold.Chemscore.ZeroCoef>
-5.4800

> <Gold.Chemscore.Hbond>
1.8488

> <Gold.Chemscore.Metal>
0.0000

> <Gold.Chemscore.Lipo>
88.7208

> <Gold.Chemscore.Internal_Hbond>
0.0000

> <Gold.Chemscore.DEClash>
0.0060

> <Gold.Chemscore.DEInternal>
0.8035

> <Gold.Chemscore.Rot>
3.3203

> <Gold.Chemscore.Internal.Correction>
   9.000000E+99

> <Gold.Chemscore.Hbonds>
donor molecule, donor type, donor heavy atom, donor atom, acceptor molecule, acceptor atom, score
      L1  H     1    31       P1  8028  0.94
      L1  H    21    55       P1 10957  0.46

> <Gold.Chemscore.Hbond.Weighted>
-6.1751

> <Gold.Chemscore.Metal.Weighted>
-0.0000

> <Gold.Chemscore.Lipo.Weighted>
-10.3803

> <Gold.Chemscore.Internal_Hbond.Weighted>
0.0000

> <Gold.Chemscore.DEClash.Weighted>
0.0060

> <Gold.Chemscore.DEInternal.Weighted>
0.8035

> <Gold.Chemscore.Rot.Weighted>
8.5000

> <Gold.Chemscore.Internal.Correction.Weighted>
   9.000000E+99

> <Gold.Protein.RotatedTorsions>
[ 6907 6896 6895 6894 ] final    3.70 input  -60.11 | X-H torsion
[ 7974 7965 7964 7962 ] final   53.14 input  175.53 | X-H torsion
[ 8008 7997 7996 7995 ] final -170.07 input   59.86 | X-H torsion
[ 10167 10162 10161 10158 ] final  -19.76 input  -65.29 | X-H torsion
[ 10718 10713 10712 10709 ] final  119.88 input   66.30 | X-H torsion
[ 10763 10752 10751 10750 ] final -173.40 input  -60.55 | X-H torsion
[ 11005 11000 10999 10996 ] final   12.33 input  -57.11 | X-H torsion

> <Gold.Protein.ActiveResidues>
 VAL166  LYS551  ARG553  GLY616  TRP617  ASP618  TYR619  PRO620  LYS621  CYS622 
 ASP623  PHE694  ASN695  SER759  ASP760  ASP761  ALA762  ILE779  LEU786  VAL792 
 PHE793  MET794  SER795  GLU796  ALA797  LYS798  CYS799  TRP800  GLU811  SER814 

> <Gold.Protein.RotatedAtoms>
  151.6293  135.1024  160.0118 H   0  0  0  0  0  0  0  0  0  0  0  0  # atno 6907 bound_to 6896
  152.4115  133.6967  159.6410 H   0  0  0  0  0  0  0  0  0  0  0  0  # atno 6908 bound_to 6896
  150.8005  133.8532  159.3252 H   0  0  0  0  0  0  0  0  0  0  0  0  # atno 6909 bound_to 6896
  145.9742  139.4179  143.0171 H   0  0  0  0  0  0  0  0  0  0  0  0  # atno 7974 bound_to 7965
  155.9135  140.1061  157.1261 H   0  0  0  0  0  0  0  0  0  0  0  0  # atno 8008 bound_to 7997
  154.4043  140.1270  156.4652 H   0  0  0  0  0  0  0  0  0  0  0  0  # atno 8009 bound_to 7997
  155.7282  140.3469  155.5049 H   0  0  0  0  0  0  0  0  0  0  0  0  # atno 8010 bound_to 7997
  140.7271  143.4787  151.0146 H   0  0  0  0  0  0  0  0  0  0  0  0  # atno 10167 bound_to 10162
  157.5931  131.1061  150.7957 H   0  0  0  0  0  0  0  0  0  0  0  0  # atno 10718 bound_to 10713
  154.6083  135.2862  155.0460 H   0  0  0  0  0  0  0  0  0  0  0  0  # atno 10763 bound_to 10752
  154.1699  135.6474  153.5010 H   0  0  0  0  0  0  0  0  0  0  0  0  # atno 10764 bound_to 10752
  153.0184  135.5398  154.6827 H   0  0  0  0  0  0  0  0  0  0  0  0  # atno 10765 bound_to 10752
  140.4932  134.0819  155.7776 H   0  0  0  0  0  0  0  0  0  0  0  0  # atno 11005 bound_to 11000
  145.7862  140.9834  143.1073 LP  0  0  0  0  0  0  0  0  0  0  0  0  # atno 17320 bound_to 7965
  144.6844  139.9626  143.7480 LP  0  0  0  0  0  0  0  0  0  0  0  0  # atno 17321 bound_to 7965
  139.8485  143.7470  152.3179 LP  0  0  0  0  0  0  0  0  0  0  0  0  # atno 17342 bound_to 10162
  139.7644  144.7496  151.0317 LP  0  0  0  0  0  0  0  0  0  0  0  0  # atno 17343 bound_to 10162
  156.8374  130.5036  149.5325 LP  0  0  0  0  0  0  0  0  0  0  0  0  # atno 17370 bound_to 10713
  156.0988  130.5953  150.9860 LP  0  0  0  0  0  0  0  0  0  0  0  0  # atno 17371 bound_to 10713
  141.1473  133.9031  157.2183 LP  0  0  0  0  0  0  0  0  0  0  0  0  # atno 17394 bound_to 11000
  139.9757  135.0114  156.9624 LP  0  0  0  0  0  0  0  0  0  0  0  0  # atno 17395 bound_to 11000

$$$$
