AV-unprocessed.smi:96|AV-procd|sdf|860|dock2
  -GOLD-   2262017303D 1   1.00000     0.00000
 Structure written by MMmdl.
 43 46  0  0  0  0  0  0  0  0  1 V2000
  152.4917  138.6239  158.5355 O   0  0  0  0  0  0  0  0  0  0  0  0
  152.4564  139.1987  157.4464 C   0  0  0  0  0  0  0  0  0  0  0  0
  152.5808  138.4005  156.1385 C   0  0  0  0  0  0  0  0  0  0  0  0
  151.2898  137.8734  155.6440 N   0  0  0  0  0  0  0  0  0  0  0  0
  150.3715  138.7681  155.0406 C   0  0  0  0  0  0  0  0  0  0  0  0
  150.6344  139.9649  154.9148 O   0  0  0  0  0  0  0  0  0  0  0  0
  149.1149  138.1756  154.5959 C   0  0  0  0  0  0  0  0  0  0  0  0
  148.1900  138.9470  153.9995 F   0  0  0  0  0  0  0  0  0  0  0  0
  148.8639  136.8620  154.7731 C   0  0  0  0  0  0  0  0  0  0  0  0
  149.7629  136.0034  155.3807 N   0  0  0  0  0  0  0  0  0  0  0  0
  149.4627  134.5328  155.5823 C   0  0  1  0  0  0  0  0  0  0  0  0
  147.9973  134.2241  155.2196 C   0  0  0  0  0  0  0  0  0  0  0  0
  148.1276  133.0543  154.2649 C   0  0  0  0  0  0  0  0  0  0  0  0
  149.4864  133.3147  153.6322 C   0  0  0  0  0  0  0  0  0  0  0  0
  150.2655  133.7619  154.7340 O   0  0  0  0  0  0  0  0  0  0  0  0
  151.0074  136.4988  155.8261 C   0  0  0  0  0  0  0  0  0  0  0  0
  151.8234  135.7495  156.3680 O   0  0  0  0  0  0  0  0  0  0  0  0
  152.3254  140.5289  157.2938 N   0  0  0  0  0  0  0  0  0  0  0  0
  152.1998  141.5207  158.3028 C   0  0  0  0  0  0  0  0  0  0  0  0
  152.5566  141.2934  159.6633 C   0  0  0  0  0  0  0  0  0  0  0  0
  152.3960  142.3090  160.6329 C   0  0  0  0  0  0  0  0  0  0  0  0
  151.8664  143.5393  160.2130 C   0  0  0  0  0  0  0  0  0  0  0  0
  151.5033  143.7597  158.9011 C   0  0  0  0  0  0  0  0  0  0  0  0
  151.6502  142.7672  157.9185 C   0  0  0  0  0  0  0  0  0  0  0  0
  151.0174  145.0203  158.7697 O   0  0  0  0  0  0  0  0  0  0  0  0
  151.0894  145.5949  160.0490 C   0  0  0  0  0  0  0  0  0  0  0  0
  151.6199  144.6543  160.9468 O   0  0  0  0  0  0  0  0  0  0  0  0
  153.0603  139.0386  155.3948 H   0  0  0  0  0  0  0  0  0  0  0  0
  153.2938  137.5875  156.2868 H   0  0  0  0  0  0  0  0  0  0  0  0
  147.9160  136.4871  154.4191 H   0  0  0  0  0  0  0  0  0  0  0  0
  149.7219  134.3176  156.6206 H   0  0  0  0  0  0  0  0  0  0  0  0
  147.4142  133.9898  156.1105 H   0  0  0  0  0  0  0  0  0  0  0  0
  147.5444  135.0786  154.7138 H   0  0  0  0  0  0  0  0  0  0  0  0
  148.1477  132.1158  154.8205 H   0  0  0  0  0  0  0  0  0  0  0  0
  147.3186  133.0050  153.5355 H   0  0  0  0  0  0  0  0  0  0  0  0
  149.9160  132.4252  153.1712 H   0  0  0  0  0  0  0  0  0  0  0  0
  149.4181  134.0974  152.8753 H   0  0  0  0  0  0  0  0  0  0  0  0
  152.4088  140.8768  156.3497 H   0  0  0  0  0  0  0  0  0  0  0  0
  152.9440  140.3388  159.9852 H   0  0  0  0  0  0  0  0  0  0  0  0
  152.6672  142.1425  161.6649 H   0  0  0  0  0  0  0  0  0  0  0  0
  151.3578  142.9600  156.8965 H   0  0  0  0  0  0  0  0  0  0  0  0
  151.7331  146.4747  160.0190 H   0  0  0  0  0  0  0  0  0  0  0  0
  150.0909  145.8883  160.3742 H   0  0  0  0  0  0  0  0  0  0  0  0
  1  2  2  0  0  0  0
  2  3  1  0  0  0  0
  2 18  1  0  0  0  0
  3  4  1  0  0  0  0
  3 28  1  0  0  0  0
  3 29  1  0  0  0  0
  4 16  1  0  0  0  0
  4  5  1  0  0  0  0
  5  6  2  0  0  0  0
  5  7  1  0  0  0  0
  7  8  1  0  0  0  0
  7  9  2  0  0  0  0
  9 10  1  0  0  0  0
  9 30  1  0  0  0  0
 10 11  1  0  0  0  0
 10 16  1  0  0  0  0
 11 15  1  0  0  0  0
 11 12  1  0  0  0  0
 11 31  1  0  0  0  0
 12 13  1  0  0  0  0
 12 32  1  0  0  0  0
 12 33  1  0  0  0  0
 13 14  1  0  0  0  0
 13 34  1  0  0  0  0
 13 35  1  0  0  0  0
 14 15  1  0  0  0  0
 14 36  1  0  0  0  0
 14 37  1  0  0  0  0
 16 17  2  0  0  0  0
 18 19  1  0  0  0  0
 18 38  1  0  0  0  0
 19 24  1  0  0  0  0
 19 20  2  0  0  0  0
 20 21  1  0  0  0  0
 20 39  1  0  0  0  0
 21 22  2  0  0  0  0
 21 40  1  0  0  0  0
 22 27  1  0  0  0  0
 22 23  1  0  0  0  0
 23 24  2  0  0  0  0
 23 25  1  0  0  0  0
 24 41  1  0  0  0  0
 25 26  1  0  0  0  0
 26 27  1  0  0  0  0
 26 42  1  0  0  0  0
 26 43  1  0  0  0  0
M  END
> <s_m_source_file>
AV-unprocessed.smi

> <i_m_source_file_index>
96

> <i_lp_mmshare_version>
43012

> <i_f3d_flags>
0

> <s_epik_input>
TzFbQ0gyXU9jKGMxMilbY0hdYyhbY0hdW2NIXTIpW05IXUMoPU8pW0NIMl1uM2MoPU8pYyhGKVtjSF1uKGMzPU8pW0NAQEhdNFtDSDJdW0NIMl1bQ0gyXU80

> <s_epik_cmdline>
J2VwaWtfcHl0aG9uJywgJy1waCcsICc3LjAnLCAnLXRuJywgJzgnLCAnLW1hJywgJzIwMCcsICctbWV0YWxfYmluZGluZycsICctaW1hZScsICc8aW5maWxlLm1hZT4nLCAnLW9tYWUnLCAnPG91dGZpbGUubWFlPic=

> <r_lp_tautomer_probability>
1

> <r_epik_Ionization_Penalty>
1.04778e-05

> <r_epik_Ionization_Penalty_Charging>
3.88729e-08

> <r_epik_Ionization_Penalty_Neutral>
1.04389e-05

> <r_epik_State_Penalty>
-0

> <r_epik_Charging_Adjusted_Penalty>
3.88729e-08

> <i_epik_Tot_Q>
0

> <i_epik_Tot_abs_Q>
0

> <r_epik_Metal_State_Penalty>
-0

> <b_epik_Metal_Only>
0

> <s_epik_Chemistry_Notes>
This compound contains an acetal/aminal-like group ( X-CH(R)-Y where X, Y are N, S, or O) that may be acid/base labile, releasing an aldehyde.

> <s_lp_Force_Field>
OPLS_2005

> <r_lp_Energy>
46.4939

> <b_lp_Chiralities_Consistent>
1

> <s_lp_Variant>
AV-unprocessed.smi:96-2

> <Gold.Version>
5.8.1

> <Gold.Id.Protein>
6NUR|6NUR_protein|mol2

> <Gold.PLP.Fitness>
44.5006

> <Gold.PLP.PLP>
-39.8718

> <Gold.PLP.part.hbond>
-2.0000

> <Gold.PLP.part.metal>
0.0000

> <Gold.PLP.part.buried>
-3.6524

> <Gold.PLP.part.nonpolar>
-34.3738

> <Gold.PLP.part.repulsive>
1.6496

> <Gold.PLP.ligand.clash>
0.0000

> <Gold.PLP.ligand.torsion>
0.8040

> <Gold.PLP.Chemscore.Hbond>
2.0000

> <Gold.PLP.Chemscore.CHOScore>
0.0618

> <Gold.PLP.Chemscore.Metal>
0.0000

> <Gold.Chemscore.Hbonds>
donor molecule, donor type, donor heavy atom, donor atom, acceptor molecule, acceptor atom, score
      P1  H  7989  7998       L1     6  1.00
      P1  H 10752 10764       L1    17  0.95
      L1  C     9    30       P1  7948  0.08

> <Gold.PLP.Chemscore.Internal.Correction>
0.0514

> <Gold.Rescore>
     Score         DG    S(hbond)    S(metal)    S(lipo)     H(rot)  DE(clash)    DE(int)     intcor
     13.53     -16.96       1.87        0.00      85.08       1.85       0.39       3.04       ----

> <Gold.Chemscore.Fitness>
13.5301

> <Gold.Chemscore.DG>
-16.9555

> <Gold.Chemscore.ZeroCoef>
-5.4800

> <Gold.Chemscore.Hbond>
1.8733

> <Gold.Chemscore.Metal>
0.0000

> <Gold.Chemscore.Lipo>
85.0768

> <Gold.Chemscore.Internal_Hbond>
0.0000

> <Gold.Chemscore.DEClash>
0.3887

> <Gold.Chemscore.DEInternal>
3.0366

> <Gold.Chemscore.Rot>
1.8497

> <Gold.Chemscore.Internal.Correction>
   9.000000E+99

> <Gold.Chemscore.Hbonds>
donor molecule, donor type, donor heavy atom, donor atom, acceptor molecule, acceptor atom, score
      P1  H  7989  7998       L1     6  0.99
      P1  H 10752 10764       L1    17  0.21

> <Gold.Chemscore.Hbond.Weighted>
-6.2568

> <Gold.Chemscore.Metal.Weighted>
-0.0000

> <Gold.Chemscore.Lipo.Weighted>
-9.9540

> <Gold.Chemscore.Internal_Hbond.Weighted>
0.0000

> <Gold.Chemscore.DEClash.Weighted>
0.3887

> <Gold.Chemscore.DEInternal.Weighted>
3.0366

> <Gold.Chemscore.Rot.Weighted>
4.7354

> <Gold.Chemscore.Internal.Correction.Weighted>
   9.000000E+99

> <Gold.Protein.RotatedTorsions>
[ 6907 6896 6895 6894 ] final  -14.65 input  -60.11 | X-H torsion
[ 7974 7965 7964 7962 ] final   78.19 input  175.53 | X-H torsion
[ 8008 7997 7996 7995 ] final  178.48 input   59.86 | X-H torsion
[ 10167 10162 10161 10158 ] final  -59.79 input  -65.29 | X-H torsion
[ 10718 10713 10712 10709 ] final  -96.86 input   66.30 | X-H torsion
[ 10763 10752 10751 10750 ] final  -43.44 input  -60.55 | X-H torsion
[ 11005 11000 10999 10996 ] final   88.70 input  -57.11 | X-H torsion

> <Gold.Protein.ActiveResidues>
 VAL166  LYS551  ARG553  GLY616  TRP617  ASP618  TYR619  PRO620  LYS621  CYS622 
 ASP623  PHE694  ASN695  SER759  ASP760  ASP761  ALA762  ILE779  LEU786  VAL792 
 PHE793  MET794  SER795  GLU796  ALA797  LYS798  CYS799  TRP800  GLU811  SER814 

> <Gold.Protein.RotatedAtoms>
  151.3361  135.0853  159.9354 H   0  0  0  0  0  0  0  0  0  0  0  0  # atno 6907 bound_to 6896
  152.5223  133.9494  159.7675 H   0  0  0  0  0  0  0  0  0  0  0  0  # atno 6908 bound_to 6896
  150.9842  133.6161  159.2748 H   0  0  0  0  0  0  0  0  0  0  0  0  # atno 6909 bound_to 6896
  145.6804  139.2522  143.1817 H   0  0  0  0  0  0  0  0  0  0  0  0  # atno 7974 bound_to 7965
  156.0542  140.1332  157.0015 H   0  0  0  0  0  0  0  0  0  0  0  0  # atno 8008 bound_to 7997
  154.4449  140.1004  156.6492 H   0  0  0  0  0  0  0  0  0  0  0  0  # atno 8009 bound_to 7997
  155.5477  140.3462  155.4463 H   0  0  0  0  0  0  0  0  0  0  0  0  # atno 8010 bound_to 7997
  140.6113  143.2388  151.5703 H   0  0  0  0  0  0  0  0  0  0  0  0  # atno 10167 bound_to 10162
  156.0071  130.5169  150.6288 H   0  0  0  0  0  0  0  0  0  0  0  0  # atno 10718 bound_to 10713
  153.9955  135.6700  153.4756 H   0  0  0  0  0  0  0  0  0  0  0  0  # atno 10763 bound_to 10752
  153.0685  135.4987  154.8250 H   0  0  0  0  0  0  0  0  0  0  0  0  # atno 10764 bound_to 10752
  154.7084  135.3092  154.9198 H   0  0  0  0  0  0  0  0  0  0  0  0  # atno 10765 bound_to 10752
  139.8891  134.8505  156.3038 H   0  0  0  0  0  0  0  0  0  0  0  0  # atno 11005 bound_to 11000
  146.0969  140.7590  142.9568 LP  0  0  0  0  0  0  0  0  0  0  0  0  # atno 17320 bound_to 7965
  144.7028  140.3726  143.7142 LP  0  0  0  0  0  0  0  0  0  0  0  0  # atno 17321 bound_to 7965
  139.5363  144.2772  152.1258 LP  0  0  0  0  0  0  0  0  0  0  0  0  # atno 17342 bound_to 10162
  140.1971  144.4694  150.6449 LP  0  0  0  0  0  0  0  0  0  0  0  0  # atno 17343 bound_to 10162
  157.4090  131.0821  151.1239 LP  0  0  0  0  0  0  0  0  0  0  0  0  # atno 17370 bound_to 10713
  157.1876  130.6337  149.5693 LP  0  0  0  0  0  0  0  0  0  0  0  0  # atno 17371 bound_to 10713
  140.9896  133.7217  156.0793 LP  0  0  0  0  0  0  0  0  0  0  0  0  # atno 17394 bound_to 11000
  140.7643  134.3904  157.5520 LP  0  0  0  0  0  0  0  0  0  0  0  0  # atno 17395 bound_to 11000

$$$$
