AV-unprocessed.smi:2019|AV-procd|sdf|8172|dock9
  -GOLD-   2272010423D 1   1.00000     0.00000
 Structure written by MMmdl.
 36 37  0  0  0  0  0  0  0  0  1 V2000
  150.6283  141.2396  157.9636 O   0  0  0  0  0  0  0  0  0  0  0  0
  150.6431  142.2552  157.2669 C   0  0  0  0  0  0  0  0  0  0  0  0
  151.4384  143.4931  157.7025 C   0  0  0  0  0  0  0  0  0  0  0  0
  151.8782  143.4284  159.1060 N   0  0  0  0  0  0  0  0  0  0  0  0
  152.6561  142.3164  159.4860 C   0  0  0  0  0  0  0  0  0  0  0  0
  153.1123  142.1638  160.7394 C   0  0  0  0  0  0  0  0  0  0  0  0
  152.7864  143.1793  161.7126 C   0  0  0  0  0  0  0  0  0  0  0  0
  152.0446  144.2479  161.3594 C   0  0  0  0  0  0  0  0  0  0  0  0
  151.5442  144.4190  159.9903 C   0  0  0  0  0  0  0  0  0  0  0  0
  150.8663  145.3919  159.6591 O   0  0  0  0  0  0  0  0  0  0  0  0
  149.9691  142.3641  156.1108 N   0  0  0  0  0  0  0  0  0  0  0  0
  149.1702  141.3050  155.4900 C   0  0  1  0  0  0  0  0  0  0  0  0
  148.4078  141.9307  154.2994 C   0  0  0  0  0  0  0  0  0  0  0  0
  147.1540  141.1420  153.8819 C   0  0  0  0  0  0  0  0  0  0  0  0
  147.4266  139.7360  153.3261 C   0  0  0  0  0  0  0  0  0  0  0  0
  148.0858  138.7867  154.3412 C   0  0  0  0  0  0  0  0  0  0  0  0
  149.5113  139.0490  154.4910 N   0  0  0  0  0  0  0  0  0  0  0  0
  150.0793  140.1660  154.9702 C   0  0  0  0  0  0  0  0  0  0  0  0
  151.3049  140.2803  154.9892 O   0  0  0  0  0  0  0  0  0  0  0  0
  152.3019  143.6250  157.0471 H   0  0  0  0  0  0  0  0  0  0  0  0
  150.8151  144.3722  157.5335 H   0  0  0  0  0  0  0  0  0  0  0  0
  152.8613  141.6064  158.6979 H   0  0  0  0  0  0  0  0  0  0  0  0
  153.7104  141.3065  161.0115 H   0  0  0  0  0  0  0  0  0  0  0  0
  153.1401  143.0827  162.7286 H   0  0  0  0  0  0  0  0  0  0  0  0
  151.8116  144.9982  162.1007 H   0  0  0  0  0  0  0  0  0  0  0  0
  150.0401  143.2339  155.6032 H   0  0  0  0  0  0  0  0  0  0  0  0
  148.4635  140.9157  156.2254 H   0  0  0  0  0  0  0  0  0  0  0  0
  148.0752  142.9321  154.5773 H   0  0  0  0  0  0  0  0  0  0  0  0
  149.0684  142.0719  153.4417 H   0  0  0  0  0  0  0  0  0  0  0  0
  146.4734  141.0698  154.7314 H   0  0  0  0  0  0  0  0  0  0  0  0
  146.6202  141.7154  153.1234 H   0  0  0  0  0  0  0  0  0  0  0  0
  146.4736  139.3038  153.0187 H   0  0  0  0  0  0  0  0  0  0  0  0
  148.0316  139.7985  152.4201 H   0  0  0  0  0  0  0  0  0  0  0  0
  147.5835  138.8303  155.3086 H   0  0  0  0  0  0  0  0  0  0  0  0
  147.9842  137.7598  153.9896 H   0  0  0  0  0  0  0  0  0  0  0  0
  150.1340  138.3213  154.1705 H   0  0  0  0  0  0  0  0  0  0  0  0
  1  2  2  0  0  0  0
  2  3  1  0  0  0  0
  2 11  1  0  0  0  0
  3  4  1  0  0  0  0
  3 20  1  0  0  0  0
  3 21  1  0  0  0  0
  4  9  1  0  0  0  0
  4  5  1  0  0  0  0
  5  6  2  0  0  0  0
  5 22  1  0  0  0  0
  6  7  1  0  0  0  0
  6 23  1  0  0  0  0
  7  8  2  0  0  0  0
  7 24  1  0  0  0  0
  8  9  1  0  0  0  0
  8 25  1  0  0  0  0
  9 10  2  0  0  0  0
 11 12  1  0  0  0  0
 11 26  1  0  0  0  0
 12 18  1  0  0  0  0
 12 13  1  0  0  0  0
 12 27  1  0  0  0  0
 13 14  1  0  0  0  0
 13 28  1  0  0  0  0
 13 29  1  0  0  0  0
 14 15  1  0  0  0  0
 14 30  1  0  0  0  0
 14 31  1  0  0  0  0
 15 16  1  0  0  0  0
 15 32  1  0  0  0  0
 15 33  1  0  0  0  0
 16 17  1  0  0  0  0
 16 34  1  0  0  0  0
 16 35  1  0  0  0  0
 17 18  1  0  0  0  0
 17 36  1  0  0  0  0
 18 19  2  0  0  0  0
M  END
> <s_m_source_file>
AV-unprocessed.smi

> <i_m_source_file_index>
2019

> <i_lp_mmshare_version>
43012

> <i_f3d_flags>
0

> <s_epik_input>
Tz1jMVtjSF1bY0hdW2NIXVtjSF1uMVtDSDJdQyg9TylbTkhdW0NAQEhdMltDSDJdW0NIMl1bQ0gyXVtDSDJdW05IXUMyPU8=

> <s_epik_cmdline>
J2VwaWtfcHl0aG9uJywgJy1waCcsICc3LjAnLCAnLXRuJywgJzgnLCAnLW1hJywgJzIwMCcsICctbWV0YWxfYmluZGluZycsICctaW1hZScsICc8aW5maWxlLm1hZT4nLCAnLW9tYWUnLCAnPG91dGZpbGUubWFlPic=

> <r_lp_tautomer_probability>
1

> <r_epik_Ionization_Penalty>
3.70786e-07

> <r_epik_Ionization_Penalty_Charging>
3.17464e-07

> <r_epik_Ionization_Penalty_Neutral>
5.33217e-08

> <r_epik_State_Penalty>
-0

> <r_epik_Charging_Adjusted_Penalty>
3.17464e-07

> <i_epik_Tot_Q>
0

> <i_epik_Tot_abs_Q>
0

> <r_epik_Metal_State_Penalty>
-0

> <b_epik_Metal_Only>
0

> <s_lp_Force_Field>
OPLS_2005

> <r_lp_Energy>
20.0442

> <b_lp_Chiralities_Consistent>
1

> <s_lp_Variant>
AV-unprocessed.smi:2019-2

> <Gold.Version>
5.8.1

> <Gold.Id.Protein>
6NUR|6NUR_protein|mol2

> <Gold.PLP.Fitness>
47.9396

> <Gold.PLP.PLP>
-43.8508

> <Gold.PLP.part.hbond>
-2.0000

> <Gold.PLP.part.metal>
0.0000

> <Gold.PLP.part.buried>
-3.4265

> <Gold.PLP.part.nonpolar>
-38.2097

> <Gold.PLP.part.repulsive>
0.4216

> <Gold.PLP.ligand.clash>
0.0000

> <Gold.PLP.ligand.torsion>
0.2480

> <Gold.PLP.Chemscore.Hbond>
1.5280

> <Gold.PLP.Chemscore.CHOScore>
0.0000

> <Gold.PLP.Chemscore.Metal>
0.0000

> <Gold.Chemscore.Hbonds>
donor molecule, donor type, donor heavy atom, donor atom, acceptor molecule, acceptor atom, score
      L1  H    11    26       P1  8028  0.59
      P1  H  7989  7998       L1    19  1.00

> <Gold.PLP.Chemscore.Internal.Correction>
0.0009

> <Gold.Rescore>
     Score         DG    S(hbond)    S(metal)    S(lipo)     H(rot)  DE(clash)    DE(int)     intcor
     15.88     -17.29       1.80        0.00      84.38       1.59       0.01       1.41       ----

> <Gold.Chemscore.Fitness>
15.8804

> <Gold.Chemscore.DG>
-17.2938

> <Gold.Chemscore.ZeroCoef>
-5.4800

> <Gold.Chemscore.Hbond>
1.8029

> <Gold.Chemscore.Metal>
0.0000

> <Gold.Chemscore.Lipo>
84.3813

> <Gold.Chemscore.Internal_Hbond>
0.0000

> <Gold.Chemscore.DEClash>
0.0075

> <Gold.Chemscore.DEInternal>
1.4059

> <Gold.Chemscore.Rot>
1.5939

> <Gold.Chemscore.Internal.Correction>
   9.000000E+99

> <Gold.Chemscore.Hbonds>
donor molecule, donor type, donor heavy atom, donor atom, acceptor molecule, acceptor atom, score
      L1  H    11    26       P1  8028  0.58
      P1  H  7989  7998       L1    19  0.39

> <Gold.Chemscore.Hbond.Weighted>
-6.0216

> <Gold.Chemscore.Metal.Weighted>
-0.0000

> <Gold.Chemscore.Lipo.Weighted>
-9.8726

> <Gold.Chemscore.Internal_Hbond.Weighted>
0.0000

> <Gold.Chemscore.DEClash.Weighted>
0.0075

> <Gold.Chemscore.DEInternal.Weighted>
1.4059

> <Gold.Chemscore.Rot.Weighted>
4.0804

> <Gold.Chemscore.Internal.Correction.Weighted>
   9.000000E+99

> <Gold.Protein.RotatedTorsions>
[ 6907 6896 6895 6894 ] final -148.92 input  -60.11 | X-H torsion
[ 7974 7965 7964 7962 ] final  -34.64 input  175.53 | X-H torsion
[ 8008 7997 7996 7995 ] final -133.96 input   59.86 | X-H torsion
[ 10167 10162 10161 10158 ] final   -9.45 input  -65.29 | X-H torsion
[ 10718 10713 10712 10709 ] final -157.23 input   66.30 | X-H torsion
[ 10763 10752 10751 10750 ] final  121.74 input  -60.55 | X-H torsion
[ 11005 11000 10999 10996 ] final  -85.84 input  -57.11 | X-H torsion

> <Gold.Protein.ActiveResidues>
 VAL166  LYS551  ARG553  GLY616  TRP617  ASP618  TYR619  PRO620  LYS621  CYS622 
 ASP623  PHE694  ASN695  SER759  ASP760  ASP761  ALA762  ILE779  LEU786  VAL792 
 PHE793  MET794  SER795  GLU796  ALA797  LYS798  CYS799  TRP800  GLU811  SER814 

> <Gold.Protein.RotatedAtoms>
  151.1767  133.4750  159.2593 H   0  0  0  0  0  0  0  0  0  0  0  0  # atno 6907 bound_to 6896
  151.1300  135.0125  159.8588 H   0  0  0  0  0  0  0  0  0  0  0  0  # atno 6908 bound_to 6896
  152.5459  134.1671  159.8634 H   0  0  0  0  0  0  0  0  0  0  0  0  # atno 6909 bound_to 6896
  146.0813  140.6063  142.8907 H   0  0  0  0  0  0  0  0  0  0  0  0  # atno 7974 bound_to 7965
  155.3541  140.0479  157.3046 H   0  0  0  0  0  0  0  0  0  0  0  0  # atno 8008 bound_to 7997
  154.5212  140.2225  155.8937 H   0  0  0  0  0  0  0  0  0  0  0  0  # atno 8009 bound_to 7997
  156.1691  140.3100  155.8947 H   0  0  0  0  0  0  0  0  0  0  0  0  # atno 8010 bound_to 7997
  140.7087  143.5857  150.8946 H   0  0  0  0  0  0  0  0  0  0  0  0  # atno 10167 bound_to 10162
  156.5375  130.8548  151.2737 H   0  0  0  0  0  0  0  0  0  0  0  0  # atno 10718 bound_to 10713
  153.6188  135.3417  155.3004 H   0  0  0  0  0  0  0  0  0  0  0  0  # atno 10763 bound_to 10752
  154.8604  135.4268  154.2230 H   0  0  0  0  0  0  0  0  0  0  0  0  # atno 10764 bound_to 10752
  153.3098  135.7031  153.7199 H   0  0  0  0  0  0  0  0  0  0  0  0  # atno 10765 bound_to 10752
  141.1637  133.7421  156.9073 H   0  0  0  0  0  0  0  0  0  0  0  0  # atno 11005 bound_to 11000
  144.7295  140.4628  143.6948 LP  0  0  0  0  0  0  0  0  0  0  0  0  # atno 17320 bound_to 7965
  145.6213  139.1524  143.3021 LP  0  0  0  0  0  0  0  0  0  0  0  0  # atno 17321 bound_to 7965
  139.9583  143.6193  152.3010 LP  0  0  0  0  0  0  0  0  0  0  0  0  # atno 17342 bound_to 10162
  139.6737  144.7660  151.1736 LP  0  0  0  0  0  0  0  0  0  0  0  0  # atno 17343 bound_to 10162
  157.7411  130.9863  150.2423 LP  0  0  0  0  0  0  0  0  0  0  0  0  # atno 17370 bound_to 10713
  156.3002  130.3757  149.7757 LP  0  0  0  0  0  0  0  0  0  0  0  0  # atno 17371 bound_to 10713
  140.1541  134.9210  157.2630 LP  0  0  0  0  0  0  0  0  0  0  0  0  # atno 17394 bound_to 11000
  140.2688  134.3484  155.7380 LP  0  0  0  0  0  0  0  0  0  0  0  0  # atno 17395 bound_to 11000

$$$$
