AV-unprocessed.smi:31|AV-procd|sdf|196|dock5
  -GOLD-   2262015463D 1   1.00000     0.00000
 Structure written by MMmdl.
 49 52  0  0  0  0  0  0  0  0  1 V2000
  150.3143  136.9690  159.9045 O   0  0  0  0  0  0  0  0  0  0  0  0
  149.6050  137.2885  158.9497 C   0  0  0  0  0  0  0  0  0  0  0  0
  148.6049  136.2848  158.3543 C   0  0  0  0  0  0  0  0  0  0  0  0
  148.0347  135.3536  159.3527 N   0  0  0  0  0  0  0  0  0  0  0  0
  148.3504  133.9752  159.2618 C   0  0  0  0  0  0  0  0  0  0  0  0
  149.0795  133.5444  158.3672 O   0  0  0  0  0  0  0  0  0  0  0  0
  147.7632  133.1252  160.2915 C   0  0  0  0  0  0  0  0  0  0  0  0
  148.0083  131.8040  160.2830 F   0  0  0  0  0  0  0  0  0  0  0  0
  146.9760  133.6442  161.2563 C   0  0  0  0  0  0  0  0  0  0  0  0
  146.6768  134.9928  161.3335 N   0  0  0  0  0  0  0  0  0  0  0  0
  145.7975  135.5609  162.4274 C   0  0  1  0  0  0  0  0  0  0  0  0
  144.6589  136.4040  161.8232 C   0  0  0  0  0  0  0  0  0  0  0  0
  143.4289  135.8415  162.5071 C   0  0  0  0  0  0  0  0  0  0  0  0
  143.8398  134.3970  162.7486 C   0  0  0  0  0  0  0  0  0  0  0  0
  145.1992  134.5197  163.1463 O   0  0  0  0  0  0  0  0  0  0  0  0
  147.2153  135.8821  160.3784 C   0  0  0  0  0  0  0  0  0  0  0  0
  146.9756  137.0902  160.4402 O   0  0  0  0  0  0  0  0  0  0  0  0
  149.6502  138.4813  158.3284 N   0  0  0  0  0  0  0  0  0  0  0  0
  150.4483  139.6199  158.6262 C   0  0  0  0  0  0  0  0  0  0  0  0
  151.6842  139.3867  159.2582 C   0  0  0  0  0  0  0  0  0  0  0  0
  152.5329  140.4605  159.5801 C   0  0  0  0  0  0  0  0  0  0  0  0
  152.1699  141.7863  159.2727 C   0  0  0  0  0  0  0  0  0  0  0  0
  150.9510  142.0276  158.5731 C   0  0  0  0  0  0  0  0  0  0  0  0
  150.0957  140.9454  158.2786 C   0  0  0  0  0  0  0  0  0  0  0  0
  150.5450  143.2674  158.1296 O   0  0  0  0  0  0  0  0  0  0  0  0
  151.5753  144.1463  157.7022 C   0  0  0  0  0  0  0  0  0  0  0  0
  152.1805  144.9057  158.8843 C   0  0  0  0  0  0  0  0  0  0  0  0
  152.4393  143.9999  160.0898 C   0  0  0  0  0  0  0  0  0  0  0  0
  153.0346  142.7733  159.6928 O   0  0  0  0  0  0  0  0  0  0  0  0
  147.8094  136.8347  157.8485 H   0  0  0  0  0  0  0  0  0  0  0  0
  149.1043  135.7457  157.5480 H   0  0  0  0  0  0  0  0  0  0  0  0
  146.5756  132.9610  161.9896 H   0  0  0  0  0  0  0  0  0  0  0  0
  146.4659  136.1175  163.0868 H   0  0  0  0  0  0  0  0  0  0  0  0
  144.8128  137.4662  162.0148 H   0  0  0  0  0  0  0  0  0  0  0  0
  144.6005  136.2425  160.7454 H   0  0  0  0  0  0  0  0  0  0  0  0
  143.2629  136.3473  163.4592 H   0  0  0  0  0  0  0  0  0  0  0  0
  142.5242  135.9346  161.9061 H   0  0  0  0  0  0  0  0  0  0  0  0
  143.2395  133.9081  163.5160 H   0  0  0  0  0  0  0  0  0  0  0  0
  143.7668  133.8147  161.8289 H   0  0  0  0  0  0  0  0  0  0  0  0
  149.0709  138.5668  157.5061 H   0  0  0  0  0  0  0  0  0  0  0  0
  151.9821  138.3802  159.5145 H   0  0  0  0  0  0  0  0  0  0  0  0
  153.4644  140.2659  160.0912 H   0  0  0  0  0  0  0  0  0  0  0  0
  149.1825  141.1573  157.7447 H   0  0  0  0  0  0  0  0  0  0  0  0
  152.3463  143.5951  157.1600 H   0  0  0  0  0  0  0  0  0  0  0  0
  151.1553  144.8549  156.9883 H   0  0  0  0  0  0  0  0  0  0  0  0
  153.1112  145.3741  158.5637 H   0  0  0  0  0  0  0  0  0  0  0  0
  151.5163  145.7155  159.1871 H   0  0  0  0  0  0  0  0  0  0  0  0
  153.1095  144.5024  160.7874 H   0  0  0  0  0  0  0  0  0  0  0  0
  151.5158  143.8144  160.6413 H   0  0  0  0  0  0  0  0  0  0  0  0
  1  2  2  0  0  0  0
  2  3  1  0  0  0  0
  2 18  1  0  0  0  0
  3  4  1  0  0  0  0
  3 30  1  0  0  0  0
  3 31  1  0  0  0  0
  4 16  1  0  0  0  0
  4  5  1  0  0  0  0
  5  6  2  0  0  0  0
  5  7  1  0  0  0  0
  7  8  1  0  0  0  0
  7  9  2  0  0  0  0
  9 10  1  0  0  0  0
  9 32  1  0  0  0  0
 10 11  1  0  0  0  0
 10 16  1  0  0  0  0
 11 15  1  0  0  0  0
 11 12  1  0  0  0  0
 11 33  1  0  0  0  0
 12 13  1  0  0  0  0
 12 34  1  0  0  0  0
 12 35  1  0  0  0  0
 13 14  1  0  0  0  0
 13 36  1  0  0  0  0
 13 37  1  0  0  0  0
 14 15  1  0  0  0  0
 14 38  1  0  0  0  0
 14 39  1  0  0  0  0
 16 17  2  0  0  0  0
 18 19  1  0  0  0  0
 18 40  1  0  0  0  0
 19 24  1  0  0  0  0
 19 20  2  0  0  0  0
 20 21  1  0  0  0  0
 20 41  1  0  0  0  0
 21 22  2  0  0  0  0
 21 42  1  0  0  0  0
 22 29  1  0  0  0  0
 22 23  1  0  0  0  0
 23 24  2  0  0  0  0
 23 25  1  0  0  0  0
 24 43  1  0  0  0  0
 25 26  1  0  0  0  0
 26 27  1  0  0  0  0
 26 44  1  0  0  0  0
 26 45  1  0  0  0  0
 27 28  1  0  0  0  0
 27 46  1  0  0  0  0
 27 47  1  0  0  0  0
 28 29  1  0  0  0  0
 28 48  1  0  0  0  0
 28 49  1  0  0  0  0
M  END
> <s_m_source_file>
AV-unprocessed.smi

> <i_m_source_file_index>
31

> <i_lp_mmshare_version>
43012

> <i_f3d_flags>
0

> <s_epik_input>
TzFbQ0gyXVtDSDJdW0NIMl1PYyhjMTIpW2NIXWMoW2NIXVtjSF0yKVtOSF1DKD1PKVtDSDJdbjNjKD1PKWMoRilbY0hdbihjMz1PKVtDQEBIXTRbQ0gyXVtDSDJdW0NIMl1PNA==

> <s_epik_cmdline>
J2VwaWtfcHl0aG9uJywgJy1waCcsICc3LjAnLCAnLXRuJywgJzgnLCAnLW1hJywgJzIwMCcsICctbWV0YWxfYmluZGluZycsICctaW1hZScsICc8aW5maWxlLm1hZT4nLCAnLW9tYWUnLCAnPG91dGZpbGUubWFlPic=

> <r_lp_tautomer_probability>
1

> <r_epik_Ionization_Penalty>
1.0483e-05

> <r_epik_Ionization_Penalty_Charging>
3.88729e-08

> <r_epik_Ionization_Penalty_Neutral>
1.04441e-05

> <r_epik_State_Penalty>
-0

> <r_epik_Charging_Adjusted_Penalty>
3.88729e-08

> <i_epik_Tot_Q>
0

> <i_epik_Tot_abs_Q>
0

> <r_epik_Metal_State_Penalty>
-0

> <b_epik_Metal_Only>
0

> <s_epik_Chemistry_Notes>
This compound contains an acetal/aminal-like group ( X-CH(R)-Y where X, Y are N, S, or O) that may be acid/base labile, releasing an aldehyde.

> <s_lp_Force_Field>
OPLS_2005

> <r_lp_Energy>
46.1803

> <b_lp_Chiralities_Consistent>
1

> <s_lp_Variant>
AV-unprocessed.smi:31-2

> <Gold.Version>
5.8.1

> <Gold.Id.Protein>
6NUR|6NUR_protein|mol2

> <Gold.PLP.Fitness>
55.8604

> <Gold.PLP.PLP>
-48.5270

> <Gold.PLP.part.hbond>
-4.3163

> <Gold.PLP.part.metal>
0.0000

> <Gold.PLP.part.buried>
-8.2113

> <Gold.PLP.part.nonpolar>
-38.9904

> <Gold.PLP.part.repulsive>
0.3360

> <Gold.PLP.ligand.clash>
0.0000

> <Gold.PLP.ligand.torsion>
0.6893

> <Gold.PLP.Chemscore.Hbond>
2.9000

> <Gold.PLP.Chemscore.CHOScore>
0.0000

> <Gold.PLP.Chemscore.Metal>
0.0000

> <Gold.Chemscore.Hbonds>
donor molecule, donor type, donor heavy atom, donor atom, acceptor molecule, acceptor atom, score
      P1  H  6896  6908       L1     6  0.98
      P1  H  6896  6909       L1     1  0.84
      P1  H  6934  6947       L1    17  1.00

> <Gold.PLP.Chemscore.Internal.Correction>
0.0120

> <Gold.Rescore>
     Score         DG    S(hbond)    S(metal)    S(lipo)     H(rot)  DE(clash)    DE(int)     intcor
     19.13     -22.45       2.70        0.00     103.99       1.64       0.03       3.28       ----

> <Gold.Chemscore.Fitness>
19.1312

> <Gold.Chemscore.DG>
-22.4486

> <Gold.Chemscore.ZeroCoef>
-5.4800

> <Gold.Chemscore.Hbond>
2.6968

> <Gold.Chemscore.Metal>
0.0000

> <Gold.Chemscore.Lipo>
103.9891

> <Gold.Chemscore.Internal_Hbond>
0.0000

> <Gold.Chemscore.DEClash>
0.0331

> <Gold.Chemscore.DEInternal>
3.2843

> <Gold.Chemscore.Rot>
1.6427

> <Gold.Chemscore.Internal.Correction>
   9.000000E+99

> <Gold.Chemscore.Hbonds>
donor molecule, donor type, donor heavy atom, donor atom, acceptor molecule, acceptor atom, score
      P1  H  6896  6908       L1     6  0.26
      P1  H  6896  6909       L1     1  0.82
      P1  H  6934  6947       L1    17  0.96

> <Gold.Chemscore.Hbond.Weighted>
-9.0072

> <Gold.Chemscore.Metal.Weighted>
-0.0000

> <Gold.Chemscore.Lipo.Weighted>
-12.1667

> <Gold.Chemscore.Internal_Hbond.Weighted>
0.0000

> <Gold.Chemscore.DEClash.Weighted>
0.0331

> <Gold.Chemscore.DEInternal.Weighted>
3.2843

> <Gold.Chemscore.Rot.Weighted>
4.2053

> <Gold.Chemscore.Internal.Correction.Weighted>
   9.000000E+99

> <Gold.Protein.RotatedTorsions>
[ 6907 6896 6895 6894 ] final  108.65 input  -60.11 | X-H torsion
[ 7974 7965 7964 7962 ] final  -59.10 input  175.53 | X-H torsion
[ 8008 7997 7996 7995 ] final   35.56 input   59.86 | X-H torsion
[ 10167 10162 10161 10158 ] final -130.03 input  -65.29 | X-H torsion
[ 10718 10713 10712 10709 ] final  -52.21 input   66.30 | X-H torsion
[ 10763 10752 10751 10750 ] final   27.68 input  -60.55 | X-H torsion
[ 11005 11000 10999 10996 ] final   39.09 input  -57.11 | X-H torsion

> <Gold.Protein.ActiveResidues>
 VAL166  LYS551  ARG553  GLY616  TRP617  ASP618  TYR619  PRO620  LYS621  CYS622 
 ASP623  PHE694  ASN695  SER759  ASP760  ASP761  ALA762  ILE779  LEU786  VAL792 
 PHE793  MET794  SER795  GLU796  ALA797  LYS798  CYS799  TRP800  GLU811  SER814 

> <Gold.Protein.RotatedAtoms>
  152.5102  133.9058  159.7463 H   0  0  0  0  0  0  0  0  0  0  0  0  # atno 6907 bound_to 6896
  150.9463  133.6591  159.2787 H   0  0  0  0  0  0  0  0  0  0  0  0  # atno 6908 bound_to 6896
  151.3885  135.0957  159.9571 H   0  0  0  0  0  0  0  0  0  0  0  0  # atno 6909 bound_to 6896
  145.8315  140.8476  143.0081 H   0  0  0  0  0  0  0  0  0  0  0  0  # atno 7974 bound_to 7965
  155.1731  140.3293  155.4389 H   0  0  0  0  0  0  0  0  0  0  0  0  # atno 8008 bound_to 7997
  156.2503  140.1940  156.6783 H   0  0  0  0  0  0  0  0  0  0  0  0  # atno 8009 bound_to 7997
  154.6324  140.0581  156.9734 H   0  0  0  0  0  0  0  0  0  0  0  0  # atno 8010 bound_to 7997
  139.9336  143.6244  152.2523 H   0  0  0  0  0  0  0  0  0  0  0  0  # atno 10167 bound_to 10162
  156.1641  130.4149  149.9747 H   0  0  0  0  0  0  0  0  0  0  0  0  # atno 10718 bound_to 10713
  153.0540  135.6531  154.0623 H   0  0  0  0  0  0  0  0  0  0  0  0  # atno 10763 bound_to 10752
  154.0306  135.2912  155.3370 H   0  0  0  0  0  0  0  0  0  0  0  0  # atno 10764 bound_to 10752
  154.6844  135.5307  153.8374 H   0  0  0  0  0  0  0  0  0  0  0  0  # atno 10765 bound_to 10752
  140.2062  134.3811  155.8071 H   0  0  0  0  0  0  0  0  0  0  0  0  # atno 11005 bound_to 11000
  144.6739  140.0679  143.7474 LP  0  0  0  0  0  0  0  0  0  0  0  0  # atno 17320 bound_to 7965
  145.9565  139.2770  143.1181 LP  0  0  0  0  0  0  0  0  0  0  0  0  # atno 17321 bound_to 7965
  139.6762  144.7658  151.1692 LP  0  0  0  0  0  0  0  0  0  0  0  0  # atno 17342 bound_to 10162
  140.7631  143.5791  150.8913 LP  0  0  0  0  0  0  0  0  0  0  0  0  # atno 17343 bound_to 10162
  156.7567  130.9135  151.3640 LP  0  0  0  0  0  0  0  0  0  0  0  0  # atno 17370 bound_to 10713
  157.6755  130.9090  150.0140 LP  0  0  0  0  0  0  0  0  0  0  0  0  # atno 17371 bound_to 10713
  141.2227  133.7119  156.8341 LP  0  0  0  0  0  0  0  0  0  0  0  0  # atno 17394 bound_to 11000
  140.2000  134.8903  157.3159 LP  0  0  0  0  0  0  0  0  0  0  0  0  # atno 17395 bound_to 11000

$$$$
