AV-unprocessed.smi:407|AV-procd|sdf|2501|dock1
  -GOLD-   2262022443D 1   1.00000     0.00000
 Structure written by MMmdl.
 45 47  0  0  0  0  0  0  0  0  1 V2000
  152.0904  145.7057  160.0898 C   0  0  0  0  0  0  0  0  0  0  0  0
  151.6900  144.6426  159.0681 C   0  0  0  0  0  0  0  0  0  0  0  0
  150.9798  144.9732  158.1190 O   0  0  0  0  0  0  0  0  0  0  0  0
  152.1828  143.2522  159.2815 C   0  0  0  0  0  0  0  0  0  0  0  0
  151.8443  142.2444  158.3513 C   0  0  0  0  0  0  0  0  0  0  0  0
  152.2961  140.9232  158.5301 C   0  0  0  0  0  0  0  0  0  0  0  0
  153.0942  140.5758  159.6374 C   0  0  0  0  0  0  0  0  0  0  0  0
  153.4891  139.2591  159.7364 O   0  0  0  0  0  0  0  0  0  0  0  0
  154.0027  138.8005  160.9803 C   0  0  0  0  0  0  0  0  0  0  0  0
  154.4472  137.3369  160.8222 C   0  0  2  0  0  0  0  0  0  0  0  0
  153.3162  136.5972  160.4061 O   0  0  0  0  0  0  0  0  0  0  0  0
  154.9355  136.7378  162.1568 C   0  0  0  0  0  0  0  0  0  0  0  0
  155.1165  135.2891  162.0679 N   0  0  0  0  0  0  0  0  0  0  0  0
  155.4804  134.5887  160.9672 C   0  0  0  0  0  0  0  0  0  0  0  0
  155.7229  135.0636  159.8579 O   0  0  0  0  0  0  0  0  0  0  0  0
  155.5280  133.2779  161.3010 N   0  0  0  0  0  0  0  0  0  0  0  0
  155.8744  132.1628  160.4283 C   0  0  0  0  0  0  0  0  0  0  0  0
  155.1895  133.1349  162.6523 C   0  0  0  0  0  0  0  0  0  0  0  0
  155.0972  131.9912  163.4637 C   0  0  0  0  0  0  0  0  0  0  0  0
  154.7180  132.1854  164.8127 C   0  0  0  0  0  0  0  0  0  0  0  0
  154.4449  133.4859  165.3108 C   0  0  0  0  0  0  0  0  0  0  0  0
  154.5469  134.6202  164.4715 C   0  0  0  0  0  0  0  0  0  0  0  0
  154.9279  134.3996  163.1361 C   0  0  0  0  0  0  0  0  0  0  0  0
  153.4390  141.5853  160.5694 C   0  0  0  0  0  0  0  0  0  0  0  0
  152.9880  142.9078  160.3921 C   0  0  0  0  0  0  0  0  0  0  0  0
  151.7519  145.4240  161.0870 H   0  0  0  0  0  0  0  0  0  0  0  0
  151.6406  146.6661  159.8368 H   0  0  0  0  0  0  0  0  0  0  0  0
  153.1733  145.8308  160.1071 H   0  0  0  0  0  0  0  0  0  0  0  0
  151.2325  142.4725  157.4903 H   0  0  0  0  0  0  0  0  0  0  0  0
  152.0246  140.1666  157.8086 H   0  0  0  0  0  0  0  0  0  0  0  0
  154.8648  139.4176  161.2389 H   0  0  0  0  0  0  0  0  0  0  0  0
  153.2697  138.8985  161.7834 H   0  0  0  0  0  0  0  0  0  0  0  0
  155.2338  137.2747  160.0687 H   0  0  0  0  0  0  0  0  0  0  0  0
  152.7834  137.1497  159.8550 H   0  0  0  0  0  0  0  0  0  0  0  0
  155.9006  137.1717  162.4230 H   0  0  0  0  0  0  0  0  0  0  0  0
  154.2636  136.9998  162.9748 H   0  0  0  0  0  0  0  0  0  0  0  0
  155.1376  131.3644  160.5213 H   0  0  0  0  0  0  0  0  0  0  0  0
  156.8505  131.7618  160.7018 H   0  0  0  0  0  0  0  0  0  0  0  0
  155.9110  132.4611  159.3796 H   0  0  0  0  0  0  0  0  0  0  0  0
  155.3052  131.0046  163.0766 H   0  0  0  0  0  0  0  0  0  0  0  0
  154.6343  131.3335  165.4714 H   0  0  0  0  0  0  0  0  0  0  0  0
  154.1556  133.6114  166.3437 H   0  0  0  0  0  0  0  0  0  0  0  0
  154.3381  135.6110  164.8468 H   0  0  0  0  0  0  0  0  0  0  0  0
  154.0509  141.3713  161.4324 H   0  0  0  0  0  0  0  0  0  0  0  0
  153.2750  143.6456  161.1263 H   0  0  0  0  0  0  0  0  0  0  0  0
  1  2  1  0  0  0  0
  1 26  1  0  0  0  0
  1 27  1  0  0  0  0
  1 28  1  0  0  0  0
  2  3  2  0  0  0  0
  2  4  1  0  0  0  0
  4 25  1  0  0  0  0
  4  5  2  0  0  0  0
  5  6  1  0  0  0  0
  5 29  1  0  0  0  0
  6  7  2  0  0  0  0
  6 30  1  0  0  0  0
  7  8  1  0  0  0  0
  7 24  1  0  0  0  0
  8  9  1  0  0  0  0
  9 10  1  0  0  0  0
  9 31  1  0  0  0  0
  9 32  1  0  0  0  0
 10 11  1  0  0  0  0
 10 12  1  0  0  0  0
 10 33  1  0  0  0  0
 11 34  1  0  0  0  0
 12 13  1  0  0  0  0
 12 35  1  0  0  0  0
 12 36  1  0  0  0  0
 13 23  1  0  0  0  0
 13 14  1  0  0  0  0
 14 15  2  0  0  0  0
 14 16  1  0  0  0  0
 16 17  1  0  0  0  0
 16 18  1  0  0  0  0
 17 37  1  0  0  0  0
 17 38  1  0  0  0  0
 17 39  1  0  0  0  0
 18 23  2  0  0  0  0
 18 19  1  0  0  0  0
 19 20  2  0  0  0  0
 19 40  1  0  0  0  0
 20 21  1  0  0  0  0
 20 41  1  0  0  0  0
 21 22  2  0  0  0  0
 21 42  1  0  0  0  0
 22 23  1  0  0  0  0
 22 43  1  0  0  0  0
 24 25  2  0  0  0  0
 24 44  1  0  0  0  0
 25 45  1  0  0  0  0
M  END
> <s_m_source_file>
AV-unprocessed.smi

> <i_m_source_file_index>
407

> <i_lp_mmshare_version>
43012

> <i_f3d_flags>
0

> <s_epik_input>
W0NIM11DKD1PKWMxW2NIXVtjSF1jKFtjSF1bY0hdMSlPW0NIMl1bQ0BIXShbT0hdKVtDSDJdbihjKD1PKW4yW0NIM10pYyhjMjMpW2NIXVtjSF1bY0hdW2NIXTM=

> <s_epik_cmdline>
J2VwaWtfcHl0aG9uJywgJy1waCcsICc3LjAnLCAnLXRuJywgJzgnLCAnLW1hJywgJzIwMCcsICctbWV0YWxfYmluZGluZycsICctaW1hZScsICc8aW5maWxlLm1hZT4nLCAnLW9tYWUnLCAnPG91dGZpbGUubWFlPic=

> <r_lp_tautomer_probability>
1

> <r_epik_Ionization_Penalty>
2.40123e-06

> <r_epik_Ionization_Penalty_Charging>
1.9356e-09

> <r_epik_Ionization_Penalty_Neutral>
2.3993e-06

> <r_epik_State_Penalty>
-0

> <r_epik_Charging_Adjusted_Penalty>
1.9356e-09

> <i_epik_Tot_Q>
0

> <i_epik_Tot_abs_Q>
0

> <r_epik_Metal_State_Penalty>
-0

> <b_epik_Metal_Only>
0

> <s_lp_Force_Field>
OPLS_2005

> <r_lp_Energy>
53.6429

> <b_lp_Chiralities_Consistent>
1

> <s_lp_Variant>
AV-unprocessed.smi:407-1

> <Gold.Version>
5.8.1

> <Gold.Id.Protein>
6NUR|6NUR_protein|mol2

> <Gold.PLP.Fitness>
50.0029

> <Gold.PLP.PLP>
-48.1562

> <Gold.PLP.part.hbond>
-1.0000

> <Gold.PLP.part.metal>
0.0000

> <Gold.PLP.part.buried>
-4.4762

> <Gold.PLP.part.nonpolar>
-43.7806

> <Gold.PLP.part.repulsive>
0.1878

> <Gold.PLP.ligand.clash>
0.0000

> <Gold.PLP.ligand.torsion>
0.6213

> <Gold.PLP.Chemscore.Hbond>
1.0000

> <Gold.PLP.Chemscore.CHOScore>
0.0000

> <Gold.PLP.Chemscore.Metal>
0.0000

> <Gold.Chemscore.Hbonds>
donor molecule, donor type, donor heavy atom, donor atom, acceptor molecule, acceptor atom, score
      P1  H  6896  6908       L1    11  0.79

> <Gold.PLP.Chemscore.Internal.Correction>
0.0893

> <Gold.Rescore>
     Score         DG    S(hbond)    S(metal)    S(lipo)     H(rot)  DE(clash)    DE(int)     intcor
     14.21     -16.15       0.73        0.00     120.69       2.30       0.04       1.90       ----

> <Gold.Chemscore.Fitness>
14.2092

> <Gold.Chemscore.DG>
-16.1471

> <Gold.Chemscore.ZeroCoef>
-5.4800

> <Gold.Chemscore.Hbond>
0.7277

> <Gold.Chemscore.Metal>
0.0000

> <Gold.Chemscore.Lipo>
120.6882

> <Gold.Chemscore.Internal_Hbond>
0.0000

> <Gold.Chemscore.DEClash>
0.0350

> <Gold.Chemscore.DEInternal>
1.9029

> <Gold.Chemscore.Rot>
2.2984

> <Gold.Chemscore.Internal.Correction>
   9.000000E+99

> <Gold.Chemscore.Hbonds>
donor molecule, donor type, donor heavy atom, donor atom, acceptor molecule, acceptor atom, score
      P1  H  6896  6908       L1    11  0.11

> <Gold.Chemscore.Hbond.Weighted>
-2.4304

> <Gold.Chemscore.Metal.Weighted>
-0.0000

> <Gold.Chemscore.Lipo.Weighted>
-14.1205

> <Gold.Chemscore.Internal_Hbond.Weighted>
0.0000

> <Gold.Chemscore.DEClash.Weighted>
0.0350

> <Gold.Chemscore.DEInternal.Weighted>
1.9029

> <Gold.Chemscore.Rot.Weighted>
5.8839

> <Gold.Chemscore.Internal.Correction.Weighted>
   9.000000E+99

> <Gold.Protein.RotatedTorsions>
[ 6907 6896 6895 6894 ] final  -74.90 input  -60.11 | X-H torsion
[ 7974 7965 7964 7962 ] final  -34.46 input  175.53 | X-H torsion
[ 8008 7997 7996 7995 ] final   72.59 input   59.86 | X-H torsion
[ 10167 10162 10161 10158 ] final  151.83 input  -65.29 | X-H torsion
[ 10718 10713 10712 10709 ] final -172.54 input   66.30 | X-H torsion
[ 10763 10752 10751 10750 ] final -129.47 input  -60.55 | X-H torsion
[ 11005 11000 10999 10996 ] final   11.02 input  -57.11 | X-H torsion

> <Gold.Protein.ActiveResidues>
 VAL166  LYS551  ARG553  GLY616  TRP617  ASP618  TYR619  PRO620  LYS621  CYS622 
 ASP623  PHE694  ASN695  SER759  ASP760  ASP761  ALA762  ILE779  LEU786  VAL792 
 PHE793  MET794  SER795  GLU796  ALA797  LYS798  CYS799  TRP800  GLU811  SER814 

> <Gold.Protein.RotatedAtoms>
  150.7077  134.4800  159.5465 H   0  0  0  0  0  0  0  0  0  0  0  0  # atno 6907 bound_to 6896
  152.2439  134.8198  160.0465 H   0  0  0  0  0  0  0  0  0  0  0  0  # atno 6908 bound_to 6896
  151.8970  133.3494  159.3854 H   0  0  0  0  0  0  0  0  0  0  0  0  # atno 6909 bound_to 6896
  146.0827  140.6041  142.8900 H   0  0  0  0  0  0  0  0  0  0  0  0  # atno 7974 bound_to 7965
  155.7711  140.3484  155.5247 H   0  0  0  0  0  0  0  0  0  0  0  0  # atno 8008 bound_to 7997
  155.8820  140.1004  157.1499 H   0  0  0  0  0  0  0  0  0  0  0  0  # atno 8009 bound_to 7997
  154.4025  140.1320  156.4196 H   0  0  0  0  0  0  0  0  0  0  0  0  # atno 8010 bound_to 7997
  139.4837  144.5408  151.7567 H   0  0  0  0  0  0  0  0  0  0  0  0  # atno 10167 bound_to 10162
  156.7571  130.9399  151.3116 H   0  0  0  0  0  0  0  0  0  0  0  0  # atno 10718 bound_to 10713
  154.8757  135.3894  154.3925 H   0  0  0  0  0  0  0  0  0  0  0  0  # atno 10763 bound_to 10752
  153.4659  135.7029  153.6027 H   0  0  0  0  0  0  0  0  0  0  0  0  # atno 10764 bound_to 10752
  153.4506  135.3835  155.2249 H   0  0  0  0  0  0  0  0  0  0  0  0  # atno 10765 bound_to 10752
  140.5079  134.0681  155.7810 H   0  0  0  0  0  0  0  0  0  0  0  0  # atno 11005 bound_to 11000
  144.7304  140.4655  143.6942 LP  0  0  0  0  0  0  0  0  0  0  0  0  # atno 17320 bound_to 7965
  145.6187  139.1521  143.3035 LP  0  0  0  0  0  0  0  0  0  0  0  0  # atno 17321 bound_to 7965
  140.4947  144.1258  150.5957 LP  0  0  0  0  0  0  0  0  0  0  0  0  # atno 17342 bound_to 10162
  140.4131  143.2647  151.9809 LP  0  0  0  0  0  0  0  0  0  0  0  0  # atno 17343 bound_to 10162
  157.6751  130.9087  150.0132 LP  0  0  0  0  0  0  0  0  0  0  0  0  # atno 17370 bound_to 10713
  156.1363  130.3642  149.9651 LP  0  0  0  0  0  0  0  0  0  0  0  0  # atno 17371 bound_to 10713
  141.1401  133.9153  157.2345 LP  0  0  0  0  0  0  0  0  0  0  0  0  # atno 17394 bound_to 11000
  139.9676  135.0137  156.9427 LP  0  0  0  0  0  0  0  0  0  0  0  0  # atno 17395 bound_to 11000

$$$$
