AV-unprocessed.smi:168|AV-procd|sdf|1397|dock10
  -GOLD-   2262019143D 1   1.00000     0.00000
 Structure written by MMmdl.
 62 66  0  0  0  0  0  0  0  0  1 V2000
  150.1236  138.2892  158.3883 C   0  0  0  0  0  0  0  0  0  0  0  0
  148.7598  138.5571  157.7362 C   0  0  0  0  0  0  0  0  0  0  0  0
  147.6665  137.7435  158.4641 C   0  0  0  0  0  0  0  0  0  0  0  0
  148.8276  138.3934  156.1938 C   0  0  1  0  0  0  0  0  0  0  0  0
  147.5949  138.8549  155.5502 N   0  0  0  0  0  0  0  0  0  0  0  0
  146.9876  137.9696  154.5989 C   0  0  0  0  0  0  0  0  0  0  0  0
  146.0131  138.4534  153.7810 N   0  0  0  0  0  0  0  0  0  0  0  0
  145.3963  137.6753  152.8884 C   0  0  0  0  0  0  0  0  0  0  0  0
  145.5816  136.3788  152.6476 N   0  0  0  0  0  0  0  0  0  0  0  0
  146.5363  135.8632  153.4710 C   0  0  0  0  0  0  0  0  0  0  0  0
  147.2696  136.5753  154.4658 C   0  0  0  0  0  0  0  0  0  0  0  0
  148.1262  135.6973  155.1197 N   0  0  0  0  0  0  0  0  0  0  0  0
  147.9152  134.5444  154.5487 C   0  0  0  0  0  0  0  0  0  0  0  0
  146.9971  134.5588  153.5253 N   0  0  0  0  0  0  0  0  0  0  0  0
  146.5457  133.4298  152.7646 C   0  0  0  0  0  0  0  0  0  0  0  0
  146.5797  133.4451  151.2331 C   0  0  0  0  0  0  0  0  0  0  0  0
  145.2576  132.6473  151.1819 C   0  0  0  0  0  0  0  0  0  0  0  0
  144.2043  133.1890  150.2032 C   0  0  0  0  0  0  0  0  0  0  0  0
  142.9586  132.5441  150.3764 O   0  0  0  0  0  0  0  0  0  0  0  0
  145.3603  131.1244  150.9411 C   0  0  0  0  0  0  0  0  0  0  0  0
  146.3997  130.5107  151.6756 O   0  0  0  0  0  0  0  0  0  0  0  0
  145.0554  133.0953  152.6471 C   0  0  0  0  0  0  0  0  0  0  0  0
  148.2508  140.0434  155.0074 C   0  0  0  0  0  0  0  0  0  0  0  0
  149.6032  139.3640  155.2621 C   0  0  0  0  0  0  0  0  0  0  0  0
  150.2332  138.7216  154.0060 C   0  0  0  0  0  0  0  0  0  0  0  0
  151.4992  137.9037  154.3101 C   0  0  0  0  0  0  0  0  0  0  0  0
  152.5651  138.7725  154.9860 C   0  0  0  0  0  0  0  0  0  0  0  0
  151.9933  139.4790  156.2199 C   0  0  0  0  0  0  0  0  0  0  0  0
  150.7059  140.2508  155.8770 C   0  0  0  0  0  0  0  0  0  0  0  0
  150.4188  137.2460  158.2720 H   0  0  0  0  0  0  0  0  0  0  0  0
  150.0995  138.5086  159.4561 H   0  0  0  0  0  0  0  0  0  0  0  0
  150.9019  138.9113  157.9460 H   0  0  0  0  0  0  0  0  0  0  0  0
  148.5454  139.6044  157.9440 H   0  0  0  0  0  0  0  0  0  0  0  0
  147.8398  136.6705  158.3783 H   0  0  0  0  0  0  0  0  0  0  0  0
  146.6667  137.9483  158.0889 H   0  0  0  0  0  0  0  0  0  0  0  0
  147.6571  137.9806  159.5283 H   0  0  0  0  0  0  0  0  0  0  0  0
  149.0944  137.3742  155.9183 H   0  0  0  0  0  0  0  0  0  0  0  0
  144.6474  138.1621  152.2814 H   0  0  0  0  0  0  0  0  0  0  0  0
  148.4307  133.6477  154.8608 H   0  0  0  0  0  0  0  0  0  0  0  0
  147.1006  132.5744  153.1516 H   0  0  0  0  0  0  0  0  0  0  0  0
  146.4784  134.4522  150.8249 H   0  0  0  0  0  0  0  0  0  0  0  0
  147.4394  132.9344  150.7982 H   0  0  0  0  0  0  0  0  0  0  0  0
  144.0658  134.2636  150.3267 H   0  0  0  0  0  0  0  0  0  0  0  0
  144.5160  133.0357  149.1696 H   0  0  0  0  0  0  0  0  0  0  0  0
  142.2859  133.2042  150.4439 H   0  0  0  0  0  0  0  0  0  0  0  0
  144.4276  130.6283  151.2109 H   0  0  0  0  0  0  0  0  0  0  0  0
  145.5354  130.9046  149.8877 H   0  0  0  0  0  0  0  0  0  0  0  0
  147.1798  130.5034  151.1424 H   0  0  0  0  0  0  0  0  0  0  0  0
  144.7184  132.3104  153.3251 H   0  0  0  0  0  0  0  0  0  0  0  0
  144.4257  133.9818  152.7395 H   0  0  0  0  0  0  0  0  0  0  0  0
  148.0689  140.2819  153.9596 H   0  0  0  0  0  0  0  0  0  0  0  0
  148.0806  140.9170  155.6364 H   0  0  0  0  0  0  0  0  0  0  0  0
  149.5166  138.0713  153.5049 H   0  0  0  0  0  0  0  0  0  0  0  0
  150.4760  139.4950  153.2762 H   0  0  0  0  0  0  0  0  0  0  0  0
  151.2484  137.0609  154.9552 H   0  0  0  0  0  0  0  0  0  0  0  0
  151.8977  137.4789  153.3886 H   0  0  0  0  0  0  0  0  0  0  0  0
  153.4262  138.1646  155.2647 H   0  0  0  0  0  0  0  0  0  0  0  0
  152.9276  139.5181  154.2773 H   0  0  0  0  0  0  0  0  0  0  0  0
  151.7920  138.7420  156.9969 H   0  0  0  0  0  0  0  0  0  0  0  0
  152.7370  140.1623  156.6310 H   0  0  0  0  0  0  0  0  0  0  0  0
  150.9548  141.0561  155.1845 H   0  0  0  0  0  0  0  0  0  0  0  0
  150.3542  140.7540  156.7744 H   0  0  0  0  0  0  0  0  0  0  0  0
  1  2  1  0  0  0  0
  1 30  1  0  0  0  0
  1 31  1  0  0  0  0
  1 32  1  0  0  0  0
  2  3  1  0  0  0  0
  2  4  1  0  0  0  0
  2 33  1  0  0  0  0
  3 34  1  0  0  0  0
  3 35  1  0  0  0  0
  3 36  1  0  0  0  0
  4 24  1  0  0  0  0
  4  5  1  0  0  0  0
  4 37  1  0  0  0  0
  5  6  1  0  0  0  0
  5 23  1  0  0  0  0
  6 11  1  0  0  0  0
  6  7  2  0  0  0  0
  7  8  1  0  0  0  0
  8  9  2  0  0  0  0
  8 38  1  0  0  0  0
  9 10  1  0  0  0  0
 10 14  1  0  0  0  0
 10 11  2  0  0  0  0
 11 12  1  0  0  0  0
 12 13  2  0  0  0  0
 13 14  1  0  0  0  0
 13 39  1  0  0  0  0
 14 15  1  0  0  0  0
 15 22  1  0  0  0  0
 15 16  1  0  0  0  0
 15 40  1  0  0  0  0
 16 17  1  0  0  0  0
 16 41  1  0  0  0  0
 16 42  1  0  0  0  0
 17 18  1  0  0  0  0
 17 20  1  0  0  0  0
 17 22  1  0  0  0  0
 18 19  1  0  0  0  0
 18 43  1  0  0  0  0
 18 44  1  0  0  0  0
 19 45  1  0  0  0  0
 20 21  1  0  0  0  0
 20 46  1  0  0  0  0
 20 47  1  0  0  0  0
 21 48  1  0  0  0  0
 22 49  1  0  0  0  0
 22 50  1  0  0  0  0
 23 24  1  0  0  0  0
 23 51  1  0  0  0  0
 23 52  1  0  0  0  0
 24 29  1  0  0  0  0
 24 25  1  0  0  0  0
 25 26  1  0  0  0  0
 25 53  1  0  0  0  0
 25 54  1  0  0  0  0
 26 27  1  0  0  0  0
 26 55  1  0  0  0  0
 26 56  1  0  0  0  0
 27 28  1  0  0  0  0
 27 57  1  0  0  0  0
 27 58  1  0  0  0  0
 28 29  1  0  0  0  0
 28 59  1  0  0  0  0
 28 60  1  0  0  0  0
 29 61  1  0  0  0  0
 29 62  1  0  0  0  0
M  END
> <s_m_source_file>
AV-unprocessed.smi

> <i_m_source_file_index>
168

> <i_lp_mmshare_version>
43012

> <i_f3d_flags>
0

> <s_epik_input>
W0NIMl0xW0NIMl1bQ0gyXVtDSDJdW0NIMl1DMTJbQ0BIXShbQ0hdKFtDSDNdKVtDSDNdKU4oW0NIMl0yKWMobltjSF1uMyljKGMzNCluW2NIXW40W0NIXShbQ0gyXTUpW0NIMl1DNShbQ0gyXVtPSF0pW0NIMl1bT0hd

> <s_epik_cmdline>
J2VwaWtfcHl0aG9uJywgJy1waCcsICc3LjAnLCAnLXRuJywgJzgnLCAnLW1hJywgJzIwMCcsICctbWV0YWxfYmluZGluZycsICctaW1hZScsICc8aW5maWxlLm1hZT4nLCAnLW9tYWUnLCAnPG91dGZpbGUubWFlPic=

> <r_lp_tautomer_probability>
1

> <r_epik_Ionization_Penalty>
0.00324652

> <r_epik_Ionization_Penalty_Charging>
0

> <r_epik_Ionization_Penalty_Neutral>
0.00324652

> <r_epik_State_Penalty>
0.00223464

> <r_epik_Charging_Adjusted_Penalty>
0.00223464

> <i_epik_Tot_Q>
0

> <i_epik_Tot_abs_Q>
0

> <r_epik_Metal_State_Penalty>
-0

> <b_epik_Metal_Only>
0

> <s_lp_Force_Field>
OPLS_2005

> <r_lp_Energy>
69.202

> <b_lp_Chiralities_Consistent>
1

> <s_lp_Variant>
AV-unprocessed.smi:168-2

> <Gold.Version>
5.8.1

> <Gold.Id.Protein>
6NUR|6NUR_protein|mol2

> <Gold.PLP.Fitness>
47.4317

> <Gold.PLP.PLP>
-35.9205

> <Gold.PLP.part.hbond>
-2.7479

> <Gold.PLP.part.metal>
0.0000

> <Gold.PLP.part.buried>
-2.3477

> <Gold.PLP.part.nonpolar>
-31.8680

> <Gold.PLP.part.repulsive>
0.4441

> <Gold.PLP.ligand.clash>
0.0000

> <Gold.PLP.ligand.torsion>
0.5534

> <Gold.PLP.Chemscore.Hbond>
2.0000

> <Gold.PLP.Chemscore.CHOScore>
1.9497

> <Gold.PLP.Chemscore.Metal>
0.0000

> <Gold.Chemscore.Hbonds>
donor molecule, donor type, donor heavy atom, donor atom, acceptor molecule, acceptor atom, score
      L1  H    19    45       P1 10186  0.99
      L1  H    21    48       P1 10747  1.00
      L1  C     8    38       P1 10171  0.78
      L1  C     8    38       P1 10175  1.00

> <Gold.PLP.Chemscore.Internal.Correction>
0.7690

> <Gold.Rescore>
     Score         DG    S(hbond)    S(metal)    S(lipo)     H(rot)  DE(clash)    DE(int)     intcor
     12.95     -14.71       1.98        0.00      90.63       3.12       0.07       1.69       ----

> <Gold.Chemscore.Fitness>
12.9513

> <Gold.Chemscore.DG>
-14.7142

> <Gold.Chemscore.ZeroCoef>
-5.4800

> <Gold.Chemscore.Hbond>
1.9800

> <Gold.Chemscore.Metal>
0.0000

> <Gold.Chemscore.Lipo>
90.6260

> <Gold.Chemscore.Internal_Hbond>
0.0000

> <Gold.Chemscore.DEClash>
0.0718

> <Gold.Chemscore.DEInternal>
1.6911

> <Gold.Chemscore.Rot>
3.1181

> <Gold.Chemscore.Internal.Correction>
   9.000000E+99

> <Gold.Chemscore.Hbonds>
donor molecule, donor type, donor heavy atom, donor atom, acceptor molecule, acceptor atom, score
      L1  H    19    45       P1 10186  0.91
      L1  H    21    48       P1 10747  0.94

> <Gold.Chemscore.Hbond.Weighted>
-6.6132

> <Gold.Chemscore.Metal.Weighted>
-0.0000

> <Gold.Chemscore.Lipo.Weighted>
-10.6032

> <Gold.Chemscore.Internal_Hbond.Weighted>
0.0000

> <Gold.Chemscore.DEClash.Weighted>
0.0718

> <Gold.Chemscore.DEInternal.Weighted>
1.6911

> <Gold.Chemscore.Rot.Weighted>
7.9823

> <Gold.Chemscore.Internal.Correction.Weighted>
   9.000000E+99

> <Gold.Protein.RotatedTorsions>
[ 6907 6896 6895 6894 ] final  -12.68 input  -60.11 | X-H torsion
[ 7974 7965 7964 7962 ] final  -50.47 input  175.53 | X-H torsion
[ 8008 7997 7996 7995 ] final -165.76 input   59.86 | X-H torsion
[ 10167 10162 10161 10158 ] final   75.51 input  -65.29 | X-H torsion
[ 10718 10713 10712 10709 ] final  149.86 input   66.30 | X-H torsion
[ 10763 10752 10751 10750 ] final    7.75 input  -60.55 | X-H torsion
[ 11005 11000 10999 10996 ] final  -61.38 input  -57.11 | X-H torsion

> <Gold.Protein.ActiveResidues>
 VAL166  LYS551  ARG553  GLY616  TRP617  ASP618  TYR619  PRO620  LYS621  CYS622 
 ASP623  PHE694  ASN695  SER759  ASP760  ASP761  ALA762  ILE779  LEU786  VAL792 
 PHE793  MET794  SER795  GLU796  ALA797  LYS798  CYS799  TRP800  GLU811  SER814 

> <Gold.Protein.RotatedAtoms>
  151.3667  135.0914  159.9451 H   0  0  0  0  0  0  0  0  0  0  0  0  # atno 6907 bound_to 6896
  152.5147  133.9205  159.7542 H   0  0  0  0  0  0  0  0  0  0  0  0  # atno 6908 bound_to 6896
  150.9610  133.6390  159.2783 H   0  0  0  0  0  0  0  0  0  0  0  0  # atno 6909 bound_to 6896
  145.9295  140.7762  142.9607 H   0  0  0  0  0  0  0  0  0  0  0  0  # atno 7974 bound_to 7965
  155.8543  140.0968  157.1655 H   0  0  0  0  0  0  0  0  0  0  0  0  # atno 8008 bound_to 7997
  154.3987  140.1377  156.3944 H   0  0  0  0  0  0  0  0  0  0  0  0  # atno 8009 bound_to 7997
  155.7927  140.3455  155.5361 H   0  0  0  0  0  0  0  0  0  0  0  0  # atno 8010 bound_to 7997
  140.0022  144.5678  150.7728 H   0  0  0  0  0  0  0  0  0  0  0  0  # atno 10167 bound_to 10162
  157.2908  131.0853  151.1463 H   0  0  0  0  0  0  0  0  0  0  0  0  # atno 10718 bound_to 10713
  153.2327  135.6894  153.7871 H   0  0  0  0  0  0  0  0  0  0  0  0  # atno 10763 bound_to 10752
  153.7030  135.3294  155.3230 H   0  0  0  0  0  0  0  0  0  0  0  0  # atno 10764 bound_to 10752
  154.8321  135.4572  154.1219 H   0  0  0  0  0  0  0  0  0  0  0  0  # atno 10765 bound_to 10752
  141.1322  133.6629  156.5366 H   0  0  0  0  0  0  0  0  0  0  0  0  # atno 11005 bound_to 11000
  144.6763  140.2105  143.7377 LP  0  0  0  0  0  0  0  0  0  0  0  0  # atno 17320 bound_to 7965
  145.8444  139.2145  143.1808 LP  0  0  0  0  0  0  0  0  0  0  0  0  # atno 17321 bound_to 7965
  140.7414  143.2818  151.3577 LP  0  0  0  0  0  0  0  0  0  0  0  0  # atno 17342 bound_to 10162
  139.6264  144.0806  152.2437 LP  0  0  0  0  0  0  0  0  0  0  0  0  # atno 17343 bound_to 10162
  157.2861  130.6773  149.6090 LP  0  0  0  0  0  0  0  0  0  0  0  0  # atno 17370 bound_to 10713
  155.9667  130.4435  150.5424 LP  0  0  0  0  0  0  0  0  0  0  0  0  # atno 17371 bound_to 10713
  140.4173  134.7219  157.4870 LP  0  0  0  0  0  0  0  0  0  0  0  0  # atno 17394 bound_to 11000
  140.0385  134.6302  155.9012 LP  0  0  0  0  0  0  0  0  0  0  0  0  # atno 17395 bound_to 11000

$$$$
