AV-unprocessed.smi:438|AV-procd|sdf|2578|dock9
  -GOLD-   2262022563D 1   1.00000     0.00000
 Structure written by MMmdl.
 48 49  0  0  0  0  0  0  0  0  1 V2000
  147.2143  136.8674  162.8903 C   0  0  0  0  0  0  0  0  0  0  0  0
  147.6582  136.2124  161.5954 C   0  0  0  0  0  0  0  0  0  0  0  0
  148.2255  137.0343  160.6857 N   0  0  0  0  0  0  0  0  0  0  0  0
  148.6110  136.4774  159.5385 C   0  0  0  0  0  0  0  0  0  0  0  0
  149.2721  137.6002  158.3245 S   0  0  0  0  0  0  0  0  0  0  0  0
  150.8708  138.0498  159.0798 C   0  0  0  0  0  0  0  0  0  0  0  0
  151.5771  139.2354  158.4151 C   0  0  0  0  0  0  0  0  0  0  0  0
  151.9059  139.1633  157.2315 O   0  0  0  0  0  0  0  0  0  0  0  0
  151.7833  140.3246  159.1725 N   0  0  0  0  0  0  0  0  0  0  0  0
  152.3063  141.6009  158.6921 C   0  0  1  0  0  0  0  0  0  0  0  0
  151.1962  142.3516  157.9255 C   0  0  0  0  0  0  0  0  0  0  0  0
  151.6678  143.7310  157.4463 C   0  0  0  0  0  0  0  0  0  0  0  0
  152.1808  144.5725  158.6226 C   0  0  0  0  0  0  0  0  0  0  0  0
  153.2962  143.8377  159.3817 C   0  0  0  0  0  0  0  0  0  0  0  0
  152.8405  142.4484  159.8733 C   0  0  2  0  0  0  0  0  0  0  0  0
  153.9773  141.7450  160.6362 C   0  0  0  0  0  0  0  0  0  0  0  0
  148.5196  135.1930  159.1902 N   0  0  0  0  0  0  0  0  0  0  0  0
  147.9525  134.3592  160.0878 C   0  0  0  0  0  0  0  0  0  0  0  0
  147.8433  133.0407  159.7539 O   0  0  0  0  0  0  0  0  0  0  0  0
  147.4824  134.8283  161.3402 C   0  0  0  0  0  0  0  0  0  0  0  0
  146.8328  133.8895  162.3486 C   0  0  0  0  0  0  0  0  0  0  0  0
  145.3058  134.0363  162.3745 C   0  0  0  0  0  0  0  0  0  0  0  0
  144.7044  132.7608  162.4118 O   0  0  0  0  0  0  0  0  0  0  0  0
  147.6084  136.3256  163.7503 H   0  0  0  0  0  0  0  0  0  0  0  0
  146.1261  136.8779  162.9538 H   0  0  0  0  0  0  0  0  0  0  0  0
  147.5651  137.8983  162.9557 H   0  0  0  0  0  0  0  0  0  0  0  0
  150.7074  138.2815  160.1322 H   0  0  0  0  0  0  0  0  0  0  0  0
  151.5254  137.1782  159.0480 H   0  0  0  0  0  0  0  0  0  0  0  0
  151.4884  140.2898  160.1380 H   0  0  0  0  0  0  0  0  0  0  0  0
  153.1365  141.4122  158.0086 H   0  0  0  0  0  0  0  0  0  0  0  0
  150.8617  141.7636  157.0699 H   0  0  0  0  0  0  0  0  0  0  0  0
  150.3259  142.4775  158.5707 H   0  0  0  0  0  0  0  0  0  0  0  0
  152.4597  143.6110  156.7058 H   0  0  0  0  0  0  0  0  0  0  0  0
  150.8498  144.2495  156.9455 H   0  0  0  0  0  0  0  0  0  0  0  0
  152.5476  145.5331  158.2603 H   0  0  0  0  0  0  0  0  0  0  0  0
  151.3570  144.7919  159.3033 H   0  0  0  0  0  0  0  0  0  0  0  0
  154.1656  143.7307  158.7317 H   0  0  0  0  0  0  0  0  0  0  0  0
  153.6184  144.4453  160.2281 H   0  0  0  0  0  0  0  0  0  0  0  0
  152.0208  142.6016  160.5775 H   0  0  0  0  0  0  0  0  0  0  0  0
  154.8213  141.5324  159.9794 H   0  0  0  0  0  0  0  0  0  0  0  0
  153.6473  140.8012  161.0708 H   0  0  0  0  0  0  0  0  0  0  0  0
  154.3423  142.3662  161.4544 H   0  0  0  0  0  0  0  0  0  0  0  0
  148.6760  132.5943  159.7604 H   0  0  0  0  0  0  0  0  0  0  0  0
  147.1059  132.8580  162.1267 H   0  0  0  0  0  0  0  0  0  0  0  0
  147.2419  134.0887  163.3398 H   0  0  0  0  0  0  0  0  0  0  0  0
  144.9874  134.6052  163.2486 H   0  0  0  0  0  0  0  0  0  0  0  0
  144.9527  134.5692  161.4911 H   0  0  0  0  0  0  0  0  0  0  0  0
  145.3289  132.1445  162.7628 H   0  0  0  0  0  0  0  0  0  0  0  0
  1  2  1  0  0  0  0
  1 24  1  0  0  0  0
  1 25  1  0  0  0  0
  1 26  1  0  0  0  0
  2 20  1  0  0  0  0
  2  3  2  0  0  0  0
  3  4  1  0  0  0  0
  4  5  1  0  0  0  0
  4 17  2  0  0  0  0
  5  6  1  0  0  0  0
  6  7  1  0  0  0  0
  6 27  1  0  0  0  0
  6 28  1  0  0  0  0
  7  8  2  0  0  0  0
  7  9  1  0  0  0  0
  9 10  1  0  0  0  0
  9 29  1  0  0  0  0
 10 15  1  0  0  0  0
 10 11  1  0  0  0  0
 10 30  1  0  0  0  0
 11 12  1  0  0  0  0
 11 31  1  0  0  0  0
 11 32  1  0  0  0  0
 12 13  1  0  0  0  0
 12 33  1  0  0  0  0
 12 34  1  0  0  0  0
 13 14  1  0  0  0  0
 13 35  1  0  0  0  0
 13 36  1  0  0  0  0
 14 15  1  0  0  0  0
 14 37  1  0  0  0  0
 14 38  1  0  0  0  0
 15 16  1  0  0  0  0
 15 39  1  0  0  0  0
 16 40  1  0  0  0  0
 16 41  1  0  0  0  0
 16 42  1  0  0  0  0
 17 18  1  0  0  0  0
 18 19  1  0  0  0  0
 18 20  2  0  0  0  0
 19 43  1  0  0  0  0
 20 21  1  0  0  0  0
 21 22  1  0  0  0  0
 21 44  1  0  0  0  0
 21 45  1  0  0  0  0
 22 23  1  0  0  0  0
 22 46  1  0  0  0  0
 22 47  1  0  0  0  0
 23 48  1  0  0  0  0
M  END
> <s_m_source_file>
AV-unprocessed.smi

> <i_m_source_file_index>
438

> <i_lp_mmshare_version>
43012

> <i_f3d_flags>
0

> <s_epik_input>
W09IXVtDSDJdW0NIMl1jMWMoW09IXSluYyhuYzFbQ0gzXSlTW0NIMl1DKD1PKVtOSF1bQ0BASF0yW0NIMl1bQ0gyXVtDSDJdW0NIMl1bQ0BIXTJbQ0gzXQ==

> <s_epik_cmdline>
J2VwaWtfcHl0aG9uJywgJy1waCcsICc3LjAnLCAnLXRuJywgJzgnLCAnLW1hJywgJzIwMCcsICctbWV0YWxfYmluZGluZycsICctaW1hZScsICc8aW5maWxlLm1hZT4nLCAnLW9tYWUnLCAnPG91dGZpbGUubWFlPic=

> <r_lp_tautomer_probability>
0.0660145

> <r_epik_Ionization_Penalty>
2.91405

> <r_epik_Ionization_Penalty_Charging>
0

> <r_epik_Ionization_Penalty_Neutral>
2.91405

> <r_epik_State_Penalty>
2.44767

> <r_epik_Charging_Adjusted_Penalty>
2.44767

> <i_epik_Tot_Q>
0

> <i_epik_Tot_abs_Q>
0

> <r_epik_Metal_State_Penalty>
3.04288

> <b_epik_Metal_Only>
0

> <s_lp_Force_Field>
OPLS_2005

> <r_lp_Energy>
-0.453605

> <b_lp_Chiralities_Consistent>
1

> <s_lp_Variant>
AV-unprocessed.smi:438-16

> <Gold.Version>
5.8.1

> <Gold.Id.Protein>
6NUR|6NUR_protein|mol2

> <Gold.PLP.Fitness>
54.1529

> <Gold.PLP.PLP>
-50.5836

> <Gold.PLP.part.hbond>
-3.7133

> <Gold.PLP.part.metal>
0.0000

> <Gold.PLP.part.buried>
-6.2875

> <Gold.PLP.part.nonpolar>
-41.0152

> <Gold.PLP.part.repulsive>
0.1747

> <Gold.PLP.ligand.clash>
0.0000

> <Gold.PLP.ligand.torsion>
0.8973

> <Gold.PLP.Chemscore.Hbond>
1.7793

> <Gold.PLP.Chemscore.CHOScore>
0.0000

> <Gold.PLP.Chemscore.Metal>
0.0000

> <Gold.Chemscore.Hbonds>
donor molecule, donor type, donor heavy atom, donor atom, acceptor molecule, acceptor atom, score
      P1  H  6896  6909       L1    17  0.24
      P1  H  6931  6943       L1     3  0.81
      P1  H  6934  6947       L1     3  0.31

> <Gold.PLP.Chemscore.Internal.Correction>
0.0260

> <Gold.Rescore>
     Score         DG    S(hbond)    S(metal)    S(lipo)     H(rot)  DE(clash)    DE(int)     intcor
     13.14     -15.70       1.05        0.00     132.50       3.44       1.66       0.90       ----

> <Gold.Chemscore.Fitness>
13.1438

> <Gold.Chemscore.DG>
-15.7013

> <Gold.Chemscore.ZeroCoef>
-5.4800

> <Gold.Chemscore.Hbond>
1.0524

> <Gold.Chemscore.Metal>
0.0000

> <Gold.Chemscore.Lipo>
132.4989

> <Gold.Chemscore.Internal_Hbond>
0.0000

> <Gold.Chemscore.DEClash>
1.6554

> <Gold.Chemscore.DEInternal>
0.9021

> <Gold.Chemscore.Rot>
3.4359

> <Gold.Chemscore.Internal.Correction>
   9.000000E+99

> <Gold.Chemscore.Hbonds>
donor molecule, donor type, donor heavy atom, donor atom, acceptor molecule, acceptor atom, score
      P1  H  6896  6909       L1    17  0.01
      P1  H  6931  6943       L1     3  0.16
      P1  H  6934  6947       L1     3  0.17

> <Gold.Chemscore.Hbond.Weighted>
-3.5150

> <Gold.Chemscore.Metal.Weighted>
-0.0000

> <Gold.Chemscore.Lipo.Weighted>
-15.5024

> <Gold.Chemscore.Internal_Hbond.Weighted>
0.0000

> <Gold.Chemscore.DEClash.Weighted>
1.6554

> <Gold.Chemscore.DEInternal.Weighted>
0.9021

> <Gold.Chemscore.Rot.Weighted>
8.7960

> <Gold.Chemscore.Internal.Correction.Weighted>
   9.000000E+99

> <Gold.Protein.RotatedTorsions>
[ 6907 6896 6895 6894 ] final   31.77 input  -60.11 | X-H torsion
[ 7974 7965 7964 7962 ] final  -28.33 input  175.53 | X-H torsion
[ 8008 7997 7996 7995 ] final  -44.50 input   59.86 | X-H torsion
[ 10167 10162 10161 10158 ] final -102.56 input  -65.29 | X-H torsion
[ 10718 10713 10712 10709 ] final  158.36 input   66.30 | X-H torsion
[ 10763 10752 10751 10750 ] final  171.59 input  -60.55 | X-H torsion
[ 11005 11000 10999 10996 ] final   20.98 input  -57.11 | X-H torsion

> <Gold.Protein.ActiveResidues>
 VAL166  LYS551  ARG553  GLY616  TRP617  ASP618  TYR619  PRO620  LYS621  CYS622 
 ASP623  PHE694  ASN695  SER759  ASP760  ASP761  ALA762  ILE779  LEU786  VAL792 
 PHE793  MET794  SER795  GLU796  ALA797  LYS798  CYS799  TRP800  GLU811  SER814 

> <Gold.Protein.RotatedAtoms>
  152.0650  134.9570  160.0574 H   0  0  0  0  0  0  0  0  0  0  0  0  # atno 6907 bound_to 6896
  152.0918  133.4199  159.4555 H   0  0  0  0  0  0  0  0  0  0  0  0  # atno 6908 bound_to 6896
  150.6837  134.2782  159.4660 H   0  0  0  0  0  0  0  0  0  0  0  0  # atno 6909 bound_to 6896
  146.1296  140.5268  142.8699 H   0  0  0  0  0  0  0  0  0  0  0  0  # atno 7974 bound_to 7965
  154.3997  140.1420  156.3693 H   0  0  0  0  0  0  0  0  0  0  0  0  # atno 8008 bound_to 7997
  155.8107  140.3473  155.5435 H   0  0  0  0  0  0  0  0  0  0  0  0  # atno 8009 bound_to 7997
  155.8389  140.0923  157.1737 H   0  0  0  0  0  0  0  0  0  0  0  0  # atno 8010 bound_to 7997
  140.2294  143.3618  152.0900 H   0  0  0  0  0  0  0  0  0  0  0  0  # atno 10167 bound_to 10162
  157.1789  131.0628  151.2142 H   0  0  0  0  0  0  0  0  0  0  0  0  # atno 10718 bound_to 10713
  154.4140  135.2756  155.2018 H   0  0  0  0  0  0  0  0  0  0  0  0  # atno 10763 bound_to 10752
  154.3992  135.6048  153.5891 H   0  0  0  0  0  0  0  0  0  0  0  0  # atno 10764 bound_to 10752
  152.9831  135.5922  154.4426 H   0  0  0  0  0  0  0  0  0  0  0  0  # atno 10765 bound_to 10752
  140.3966  134.1762  155.7663 H   0  0  0  0  0  0  0  0  0  0  0  0  # atno 11005 bound_to 11000
  144.7677  140.5567  143.6692 LP  0  0  0  0  0  0  0  0  0  0  0  0  # atno 17320 bound_to 7965
  145.5290  139.1475  143.3510 LP  0  0  0  0  0  0  0  0  0  0  0  0  # atno 17321 bound_to 7965
  139.5115  144.6902  151.5779 LP  0  0  0  0  0  0  0  0  0  0  0  0  # atno 17342 bound_to 10162
  140.6196  143.9283  150.6516 LP  0  0  0  0  0  0  0  0  0  0  0  0  # atno 17343 bound_to 10162
  157.3971  130.7313  149.6740 LP  0  0  0  0  0  0  0  0  0  0  0  0  # atno 17370 bound_to 10713
  155.9727  130.4130  150.4063 LP  0  0  0  0  0  0  0  0  0  0  0  0  # atno 17371 bound_to 10713
  141.1872  133.8287  157.1042 LP  0  0  0  0  0  0  0  0  0  0  0  0  # atno 17394 bound_to 11000
  140.0367  134.9875  157.0884 LP  0  0  0  0  0  0  0  0  0  0  0  0  # atno 17395 bound_to 11000

$$$$
