#       Name:                AV-unprocessed.smi:1135
#       Creating user name   scv26
#       Creation time:       Fri Mar 27 03:43:08 2020


#       File generated by GOLD software.
#

@<TRIPOS>MOLECULE
AV-unprocessed.smi:1135
    48    49     1
SMALL
NO_CHARGES


@<TRIPOS>ATOM
      1 ****        -2.6602   2.9314  -2.7974 C.3            1 S1                 0.0000
      2 ****        -3.0935   2.1860  -1.5273 C.3            1 S1                 0.0000
      3 ****        -2.6376   2.9262  -0.2563 C.3            1 S1                 0.0000
      4 ****        -3.0412   2.1663   1.0221 C.3            1 S1                 0.0000
      5 ****        -2.5113   0.7124   1.0516 C.3            1 S1                 0.0000
      6 ****        -3.0693  -0.0001   2.3021 C.3            1 S1                 0.0000
      7 ****        -1.0439   0.7753   1.1274 N.am           1 S1                 0.0000
      8 ****        -0.1623  -0.2378   1.1328 C.2            1 S1                 0.0000
      9 ****        -0.4639  -1.4305   1.0910 O.2            1 S1                 0.0000
     10 ****         1.0996   0.2106   1.1818 N.am           1 S1                 0.0000
     11 ****         2.2854  -0.6382   1.1819 C.3            1 S1                 0.0000
     12 ****         2.6535  -1.0942  -0.2399 C.3            1 S1                 0.0000
     13 ****         3.8802  -1.9865  -0.2564 C.ar           1 S1                 0.0000
     14 ****         3.7484  -3.3884  -0.3502 C.ar           1 S1                 0.0000
     15 ****         4.9171  -4.1740  -0.3504 C.ar           1 S1                 0.0000
     16 ****         6.1663  -3.5310  -0.2560 C.ar           1 S1                 0.0000
     17 ****         6.1912  -2.1248  -0.1669 C.ar           1 S1                 0.0000
     18 ****         5.0765  -1.3621  -0.1661 N.ar           1 S1                 0.0000
     19 ****        -2.9902  -0.0060  -0.2379 C.3            1 S1                 0.0000
     20 ****        -2.5767   0.7357  -1.5219 C.3            1 S1                 0.0000
     21 ****        -1.5740   2.9981  -2.8675 H              1 S1                 0.0000
     22 ****        -3.0580   3.9464  -2.8117 H              1 S1                 0.0000
     23 ****        -3.0210   2.4237  -3.6924 H              1 S1                 0.0000
     24 ****        -4.1841   2.1527  -1.5218 H              1 S1                 0.0000
     25 ****        -1.5563   3.0679  -0.2780 H              1 S1                 0.0000
     26 ****        -3.0731   3.9258  -0.2349 H              1 S1                 0.0000
     27 ****        -2.6885   2.7141   1.8972 H              1 S1                 0.0000
     28 ****        -4.1299   2.1595   1.0936 H              1 S1                 0.0000
     29 ****        -4.1597   0.0130   2.3102 H              1 S1                 0.0000
     30 ****        -2.7299   0.4831   3.2190 H              1 S1                 0.0000
     31 ****        -2.7632  -1.0452   2.3481 H              1 S1                 0.0000
     32 ****        -0.6570   1.7068   1.1660 H              1 S1                 0.0000
     33 ****         1.2521   1.2080   1.2144 H              1 S1                 0.0000
     34 ****         3.1085  -0.0705   1.6166 H              1 S1                 0.0000
     35 ****         2.1270  -1.5012   1.8310 H              1 S1                 0.0000
     36 ****         1.8188  -1.6324  -0.6910 H              1 S1                 0.0000
     37 ****         2.8372  -0.2270  -0.8761 H              1 S1                 0.0000
     38 ****         2.7752  -3.8524  -0.4172 H              1 S1                 0.0000
     39 ****         4.8557  -5.2499  -0.4197 H              1 S1                 0.0000
     40 ****         7.0833  -4.1013  -0.2516 H              1 S1                 0.0000
     41 ****         7.1316  -1.5988  -0.0928 H              1 S1                 0.0000
     42 ****        -2.6265  -1.0325  -0.2747 H              1 S1                 0.0000
     43 ****        -4.0780  -0.0869  -0.2195 H              1 S1                 0.0000
     44 ****        -2.9659   0.2012  -2.3889 H              1 S1                 0.0000
     45 ****        -1.4906   0.7258  -1.6216 H              1 S1                 0.0000
     46 ****        -1.4255  -1.7019   1.0494 LP             1 S1                 0.0000
     47 ****         0.2526  -2.1280   1.0986 LP             1 S1                 0.0000
     48 ****         5.1339  -0.3659  -0.1007 LP             1 S1                 0.0000
@<TRIPOS>BOND
    1    1    2 1     
    2    1   21 1     
    3    1   22 1     
    4    1   23 1     
    5    2   20 1     
    6    2    3 1     
    7    2   24 1     
    8    3    4 1     
    9    3   25 1     
   10    3   26 1     
   11    4    5 1     
   12    4   27 1     
   13    4   28 1     
   14    5    6 1     
   15    5    7 1     
   16    5   19 1     
   17    6   29 1     
   18    6   30 1     
   19    6   31 1     
   20    7    8 am    
   21    7   32 1     
   22    8    9 2     
   23    8   10 am    
   24   10   11 1     
   25   10   33 1     
   26   11   12 1     
   27   11   34 1     
   28   11   35 1     
   29   12   13 1     
   30   12   36 1     
   31   12   37 1     
   32   13   18 ar    
   33   13   14 ar    
   34   14   15 ar    
   35   14   38 1     
   36   15   16 ar    
   37   15   39 1     
   38   16   17 ar    
   39   16   40 1     
   40   17   18 ar    
   41   17   41 1     
   42   19   20 1     
   43   19   42 1     
   44   19   43 1     
   45   20   44 1     
   46   20   45 1     
   47    9   46 1     
   48    9   47 1     
   49   18   48 1     
@<TRIPOS>SUBSTRUCTURE
      1 S1             1
@<TRIPOS>SET
LONE_PAIRS      STATIC     ATOMS    <user>   **** ""
3 46 47 48
DONOR_HYDROGENS      STATIC     ATOMS    <user>   **** ""
2 32 33
ATOM$BLUE        STATIC     ATOMS    COLORGROUP SYSTEM
3 46 47 48
ATOM$RED        STATIC     ATOMS    COLORGROUP SYSTEM
2 32 33
