AV-unprocessed.smi:44|AV-procd|sdf|399|dock1
  -GOLD-   2262016253D 1   1.00000     0.00000
 Structure written by MMmdl.
 29 31  0  0  0  0  0  0  0  0  3 V2000
  150.9477  139.2057  154.0478 O   0  0  0  0  0  0  0  0  0  0  0  0
  151.5567  139.1623  155.1148 C   0  0  0  0  0  0  0  0  0  0  0  0
  152.4763  138.2299  155.5239 N   0  5  0  0  0  0  0  0  0  0  0  0
  153.0883  138.3034  156.7703 C   0  0  0  0  0  0  0  0  0  0  0  0
  152.9080  139.1957  157.6783 N   0  0  0  0  0  0  0  0  0  0  0  0
  151.9853  140.2006  157.3502 C   0  0  0  0  0  0  0  0  0  0  0  0
  151.3183  140.2247  156.1475 C   0  0  0  0  0  0  0  0  0  0  0  0
  150.4768  141.3035  156.1110 N   0  3  0  0  0  0  0  0  0  0  0  0
  150.6728  141.8857  157.2940 C   0  0  0  0  0  0  0  0  0  0  0  0
  151.5911  141.2772  158.1050 N   0  0  0  0  0  0  0  0  0  0  0  0
  152.0065  141.6788  159.4869 C   0  0  1  0  0  0  0  0  0  0  0  0
  153.4597  142.1550  159.4725 C   0  0  0  0  0  0  0  0  0  0  0  0
  153.2867  143.6126  159.1103 C   0  0  0  0  0  0  0  0  0  0  0  0
  152.0261  143.9710  159.8979 C   0  0  1  0  0  0  0  0  0  0  0  0
  151.2543  145.1580  159.3023 C   0  0  0  0  0  0  0  0  0  0  0  0
  150.3867  144.7075  158.2850 O   0  0  0  0  0  0  0  0  0  0  0  0
  151.2343  142.7800  159.8730 O   0  0  0  0  0  0  0  0  0  0  0  0
  149.8495  141.5858  155.3690 H   0  0  0  0  0  0  0  0  0  0  0  0
  151.8219  140.7951  160.0988 H   0  0  0  0  0  0  0  0  0  0  0  0
  152.3108  144.1755  160.9317 H   0  0  0  0  0  0  0  0  0  0  0  0
  153.7888  137.4797  156.9295 H   0  0  0  0  0  0  0  0  0  0  0  0
  150.1411  142.7711  157.5907 H   0  0  0  0  0  0  0  0  0  0  0  0
  153.8736  142.0520  160.4765 H   0  0  0  0  0  0  0  0  0  0  0  0
  154.0796  141.5924  158.7740 H   0  0  0  0  0  0  0  0  0  0  0  0
  154.1464  144.2250  159.3836 H   0  0  0  0  0  0  0  0  0  0  0  0
  153.1199  143.7173  158.0370 H   0  0  0  0  0  0  0  0  0  0  0  0
  150.6390  145.6257  160.0715 H   0  0  0  0  0  0  0  0  0  0  0  0
  151.9269  145.9243  158.9178 H   0  0  0  0  0  0  0  0  0  0  0  0
  149.7320  145.3712  158.1297 H   0  0  0  0  0  0  0  0  0  0  0  0
  1  2  2  0  0  0  0
  2  7  1  0  0  0  0
  2  3  1  0  0  0  0
  3  4  1  0  0  0  0
  4 21  1  0  0  0  0
  4  5  2  0  0  0  0
  5  6  1  0  0  0  0
  6 10  1  0  0  0  0
  6  7  2  0  0  0  0
  7  8  1  0  0  0  0
  8  9  2  0  0  0  0
  8 18  1  0  0  0  0
  9 10  1  0  0  0  0
  9 22  1  0  0  0  0
 10 11  1  0  0  0  0
 11 19  1  0  0  0  0
 11 17  1  0  0  0  0
 11 12  1  0  0  0  0
 12 13  1  0  0  0  0
 12 23  1  0  0  0  0
 12 24  1  0  0  0  0
 13 14  1  0  0  0  0
 13 25  1  0  0  0  0
 13 26  1  0  0  0  0
 14 20  1  0  0  0  0
 14 15  1  0  0  0  0
 14 17  1  0  0  0  0
 15 16  1  0  0  0  0
 15 27  1  0  0  0  0
 15 28  1  0  0  0  0
 16 29  1  0  0  0  0
M  CHG  1   3  -1
M  CHG  1   8   1
M  END
> <s_m_source_file>
AV-unprocessed.smi

> <i_m_source_file_index>
44

> <i_lp_mmshare_version>
43012

> <i_f3d_flags>
0

> <s_epik_input>
bjFbY0hdW25IXWMoPU8pYyhjMTIpbltjSF1uMltDQEhdM1tDSDJdW0NIMl1bQ0BIXShPMylbQ0gyXVtPSF0=

> <s_epik_cmdline>
J2VwaWtfcHl0aG9uJywgJy1waCcsICc3LjAnLCAnLXRuJywgJzgnLCAnLW1hJywgJzIwMCcsICctbWV0YWxfYmluZGluZycsICctaW1hZScsICc8aW5maWxlLm1hZT4nLCAnLW9tYWUnLCAnPG91dGZpbGUubWFlPic=

> <r_lp_tautomer_probability>
0.144281

> <r_epik_Ionization_Penalty>
5.63685

> <r_epik_Ionization_Penalty_Charging>
5.58669

> <r_epik_Ionization_Penalty_Neutral>
0.0501585

> <r_epik_State_Penalty>
1.20809

> <r_epik_Charging_Adjusted_Penalty>
6.79478

> <i_epik_Tot_Q>
0

> <i_epik_Tot_abs_Q>
2

> <r_epik_Metal_State_Penalty>
1.52487

> <b_epik_Metal_Only>
0

> <s_epik_Chemistry_Notes>
This compound contains an acetal/aminal-like group ( X-CH(R)-Y where X, Y are N, S, or O) that may be acid/base labile, releasing an aldehyde.

> <s_lp_Force_Field>
OPLS_2005

> <r_lp_Energy>
45.4458

> <b_lp_Chiralities_Consistent>
1

> <s_lp_Variant>
AV-unprocessed.smi:44-5

> <Gold.Version>
5.8.1

> <Gold.Id.Protein>
6NUR|6NUR_protein|mol2

> <Gold.PLP.Fitness>
39.4568

> <Gold.PLP.PLP>
-33.8876

> <Gold.PLP.part.hbond>
-4.9257

> <Gold.PLP.part.metal>
0.0000

> <Gold.PLP.part.buried>
-2.6878

> <Gold.PLP.part.nonpolar>
-26.6459

> <Gold.PLP.part.repulsive>
0.3219

> <Gold.PLP.ligand.clash>
0.0000

> <Gold.PLP.ligand.torsion>
0.3959

> <Gold.PLP.Chemscore.Hbond>
2.1113

> <Gold.PLP.Chemscore.CHOScore>
0.0000

> <Gold.PLP.Chemscore.Metal>
0.0000

> <Gold.Chemscore.Hbonds>
donor molecule, donor type, donor heavy atom, donor atom, acceptor molecule, acceptor atom, score
      L1  H    16    29       P1  8029  0.86
      P1  H  7989  7998       L1     1  0.85
      P1  H  7997  8009       L1     5  0.40

> <Gold.PLP.Chemscore.Internal.Correction>
0.0273

> <Gold.Rescore>
     Score         DG    S(hbond)    S(metal)    S(lipo)     H(rot)  DE(clash)    DE(int)     intcor
      9.78     -11.08       1.60        0.00      51.93       2.27       0.02       1.28       ----

> <Gold.Chemscore.Fitness>
9.7842

> <Gold.Chemscore.DG>
-11.0840

> <Gold.Chemscore.ZeroCoef>
-5.4800

> <Gold.Chemscore.Hbond>
1.6003

> <Gold.Chemscore.Metal>
0.0000

> <Gold.Chemscore.Lipo>
51.9257

> <Gold.Chemscore.Internal_Hbond>
0.0000

> <Gold.Chemscore.DEClash>
0.0174

> <Gold.Chemscore.DEInternal>
1.2824

> <Gold.Chemscore.Rot>
2.2720

> <Gold.Chemscore.Internal.Correction>
   9.000000E+99

> <Gold.Chemscore.Hbonds>
donor molecule, donor type, donor heavy atom, donor atom, acceptor molecule, acceptor atom, score
      L1  H    16    29       P1  8029  0.24
      P1  H  7989  7998       L1     1  0.14

> <Gold.Chemscore.Hbond.Weighted>
-5.3451

> <Gold.Chemscore.Metal.Weighted>
-0.0000

> <Gold.Chemscore.Lipo.Weighted>
-6.0753

> <Gold.Chemscore.Internal_Hbond.Weighted>
0.0000

> <Gold.Chemscore.DEClash.Weighted>
0.0174

> <Gold.Chemscore.DEInternal.Weighted>
1.2824

> <Gold.Chemscore.Rot.Weighted>
5.8164

> <Gold.Chemscore.Internal.Correction.Weighted>
   9.000000E+99

> <Gold.Protein.RotatedTorsions>
[ 6907 6896 6895 6894 ] final   18.43 input  -60.11 | X-H torsion
[ 7974 7965 7964 7962 ] final   48.64 input  175.53 | X-H torsion
[ 8008 7997 7996 7995 ] final  147.25 input   59.86 | X-H torsion
[ 10167 10162 10161 10158 ] final  129.83 input  -65.29 | X-H torsion
[ 10718 10713 10712 10709 ] final  121.58 input   66.30 | X-H torsion
[ 10763 10752 10751 10750 ] final   43.63 input  -60.55 | X-H torsion
[ 11005 11000 10999 10996 ] final   90.62 input  -57.11 | X-H torsion

> <Gold.Protein.ActiveResidues>
 VAL166  LYS551  ARG553  GLY616  TRP617  ASP618  TYR619  PRO620  LYS621  CYS622 
 ASP623  PHE694  ASN695  SER759  ASP760  ASP761  ALA762  ILE779  LEU786  VAL792 
 PHE793  MET794  SER795  GLU796  ALA797  LYS798  CYS799  TRP800  GLU811  SER814 

> <Gold.Protein.RotatedAtoms>
  151.8651  135.0510  160.0473 H   0  0  0  0  0  0  0  0  0  0  0  0  # atno 6907 bound_to 6896
  152.2632  133.5311  159.5402 H   0  0  0  0  0  0  0  0  0  0  0  0  # atno 6908 bound_to 6896
  150.7124  134.0717  159.3909 H   0  0  0  0  0  0  0  0  0  0  0  0  # atno 6909 bound_to 6896
  146.0185  139.4624  142.9912 H   0  0  0  0  0  0  0  0  0  0  0  0  # atno 7974 bound_to 7965
  156.2831  140.2161  156.5507 H   0  0  0  0  0  0  0  0  0  0  0  0  # atno 8008 bound_to 7997
  154.7294  140.0497  157.0735 H   0  0  0  0  0  0  0  0  0  0  0  0  # atno 8009 bound_to 7997
  155.0374  140.3142  155.4740 H   0  0  0  0  0  0  0  0  0  0  0  0  # atno 8010 bound_to 7997
  139.5459  144.6772  151.4475 H   0  0  0  0  0  0  0  0  0  0  0  0  # atno 10167 bound_to 10162
  157.5807  131.1075  150.8193 H   0  0  0  0  0  0  0  0  0  0  0  0  # atno 10718 bound_to 10713
  152.9857  135.6095  154.3143 H   0  0  0  0  0  0  0  0  0  0  0  0  # atno 10763 bound_to 10752
  154.2856  135.2776  155.2679 H   0  0  0  0  0  0  0  0  0  0  0  0  # atno 10764 bound_to 10752
  154.4998  135.5870  153.6579 H   0  0  0  0  0  0  0  0  0  0  0  0  # atno 10765 bound_to 10752
  139.8853  134.8625  156.3311 H   0  0  0  0  0  0  0  0  0  0  0  0  # atno 11005 bound_to 11000
  145.7230  141.0068  143.1392 LP  0  0  0  0  0  0  0  0  0  0  0  0  # atno 17320 bound_to 7965
  144.6980  139.8893  143.7452 LP  0  0  0  0  0  0  0  0  0  0  0  0  # atno 17321 bound_to 7965
  140.6707  143.8301  150.6995 LP  0  0  0  0  0  0  0  0  0  0  0  0  # atno 17342 bound_to 10162
  140.1724  143.4183  152.1991 LP  0  0  0  0  0  0  0  0  0  0  0  0  # atno 17343 bound_to 10162
  156.8640  130.5123  149.5301 LP  0  0  0  0  0  0  0  0  0  0  0  0  # atno 17370 bound_to 10713
  156.0852  130.5853  150.9636 LP  0  0  0  0  0  0  0  0  0  0  0  0  # atno 17371 bound_to 10713
  140.9722  133.7320  156.0551 LP  0  0  0  0  0  0  0  0  0  0  0  0  # atno 17394 bound_to 11000
  140.7856  134.3675  157.5477 LP  0  0  0  0  0  0  0  0  0  0  0  0  # atno 17395 bound_to 11000

$$$$
