AV-unprocessed.smi:2045|AV-procd|sdf|8310|dock10
  -GOLD-   2272010573D 1   1.00000     0.00000
 Structure written by MMmdl.
 38 39  0  0  0  0  0  0  0  0  3 V2000
  150.8648  140.7304  155.4529 C   0  0  0  0  0  0  0  0  0  0  0  0
  151.1340  139.3303  155.0197 C   0  0  0  0  0  0  0  0  0  0  0  0
  150.3792  138.1914  155.0304 C   0  0  0  0  0  0  0  0  0  0  0  0
  151.2537  137.2210  154.4722 C   0  0  0  0  0  0  0  0  0  0  0  0
  150.8305  135.8756  154.3061 N   0  0  0  0  0  0  0  0  0  0  0  0
  150.2739  135.0488  155.2103 C   0  0  0  0  0  0  0  0  0  0  0  0
  150.0477  135.4425  156.3608 O   0  0  0  0  0  0  0  0  0  0  0  0
  150.0234  133.8147  154.6927 N   0  5  0  0  0  0  0  0  0  0  0  0
  149.0294  133.5326  153.6598 C   0  0  0  0  0  0  0  0  0  0  0  0
  148.6306  132.0461  153.7210 C   0  0  0  0  0  0  0  0  0  0  0  0
  147.7035  131.6701  152.6202 N   0  3  0  0  0  0  0  0  0  0  0  0
  146.8871  130.4703  152.9456 C   0  0  0  0  0  0  0  0  0  0  0  0
  146.0506  130.0183  151.7364 C   0  0  0  0  0  0  0  0  0  0  0  0
  145.1624  131.1582  151.2219 C   0  0  0  0  0  0  0  0  0  0  0  0
  146.0206  132.3932  150.9206 C   0  0  0  0  0  0  0  0  0  0  0  0
  146.8505  132.7988  152.1500 C   0  0  0  0  0  0  0  0  0  0  0  0
  152.4360  137.7244  154.1501 N   0  0  0  0  0  0  0  0  0  0  0  0
  152.3655  139.0780  154.4999 O   0  0  0  0  0  0  0  0  0  0  0  0
  149.8769  140.8155  155.9058 H   0  0  0  0  0  0  0  0  0  0  0  0
  150.9075  141.4121  154.6034 H   0  0  0  0  0  0  0  0  0  0  0  0
  151.6023  141.0559  156.1865 H   0  0  0  0  0  0  0  0  0  0  0  0
  149.3647  138.0730  155.3805 H   0  0  0  0  0  0  0  0  0  0  0  0
  150.9757  135.4842  153.3874 H   0  0  0  0  0  0  0  0  0  0  0  0
  148.1311  134.1406  153.7760 H   0  0  0  0  0  0  0  0  0  0  0  0
  149.4125  133.7556  152.6634 H   0  0  0  0  0  0  0  0  0  0  0  0
  149.5433  131.4513  153.6540 H   0  0  0  0  0  0  0  0  0  0  0  0
  148.1839  131.7993  154.6859 H   0  0  0  0  0  0  0  0  0  0  0  0
  147.5409  129.6519  153.2497 H   0  0  0  0  0  0  0  0  0  0  0  0
  146.2372  130.6911  153.7938 H   0  0  0  0  0  0  0  0  0  0  0  0
  146.7135  129.6814  150.9382 H   0  0  0  0  0  0  0  0  0  0  0  0
  145.4347  129.1608  152.0090 H   0  0  0  0  0  0  0  0  0  0  0  0
  144.6242  130.8442  150.3271 H   0  0  0  0  0  0  0  0  0  0  0  0
  144.4084  131.4057  151.9702 H   0  0  0  0  0  0  0  0  0  0  0  0
  146.6863  132.1832  150.0823 H   0  0  0  0  0  0  0  0  0  0  0  0
  145.3842  133.2226  150.6105 H   0  0  0  0  0  0  0  0  0  0  0  0
  146.1899  133.1179  152.9578 H   0  0  0  0  0  0  0  0  0  0  0  0
  147.4693  133.6592  151.8934 H   0  0  0  0  0  0  0  0  0  0  0  0
  148.2944  131.4038  151.8452 H   0  0  0  0  0  0  0  0  0  0  0  0
  1  2  1  0  0  0  0
  1 19  1  0  0  0  0
  1 20  1  0  0  0  0
  1 21  1  0  0  0  0
  2 18  1  0  0  0  0
  2  3  2  0  0  0  0
  3  4  1  0  0  0  0
  3 22  1  0  0  0  0
  4  5  1  0  0  0  0
  4 17  2  0  0  0  0
  5  6  1  0  0  0  0
  5 23  1  0  0  0  0
  6  7  2  0  0  0  0
  6  8  1  0  0  0  0
  8  9  1  0  0  0  0
  9 10  1  0  0  0  0
  9 24  1  0  0  0  0
  9 25  1  0  0  0  0
 10 11  1  0  0  0  0
 10 26  1  0  0  0  0
 10 27  1  0  0  0  0
 11 16  1  0  0  0  0
 11 12  1  0  0  0  0
 11 38  1  0  0  0  0
 12 13  1  0  0  0  0
 12 28  1  0  0  0  0
 12 29  1  0  0  0  0
 13 14  1  0  0  0  0
 13 30  1  0  0  0  0
 13 31  1  0  0  0  0
 14 15  1  0  0  0  0
 14 32  1  0  0  0  0
 14 33  1  0  0  0  0
 15 16  1  0  0  0  0
 15 34  1  0  0  0  0
 15 35  1  0  0  0  0
 16 36  1  0  0  0  0
 16 37  1  0  0  0  0
 17 18  1  0  0  0  0
M  CHG  1   8  -1
M  CHG  1  11   1
M  END
> <s_m_source_file>
AV-unprocessed.smi

> <i_m_source_file_index>
2045

> <i_lp_mmshare_version>
43012

> <i_f3d_flags>
0

> <s_epik_input>
W0NIM11jMVtjSF1jKG5vMSlbTkhdQyg9TylbTkhdW0NIMl1bQ0gyXU4yW0NIMl1bQ0gyXVtDSDJdW0NIMl1bQ0gyXTI=

> <s_epik_cmdline>
J2VwaWtfcHl0aG9uJywgJy1waCcsICc3LjAnLCAnLXRuJywgJzgnLCAnLW1hJywgJzIwMCcsICctbWV0YWxfYmluZGluZycsICctaW1hZScsICc8aW5maWxlLm1hZT4nLCAnLW9tYWUnLCAnPG91dGZpbGUubWFlPic=

> <r_epik_Ionization_Penalty>
6.7666

> <r_epik_Ionization_Penalty_Charging>
6.7666

> <r_epik_Ionization_Penalty_Neutral>
5.77131e-06

> <r_epik_State_Penalty>
6.79217

> <r_epik_Charging_Adjusted_Penalty>
13.5588

> <i_epik_Tot_Q>
0

> <i_epik_Tot_abs_Q>
2

> <r_epik_Metal_State_Penalty>
2.72569

> <b_epik_Metal_Only>
1

> <s_lp_Force_Field>
OPLS_2005

> <r_lp_Energy>
13.1294

> <b_lp_Chiralities_Consistent>
1

> <s_lp_Variant>
AV-unprocessed.smi:2045-3

> <Gold.Version>
5.8.1

> <Gold.Id.Protein>
6NUR|6NUR_protein|mol2

> <Gold.PLP.Fitness>
37.9258

> <Gold.PLP.PLP>
-35.3550

> <Gold.PLP.part.hbond>
-4.7831

> <Gold.PLP.part.metal>
0.0000

> <Gold.PLP.part.buried>
-4.7455

> <Gold.PLP.part.nonpolar>
-27.0604

> <Gold.PLP.part.repulsive>
0.4080

> <Gold.PLP.ligand.clash>
0.0000

> <Gold.PLP.ligand.torsion>
1.5849

> <Gold.PLP.Chemscore.Hbond>
1.8982

> <Gold.PLP.Chemscore.CHOScore>
0.0000

> <Gold.PLP.Chemscore.Metal>
0.0000

> <Gold.Chemscore.Hbonds>
donor molecule, donor type, donor heavy atom, donor atom, acceptor molecule, acceptor atom, score
      L1  H     5    23       P1  7949  0.65
      L1  H    11    38       P1 10747  1.00
      P1  H 10752 10764       L1    17  0.20

> <Gold.PLP.Chemscore.Internal.Correction>
0.0460

> <Gold.Rescore>
     Score         DG    S(hbond)    S(metal)    S(lipo)     H(rot)  DE(clash)    DE(int)     intcor
     14.12     -15.86       1.90        0.00      68.56       1.55       0.11       1.62       ----

> <Gold.Chemscore.Fitness>
14.1229

> <Gold.Chemscore.DG>
-15.8583

> <Gold.Chemscore.ZeroCoef>
-5.4800

> <Gold.Chemscore.Hbond>
1.8972

> <Gold.Chemscore.Metal>
0.0000

> <Gold.Chemscore.Lipo>
68.5559

> <Gold.Chemscore.Internal_Hbond>
0.0000

> <Gold.Chemscore.DEClash>
0.1139

> <Gold.Chemscore.DEInternal>
1.6215

> <Gold.Chemscore.Rot>
1.5544

> <Gold.Chemscore.Internal.Correction>
   9.000000E+99

> <Gold.Chemscore.Hbonds>
donor molecule, donor type, donor heavy atom, donor atom, acceptor molecule, acceptor atom, score
      L1  H     5    23       P1  7949  0.08
      L1  H    11    38       P1 10747  1.00
      P1  H 10752 10764       L1    17  0.01

> <Gold.Chemscore.Hbond.Weighted>
-6.3367

> <Gold.Chemscore.Metal.Weighted>
-0.0000

> <Gold.Chemscore.Lipo.Weighted>
-8.0210

> <Gold.Chemscore.Internal_Hbond.Weighted>
0.0000

> <Gold.Chemscore.DEClash.Weighted>
0.1139

> <Gold.Chemscore.DEInternal.Weighted>
1.6215

> <Gold.Chemscore.Rot.Weighted>
3.9794

> <Gold.Chemscore.Internal.Correction.Weighted>
   9.000000E+99

> <Gold.Protein.RotatedTorsions>
[ 6907 6896 6895 6894 ] final  120.19 input  -60.11 | X-H torsion
[ 7974 7965 7964 7962 ] final   17.55 input  175.53 | X-H torsion
[ 8008 7997 7996 7995 ] final -161.82 input   59.86 | X-H torsion
[ 10167 10162 10161 10158 ] final   46.72 input  -65.29 | X-H torsion
[ 10718 10713 10712 10709 ] final    3.42 input   66.30 | X-H torsion
[ 10763 10752 10751 10750 ] final -103.65 input  -60.55 | X-H torsion
[ 11005 11000 10999 10996 ] final   31.84 input  -57.11 | X-H torsion

> <Gold.Protein.ActiveResidues>
 VAL166  LYS551  ARG553  GLY616  TRP617  ASP618  TYR619  PRO620  LYS621  CYS622 
 ASP623  PHE694  ASN695  SER759  ASP760  ASP761  ALA762  ILE779  LEU786  VAL792 
 PHE793  MET794  SER795  GLU796  ALA797  LYS798  CYS799  TRP800  GLU811  SER814 

> <Gold.Protein.RotatedAtoms>
  152.4416  133.7459  159.6666 H   0  0  0  0  0  0  0  0  0  0  0  0  # atno 6907 bound_to 6896
  150.8308  133.8084  159.3105 H   0  0  0  0  0  0  0  0  0  0  0  0  # atno 6908 bound_to 6896
  151.5738  135.1064  160.0053 H   0  0  0  0  0  0  0  0  0  0  0  0  # atno 6909 bound_to 6896
  146.2214  139.8586  142.8609 H   0  0  0  0  0  0  0  0  0  0  0  0  # atno 7974 bound_to 7965
  155.7978  140.0887  157.1974 H   0  0  0  0  0  0  0  0  0  0  0  0  # atno 8008 bound_to 7997
  154.3983  140.1478  156.3297 H   0  0  0  0  0  0  0  0  0  0  0  0  # atno 8009 bound_to 7997
  155.8494  140.3435  155.5686 H   0  0  0  0  0  0  0  0  0  0  0  0  # atno 8010 bound_to 7997
  140.3110  144.2820  150.6200 H   0  0  0  0  0  0  0  0  0  0  0  0  # atno 10167 bound_to 10162
  156.8776  130.5642  149.5654 H   0  0  0  0  0  0  0  0  0  0  0  0  # atno 10718 bound_to 10713
  154.7823  135.4815  153.9870 H   0  0  0  0  0  0  0  0  0  0  0  0  # atno 10763 bound_to 10752
  153.1510  135.6791  153.8889 H   0  0  0  0  0  0  0  0  0  0  0  0  # atno 10764 bound_to 10752
  153.8533  135.3164  155.3412 H   0  0  0  0  0  0  0  0  0  0  0  0  # atno 10765 bound_to 10752
  140.2797  134.2987  155.7804 H   0  0  0  0  0  0  0  0  0  0  0  0  # atno 11005 bound_to 11000
  145.2728  141.0114  143.3762 LP  0  0  0  0  0  0  0  0  0  0  0  0  # atno 17320 bound_to 7965
  144.9210  139.4411  143.6541 LP  0  0  0  0  0  0  0  0  0  0  0  0  # atno 17321 bound_to 7965
  140.5568  143.2198  151.7833 LP  0  0  0  0  0  0  0  0  0  0  0  0  # atno 17342 bound_to 10162
  139.4894  144.4403  151.9772 LP  0  0  0  0  0  0  0  0  0  0  0  0  # atno 17343 bound_to 10162
  156.0694  130.5730  150.9353 LP  0  0  0  0  0  0  0  0  0  0  0  0  # atno 17370 bound_to 10713
  157.6159  131.0933  150.8711 LP  0  0  0  0  0  0  0  0  0  0  0  0  # atno 17371 bound_to 10713
  141.2165  133.7517  156.9461 LP  0  0  0  0  0  0  0  0  0  0  0  0  # atno 17394 bound_to 11000
  140.1295  134.9365  157.2317 LP  0  0  0  0  0  0  0  0  0  0  0  0  # atno 17395 bound_to 11000

$$$$
