AV-unprocessed.smi:481|AV-procd|sdf|2680|dock3
  -GOLD-   2262023103D 1   1.00000     0.00000
 Structure written by MMmdl.
 43 45  0  0  0  0  0  0  0  0  1 V2000
  155.6061  135.9355  164.7734 C   0  0  0  0  0  0  0  0  0  0  0  0
  154.8463  136.9007  164.0673 O   0  0  0  0  0  0  0  0  0  0  0  0
  154.8119  138.1535  164.7291 C   0  0  0  0  0  0  0  0  0  0  0  0
  156.2396  138.7048  164.8216 C   0  0  0  0  0  0  0  0  0  0  0  0
  156.2453  140.1481  165.0326 N   0  0  0  0  0  0  0  0  0  0  0  0
  155.8202  141.1149  164.1801 C   0  0  0  0  0  0  0  0  0  0  0  0
  155.3113  140.7629  162.9305 N   0  0  0  0  0  0  0  0  0  0  0  0
  154.8921  141.6884  162.0857 N   0  0  0  0  0  0  0  0  0  0  0  0
  153.6216  141.7572  161.9079 C   0  0  0  0  0  0  0  0  0  0  0  0
  153.0058  142.7343  160.9971 C   0  0  0  0  0  0  0  0  0  0  0  0
  152.7138  142.4191  159.6484 C   0  0  0  0  0  0  0  0  0  0  0  0
  152.1237  143.3800  158.8042 C   0  0  0  0  0  0  0  0  0  0  0  0
  151.8203  144.6625  159.2984 C   0  0  0  0  0  0  0  0  0  0  0  0
  152.1075  144.9839  160.6383 C   0  0  0  0  0  0  0  0  0  0  0  0
  152.6975  144.0238  161.4836 C   0  0  0  0  0  0  0  0  0  0  0  0
  155.9441  142.3640  164.6454 N   0  0  0  0  0  0  0  0  0  0  0  0
  156.5046  142.1707  165.8997 C   0  0  0  0  0  0  0  0  0  0  0  0
  156.7005  140.8511  166.1471 C   0  0  0  0  0  0  0  0  0  0  0  0
  157.2978  140.3629  167.3953 C   0  0  0  0  0  0  0  0  0  0  0  0
  157.5010  139.1733  167.6289 O   0  0  0  0  0  0  0  0  0  0  0  0
  157.6059  141.3603  168.2600 N   0  0  0  0  0  0  0  0  0  0  0  0
  157.4282  142.7054  168.0782 C   0  0  0  0  0  0  0  0  0  0  0  0
  157.7587  143.4892  168.9675 O   0  0  0  0  0  0  0  0  0  0  0  0
  156.8801  143.1207  166.8894 N   0  0  0  0  0  0  0  0  0  0  0  0
  156.6575  144.5367  166.5902 C   0  0  0  0  0  0  0  0  0  0  0  0
  158.0162  141.0792  169.1386 H   0  0  0  0  0  0  0  0  0  0  0  0
  155.6008  134.9927  164.2263 H   0  0  0  0  0  0  0  0  0  0  0  0
  155.1891  135.7518  165.7644 H   0  0  0  0  0  0  0  0  0  0  0  0
  156.6434  136.2541  164.8836 H   0  0  0  0  0  0  0  0  0  0  0  0
  154.1733  138.8486  164.1816 H   0  0  0  0  0  0  0  0  0  0  0  0
  154.3911  138.0355  165.7293 H   0  0  0  0  0  0  0  0  0  0  0  0
  156.7778  138.2184  165.6357 H   0  0  0  0  0  0  0  0  0  0  0  0
  156.8016  138.4718  163.9180 H   0  0  0  0  0  0  0  0  0  0  0  0
  155.2782  139.7846  162.6822 H   0  0  0  0  0  0  0  0  0  0  0  0
  152.9562  141.0754  162.4419 H   0  0  0  0  0  0  0  0  0  0  0  0
  152.9377  141.4414  159.2466 H   0  0  0  0  0  0  0  0  0  0  0  0
  151.9043  143.1320  157.7762 H   0  0  0  0  0  0  0  0  0  0  0  0
  151.3681  145.3989  158.6504 H   0  0  0  0  0  0  0  0  0  0  0  0
  151.8758  145.9679  161.0187 H   0  0  0  0  0  0  0  0  0  0  0  0
  152.9117  144.2870  162.5097 H   0  0  0  0  0  0  0  0  0  0  0  0
  156.9534  145.2128  167.3929 H   0  0  0  0  0  0  0  0  0  0  0  0
  155.6003  144.7123  166.3887 H   0  0  0  0  0  0  0  0  0  0  0  0
  157.2196  144.8207  165.6999 H   0  0  0  0  0  0  0  0  0  0  0  0
  1  2  1  0  0  0  0
  1 27  1  0  0  0  0
  1 28  1  0  0  0  0
  1 29  1  0  0  0  0
  2  3  1  0  0  0  0
  3  4  1  0  0  0  0
  3 30  1  0  0  0  0
  3 31  1  0  0  0  0
  4  5  1  0  0  0  0
  4 32  1  0  0  0  0
  4 33  1  0  0  0  0
  5 18  1  0  0  0  0
  5  6  1  0  0  0  0
  6  7  1  0  0  0  0
  6 16  2  0  0  0  0
  7  8  1  0  0  0  0
  7 34  1  0  0  0  0
  8  9  2  0  0  0  0
  9 10  1  0  0  0  0
  9 35  1  0  0  0  0
 10 15  1  0  0  0  0
 10 11  2  0  0  0  0
 11 12  1  0  0  0  0
 11 36  1  0  0  0  0
 12 13  2  0  0  0  0
 12 37  1  0  0  0  0
 13 14  1  0  0  0  0
 13 38  1  0  0  0  0
 14 15  2  0  0  0  0
 14 39  1  0  0  0  0
 15 40  1  0  0  0  0
 16 17  1  0  0  0  0
 17 24  1  0  0  0  0
 17 18  2  0  0  0  0
 18 19  1  0  0  0  0
 19 20  2  0  0  0  0
 19 21  1  0  0  0  0
 21 26  1  0  0  0  0
 21 22  1  0  0  0  0
 22 23  2  0  0  0  0
 22 24  1  0  0  0  0
 24 25  1  0  0  0  0
 25 41  1  0  0  0  0
 25 42  1  0  0  0  0
 25 43  1  0  0  0  0
M  END
> <s_m_source_file>
AV-unprocessed.smi

> <i_m_source_file_index>
481

> <i_lp_mmshare_version>
43012

> <i_f3d_flags>
0

> <s_epik_input>
W0NIM11uMWMoPU8pW25IXWMoPU8pYyhjMTIpbihbQ0gyXVtDSDJdT1tDSDNdKWMobjIpW05IXS9OPVtDSF0vYzNbY0hdW2NIXVtjSF1bY0hdW2NIXTM=

> <s_epik_cmdline>
J2VwaWtfcHl0aG9uJywgJy1waCcsICc3LjAnLCAnLXRuJywgJzgnLCAnLW1hJywgJzIwMCcsICctbWV0YWxfYmluZGluZycsICctaW1hZScsICc8aW5maWxlLm1hZT4nLCAnLW9tYWUnLCAnPG91dGZpbGUubWFlPic=

> <r_epik_Ionization_Penalty>
0.000595515

> <r_epik_Ionization_Penalty_Charging>
0.000305988

> <r_epik_Ionization_Penalty_Neutral>
0.000289528

> <r_epik_State_Penalty>
0.000184189

> <r_epik_Charging_Adjusted_Penalty>
0.000490177

> <i_epik_Tot_Q>
0

> <i_epik_Tot_abs_Q>
0

> <r_epik_Metal_State_Penalty>
0.173754

> <b_epik_Metal_Only>
0

> <s_epik_Chemistry_Notes>
This compound has an imine and may undergo hydrolysis.

> <s_lp_Force_Field>
OPLS_2005

> <r_lp_Energy>
32.4826

> <b_lp_Chiralities_Consistent>
1

> <s_lp_Variant>
AV-unprocessed.smi:481-1

> <Gold.Version>
5.8.1

> <Gold.Id.Protein>
6NUR|6NUR_protein|mol2

> <Gold.PLP.Fitness>
47.5954

> <Gold.PLP.PLP>
-49.9688

> <Gold.PLP.part.hbond>
-2.3658

> <Gold.PLP.part.metal>
0.0000

> <Gold.PLP.part.buried>
-5.6926

> <Gold.PLP.part.nonpolar>
-40.8540

> <Gold.PLP.part.repulsive>
0.3420

> <Gold.PLP.ligand.clash>
0.0000

> <Gold.PLP.ligand.torsion>
1.2152

> <Gold.PLP.Chemscore.Hbond>
0.0000

> <Gold.PLP.Chemscore.CHOScore>
0.0000

> <Gold.PLP.Chemscore.Metal>
0.0000

> <Gold.PLP.Chemscore.Internal.Correction>
0.0570

> <Gold.Rescore>
     Score         DG    S(hbond)    S(metal)    S(lipo)     H(rot)  DE(clash)    DE(int)     intcor
     10.36     -12.27       0.00        0.00      91.71       1.54       0.60       1.30       ----

> <Gold.Chemscore.Fitness>
10.3635

> <Gold.Chemscore.DG>
-12.2658

> <Gold.Chemscore.ZeroCoef>
-5.4800

> <Gold.Chemscore.Hbond>
0.0000

> <Gold.Chemscore.Metal>
0.0000

> <Gold.Chemscore.Lipo>
91.7073

> <Gold.Chemscore.Internal_Hbond>
0.0000

> <Gold.Chemscore.DEClash>
0.6025

> <Gold.Chemscore.DEInternal>
1.2998

> <Gold.Chemscore.Rot>
1.5406

> <Gold.Chemscore.Internal.Correction>
   9.000000E+99

> <Gold.Chemscore.Hbond.Weighted>
-0.0000

> <Gold.Chemscore.Metal.Weighted>
-0.0000

> <Gold.Chemscore.Lipo.Weighted>
-10.7298

> <Gold.Chemscore.Internal_Hbond.Weighted>
0.0000

> <Gold.Chemscore.DEClash.Weighted>
0.6025

> <Gold.Chemscore.DEInternal.Weighted>
1.2998

> <Gold.Chemscore.Rot.Weighted>
3.9440

> <Gold.Chemscore.Internal.Correction.Weighted>
   9.000000E+99

> <Gold.Protein.RotatedTorsions>
[ 6907 6896 6895 6894 ] final  118.57 input  -60.11 | X-H torsion
[ 7974 7965 7964 7962 ] final  -19.29 input  175.53 | X-H torsion
[ 8008 7997 7996 7995 ] final   94.25 input   59.86 | X-H torsion
[ 10167 10162 10161 10158 ] final  145.69 input  -65.29 | X-H torsion
[ 10718 10713 10712 10709 ] final  142.19 input   66.30 | X-H torsion
[ 10763 10752 10751 10750 ] final -108.94 input  -60.55 | X-H torsion
[ 11005 11000 10999 10996 ] final -111.27 input  -57.11 | X-H torsion

> <Gold.Protein.ActiveResidues>
 VAL166  LYS551  ARG553  GLY616  TRP617  ASP618  TYR619  PRO620  LYS621  CYS622 
 ASP623  PHE694  ASN695  SER759  ASP760  ASP761  ALA762  ILE779  LEU786  VAL792 
 PHE793  MET794  SER795  GLU796  ALA797  LYS798  CYS799  TRP800  GLU811  SER814 

> <Gold.Protein.RotatedAtoms>
  152.4533  133.7673  159.6779 H   0  0  0  0  0  0  0  0  0  0  0  0  # atno 6907 bound_to 6896
  150.8452  133.7863  159.3052 H   0  0  0  0  0  0  0  0  0  0  0  0  # atno 6908 bound_to 6896
  151.5475  135.1070  159.9993 H   0  0  0  0  0  0  0  0  0  0  0  0  # atno 6909 bound_to 6896
  146.1849  140.4041  142.8480 H   0  0  0  0  0  0  0  0  0  0  0  0  # atno 7974 bound_to 7965
  156.0558  140.3302  155.7403 H   0  0  0  0  0  0  0  0  0  0  0  0  # atno 8008 bound_to 7997
  155.5531  140.0612  157.2863 H   0  0  0  0  0  0  0  0  0  0  0  0  # atno 8009 bound_to 7997
  154.4457  140.1890  156.0695 H   0  0  0  0  0  0  0  0  0  0  0  0  # atno 8010 bound_to 7997
  139.4921  144.5883  151.6732 H   0  0  0  0  0  0  0  0  0  0  0  0  # atno 10167 bound_to 10162
  157.3834  131.0995  151.0716 H   0  0  0  0  0  0  0  0  0  0  0  0  # atno 10718 bound_to 10713
  154.8164  135.4619  154.0656 H   0  0  0  0  0  0  0  0  0  0  0  0  # atno 10763 bound_to 10752
  153.2045  135.6873  153.8196 H   0  0  0  0  0  0  0  0  0  0  0  0  # atno 10764 bound_to 10752
  153.7669  135.3276  155.3323 H   0  0  0  0  0  0  0  0  0  0  0  0  # atno 10765 bound_to 10752
  141.0744  133.9326  157.2420 H   0  0  0  0  0  0  0  0  0  0  0  0  # atno 11005 bound_to 11000
  144.8379  140.6811  143.6248 LP  0  0  0  0  0  0  0  0  0  0  0  0  # atno 17320 bound_to 7965
  145.3969  139.1605  143.4199 LP  0  0  0  0  0  0  0  0  0  0  0  0  # atno 17321 bound_to 7965
  140.5504  144.0434  150.6125 LP  0  0  0  0  0  0  0  0  0  0  0  0  # atno 17342 bound_to 10162
  140.3486  143.2976  152.0511 LP  0  0  0  0  0  0  0  0  0  0  0  0  # atno 17343 bound_to 10162
  157.1776  130.6295  149.5661 LP  0  0  0  0  0  0  0  0  0  0  0  0  # atno 17370 bound_to 10713
  155.9781  130.4764  150.6635 LP  0  0  0  0  0  0  0  0  0  0  0  0  # atno 17371 bound_to 10713
  139.9556  135.0166  156.9119 LP  0  0  0  0  0  0  0  0  0  0  0  0  # atno 17394 bound_to 11000
  140.5605  134.0539  155.7397 LP  0  0  0  0  0  0  0  0  0  0  0  0  # atno 17395 bound_to 11000

$$$$
