AV-unprocessed.smi:2559|AV-procd|sdf|10037|dock3
  -GOLD-   2272014 83D 1   1.00000     0.00000
 Structure written by MMmdl.
 43 45  0  0  0  0  0  0  0  0  2 V2000
  153.5510  137.2128  159.0716 C   0  0  0  0  0  0  0  0  0  0  0  0
  152.8214  137.8234  157.9557 N   0  0  0  0  0  0  0  0  0  0  0  0
  152.4101  137.1171  156.8545 C   0  0  0  0  0  0  0  0  0  0  0  0
  152.6540  135.9116  156.7988 O   0  0  0  0  0  0  0  0  0  0  0  0
  151.7389  137.7642  155.8392 N   0  5  0  0  0  0  0  0  0  0  0  0
  151.4250  139.0976  155.7999 C   0  0  0  0  0  0  0  0  0  0  0  0
  150.8578  139.6889  154.8833 O   0  0  0  0  0  0  0  0  0  0  0  0
  151.8638  139.8110  157.0213 C   0  0  0  0  0  0  0  0  0  0  0  0
  152.5385  139.2119  158.0383 C   0  0  0  0  0  0  0  0  0  0  0  0
  152.8678  140.1202  159.0313 N   0  0  0  0  0  0  0  0  0  0  0  0
  152.3459  141.2608  158.5762 C   0  0  0  0  0  0  0  0  0  0  0  0
  152.4523  142.4714  159.2627 N   0  0  0  0  0  0  0  0  0  0  0  0
  152.7357  143.7460  158.6049 C   0  0  0  0  0  0  0  0  0  0  0  0
  151.7746  144.8515  159.0777 C   0  0  0  0  0  0  0  0  0  0  0  0
  151.8511  145.0247  160.6006 C   0  0  0  0  0  0  0  0  0  0  0  0
  151.6564  143.6684  161.2910 C   0  0  0  0  0  0  0  0  0  0  0  0
  152.6231  142.6224  160.7083 C   0  0  0  0  0  0  0  0  0  0  0  0
  151.7333  141.1626  157.3643 N   0  0  0  0  0  0  0  0  0  0  0  0
  151.1284  142.2344  156.5721 C   0  0  0  0  0  0  0  0  0  0  0  0
  149.5862  142.1677  156.5567 C   0  0  1  0  0  0  0  0  0  0  0  0
  149.1082  142.3308  155.2359 O   0  0  0  0  0  0  0  0  0  0  0  0
  149.0438  140.8319  157.0919 C   0  0  0  0  0  0  0  0  0  0  0  0
  147.6320  140.8226  157.0836 O   0  0  0  0  0  0  0  0  0  0  0  0
  153.6733  136.1322  158.9930 H   0  0  0  0  0  0  0  0  0  0  0  0
  153.0300  137.4096  160.0089 H   0  0  0  0  0  0  0  0  0  0  0  0
  154.5472  137.6502  159.1441 H   0  0  0  0  0  0  0  0  0  0  0  0
  153.7700  144.0316  158.8015 H   0  0  0  0  0  0  0  0  0  0  0  0
  152.6463  143.6255  157.5247 H   0  0  0  0  0  0  0  0  0  0  0  0
  152.0130  145.7926  158.5816 H   0  0  0  0  0  0  0  0  0  0  0  0
  150.7544  144.5966  158.7876 H   0  0  0  0  0  0  0  0  0  0  0  0
  152.8233  145.4376  160.8726 H   0  0  0  0  0  0  0  0  0  0  0  0
  151.1000  145.7374  160.9419 H   0  0  0  0  0  0  0  0  0  0  0  0
  151.8151  143.7688  162.3649 H   0  0  0  0  0  0  0  0  0  0  0  0
  150.6272  143.3358  161.1588 H   0  0  0  0  0  0  0  0  0  0  0  0
  152.4981  141.6622  161.2075 H   0  0  0  0  0  0  0  0  0  0  0  0
  153.6525  142.9237  160.9070 H   0  0  0  0  0  0  0  0  0  0  0  0
  151.4672  143.1994  156.9410 H   0  0  0  0  0  0  0  0  0  0  0  0
  151.5112  142.1935  155.5565 H   0  0  0  0  0  0  0  0  0  0  0  0
  149.1795  142.9864  157.1516 H   0  0  0  0  0  0  0  0  0  0  0  0
  148.7748  143.2113  155.1441 H   0  0  0  0  0  0  0  0  0  0  0  0
  149.3912  140.0044  156.4720 H   0  0  0  0  0  0  0  0  0  0  0  0
  149.3984  140.6459  158.1063 H   0  0  0  0  0  0  0  0  0  0  0  0
  147.3297  140.5725  157.9433 H   0  0  0  0  0  0  0  0  0  0  0  0
  1  2  1  0  0  0  0
  1 24  1  0  0  0  0
  1 25  1  0  0  0  0
  1 26  1  0  0  0  0
  2  9  1  0  0  0  0
  2  3  1  0  0  0  0
  3  4  2  0  0  0  0
  3  5  1  0  0  0  0
  5  6  1  0  0  0  0
  6  7  2  0  0  0  0
  6  8  1  0  0  0  0
  8 18  1  0  0  0  0
  8  9  2  0  0  0  0
  9 10  1  0  0  0  0
 10 11  2  0  0  0  0
 11 12  1  0  0  0  0
 11 18  1  0  0  0  0
 12 17  1  0  0  0  0
 12 13  1  0  0  0  0
 13 14  1  0  0  0  0
 13 27  1  0  0  0  0
 13 28  1  0  0  0  0
 14 15  1  0  0  0  0
 14 29  1  0  0  0  0
 14 30  1  0  0  0  0
 15 16  1  0  0  0  0
 15 31  1  0  0  0  0
 15 32  1  0  0  0  0
 16 17  1  0  0  0  0
 16 33  1  0  0  0  0
 16 34  1  0  0  0  0
 17 35  1  0  0  0  0
 17 36  1  0  0  0  0
 18 19  1  0  0  0  0
 19 20  1  0  0  0  0
 19 37  1  0  0  0  0
 19 38  1  0  0  0  0
 20 21  1  0  0  0  0
 20 22  1  0  0  0  0
 20 39  1  0  0  0  0
 21 40  1  0  0  0  0
 22 23  1  0  0  0  0
 22 41  1  0  0  0  0
 22 42  1  0  0  0  0
 23 43  1  0  0  0  0
M  CHG  1   5  -1
M  END
> <s_m_source_file>
AV-unprocessed.smi

> <i_m_source_file_index>
2559

> <i_lp_mmshare_version>
43012

> <i_f3d_flags>
0

> <s_epik_input>
Tz1jMVtuSF1jKD1PKW4oW0NIM10pYyhjMTIpbmMobjJbQ0gyXVtDQEhdKFtPSF0pW0NIMl1bT0hdKU4zW0NIMl1bQ0gyXVtDSDJdW0NIMl1bQ0gyXTM=

> <s_epik_cmdline>
J2VwaWtfcHl0aG9uJywgJy1waCcsICc3LjAnLCAnLXRuJywgJzgnLCAnLW1hJywgJzIwMCcsICctbWV0YWxfYmluZGluZycsICctaW1hZScsICc8aW5maWxlLm1hZT4nLCAnLW9tYWUnLCAnPG91dGZpbGUubWFlPic=

> <r_lp_tautomer_probability>
1

> <r_epik_Ionization_Penalty>
5.90509

> <r_epik_Ionization_Penalty_Charging>
0.0759636

> <r_epik_Ionization_Penalty_Neutral>
5.82913

> <r_epik_State_Penalty>
5.18635

> <r_epik_Charging_Adjusted_Penalty>
5.26231

> <i_epik_Tot_Q>
-1

> <i_epik_Tot_abs_Q>
1

> <r_epik_Metal_State_Penalty>
1.25614

> <b_epik_Metal_Only>
1

> <s_lp_Force_Field>
OPLS_2005

> <r_lp_Energy>
39.3002

> <b_lp_Chiralities_Consistent>
1

> <s_lp_Variant>
AV-unprocessed.smi:2559-4

> <Gold.Version>
5.8.1

> <Gold.Id.Protein>
6NUR|6NUR_protein|mol2

> <Gold.PLP.Fitness>
47.6421

> <Gold.PLP.PLP>
-40.5186

> <Gold.PLP.part.hbond>
-2.7308

> <Gold.PLP.part.metal>
0.0000

> <Gold.PLP.part.buried>
-5.0801

> <Gold.PLP.part.nonpolar>
-32.3639

> <Gold.PLP.part.repulsive>
0.0588

> <Gold.PLP.ligand.clash>
0.0011

> <Gold.PLP.ligand.torsion>
1.2733

> <Gold.PLP.Chemscore.Hbond>
2.9913

> <Gold.PLP.Chemscore.CHOScore>
0.0000

> <Gold.PLP.Chemscore.Metal>
0.0000

> <Gold.Chemscore.Hbonds>
donor molecule, donor type, donor heavy atom, donor atom, acceptor molecule, acceptor atom, score
      L1  H    21    40       P1  8028  0.94
      P1  H  7989  7998       L1     7  1.00
      P1  H 10752 10763       L1     4  1.00

> <Gold.PLP.Chemscore.Internal.Correction>
0.6974

> <Gold.Rescore>
     Score         DG    S(hbond)    S(metal)    S(lipo)     H(rot)  DE(clash)    DE(int)     intcor
     14.58     -17.90       2.90        0.00      87.50       2.93       0.81       2.51       ----

> <Gold.Chemscore.Fitness>
14.5776

> <Gold.Chemscore.DG>
-17.8970

> <Gold.Chemscore.ZeroCoef>
-5.4800

> <Gold.Chemscore.Hbond>
2.9006

> <Gold.Chemscore.Metal>
0.0000

> <Gold.Chemscore.Lipo>
87.4990

> <Gold.Chemscore.Internal_Hbond>
0.0000

> <Gold.Chemscore.DEClash>
0.8127

> <Gold.Chemscore.DEInternal>
2.5067

> <Gold.Chemscore.Rot>
2.9330

> <Gold.Chemscore.Internal.Correction>
   9.000000E+99

> <Gold.Chemscore.Hbonds>
donor molecule, donor type, donor heavy atom, donor atom, acceptor molecule, acceptor atom, score
      L1  H    21    40       P1  8028  0.89
      P1  H  7989  7998       L1     7  0.98
      P1  H 10752 10763       L1     4  0.85

> <Gold.Chemscore.Hbond.Weighted>
-9.6880

> <Gold.Chemscore.Metal.Weighted>
-0.0000

> <Gold.Chemscore.Lipo.Weighted>
-10.2374

> <Gold.Chemscore.Internal_Hbond.Weighted>
0.0000

> <Gold.Chemscore.DEClash.Weighted>
0.8127

> <Gold.Chemscore.DEInternal.Weighted>
2.5067

> <Gold.Chemscore.Rot.Weighted>
7.5084

> <Gold.Chemscore.Internal.Correction.Weighted>
   9.000000E+99

> <Gold.Protein.RotatedTorsions>
[ 6907 6896 6895 6894 ] final  -56.32 input  -60.11 | X-H torsion
[ 7974 7965 7964 7962 ] final -179.80 input  175.53 | X-H torsion
[ 8008 7997 7996 7995 ] final -141.84 input   59.86 | X-H torsion
[ 10167 10162 10161 10158 ] final   88.13 input  -65.29 | X-H torsion
[ 10718 10713 10712 10709 ] final  -63.63 input   66.30 | X-H torsion
[ 10763 10752 10751 10750 ] final  104.67 input  -60.55 | X-H torsion
[ 11005 11000 10999 10996 ] final   94.82 input  -57.11 | X-H torsion

> <Gold.Protein.ActiveResidues>
 VAL166  LYS551  ARG553  GLY616  TRP617  ASP618  TYR619  PRO620  LYS621  CYS622 
 ASP623  PHE694  ASN695  SER759  ASP760  ASP761  ALA762  ILE779  LEU786  VAL792 
 PHE793  MET794  SER795  GLU796  ALA797  LYS798  CYS799  TRP800  GLU811  SER814 

> <Gold.Protein.RotatedAtoms>
  150.8177  134.7368  159.6744 H   0  0  0  0  0  0  0  0  0  0  0  0  # atno 6907 bound_to 6896
  152.4295  134.5802  159.9955 H   0  0  0  0  0  0  0  0  0  0  0  0  # atno 6908 bound_to 6896
  151.5994  133.3320  159.3080 H   0  0  0  0  0  0  0  0  0  0  0  0  # atno 6909 bound_to 6896
  144.7139  140.0663  143.6431 H   0  0  0  0  0  0  0  0  0  0  0  0  # atno 7974 bound_to 7965
  155.4844  140.0563  157.2962 H   0  0  0  0  0  0  0  0  0  0  0  0  # atno 8008 bound_to 7997
  154.4647  140.2013  156.0101 H   0  0  0  0  0  0  0  0  0  0  0  0  # atno 8009 bound_to 7997
  156.0954  140.3227  155.7875 H   0  0  0  0  0  0  0  0  0  0  0  0  # atno 8010 bound_to 7997
  139.8703  144.6496  150.8957 H   0  0  0  0  0  0  0  0  0  0  0  0  # atno 10167 bound_to 10162
  156.0779  130.4223  150.1304 H   0  0  0  0  0  0  0  0  0  0  0  0  # atno 10718 bound_to 10713
  153.3691  135.3935  155.1775 H   0  0  0  0  0  0  0  0  0  0  0  0  # atno 10763 bound_to 10752
  154.8691  135.3698  154.5001 H   0  0  0  0  0  0  0  0  0  0  0  0  # atno 10764 bound_to 10752
  153.5467  135.7083  153.5671 H   0  0  0  0  0  0  0  0  0  0  0  0  # atno 10765 bound_to 10752
  139.8795  134.8866  156.3920 H   0  0  0  0  0  0  0  0  0  0  0  0  # atno 11005 bound_to 11000
  145.9821  139.2949  143.1035 LP  0  0  0  0  0  0  0  0  0  0  0  0  # atno 17320 bound_to 7965
  145.8999  140.9250  143.0508 LP  0  0  0  0  0  0  0  0  0  0  0  0  # atno 17321 bound_to 7965
  140.7761  143.3669  151.1722 LP  0  0  0  0  0  0  0  0  0  0  0  0  # atno 17342 bound_to 10162
  139.7290  143.9103  152.3013 LP  0  0  0  0  0  0  0  0  0  0  0  0  # atno 17343 bound_to 10162
  156.9342  130.9723  151.3527 LP  0  0  0  0  0  0  0  0  0  0  0  0  # atno 17370 bound_to 10713
  157.5883  130.8425  149.8621 LP  0  0  0  0  0  0  0  0  0  0  0  0  # atno 17371 bound_to 10713
  140.9326  133.7568  156.0044 LP  0  0  0  0  0  0  0  0  0  0  0  0  # atno 17394 bound_to 11000
  140.8312  134.3176  157.5348 LP  0  0  0  0  0  0  0  0  0  0  0  0  # atno 17395 bound_to 11000

$$$$
