AV-unprocessed.smi:368|AV-procd|sdf|2434|dock10
  -GOLD-   2262022373D 1   1.00000     0.00000
 Structure written by MMmdl.
 37 38  0  0  0  0  0  0  0  0  1 V2000
  151.6766  140.2542  155.1612 O   0  0  0  0  0  0  0  0  0  0  0  0
  150.5624  140.5702  155.5811 C   0  0  0  0  0  0  0  0  0  0  0  0
  149.2860  140.0161  154.9312 C   0  0  0  0  0  0  0  0  0  0  0  0
  148.1310  140.9227  155.0361 N   0  0  0  0  0  0  0  0  0  0  0  0
  147.7892  141.6715  153.8975 C   0  0  0  0  0  0  0  0  0  0  0  0
  146.7510  142.5196  153.9174 C   0  0  0  0  0  0  0  0  0  0  0  0
  146.0094  142.6136  155.1817 C   0  0  0  0  0  0  0  0  0  0  0  0
  146.3214  141.9362  156.2230 N   0  0  0  0  0  0  0  0  0  0  0  0
  147.4155  141.0503  156.2011 C   0  0  0  0  0  0  0  0  0  0  0  0
  147.7267  140.4027  157.2008 O   0  0  0  0  0  0  0  0  0  0  0  0
  150.3750  141.3946  156.6232 N   0  0  0  0  0  0  0  0  0  0  0  0
  151.4309  142.0431  157.3972 C   0  0  0  0  0  0  0  0  0  0  0  0
  151.4086  141.4805  158.8339 C   0  0  0  0  0  0  0  0  0  0  0  0
  152.6710  141.8272  159.6415 C   0  0  0  0  0  0  0  0  0  0  0  0
  152.6362  143.1738  160.3851 C   0  0  0  0  0  0  0  0  0  0  0  0
  151.9958  144.3556  159.6369 C   0  0  0  0  0  0  0  0  0  0  0  0
  152.2628  144.4006  158.1238 C   0  0  0  0  0  0  0  0  0  0  0  0
  151.2495  143.5731  157.3144 C   0  0  0  0  0  0  0  0  0  0  0  0
  149.5044  139.7994  153.8845 H   0  0  0  0  0  0  0  0  0  0  0  0
  149.0446  139.0503  155.3792 H   0  0  0  0  0  0  0  0  0  0  0  0
  148.4166  141.5175  153.0317 H   0  0  0  0  0  0  0  0  0  0  0  0
  146.4369  143.1254  153.0803 H   0  0  0  0  0  0  0  0  0  0  0  0
  145.1643  143.3069  155.1773 H   0  0  0  0  0  0  0  0  0  0  0  0
  149.4245  141.5950  156.8988 H   0  0  0  0  0  0  0  0  0  0  0  0
  152.3932  141.7821  156.9524 H   0  0  0  0  0  0  0  0  0  0  0  0
  150.5087  141.7920  159.3659 H   0  0  0  0  0  0  0  0  0  0  0  0
  151.3533  140.3925  158.7697 H   0  0  0  0  0  0  0  0  0  0  0  0
  152.8421  141.0441  160.3810 H   0  0  0  0  0  0  0  0  0  0  0  0
  153.5420  141.7932  158.9860 H   0  0  0  0  0  0  0  0  0  0  0  0
  152.1107  143.0464  161.3321 H   0  0  0  0  0  0  0  0  0  0  0  0
  153.6603  143.4359  160.6540 H   0  0  0  0  0  0  0  0  0  0  0  0
  150.9198  144.3599  159.8145 H   0  0  0  0  0  0  0  0  0  0  0  0
  152.3632  145.2771  160.0900 H   0  0  0  0  0  0  0  0  0  0  0  0
  152.1714  145.4376  157.7993 H   0  0  0  0  0  0  0  0  0  0  0  0
  153.2875  144.1066  157.8938 H   0  0  0  0  0  0  0  0  0  0  0  0
  151.3308  143.8729  156.2686 H   0  0  0  0  0  0  0  0  0  0  0  0
  150.2365  143.8441  157.6162 H   0  0  0  0  0  0  0  0  0  0  0  0
  1  2  2  0  0  0  0
  2  3  1  0  0  0  0
  2 11  1  0  0  0  0
  3  4  1  0  0  0  0
  3 19  1  0  0  0  0
  3 20  1  0  0  0  0
  4  9  1  0  0  0  0
  4  5  1  0  0  0  0
  5  6  2  0  0  0  0
  5 21  1  0  0  0  0
  6  7  1  0  0  0  0
  6 22  1  0  0  0  0
  7  8  2  0  0  0  0
  7 23  1  0  0  0  0
  8  9  1  0  0  0  0
  9 10  2  0  0  0  0
 11 12  1  0  0  0  0
 11 24  1  0  0  0  0
 12 18  1  0  0  0  0
 12 13  1  0  0  0  0
 12 25  1  0  0  0  0
 13 14  1  0  0  0  0
 13 26  1  0  0  0  0
 13 27  1  0  0  0  0
 14 15  1  0  0  0  0
 14 28  1  0  0  0  0
 14 29  1  0  0  0  0
 15 16  1  0  0  0  0
 15 30  1  0  0  0  0
 15 31  1  0  0  0  0
 16 17  1  0  0  0  0
 16 32  1  0  0  0  0
 16 33  1  0  0  0  0
 17 18  1  0  0  0  0
 17 34  1  0  0  0  0
 17 35  1  0  0  0  0
 18 36  1  0  0  0  0
 18 37  1  0  0  0  0
M  END
> <s_m_source_file>
AV-unprocessed.smi

> <i_m_source_file_index>
368

> <i_lp_mmshare_version>
43012

> <i_f3d_flags>
0

> <s_epik_input>
W0NIMl0xW0NIMl1bQ0gyXVtDSDJdW0NIMl1bQ0gyXVtDSF0xW05IXUMoPU8pW0NIMl1uMltjSF1bY0hdW2NIXW5jMj1P

> <s_epik_cmdline>
J2VwaWtfcHl0aG9uJywgJy1waCcsICc3LjAnLCAnLXRuJywgJzgnLCAnLW1hJywgJzIwMCcsICctbWV0YWxfYmluZGluZycsICctaW1hZScsICc8aW5maWxlLm1hZT4nLCAnLW9tYWUnLCAnPG91dGZpbGUubWFlPic=

> <r_lp_tautomer_probability>
1

> <r_epik_Ionization_Penalty>
7.18069e-06

> <r_epik_Ionization_Penalty_Charging>
1.77491e-08

> <r_epik_Ionization_Penalty_Neutral>
7.16294e-06

> <r_epik_State_Penalty>
-0

> <r_epik_Charging_Adjusted_Penalty>
1.77491e-08

> <i_epik_Tot_Q>
0

> <i_epik_Tot_abs_Q>
0

> <r_epik_Metal_State_Penalty>
-0

> <b_epik_Metal_Only>
0

> <s_lp_Force_Field>
OPLS_2005

> <r_lp_Energy>
17.0449

> <b_lp_Chiralities_Consistent>
1

> <s_lp_Variant>
AV-unprocessed.smi:368-1

> <Gold.Version>
5.8.1

> <Gold.Id.Protein>
6NUR|6NUR_protein|mol2

> <Gold.PLP.Fitness>
44.5341

> <Gold.PLP.PLP>
-40.0063

> <Gold.PLP.part.hbond>
-1.0000

> <Gold.PLP.part.metal>
0.0000

> <Gold.PLP.part.buried>
-4.7467

> <Gold.PLP.part.nonpolar>
-33.7713

> <Gold.PLP.part.repulsive>
0.2079

> <Gold.PLP.ligand.clash>
0.0000

> <Gold.PLP.ligand.torsion>
0.6337

> <Gold.PLP.Chemscore.Hbond>
0.9280

> <Gold.PLP.Chemscore.CHOScore>
0.9990

> <Gold.PLP.Chemscore.Metal>
0.0000

> <Gold.Chemscore.Hbonds>
donor molecule, donor type, donor heavy atom, donor atom, acceptor molecule, acceptor atom, score
      P1  H  7989  7998       L1     1  0.91
      L1  C     5    21       P1  7957  0.70

> <Gold.PLP.Chemscore.Internal.Correction>
0.0142

> <Gold.Rescore>
     Score         DG    S(hbond)    S(metal)    S(lipo)     H(rot)  DE(clash)    DE(int)     intcor
     14.33     -15.95       0.95        0.00      95.05       1.50       0.08       1.54       ----

> <Gold.Chemscore.Fitness>
14.3313

> <Gold.Chemscore.DG>
-15.9547

> <Gold.Chemscore.ZeroCoef>
-5.4800

> <Gold.Chemscore.Hbond>
0.9544

> <Gold.Chemscore.Metal>
0.0000

> <Gold.Chemscore.Lipo>
95.0524

> <Gold.Chemscore.Internal_Hbond>
0.0000

> <Gold.Chemscore.DEClash>
0.0798

> <Gold.Chemscore.DEInternal>
1.5436

> <Gold.Chemscore.Rot>
1.4977

> <Gold.Chemscore.Internal.Correction>
   9.000000E+99

> <Gold.Chemscore.Hbonds>
donor molecule, donor type, donor heavy atom, donor atom, acceptor molecule, acceptor atom, score
      P1  H  7989  7998       L1     1  0.35

> <Gold.Chemscore.Hbond.Weighted>
-3.1877

> <Gold.Chemscore.Metal.Weighted>
-0.0000

> <Gold.Chemscore.Lipo.Weighted>
-11.1211

> <Gold.Chemscore.Internal_Hbond.Weighted>
0.0000

> <Gold.Chemscore.DEClash.Weighted>
0.0798

> <Gold.Chemscore.DEInternal.Weighted>
1.5436

> <Gold.Chemscore.Rot.Weighted>
3.8341

> <Gold.Chemscore.Internal.Correction.Weighted>
   9.000000E+99

> <Gold.Protein.RotatedTorsions>
[ 6907 6896 6895 6894 ] final  -57.30 input  -60.11 | X-H torsion
[ 7974 7965 7964 7962 ] final   60.00 input  175.53 | X-H torsion
[ 8008 7997 7996 7995 ] final  -41.82 input   59.86 | X-H torsion
[ 10167 10162 10161 10158 ] final -119.04 input  -65.29 | X-H torsion
[ 10718 10713 10712 10709 ] final   50.12 input   66.30 | X-H torsion
[ 10763 10752 10751 10750 ] final   65.09 input  -60.55 | X-H torsion
[ 11005 11000 10999 10996 ] final  -97.20 input  -57.11 | X-H torsion

> <Gold.Protein.ActiveResidues>
 VAL166  LYS551  ARG553  GLY616  TRP617  ASP618  TYR619  PRO620  LYS621  CYS622 
 ASP623  PHE694  ASN695  SER759  ASP760  ASP761  ALA762  ILE779  LEU786  VAL792 
 PHE793  MET794  SER795  GLU796  ALA797  LYS798  CYS799  TRP800  GLU811  SER814 

> <Gold.Protein.RotatedAtoms>
  150.8097  134.7245  159.6676 H   0  0  0  0  0  0  0  0  0  0  0  0  # atno 6907 bound_to 6896
  152.4217  134.5939  159.9991 H   0  0  0  0  0  0  0  0  0  0  0  0  # atno 6908 bound_to 6896
  151.6153  133.3306  159.3112 H   0  0  0  0  0  0  0  0  0  0  0  0  # atno 6909 bound_to 6896
  145.9009  139.3580  143.0593 H   0  0  0  0  0  0  0  0  0  0  0  0  # atno 7974 bound_to 7965
  154.4002  140.1489  156.3254 H   0  0  0  0  0  0  0  0  0  0  0  0  # atno 8008 bound_to 7997
  155.8492  140.3458  155.5660 H   0  0  0  0  0  0  0  0  0  0  0  0  # atno 8009 bound_to 7997
  155.8003  140.0869  157.1951 H   0  0  0  0  0  0  0  0  0  0  0  0  # atno 8010 bound_to 7997
  140.0510  143.5060  152.2082 H   0  0  0  0  0  0  0  0  0  0  0  0  # atno 10167 bound_to 10162
  157.4854  130.8341  149.8140 H   0  0  0  0  0  0  0  0  0  0  0  0  # atno 10718 bound_to 10713
  153.0082  135.5369  154.6612 H   0  0  0  0  0  0  0  0  0  0  0  0  # atno 10763 bound_to 10752
  154.5820  135.2851  155.0725 H   0  0  0  0  0  0  0  0  0  0  0  0  # atno 10764 bound_to 10752
  154.1851  135.6510  153.5097 H   0  0  0  0  0  0  0  0  0  0  0  0  # atno 10765 bound_to 10752
  141.1387  133.8153  157.0674 H   0  0  0  0  0  0  0  0  0  0  0  0  # atno 11005 bound_to 11000
  145.8792  140.9373  143.0610 LP  0  0  0  0  0  0  0  0  0  0  0  0  # atno 17320 bound_to 7965
  144.6736  140.0757  143.7471 LP  0  0  0  0  0  0  0  0  0  0  0  0  # atno 17321 bound_to 7965
  139.5953  144.7565  151.3301 LP  0  0  0  0  0  0  0  0  0  0  0  0  # atno 17342 bound_to 10162
  140.7217  143.7118  150.7764 LP  0  0  0  0  0  0  0  0  0  0  0  0  # atno 17343 bound_to 10162
  156.0144  130.3820  150.2159 LP  0  0  0  0  0  0  0  0  0  0  0  0  # atno 17370 bound_to 10713
  157.0347  131.0017  151.3302 LP  0  0  0  0  0  0  0  0  0  0  0  0  # atno 17371 bound_to 10713
  140.0533  134.9794  157.1175 LP  0  0  0  0  0  0  0  0  0  0  0  0  # atno 17394 bound_to 11000
  140.3957  134.2136  155.7164 LP  0  0  0  0  0  0  0  0  0  0  0  0  # atno 17395 bound_to 11000

$$$$
