AV-unprocessed.smi:3038|AV-procd|sdf|11590|dock3
  -GOLD-   2272016563D 1   1.00000     0.00000
 Structure written by MMmdl.
 36 38  0  0  0  0  0  0  0  0  1 V2000
  152.1680  139.3730  154.6732 O   0  0  0  0  0  0  0  0  0  0  0  0
  151.2834  139.0114  155.4492 C   0  0  0  0  0  0  0  0  0  0  0  0
  150.4103  137.8066  155.1010 C   0  0  0  0  0  0  0  0  0  0  0  0
  150.6213  136.7311  156.0505 N   0  0  0  0  0  0  0  0  0  0  0  0
  149.7808  136.1302  156.8951 C   0  0  0  0  0  0  0  0  0  0  0  0
  150.3889  135.1927  157.6057 N   0  0  0  0  0  0  0  0  0  0  0  0
  151.6940  135.2454  157.1447 N   0  0  0  0  0  0  0  0  0  0  0  0
  151.8382  136.1572  156.2224 N   0  0  0  0  0  0  0  0  0  0  0  0
  151.0155  139.6292  156.6102 N   0  0  0  0  0  0  0  0  0  0  0  0
  151.7018  140.8170  157.1079 C   0  0  0  0  0  0  0  0  0  0  0  0
  152.0155  140.6572  158.6032 C   0  0  0  0  0  0  0  0  0  0  0  0
  152.6203  141.9503  159.1784 C   0  0  0  0  0  0  0  0  0  0  0  0
  151.6960  143.0683  158.9876 N   0  0  0  0  0  0  0  0  0  0  0  0
  152.2767  144.2621  159.5802 C   0  0  0  0  0  0  0  0  0  0  0  0
  152.0966  144.4623  161.0677 C   0  0  0  0  0  0  0  0  0  0  0  0
  151.3277  145.3212  160.0930 C   0  0  0  0  0  0  0  0  0  0  0  0
  151.4853  143.3035  157.5589 C   0  0  0  0  0  0  0  0  0  0  0  0
  150.8345  142.0715  156.9057 C   0  0  0  0  0  0  0  0  0  0  0  0
  149.3579  138.0925  155.1230 H   0  0  0  0  0  0  0  0  0  0  0  0
  150.6271  137.4507  154.0924 H   0  0  0  0  0  0  0  0  0  0  0  0
  148.7344  136.3802  156.9905 H   0  0  0  0  0  0  0  0  0  0  0  0
  150.2665  139.2636  157.1807 H   0  0  0  0  0  0  0  0  0  0  0  0
  152.6452  140.9459  156.5735 H   0  0  0  0  0  0  0  0  0  0  0  0
  151.1067  140.4072  159.1530 H   0  0  0  0  0  0  0  0  0  0  0  0
  152.7079  139.8281  158.7544 H   0  0  0  0  0  0  0  0  0  0  0  0
  152.8159  141.8177  160.2432 H   0  0  0  0  0  0  0  0  0  0  0  0
  153.5779  142.1663  158.7016 H   0  0  0  0  0  0  0  0  0  0  0  0
  153.2133  144.6396  159.1726 H   0  0  0  0  0  0  0  0  0  0  0  0
  151.5385  143.7087  161.6202 H   0  0  0  0  0  0  0  0  0  0  0  0
  152.9137  144.9295  161.6135 H   0  0  0  0  0  0  0  0  0  0  0  0
  151.6332  146.3602  159.9881 H   0  0  0  0  0  0  0  0  0  0  0  0
  150.2589  145.1380  159.9990 H   0  0  0  0  0  0  0  0  0  0  0  0
  150.8365  144.1700  157.4250 H   0  0  0  0  0  0  0  0  0  0  0  0
  152.4333  143.5347  157.0704 H   0  0  0  0  0  0  0  0  0  0  0  0
  150.6830  142.2574  155.8418 H   0  0  0  0  0  0  0  0  0  0  0  0
  149.8440  141.9140  157.3358 H   0  0  0  0  0  0  0  0  0  0  0  0
  1  2  2  0  0  0  0
  2  3  1  0  0  0  0
  2  9  1  0  0  0  0
  3  4  1  0  0  0  0
  3 19  1  0  0  0  0
  3 20  1  0  0  0  0
  4  8  1  0  0  0  0
  4  5  1  0  0  0  0
  5  6  2  0  0  0  0
  5 21  1  0  0  0  0
  6  7  1  0  0  0  0
  7  8  2  0  0  0  0
  9 10  1  0  0  0  0
  9 22  1  0  0  0  0
 10 18  1  0  0  0  0
 10 11  1  0  0  0  0
 10 23  1  0  0  0  0
 11 12  1  0  0  0  0
 11 24  1  0  0  0  0
 11 25  1  0  0  0  0
 12 13  1  0  0  0  0
 12 26  1  0  0  0  0
 12 27  1  0  0  0  0
 13 14  1  0  0  0  0
 13 17  1  0  0  0  0
 14 16  1  0  0  0  0
 14 15  1  0  0  0  0
 14 28  1  0  0  0  0
 15 16  1  0  0  0  0
 15 29  1  0  0  0  0
 15 30  1  0  0  0  0
 16 31  1  0  0  0  0
 16 32  1  0  0  0  0
 17 18  1  0  0  0  0
 17 33  1  0  0  0  0
 17 34  1  0  0  0  0
 18 35  1  0  0  0  0
 18 36  1  0  0  0  0
M  END
> <s_m_source_file>
AV-unprocessed.smi

> <i_m_source_file_index>
3038

> <i_lp_mmshare_version>
43012

> <i_f3d_flags>
0

> <s_epik_input>
bjFubltjSF1uMVtDSDJdQyg9TylbTkhdW0NIXTJbQ0gyXVtDSDJdTihbQ0gyXVtDSDJdMilbQ0hdM1tDSDJdW0NIMl0z

> <s_epik_cmdline>
J2VwaWtfcHl0aG9uJywgJy1waCcsICc3LjAnLCAnLXRuJywgJzgnLCAnLW1hJywgJzIwMCcsICctbWV0YWxfYmluZGluZycsICctaW1hZScsICc8aW5maWxlLm1hZT4nLCAnLW9tYWUnLCAnPG91dGZpbGUubWFlPic=

> <r_lp_tautomer_probability>
1

> <r_epik_Ionization_Penalty>
0.571582

> <r_epik_Ionization_Penalty_Charging>
0

> <r_epik_Ionization_Penalty_Neutral>
0.571582

> <r_epik_State_Penalty>
0.583583

> <r_epik_Charging_Adjusted_Penalty>
0.583583

> <i_epik_Tot_Q>
0

> <i_epik_Tot_abs_Q>
0

> <r_epik_Metal_State_Penalty>
0.583583

> <b_epik_Metal_Only>
0

> <s_lp_Force_Field>
OPLS_2005

> <r_lp_Energy>
22.674

> <b_lp_Chiralities_Consistent>
1

> <s_lp_Variant>
AV-unprocessed.smi:3038-3

> <Gold.Version>
5.8.1

> <Gold.Id.Protein>
6NUR|6NUR_protein|mol2

> <Gold.PLP.Fitness>
41.6632

> <Gold.PLP.PLP>
-34.8163

> <Gold.PLP.part.hbond>
-4.0000

> <Gold.PLP.part.metal>
0.0000

> <Gold.PLP.part.buried>
-6.3963

> <Gold.PLP.part.nonpolar>
-25.6814

> <Gold.PLP.part.repulsive>
0.1499

> <Gold.PLP.ligand.clash>
0.0000

> <Gold.PLP.ligand.torsion>
0.8299

> <Gold.PLP.Chemscore.Hbond>
2.4400

> <Gold.PLP.Chemscore.CHOScore>
0.0000

> <Gold.PLP.Chemscore.Metal>
0.0000

> <Gold.Chemscore.Hbonds>
donor molecule, donor type, donor heavy atom, donor atom, acceptor molecule, acceptor atom, score
      P1  H  6896  6908       L1     6  0.61
      P1  H  7989  7998       L1     1  0.82
      P1  H 10752 10765       L1     8  1.00

> <Gold.PLP.Chemscore.Internal.Correction>
1.1866

> <Gold.Rescore>
     Score         DG    S(hbond)    S(metal)    S(lipo)     H(rot)  DE(clash)    DE(int)     intcor
     16.01     -17.19       2.32        0.00      82.19       2.21       0.07       1.11       ----

> <Gold.Chemscore.Fitness>
16.0093

> <Gold.Chemscore.DG>
-17.1892

> <Gold.Chemscore.ZeroCoef>
-5.4800

> <Gold.Chemscore.Hbond>
2.3196

> <Gold.Chemscore.Metal>
0.0000

> <Gold.Chemscore.Lipo>
82.1949

> <Gold.Chemscore.Internal_Hbond>
0.0000

> <Gold.Chemscore.DEClash>
0.0695

> <Gold.Chemscore.DEInternal>
1.1103

> <Gold.Chemscore.Rot>
2.2090

> <Gold.Chemscore.Internal.Correction>
   9.000000E+99

> <Gold.Chemscore.Hbonds>
donor molecule, donor type, donor heavy atom, donor atom, acceptor molecule, acceptor atom, score
      P1  H  6896  6908       L1     6  0.14
      P1  H  7989  7998       L1     1  0.73
      P1  H 10752 10765       L1     8  0.65

> <Gold.Chemscore.Hbond.Weighted>
-7.7475

> <Gold.Chemscore.Metal.Weighted>
-0.0000

> <Gold.Chemscore.Lipo.Weighted>
-9.6168

> <Gold.Chemscore.Internal_Hbond.Weighted>
0.0000

> <Gold.Chemscore.DEClash.Weighted>
0.0695

> <Gold.Chemscore.DEInternal.Weighted>
1.1103

> <Gold.Chemscore.Rot.Weighted>
5.6551

> <Gold.Chemscore.Internal.Correction.Weighted>
   9.000000E+99

> <Gold.Protein.RotatedTorsions>
[ 6907 6896 6895 6894 ] final  158.40 input  -60.11 | X-H torsion
[ 7974 7965 7964 7962 ] final  -41.11 input  175.53 | X-H torsion
[ 8008 7997 7996 7995 ] final -157.82 input   59.86 | X-H torsion
[ 10167 10162 10161 10158 ] final  -75.21 input  -65.29 | X-H torsion
[ 10718 10713 10712 10709 ] final  -98.22 input   66.30 | X-H torsion
[ 10763 10752 10751 10750 ] final -158.94 input  -60.55 | X-H torsion
[ 11005 11000 10999 10996 ] final -144.68 input  -57.11 | X-H torsion

> <Gold.Protein.ActiveResidues>
 VAL166  LYS551  ARG553  GLY616  TRP617  ASP618  TYR619  PRO620  LYS621  CYS622 
 ASP623  PHE694  ASN695  SER759  ASP760  ASP761  ALA762  ILE779  LEU786  VAL792 
 PHE793  MET794  SER795  GLU796  ALA797  LYS798  CYS799  TRP800  GLU811  SER814 

> <Gold.Protein.RotatedAtoms>
  152.0009  133.3825  159.4181 H   0  0  0  0  0  0  0  0  0  0  0  0  # atno 6907 bound_to 6896
  150.6910  134.3835  159.5054 H   0  0  0  0  0  0  0  0  0  0  0  0  # atno 6908 bound_to 6896
  152.1582  134.8933  160.0594 H   0  0  0  0  0  0  0  0  0  0  0  0  # atno 6909 bound_to 6896
  146.0242  140.6813  142.9164 H   0  0  0  0  0  0  0  0  0  0  0  0  # atno 7974 bound_to 7965
  155.7382  140.0811  157.2258 H   0  0  0  0  0  0  0  0  0  0  0  0  # atno 8008 bound_to 7997
  154.4025  140.1583  156.2641 H   0  0  0  0  0  0  0  0  0  0  0  0  # atno 8009 bound_to 7997
  155.9045  140.3407  155.6054 H   0  0  0  0  0  0  0  0  0  0  0  0  # atno 8010 bound_to 7997
  140.4962  143.2370  151.7827 H   0  0  0  0  0  0  0  0  0  0  0  0  # atno 10167 bound_to 10162
  156.0102  130.5228  150.6491 H   0  0  0  0  0  0  0  0  0  0  0  0  # atno 10718 bound_to 10713
  154.7516  135.3094  154.8547 H   0  0  0  0  0  0  0  0  0  0  0  0  # atno 10763 bound_to 10752
  153.9333  135.6783  153.4749 H   0  0  0  0  0  0  0  0  0  0  0  0  # atno 10764 bound_to 10752
  153.1112  135.4865  154.8966 H   0  0  0  0  0  0  0  0  0  0  0  0  # atno 10765 bound_to 10752
  140.7999  134.2869  157.4982 H   0  0  0  0  0  0  0  0  0  0  0  0  # atno 11005 bound_to 11000
  144.7002  140.3619  143.7162 LP  0  0  0  0  0  0  0  0  0  0  0  0  # atno 17320 bound_to 7965
  145.7145  139.1693  143.2520 LP  0  0  0  0  0  0  0  0  0  0  0  0  # atno 17321 bound_to 7965
  139.4862  144.4584  151.9571 LP  0  0  0  0  0  0  0  0  0  0  0  0  # atno 17342 bound_to 10162
  140.3672  144.2901  150.5925 LP  0  0  0  0  0  0  0  0  0  0  0  0  # atno 17343 bound_to 10162
  157.4256  131.0842  151.1089 LP  0  0  0  0  0  0  0  0  0  0  0  0  # atno 17370 bound_to 10713
  157.1678  130.6254  149.5631 LP  0  0  0  0  0  0  0  0  0  0  0  0  # atno 17371 bound_to 10713
  139.8722  134.9423  156.3823 LP  0  0  0  0  0  0  0  0  0  0  0  0  # atno 17394 bound_to 11000
  140.9305  133.7583  156.0018 LP  0  0  0  0  0  0  0  0  0  0  0  0  # atno 17395 bound_to 11000

$$$$
