AV-unprocessed.smi:3318|AV-procd|sdf|12762|dock8
  -GOLD-   2272019103D 1   1.00000     0.00000
 Structure written by MMmdl.
 45 46  0  0  0  0  0  0  0  0  3 V2000
  144.3704  131.6326  151.0098 C   0  0  0  0  0  0  0  0  0  0  0  0
  144.6340  133.1302  150.8183 C   0  0  0  0  0  0  0  0  0  0  0  0
  146.1146  133.4946  151.0265 C   0  0  0  0  0  0  0  0  0  0  0  0
  146.2962  134.8844  151.5184 N   0  3  2  0  0  0  0  0  0  0  0  0
  145.8961  135.0330  152.9418 C   0  0  0  0  0  0  0  0  0  0  0  0
  146.2180  136.4425  153.4685 C   0  0  0  0  0  0  0  0  0  0  0  0
  145.5430  137.5298  152.6159 C   0  0  1  0  0  0  0  0  0  0  0  0
  145.9119  138.8723  153.1215 N   0  3  0  0  0  0  0  0  0  0  0  0
  147.3364  139.2405  152.9670 C   0  0  0  0  0  0  0  0  0  0  0  0
  147.6245  140.6378  153.5387 C   0  0  0  0  0  0  0  0  0  0  0  0
  148.9351  140.7083  154.3020 C   0  0  0  0  0  0  0  0  0  0  0  0
  149.8310  139.6176  154.3029 C   0  0  0  0  0  0  0  0  0  0  0  0
  151.0328  139.7380  155.0275 C   0  0  0  0  0  0  0  0  0  0  0  0
  151.2887  140.9359  155.7223 C   0  0  0  0  0  0  0  0  0  0  0  0
  150.3288  141.9655  155.6605 C   0  0  0  0  0  0  0  0  0  0  0  0
  149.1730  141.8594  154.9694 N   0  0  0  0  0  0  0  0  0  0  0  0
  145.9487  137.3315  151.1423 C   0  0  0  0  0  0  0  0  0  0  0  0
  145.6343  135.9037  150.6609 C   0  0  0  0  0  0  0  0  0  0  0  0
  143.3158  131.4016  150.8589 H   0  0  0  0  0  0  0  0  0  0  0  0
  144.6409  131.3099  152.0156 H   0  0  0  0  0  0  0  0  0  0  0  0
  144.9449  131.0365  150.3002 H   0  0  0  0  0  0  0  0  0  0  0  0
  144.3223  133.4212  149.8145 H   0  0  0  0  0  0  0  0  0  0  0  0
  144.0009  133.6837  151.5111 H   0  0  0  0  0  0  0  0  0  0  0  0
  146.5962  132.7909  151.7074 H   0  0  0  0  0  0  0  0  0  0  0  0
  146.6221  133.3892  150.0664 H   0  0  0  0  0  0  0  0  0  0  0  0
  144.8297  134.8255  153.0458 H   0  0  0  0  0  0  0  0  0  0  0  0
  146.4225  134.2974  153.5515 H   0  0  0  0  0  0  0  0  0  0  0  0
  145.8941  136.5270  154.5068 H   0  0  0  0  0  0  0  0  0  0  0  0
  147.2995  136.5889  153.4703 H   0  0  0  0  0  0  0  0  0  0  0  0
  144.4616  137.4161  152.7099 H   0  0  0  0  0  0  0  0  0  0  0  0
  145.3731  139.5514  152.6021 H   0  0  0  0  0  0  0  0  0  0  0  0
  147.9598  138.5102  153.4825 H   0  0  0  0  0  0  0  0  0  0  0  0
  147.6114  139.2079  151.9118 H   0  0  0  0  0  0  0  0  0  0  0  0
  147.6298  141.3758  152.7351 H   0  0  0  0  0  0  0  0  0  0  0  0
  146.8163  140.9304  154.2105 H   0  0  0  0  0  0  0  0  0  0  0  0
  149.6091  138.7110  153.7589 H   0  0  0  0  0  0  0  0  0  0  0  0
  151.7456  138.9269  155.0494 H   0  0  0  0  0  0  0  0  0  0  0  0
  152.2006  141.0638  156.2866 H   0  0  0  0  0  0  0  0  0  0  0  0
  150.4931  142.8983  156.1795 H   0  0  0  0  0  0  0  0  0  0  0  0
  145.4256  138.0405  150.5006 H   0  0  0  0  0  0  0  0  0  0  0  0
  147.0145  137.5300  151.0197 H   0  0  0  0  0  0  0  0  0  0  0  0
  145.9646  135.8037  149.6277 H   0  0  0  0  0  0  0  0  0  0  0  0
  144.5559  135.7372  150.6633 H   0  0  0  0  0  0  0  0  0  0  0  0
  147.2893  135.0664  151.4843 H   0  0  0  0  0  0  0  0  0  0  0  0
  145.6568  138.9424  154.0963 H   0  0  0  0  0  0  0  0  0  0  0  0
  1  2  1  0  0  0  0
  1 19  1  0  0  0  0
  1 20  1  0  0  0  0
  1 21  1  0  0  0  0
  2  3  1  0  0  0  0
  2 22  1  0  0  0  0
  2 23  1  0  0  0  0
  3  4  1  0  0  0  0
  3 24  1  0  0  0  0
  3 25  1  0  0  0  0
  4 18  1  0  0  0  0
  4  5  1  0  0  0  0
  4 44  1  0  0  0  0
  5  6  1  0  0  0  0
  5 26  1  0  0  0  0
  5 27  1  0  0  0  0
  6  7  1  0  0  0  0
  6 28  1  0  0  0  0
  6 29  1  0  0  0  0
  7  8  1  0  0  0  0
  7 17  1  0  0  0  0
  7 30  1  0  0  0  0
  8  9  1  0  0  0  0
  8 31  1  0  0  0  0
  8 45  1  0  0  0  0
  9 10  1  0  0  0  0
  9 32  1  0  0  0  0
  9 33  1  0  0  0  0
 10 11  1  0  0  0  0
 10 34  1  0  0  0  0
 10 35  1  0  0  0  0
 11 16  1  0  0  0  0
 11 12  2  0  0  0  0
 12 13  1  0  0  0  0
 12 36  1  0  0  0  0
 13 14  2  0  0  0  0
 13 37  1  0  0  0  0
 14 15  1  0  0  0  0
 14 38  1  0  0  0  0
 15 16  2  0  0  0  0
 15 39  1  0  0  0  0
 17 18  1  0  0  0  0
 17 40  1  0  0  0  0
 17 41  1  0  0  0  0
 18 42  1  0  0  0  0
 18 43  1  0  0  0  0
M  CHG  1   4   1
M  CHG  1   8   1
M  END
> <s_m_source_file>
AV-unprocessed.smi

> <i_m_source_file_index>
3318

> <i_lp_mmshare_version>
43012

> <i_f3d_flags>
0

> <s_epik_input>
W0NIM11bQ0gyXVtDSDJdTjFbQ0gyXVtDSDJdW0NIXShbQ0gyXVtDSDJdMSlbTkhdW0NIMl1bQ0gyXWMyW2NIXVtjSF1bY0hdW2NIXW4y

> <s_epik_cmdline>
J2VwaWtfcHl0aG9uJywgJy1waCcsICc3LjAnLCAnLXRuJywgJzgnLCAnLW1hJywgJzIwMCcsICctbWV0YWxfYmluZGluZycsICctaW1hZScsICc8aW5maWxlLm1hZT4nLCAnLW9tYWUnLCAnPG91dGZpbGUubWFlPic=

> <r_epik_Ionization_Penalty>
0.0638186

> <r_epik_Ionization_Penalty_Charging>
0.0628538

> <r_epik_Ionization_Penalty_Neutral>
0.000964829

> <r_epik_State_Penalty>
0.0518488

> <r_epik_Charging_Adjusted_Penalty>
0.114703

> <i_epik_Tot_Q>
2

> <i_epik_Tot_abs_Q>
2

> <r_epik_Metal_State_Penalty>
0.0535981

> <b_epik_Metal_Only>
0

> <s_lp_Force_Field>
OPLS_2005

> <r_lp_Energy>
28.1617

> <b_lp_Chiralities_Consistent>
1

> <s_lp_Variant>
AV-unprocessed.smi:3318-1

> <Gold.Version>
5.8.1

> <Gold.Id.Protein>
6NUR|6NUR_protein|mol2

> <Gold.PLP.Fitness>
47.5301

> <Gold.PLP.PLP>
-35.3036

> <Gold.PLP.part.hbond>
-2.0000

> <Gold.PLP.part.metal>
0.0000

> <Gold.PLP.part.buried>
1.6788

> <Gold.PLP.part.nonpolar>
-34.6282

> <Gold.PLP.part.repulsive>
0.6909

> <Gold.PLP.ligand.clash>
0.0000

> <Gold.PLP.ligand.torsion>
0.5913

> <Gold.PLP.Chemscore.Hbond>
4.0000

> <Gold.PLP.Chemscore.CHOScore>
0.4522

> <Gold.PLP.Chemscore.Metal>
0.0000

> <Gold.Chemscore.Hbonds>
donor molecule, donor type, donor heavy atom, donor atom, acceptor molecule, acceptor atom, score
      L1  H     4    44       P1  7948  2.00
      L1  H     8    31       P1 10175  1.82
      L1  C    15    39       P1  8028  0.72

> <Gold.PLP.Chemscore.Internal.Correction>
0.0527

> <Gold.Rescore>
     Score         DG    S(hbond)    S(metal)    S(lipo)     H(rot)  DE(clash)    DE(int)     intcor
     16.93     -18.98       1.66        0.00     101.87       1.55       1.49       0.56       ----

> <Gold.Chemscore.Fitness>
16.9291

> <Gold.Chemscore.DG>
-18.9826

> <Gold.Chemscore.ZeroCoef>
-5.4800

> <Gold.Chemscore.Hbond>
1.6645

> <Gold.Chemscore.Metal>
0.0000

> <Gold.Chemscore.Lipo>
101.8746

> <Gold.Chemscore.Internal_Hbond>
0.0000

> <Gold.Chemscore.DEClash>
1.4942

> <Gold.Chemscore.DEInternal>
0.5593

> <Gold.Chemscore.Rot>
1.5532

> <Gold.Chemscore.Internal.Correction>
   9.000000E+99

> <Gold.Chemscore.Hbonds>
donor molecule, donor type, donor heavy atom, donor atom, acceptor molecule, acceptor atom, score
      L1  H     4    44       P1  7948  0.73
      L1  H     8    31       P1 10175  0.89

> <Gold.Chemscore.Hbond.Weighted>
-5.5595

> <Gold.Chemscore.Metal.Weighted>
-0.0000

> <Gold.Chemscore.Lipo.Weighted>
-11.9193

> <Gold.Chemscore.Internal_Hbond.Weighted>
0.0000

> <Gold.Chemscore.DEClash.Weighted>
1.4942

> <Gold.Chemscore.DEInternal.Weighted>
0.5593

> <Gold.Chemscore.Rot.Weighted>
3.9762

> <Gold.Chemscore.Internal.Correction.Weighted>
   9.000000E+99

> <Gold.Protein.RotatedTorsions>
[ 6907 6896 6895 6894 ] final -160.00 input  -60.11 | X-H torsion
[ 7974 7965 7964 7962 ] final -102.08 input  175.53 | X-H torsion
[ 8008 7997 7996 7995 ] final -141.65 input   59.86 | X-H torsion
[ 10167 10162 10161 10158 ] final  -49.62 input  -65.29 | X-H torsion
[ 10718 10713 10712 10709 ] final  -15.38 input   66.30 | X-H torsion
[ 10763 10752 10751 10750 ] final   26.63 input  -60.55 | X-H torsion
[ 11005 11000 10999 10996 ] final -150.12 input  -57.11 | X-H torsion

> <Gold.Protein.ActiveResidues>
 VAL166  LYS551  ARG553  GLY616  TRP617  ASP618  TYR619  PRO620  LYS621  CYS622 
 ASP623  PHE694  ASN695  SER759  ASP760  ASP761  ALA762  ILE779  LEU786  VAL792 
 PHE793  MET794  SER795  GLU796  ALA797  LYS798  CYS799  TRP800  GLU811  SER814 

> <Gold.Protein.RotatedAtoms>
  151.3423  133.3957  159.2672 H   0  0  0  0  0  0  0  0  0  0  0  0  # atno 6907 bound_to 6896
  150.9867  134.9212  159.7886 H   0  0  0  0  0  0  0  0  0  0  0  0  # atno 6908 bound_to 6896
  152.5234  134.3388  159.9262 H   0  0  0  0  0  0  0  0  0  0  0  0  # atno 6909 bound_to 6896
  145.2733  140.9305  143.2974 H   0  0  0  0  0  0  0  0  0  0  0  0  # atno 7974 bound_to 7965
  155.4813  140.0560  157.2967 H   0  0  0  0  0  0  0  0  0  0  0  0  # atno 8008 bound_to 7997
  154.4659  140.2018  156.0072 H   0  0  0  0  0  0  0  0  0  0  0  0  # atno 8009 bound_to 7997
  156.0973  140.3224  155.7900 H   0  0  0  0  0  0  0  0  0  0  0  0  # atno 8010 bound_to 7997
  140.6676  143.2690  151.4242 H   0  0  0  0  0  0  0  0  0  0  0  0  # atno 10167 bound_to 10162
  156.6026  130.4828  149.6233 H   0  0  0  0  0  0  0  0  0  0  0  0  # atno 10718 bound_to 10713
  153.0609  135.6555  154.0465 H   0  0  0  0  0  0  0  0  0  0  0  0  # atno 10763 bound_to 10752
  154.0133  135.2926  155.3391 H   0  0  0  0  0  0  0  0  0  0  0  0  # atno 10764 bound_to 10752
  154.6947  135.5269  153.8509 H   0  0  0  0  0  0  0  0  0  0  0  0  # atno 10765 bound_to 10752
  140.7435  134.3487  157.5142 H   0  0  0  0  0  0  0  0  0  0  0  0  # atno 11005 bound_to 11000
  144.9316  139.4292  143.6492 LP  0  0  0  0  0  0  0  0  0  0  0  0  # atno 17320 bound_to 7965
  146.3239  139.8230  142.8923 LP  0  0  0  0  0  0  0  0  0  0  0  0  # atno 17321 bound_to 7965
  139.5931  144.1455  152.2112 LP  0  0  0  0  0  0  0  0  0  0  0  0  # atno 17342 bound_to 10162
  140.0816  144.5696  150.7118 LP  0  0  0  0  0  0  0  0  0  0  0  0  # atno 17343 bound_to 10162
  156.2456  130.6877  151.1597 LP  0  0  0  0  0  0  0  0  0  0  0  0  # atno 17370 bound_to 10713
  157.7275  131.0638  150.5860 LP  0  0  0  0  0  0  0  0  0  0  0  0  # atno 17371 bound_to 10713
  139.8801  134.9096  156.2995 LP  0  0  0  0  0  0  0  0  0  0  0  0  # atno 17394 bound_to 11000
  140.9815  133.7264  156.0679 LP  0  0  0  0  0  0  0  0  0  0  0  0  # atno 17395 bound_to 11000

$$$$
