AV-unprocessed.smi:1423|AV-procd|sdf|5794|dock10
  -GOLD-   22720 5443D 1   1.00000     0.00000
 Structure written by MMmdl.
 43 44  0  0  0  0  0  0  0  0  1 V2000
  151.4785  141.7723  158.0975 C   0  0  0  0  0  0  0  0  0  0  0  0
  151.2520  141.6650  156.6961 O   0  0  0  0  0  0  0  0  0  0  0  0
  150.8268  140.4527  156.1925 C   0  0  0  0  0  0  0  0  0  0  0  0
  150.3232  139.4887  157.0878 C   0  0  0  0  0  0  0  0  0  0  0  0
  149.8865  138.2488  156.5821 C   0  0  0  0  0  0  0  0  0  0  0  0
  149.9649  138.0118  155.1879 C   0  0  0  0  0  0  0  0  0  0  0  0
  149.5587  136.8142  154.5357 N   0  0  0  0  0  0  0  0  0  0  0  0
  149.2421  135.6165  155.0582 C   0  0  0  0  0  0  0  0  0  0  0  0
  149.2946  135.3154  156.2499 O   0  0  0  0  0  0  0  0  0  0  0  0
  148.8517  134.7643  154.0997 N   0  0  0  0  0  0  0  0  0  0  0  0
  148.4186  133.3881  154.3209 C   0  0  0  0  0  0  0  0  0  0  0  0
  149.4928  132.3903  153.8603 C   0  0  0  0  0  0  0  0  0  0  0  0
  148.9848  130.9424  153.9747 C   0  0  0  0  0  0  0  0  0  0  0  0
  147.7638  130.7531  153.1839 N   0  0  0  0  0  0  0  0  0  0  0  0
  147.3767  129.3240  153.2264 C   0  0  0  0  0  0  0  0  0  0  0  0
  148.3271  128.3803  152.4784 C   0  0  0  0  0  0  0  0  0  0  0  0
  149.5137  128.1387  153.0410 N   0  0  0  0  0  0  0  0  0  0  0  0
  147.9922  127.8743  151.4095 O   0  0  0  0  0  0  0  0  0  0  0  0
  146.6978  131.6416  153.6703 C   0  0  0  0  0  0  0  0  0  0  0  0
  147.1231  133.1154  153.5448 C   0  0  0  0  0  0  0  0  0  0  0  0
  150.4877  139.0427  154.3797 C   0  0  0  0  0  0  0  0  0  0  0  0
  150.9089  140.2322  154.8576 N   0  0  0  0  0  0  0  0  0  0  0  0
  151.8083  142.7838  158.3336 H   0  0  0  0  0  0  0  0  0  0  0  0
  152.2575  141.0850  158.4306 H   0  0  0  0  0  0  0  0  0  0  0  0
  150.5660  141.5811  158.6639 H   0  0  0  0  0  0  0  0  0  0  0  0
  150.2733  139.6961  158.1465 H   0  0  0  0  0  0  0  0  0  0  0  0
  149.5062  137.5188  157.2778 H   0  0  0  0  0  0  0  0  0  0  0  0
  149.4668  136.8884  153.5331 H   0  0  0  0  0  0  0  0  0  0  0  0
  148.8422  135.0940  153.1457 H   0  0  0  0  0  0  0  0  0  0  0  0
  148.2203  133.2363  155.3838 H   0  0  0  0  0  0  0  0  0  0  0  0
  149.7761  132.5954  152.8267 H   0  0  0  0  0  0  0  0  0  0  0  0
  150.3974  132.5091  154.4580 H   0  0  0  0  0  0  0  0  0  0  0  0
  149.7641  130.2682  153.6173 H   0  0  0  0  0  0  0  0  0  0  0  0
  148.8027  130.6897  155.0210 H   0  0  0  0  0  0  0  0  0  0  0  0
  147.3501  128.9881  154.2641 H   0  0  0  0  0  0  0  0  0  0  0  0
  146.3626  129.2079  152.8385 H   0  0  0  0  0  0  0  0  0  0  0  0
  150.1721  127.5230  152.5867 H   0  0  0  0  0  0  0  0  0  0  0  0
  149.7474  128.5732  153.9221 H   0  0  0  0  0  0  0  0  0  0  0  0
  145.7834  131.5060  153.0930 H   0  0  0  0  0  0  0  0  0  0  0  0
  146.4545  131.4045  154.7076 H   0  0  0  0  0  0  0  0  0  0  0  0
  146.3251  133.7612  153.9133 H   0  0  0  0  0  0  0  0  0  0  0  0
  147.2588  133.3629  152.4905 H   0  0  0  0  0  0  0  0  0  0  0  0
  150.5698  138.9114  153.3104 H   0  0  0  0  0  0  0  0  0  0  0  0
  1  2  1  0  0  0  0
  1 23  1  0  0  0  0
  1 24  1  0  0  0  0
  1 25  1  0  0  0  0
  2  3  1  0  0  0  0
  3 22  1  0  0  0  0
  3  4  2  0  0  0  0
  4  5  1  0  0  0  0
  4 26  1  0  0  0  0
  5  6  2  0  0  0  0
  5 27  1  0  0  0  0
  6  7  1  0  0  0  0
  6 21  1  0  0  0  0
  7  8  1  0  0  0  0
  7 28  1  0  0  0  0
  8  9  2  0  0  0  0
  8 10  1  0  0  0  0
 10 11  1  0  0  0  0
 10 29  1  0  0  0  0
 11 20  1  0  0  0  0
 11 12  1  0  0  0  0
 11 30  1  0  0  0  0
 12 13  1  0  0  0  0
 12 31  1  0  0  0  0
 12 32  1  0  0  0  0
 13 14  1  0  0  0  0
 13 33  1  0  0  0  0
 13 34  1  0  0  0  0
 14 15  1  0  0  0  0
 14 19  1  0  0  0  0
 15 16  1  0  0  0  0
 15 35  1  0  0  0  0
 15 36  1  0  0  0  0
 16 17  1  0  0  0  0
 16 18  2  0  0  0  0
 17 37  1  0  0  0  0
 17 38  1  0  0  0  0
 19 20  1  0  0  0  0
 19 39  1  0  0  0  0
 19 40  1  0  0  0  0
 20 41  1  0  0  0  0
 20 42  1  0  0  0  0
 21 22  2  0  0  0  0
 21 43  1  0  0  0  0
M  END
> <s_m_source_file>
AV-unprocessed.smi

> <i_m_source_file_index>
1423

> <i_lp_mmshare_version>
43012

> <i_f3d_flags>
0

> <s_epik_input>
W0NIM11PYzFbY0hdW2NIXWMoW2NIXW4xKVtOSF1DKD1PKVtOSF1bQ0hdMltDSDJdW0NIMl1OKFtDSDJdW0NIMl0yKVtDSDJdQyg9TylbTkgyXQ==

> <s_epik_cmdline>
J2VwaWtfcHl0aG9uJywgJy1waCcsICc3LjAnLCAnLXRuJywgJzgnLCAnLW1hJywgJzIwMCcsICctbWV0YWxfYmluZGluZycsICctaW1hZScsICc8aW5maWxlLm1hZT4nLCAnLW9tYWUnLCAnPG91dGZpbGUubWFlPic=

> <r_lp_tautomer_probability>
1

> <r_epik_Ionization_Penalty>
0.16483

> <r_epik_Ionization_Penalty_Charging>
0

> <r_epik_Ionization_Penalty_Neutral>
0.16483

> <r_epik_State_Penalty>
0.154069

> <r_epik_Charging_Adjusted_Penalty>
0.154069

> <i_epik_Tot_Q>
0

> <i_epik_Tot_abs_Q>
0

> <r_epik_Metal_State_Penalty>
0.171364

> <b_epik_Metal_Only>
0

> <s_lp_Force_Field>
OPLS_2005

> <r_lp_Energy>
14.563

> <b_lp_Chiralities_Consistent>
1

> <s_lp_Variant>
AV-unprocessed.smi:1423-1

> <Gold.Version>
5.8.1

> <Gold.Id.Protein>
6NUR|6NUR_protein|mol2

> <Gold.PLP.Fitness>
41.9165

> <Gold.PLP.PLP>
-28.8697

> <Gold.PLP.part.hbond>
-4.0000

> <Gold.PLP.part.metal>
0.0000

> <Gold.PLP.part.buried>
-4.9322

> <Gold.PLP.part.nonpolar>
-19.0002

> <Gold.PLP.part.repulsive>
0.4987

> <Gold.PLP.ligand.clash>
0.0000

> <Gold.PLP.ligand.torsion>
0.5846

> <Gold.PLP.Chemscore.Hbond>
3.7360

> <Gold.PLP.Chemscore.CHOScore>
1.0000

> <Gold.PLP.Chemscore.Metal>
0.0000

> <Gold.Chemscore.Hbonds>
donor molecule, donor type, donor heavy atom, donor atom, acceptor molecule, acceptor atom, score
      L1  H     7    28       P1  7948  1.00
      L1  H    10    29       P1  7948  1.00
      L1  H    17    37       P1 10737  0.66
      P1  H  7989  7998       L1    22  1.00
      L1  C    21    43       P1  7957  0.84

> <Gold.PLP.Chemscore.Internal.Correction>
0.0079

> <Gold.Rescore>
     Score         DG    S(hbond)    S(metal)    S(lipo)     H(rot)  DE(clash)    DE(int)     intcor
     14.13     -16.90       3.27        0.00      54.32       2.29       0.03       2.73       ----

> <Gold.Chemscore.Fitness>
14.1293

> <Gold.Chemscore.DG>
-16.8971

> <Gold.Chemscore.ZeroCoef>
-5.4800

> <Gold.Chemscore.Hbond>
3.2743

> <Gold.Chemscore.Metal>
0.0000

> <Gold.Chemscore.Lipo>
54.3248

> <Gold.Chemscore.Internal_Hbond>
0.0000

> <Gold.Chemscore.DEClash>
0.0345

> <Gold.Chemscore.DEInternal>
2.7333

> <Gold.Chemscore.Rot>
2.2949

> <Gold.Chemscore.Internal.Correction>
   9.000000E+99

> <Gold.Chemscore.Hbonds>
donor molecule, donor type, donor heavy atom, donor atom, acceptor molecule, acceptor atom, score
      L1  H     7    28       P1  7948  0.85
      L1  H    10    29       P1  7948  0.39
      L1  H    17    37       P1 10737  0.63
      P1  H  7989  7998       L1    22  0.30

> <Gold.Chemscore.Hbond.Weighted>
-10.9362

> <Gold.Chemscore.Metal.Weighted>
-0.0000

> <Gold.Chemscore.Lipo.Weighted>
-6.3560

> <Gold.Chemscore.Internal_Hbond.Weighted>
0.0000

> <Gold.Chemscore.DEClash.Weighted>
0.0345

> <Gold.Chemscore.DEInternal.Weighted>
2.7333

> <Gold.Chemscore.Rot.Weighted>
5.8750

> <Gold.Chemscore.Internal.Correction.Weighted>
   9.000000E+99

> <Gold.Protein.RotatedTorsions>
[ 6907 6896 6895 6894 ] final -150.52 input  -60.11 | X-H torsion
[ 7974 7965 7964 7962 ] final  125.00 input  175.53 | X-H torsion
[ 8008 7997 7996 7995 ] final   64.19 input   59.86 | X-H torsion
[ 10167 10162 10161 10158 ] final  -60.13 input  -65.29 | X-H torsion
[ 10718 10713 10712 10709 ] final   97.58 input   66.30 | X-H torsion
[ 10763 10752 10751 10750 ] final  114.64 input  -60.55 | X-H torsion
[ 11005 11000 10999 10996 ] final  -91.27 input  -57.11 | X-H torsion

> <Gold.Protein.ActiveResidues>
 VAL166  LYS551  ARG553  GLY616  TRP617  ASP618  TYR619  PRO620  LYS621  CYS622 
 ASP623  PHE694  ASN695  SER759  ASP760  ASP761  ALA762  ILE779  LEU786  VAL792 
 PHE793  MET794  SER795  GLU796  ALA797  LYS798  CYS799  TRP800  GLU811  SER814 

> <Gold.Protein.RotatedAtoms>
  151.1998  133.4618  159.2595 H   0  0  0  0  0  0  0  0  0  0  0  0  # atno 6907 bound_to 6896
  151.1081  135.0011  159.8491 H   0  0  0  0  0  0  0  0  0  0  0  0  # atno 6908 bound_to 6896
  152.5448  134.1919  159.8730 H   0  0  0  0  0  0  0  0  0  0  0  0  # atno 6909 bound_to 6896
  145.0780  139.3679  143.4924 H   0  0  0  0  0  0  0  0  0  0  0  0  # atno 7974 bound_to 7965
  155.6422  140.3497  155.4719 H   0  0  0  0  0  0  0  0  0  0  0  0  # atno 8008 bound_to 7997
  155.9917  140.1195  157.0656 H   0  0  0  0  0  0  0  0  0  0  0  0  # atno 8009 bound_to 7997
  154.4221  140.1118  156.5560 H   0  0  0  0  0  0  0  0  0  0  0  0  # atno 8010 bound_to 7997
  140.6091  143.2382  151.5751 H   0  0  0  0  0  0  0  0  0  0  0  0  # atno 10167 bound_to 10162
  157.6910  131.0614  150.4666 H   0  0  0  0  0  0  0  0  0  0  0  0  # atno 10718 bound_to 10713
  153.5103  135.3619  155.2583 H   0  0  0  0  0  0  0  0  0  0  0  0  # atno 10763 bound_to 10752
  154.8742  135.4021  154.3377 H   0  0  0  0  0  0  0  0  0  0  0  0  # atno 10764 bound_to 10752
  153.4029  135.7075  153.6480 H   0  0  0  0  0  0  0  0  0  0  0  0  # atno 10765 bound_to 10752
  141.1548  133.7745  156.9856 H   0  0  0  0  0  0  0  0  0  0  0  0  # atno 11005 bound_to 11000
  146.3530  140.0556  142.8633 LP  0  0  0  0  0  0  0  0  0  0  0  0  # atno 17320 bound_to 7965
  145.1213  140.9464  143.4599 LP  0  0  0  0  0  0  0  0  0  0  0  0  # atno 17321 bound_to 7965
  139.5347  144.2814  152.1226 LP  0  0  0  0  0  0  0  0  0  0  0  0  # atno 17342 bound_to 10162
  140.2009  144.4658  150.6432 LP  0  0  0  0  0  0  0  0  0  0  0  0  # atno 17343 bound_to 10162
  156.5007  130.4116  149.6355 LP  0  0  0  0  0  0  0  0  0  0  0  0  # atno 17370 bound_to 10713
  156.3331  130.7342  151.2275 LP  0  0  0  0  0  0  0  0  0  0  0  0  # atno 17371 bound_to 10713
  140.1037  134.9519  157.1962 LP  0  0  0  0  0  0  0  0  0  0  0  0  # atno 17394 bound_to 11000
  140.3284  134.2837  155.7232 LP  0  0  0  0  0  0  0  0  0  0  0  0  # atno 17395 bound_to 11000

$$$$
