AV-unprocessed.smi:3110|AV-procd|sdf|11828|dock3
  -GOLD-   2272017203D 1   1.00000     0.00000
 Structure written by MMmdl.
 34 35  0  0  0  0  0  0  0  0  2 V2000
  152.3555  140.0941  156.7970 O   0  0  0  0  0  0  0  0  0  0  0  0
  151.3125  140.4289  157.3597 C   0  0  0  0  0  0  0  0  0  0  0  0
  151.3533  141.1307  158.7217 C   0  0  0  0  0  0  0  0  0  0  0  0
  152.3435  142.3131  158.7769 C   0  0  2  0  0  0  0  0  0  0  0  0
  152.5473  142.8206  160.1810 C   0  0  0  0  0  0  0  0  0  0  0  0
  152.3861  144.1382  160.2817 C   0  0  0  0  0  0  0  0  0  0  0  0
  152.0407  144.7772  158.9655 C   0  0  0  0  0  0  0  0  0  0  0  0
  151.8806  143.5782  158.0049 C   0  0  0  0  0  0  0  0  0  0  0  0
  150.0952  140.2063  156.8405 N   0  0  0  0  0  0  0  0  0  0  0  0
  149.8410  139.5652  155.5561 C   0  0  0  0  0  0  0  0  0  0  0  0
  149.7566  140.5939  154.4161 C   0  0  0  0  0  0  0  0  0  0  0  0
  148.3713  140.9636  154.1229 N   0  0  0  0  0  0  0  0  0  0  0  0
  147.8102  142.2128  154.1910 C   0  0  0  0  0  0  0  0  0  0  0  0
  146.4963  142.0705  153.8247 C   0  0  0  0  0  0  0  0  0  0  0  0
  146.3121  140.7419  153.5489 N   0  3  0  0  0  0  0  0  0  0  0  0
  147.4541  140.0705  153.7304 C   0  0  0  0  0  0  0  0  0  0  0  0
  150.3525  141.4787  158.9829 H   0  0  0  0  0  0  0  0  0  0  0  0
  151.6268  140.3876  159.4716 H   0  0  0  0  0  0  0  0  0  0  0  0
  153.3217  141.9958  158.4122 H   0  0  0  0  0  0  0  0  0  0  0  0
  152.8125  142.1640  160.9969 H   0  0  0  0  0  0  0  0  0  0  0  0
  152.4994  144.7126  161.1895 H   0  0  0  0  0  0  0  0  0  0  0  0
  151.1222  145.3591  159.0464 H   0  0  0  0  0  0  0  0  0  0  0  0
  152.8486  145.4398  158.6535 H   0  0  0  0  0  0  0  0  0  0  0  0
  152.4556  143.7186  157.0890 H   0  0  0  0  0  0  0  0  0  0  0  0
  150.8330  143.4913  157.7132 H   0  0  0  0  0  0  0  0  0  0  0  0
  149.2904  140.5124  157.3683 H   0  0  0  0  0  0  0  0  0  0  0  0
  150.6502  138.8604  155.3622 H   0  0  0  0  0  0  0  0  0  0  0  0
  148.9237  138.9764  155.6118 H   0  0  0  0  0  0  0  0  0  0  0  0
  150.3022  141.5054  154.6655 H   0  0  0  0  0  0  0  0  0  0  0  0
  150.1992  140.1948  153.5024 H   0  0  0  0  0  0  0  0  0  0  0  0
  148.3719  143.0869  154.4870 H   0  0  0  0  0  0  0  0  0  0  0  0
  145.6996  142.7957  153.7421 H   0  0  0  0  0  0  0  0  0  0  0  0
  147.6057  139.0152  153.5870 H   0  0  0  0  0  0  0  0  0  0  0  0
  145.4390  140.3251  153.2507 H   0  0  0  0  0  0  0  0  0  0  0  0
  1  2  2  0  0  0  0
  2  3  1  0  0  0  0
  2  9  1  0  0  0  0
  3  4  1  0  0  0  0
  3 17  1  0  0  0  0
  3 18  1  0  0  0  0
  4  8  1  0  0  0  0
  4  5  1  0  0  0  0
  4 19  1  0  0  0  0
  5  6  2  0  0  0  0
  5 20  1  0  0  0  0
  6  7  1  0  0  0  0
  6 21  1  0  0  0  0
  7  8  1  0  0  0  0
  7 22  1  0  0  0  0
  7 23  1  0  0  0  0
  8 24  1  0  0  0  0
  8 25  1  0  0  0  0
  9 10  1  0  0  0  0
  9 26  1  0  0  0  0
 10 11  1  0  0  0  0
 10 27  1  0  0  0  0
 10 28  1  0  0  0  0
 11 12  1  0  0  0  0
 11 29  1  0  0  0  0
 11 30  1  0  0  0  0
 12 16  1  0  0  0  0
 12 13  1  0  0  0  0
 13 14  2  0  0  0  0
 13 31  1  0  0  0  0
 14 15  1  0  0  0  0
 14 32  1  0  0  0  0
 15 16  2  0  0  0  0
 15 34  1  0  0  0  0
 16 33  1  0  0  0  0
M  CHG  1  15   1
M  END
> <s_m_source_file>
AV-unprocessed.smi

> <i_m_source_file_index>
3110

> <i_lp_mmshare_version>
43012

> <i_f3d_flags>
0

> <s_epik_input>
W0NIMl0xW0NIMl1bQ0hdPVtDSF1bQ0BIXTFbQ0gyXUMoPU8pW05IXVtDSDJdW0NIMl1uMltjSF1bY0hdbltjSF0y

> <s_epik_cmdline>
J2VwaWtfcHl0aG9uJywgJy1waCcsICc3LjAnLCAnLXRuJywgJzgnLCAnLW1hJywgJzIwMCcsICctbWV0YWxfYmluZGluZycsICctaW1hZScsICc8aW5maWxlLm1hZT4nLCAnLW9tYWUnLCAnPG91dGZpbGUubWFlPic=

> <r_lp_tautomer_probability>
1

> <r_epik_Ionization_Penalty>
0.271094

> <r_epik_Ionization_Penalty_Charging>
0

> <r_epik_Ionization_Penalty_Neutral>
0.271094

> <r_epik_State_Penalty>
0.263241

> <r_epik_Charging_Adjusted_Penalty>
0.263241

> <i_epik_Tot_Q>
1

> <i_epik_Tot_abs_Q>
1

> <r_epik_Metal_State_Penalty>
0.547832

> <b_epik_Metal_Only>
0

> <s_lp_Force_Field>
OPLS_2005

> <r_lp_Energy>
18.4695

> <b_lp_Chiralities_Consistent>
1

> <s_lp_Variant>
AV-unprocessed.smi:3110-1

> <Gold.Version>
5.8.1

> <Gold.Id.Protein>
6NUR|6NUR_protein|mol2

> <Gold.PLP.Fitness>
48.1357

> <Gold.PLP.PLP>
-37.3619

> <Gold.PLP.part.hbond>
-2.0000

> <Gold.PLP.part.metal>
0.0000

> <Gold.PLP.part.buried>
-0.3612

> <Gold.PLP.part.nonpolar>
-34.6317

> <Gold.PLP.part.repulsive>
0.0297

> <Gold.PLP.ligand.clash>
0.0000

> <Gold.PLP.ligand.torsion>
0.6244

> <Gold.PLP.Chemscore.Hbond>
3.0000

> <Gold.PLP.Chemscore.CHOScore>
1.0000

> <Gold.PLP.Chemscore.Metal>
0.0000

> <Gold.Chemscore.Hbonds>
donor molecule, donor type, donor heavy atom, donor atom, acceptor molecule, acceptor atom, score
      L1  H    15    34       P1 10175  2.00
      P1  H  7997  8010       L1     1  1.00
      L1  C    13    31       P1  8028  1.00

> <Gold.PLP.Chemscore.Internal.Correction>
0.0226

> <Gold.Rescore>
     Score         DG    S(hbond)    S(metal)    S(lipo)     H(rot)  DE(clash)    DE(int)     intcor
     16.29     -17.08       1.82        0.00      93.08       2.10       0.16       0.63       ----

> <Gold.Chemscore.Fitness>
16.2902

> <Gold.Chemscore.DG>
-17.0846

> <Gold.Chemscore.ZeroCoef>
-5.4800

> <Gold.Chemscore.Hbond>
1.8207

> <Gold.Chemscore.Metal>
0.0000

> <Gold.Chemscore.Lipo>
93.0765

> <Gold.Chemscore.Internal_Hbond>
0.0000

> <Gold.Chemscore.DEClash>
0.1617

> <Gold.Chemscore.DEInternal>
0.6326

> <Gold.Chemscore.Rot>
2.0963

> <Gold.Chemscore.Internal.Correction>
   9.000000E+99

> <Gold.Chemscore.Hbonds>
donor molecule, donor type, donor heavy atom, donor atom, acceptor molecule, acceptor atom, score
      L1  H    15    34       P1 10175  0.92
      P1  H  7997  8010       L1     1  0.94

> <Gold.Chemscore.Hbond.Weighted>
-6.0811

> <Gold.Chemscore.Metal.Weighted>
-0.0000

> <Gold.Chemscore.Lipo.Weighted>
-10.8899

> <Gold.Chemscore.Internal_Hbond.Weighted>
0.0000

> <Gold.Chemscore.DEClash.Weighted>
0.1617

> <Gold.Chemscore.DEInternal.Weighted>
0.6326

> <Gold.Chemscore.Rot.Weighted>
5.3665

> <Gold.Chemscore.Internal.Correction.Weighted>
   9.000000E+99

> <Gold.Protein.RotatedTorsions>
[ 6907 6896 6895 6894 ] final  133.39 input  -60.11 | X-H torsion
[ 7974 7965 7964 7962 ] final   64.07 input  175.53 | X-H torsion
[ 8008 7997 7996 7995 ] final   67.71 input   59.86 | X-H torsion
[ 10167 10162 10161 10158 ] final   32.49 input  -65.29 | X-H torsion
[ 10718 10713 10712 10709 ] final -138.63 input   66.30 | X-H torsion
[ 10763 10752 10751 10750 ] final  -90.63 input  -60.55 | X-H torsion
[ 11005 11000 10999 10996 ] final -108.21 input  -57.11 | X-H torsion

> <Gold.Protein.ActiveResidues>
 VAL166  LYS551  ARG553  GLY616  TRP617  ASP618  TYR619  PRO620  LYS621  CYS622 
 ASP623  PHE694  ASN695  SER759  ASP760  ASP761  ALA762  ILE779  LEU786  VAL792 
 PHE793  MET794  SER795  GLU796  ALA797  LYS798  CYS799  TRP800  GLU811  SER814 

> <Gold.Protein.RotatedAtoms>
  152.3225  133.5869  159.5753 H   0  0  0  0  0  0  0  0  0  0  0  0  # atno 6907 bound_to 6896
  150.7379  133.9990  159.3641 H   0  0  0  0  0  0  0  0  0  0  0  0  # atno 6908 bound_to 6896
  151.7873  135.0746  160.0433 H   0  0  0  0  0  0  0  0  0  0  0  0  # atno 6909 bound_to 6896
  145.8545  139.3275  143.0856 H   0  0  0  0  0  0  0  0  0  0  0  0  # atno 7974 bound_to 7965
  155.6971  140.3495  155.4917 H   0  0  0  0  0  0  0  0  0  0  0  0  # atno 8008 bound_to 7997
  155.9474  140.1113  157.1028 H   0  0  0  0  0  0  0  0  0  0  0  0  # atno 8009 bound_to 7997
  154.4115  140.1201  156.4993 H   0  0  0  0  0  0  0  0  0  0  0  0  # atno 8010 bound_to 7997
  140.4494  144.1070  150.6189 H   0  0  0  0  0  0  0  0  0  0  0  0  # atno 10167 bound_to 10162
  156.3015  130.7431  151.1484 H   0  0  0  0  0  0  0  0  0  0  0  0  # atno 10718 bound_to 10713
  154.6678  135.5297  153.8099 H   0  0  0  0  0  0  0  0  0  0  0  0  # atno 10763 bound_to 10752
  153.0482  135.6521  154.0772 H   0  0  0  0  0  0  0  0  0  0  0  0  # atno 10764 bound_to 10752
  154.0674  135.2957  155.3294 H   0  0  0  0  0  0  0  0  0  0  0  0  # atno 10765 bound_to 10752
  141.0913  133.9049  157.2068 H   0  0  0  0  0  0  0  0  0  0  0  0  # atno 11005 bound_to 11000
  145.9320  140.9042  143.0352 LP  0  0  0  0  0  0  0  0  0  0  0  0  # atno 17320 bound_to 7965
  144.6728  140.1431  143.7435 LP  0  0  0  0  0  0  0  0  0  0  0  0  # atno 17321 bound_to 7965
  140.4225  143.2605  151.9697 LP  0  0  0  0  0  0  0  0  0  0  0  0  # atno 17342 bound_to 10162
  139.4795  144.5818  151.7920 LP  0  0  0  0  0  0  0  0  0  0  0  0  # atno 17343 bound_to 10162
  157.7369  131.0557  150.5386 LP  0  0  0  0  0  0  0  0  0  0  0  0  # atno 17370 bound_to 10713
  156.5515  130.4233  149.6105 LP  0  0  0  0  0  0  0  0  0  0  0  0  # atno 17371 bound_to 10713
  139.9740  135.0119  156.9584 LP  0  0  0  0  0  0  0  0  0  0  0  0  # atno 17394 bound_to 11000
  140.5245  134.0875  155.7300 LP  0  0  0  0  0  0  0  0  0  0  0  0  # atno 17395 bound_to 11000

$$$$
