AV-unprocessed.smi:2760|AV-procd|sdf|10631|dock6
  -GOLD-   2272015 83D 1   1.00000     0.00000
 Structure written by MMmdl.
 32 33  0  0  0  0  0  0  0  0  1 V2000
  150.2247  140.3984  154.3163 O   0  0  0  0  0  0  0  0  0  0  0  0
  150.4827  140.5525  155.6461 C   0  0  0  0  0  0  0  0  0  0  0  0
  150.7045  141.8433  156.1713 C   0  0  0  0  0  0  0  0  0  0  0  0
  150.9646  141.9276  157.5570 C   0  0  0  0  0  0  0  0  0  0  0  0
  151.2138  143.2277  158.2546 C   0  0  0  0  0  0  0  0  0  0  0  0
  152.6002  143.6138  158.7204 C   0  0  0  0  0  0  0  0  0  0  0  0
  151.5359  143.2641  159.7309 C   0  0  0  0  0  0  0  0  0  0  0  0
  150.9854  140.8258  158.3389 N   0  0  0  0  0  0  0  0  0  0  0  0
  150.7597  139.6596  157.7297 C   0  0  0  0  0  0  0  0  0  0  0  0
  150.7746  138.2057  158.7536 S   0  0  0  0  0  0  0  0  0  0  0  0
  149.1078  137.5493  158.4476 C   0  0  0  0  0  0  0  0  0  0  0  0
  148.8184  136.2998  159.2888 C   0  0  0  0  0  0  0  0  0  0  0  0
  148.4182  136.6980  160.5886 O   0  0  0  0  0  0  0  0  0  0  0  0
  147.0190  136.5714  160.7909 C   0  0  0  0  0  0  0  0  0  0  0  0
  146.7524  135.7571  162.0625 C   0  0  0  0  0  0  0  0  0  0  0  0
  147.1940  134.5122  161.8867 F   0  0  0  0  0  0  0  0  0  0  0  0
  147.3948  136.2964  163.0982 F   0  0  0  0  0  0  0  0  0  0  0  0
  145.4450  135.7148  162.3185 F   0  0  0  0  0  0  0  0  0  0  0  0
  150.5150  139.4561  156.4343 N   0  0  0  0  0  0  0  0  0  0  0  0
  149.5681  140.9974  153.9961 H   0  0  0  0  0  0  0  0  0  0  0  0
  150.6776  142.7237  155.5459 H   0  0  0  0  0  0  0  0  0  0  0  0
  150.5772  144.0151  157.8552 H   0  0  0  0  0  0  0  0  0  0  0  0
  153.4083  142.8977  158.5847 H   0  0  0  0  0  0  0  0  0  0  0  0
  152.8863  144.6612  158.6516 H   0  0  0  0  0  0  0  0  0  0  0  0
  151.1290  144.0834  160.3201 H   0  0  0  0  0  0  0  0  0  0  0  0
  151.6359  142.3149  160.2538 H   0  0  0  0  0  0  0  0  0  0  0  0
  148.3876  138.3309  158.6897 H   0  0  0  0  0  0  0  0  0  0  0  0
  148.9898  137.3320  157.3858 H   0  0  0  0  0  0  0  0  0  0  0  0
  148.0291  135.7041  158.8282 H   0  0  0  0  0  0  0  0  0  0  0  0
  149.7113  135.6754  159.3484 H   0  0  0  0  0  0  0  0  0  0  0  0
  146.5640  137.5593  160.8805 H   0  0  0  0  0  0  0  0  0  0  0  0
  146.5606  136.0779  159.9321 H   0  0  0  0  0  0  0  0  0  0  0  0
  1  2  1  0  0  0  0
  1 20  1  0  0  0  0
  2 19  1  0  0  0  0
  2  3  2  0  0  0  0
  3  4  1  0  0  0  0
  3 21  1  0  0  0  0
  4  5  1  0  0  0  0
  4  8  2  0  0  0  0
  5  7  1  0  0  0  0
  5  6  1  0  0  0  0
  5 22  1  0  0  0  0
  6  7  1  0  0  0  0
  6 23  1  0  0  0  0
  6 24  1  0  0  0  0
  7 25  1  0  0  0  0
  7 26  1  0  0  0  0
  8  9  1  0  0  0  0
  9 10  1  0  0  0  0
  9 19  2  0  0  0  0
 10 11  1  0  0  0  0
 11 12  1  0  0  0  0
 11 27  1  0  0  0  0
 11 28  1  0  0  0  0
 12 13  1  0  0  0  0
 12 29  1  0  0  0  0
 12 30  1  0  0  0  0
 13 14  1  0  0  0  0
 14 15  1  0  0  0  0
 14 31  1  0  0  0  0
 14 32  1  0  0  0  0
 15 16  1  0  0  0  0
 15 17  1  0  0  0  0
 15 18  1  0  0  0  0
M  END
> <s_m_source_file>
AV-unprocessed.smi

> <i_m_source_file_index>
2760

> <i_lp_mmshare_version>
43012

> <i_f3d_flags>
0

> <s_epik_input>
W09IXWMxW2NIXWMoW0NIXTJbQ0gyXVtDSDJdMiluYyhuMSlTW0NIMl1bQ0gyXU9bQ0gyXUMoRikoRilG

> <s_epik_cmdline>
J2VwaWtfcHl0aG9uJywgJy1waCcsICc3LjAnLCAnLXRuJywgJzgnLCAnLW1hJywgJzIwMCcsICctbWV0YWxfYmluZGluZycsICctaW1hZScsICc8aW5maWxlLm1hZT4nLCAnLW9tYWUnLCAnPG91dGZpbGUubWFlPic=

> <r_lp_tautomer_probability>
0.0660145

> <r_epik_Ionization_Penalty>
3.02064

> <r_epik_Ionization_Penalty_Charging>
0

> <r_epik_Ionization_Penalty_Neutral>
3.02064

> <r_epik_State_Penalty>
2.51658

> <r_epik_Charging_Adjusted_Penalty>
2.51658

> <i_epik_Tot_Q>
0

> <i_epik_Tot_abs_Q>
0

> <r_epik_Metal_State_Penalty>
3.1674

> <b_epik_Metal_Only>
0

> <s_lp_Force_Field>
OPLS_2005

> <r_lp_Energy>
-0.868617

> <b_lp_Chiralities_Consistent>
1

> <s_lp_Variant>
AV-unprocessed.smi:2760-4

> <Gold.Version>
5.8.1

> <Gold.Id.Protein>
6NUR|6NUR_protein|mol2

> <Gold.PLP.Fitness>
45.5142

> <Gold.PLP.PLP>
-41.5990

> <Gold.PLP.part.hbond>
-2.4008

> <Gold.PLP.part.metal>
0.0000

> <Gold.PLP.part.buried>
-7.1815

> <Gold.PLP.part.nonpolar>
-33.6580

> <Gold.PLP.part.repulsive>
0.0000

> <Gold.PLP.ligand.clash>
0.0000

> <Gold.PLP.ligand.torsion>
0.9803

> <Gold.PLP.Chemscore.Hbond>
1.8880

> <Gold.PLP.Chemscore.CHOScore>
0.0000

> <Gold.PLP.Chemscore.Metal>
0.0000

> <Gold.Chemscore.Hbonds>
donor molecule, donor type, donor heavy atom, donor atom, acceptor molecule, acceptor atom, score
      P1  H  6931  6943       L1    13  0.75
      P1  H  7989  7998       L1     1  0.94

> <Gold.PLP.Chemscore.Internal.Correction>
0.2118

> <Gold.Rescore>
     Score         DG    S(hbond)    S(metal)    S(lipo)     H(rot)  DE(clash)    DE(int)     intcor
     10.55     -11.44       1.57        0.00      75.10       3.16       0.04       0.85       ----

> <Gold.Chemscore.Fitness>
10.5536

> <Gold.Chemscore.DG>
-11.4432

> <Gold.Chemscore.ZeroCoef>
-5.4800

> <Gold.Chemscore.Hbond>
1.5732

> <Gold.Chemscore.Metal>
0.0000

> <Gold.Chemscore.Lipo>
75.1048

> <Gold.Chemscore.Internal_Hbond>
0.0000

> <Gold.Chemscore.DEClash>
0.0407

> <Gold.Chemscore.DEInternal>
0.8490

> <Gold.Chemscore.Rot>
3.1557

> <Gold.Chemscore.Internal.Correction>
   9.000000E+99

> <Gold.Chemscore.Hbonds>
donor molecule, donor type, donor heavy atom, donor atom, acceptor molecule, acceptor atom, score
      P1  H  6931  6943       L1    13  0.39
      P1  H  7989  7998       L1     1  0.22

> <Gold.Chemscore.Hbond.Weighted>
-5.2545

> <Gold.Chemscore.Metal.Weighted>
-0.0000

> <Gold.Chemscore.Lipo.Weighted>
-8.7873

> <Gold.Chemscore.Internal_Hbond.Weighted>
0.0000

> <Gold.Chemscore.DEClash.Weighted>
0.0407

> <Gold.Chemscore.DEInternal.Weighted>
0.8490

> <Gold.Chemscore.Rot.Weighted>
8.0785

> <Gold.Chemscore.Internal.Correction.Weighted>
   9.000000E+99

> <Gold.Protein.RotatedTorsions>
[ 6907 6896 6895 6894 ] final  -13.14 input  -60.11 | X-H torsion
[ 7974 7965 7964 7962 ] final  137.58 input  175.53 | X-H torsion
[ 8008 7997 7996 7995 ] final   -7.72 input   59.86 | X-H torsion
[ 10167 10162 10161 10158 ] final  -85.15 input  -65.29 | X-H torsion
[ 10718 10713 10712 10709 ] final  116.69 input   66.30 | X-H torsion
[ 10763 10752 10751 10750 ] final   12.23 input  -60.55 | X-H torsion
[ 11005 11000 10999 10996 ] final -136.25 input  -57.11 | X-H torsion

> <Gold.Protein.ActiveResidues>
 VAL166  LYS551  ARG553  GLY616  TRP617  ASP618  TYR619  PRO620  LYS621  CYS622 
 ASP623  PHE694  ASN695  SER759  ASP760  ASP761  ALA762  ILE779  LEU786  VAL792 
 PHE793  MET794  SER795  GLU796  ALA797  LYS798  CYS799  TRP800  GLU811  SER814 

> <Gold.Protein.RotatedAtoms>
  151.3596  135.0901  159.9429 H   0  0  0  0  0  0  0  0  0  0  0  0  # atno 6907 bound_to 6896
  152.5165  133.9271  159.7573 H   0  0  0  0  0  0  0  0  0  0  0  0  # atno 6908 bound_to 6896
  150.9663  133.6337  159.2775 H   0  0  0  0  0  0  0  0  0  0  0  0  # atno 6909 bound_to 6896
  144.9455  139.4880  143.5551 H   0  0  0  0  0  0  0  0  0  0  0  0  # atno 7974 bound_to 7965
  154.5811  140.2400  155.8053 H   0  0  0  0  0  0  0  0  0  0  0  0  # atno 8008 bound_to 7997
  156.2179  140.3006  155.9840 H   0  0  0  0  0  0  0  0  0  0  0  0  # atno 8009 bound_to 7997
  155.2540  140.0412  157.2980 H   0  0  0  0  0  0  0  0  0  0  0  0  # atno 8010 bound_to 7997
  140.4064  143.2641  151.9075 H   0  0  0  0  0  0  0  0  0  0  0  0  # atno 10167 bound_to 10162
  157.6144  131.1028  150.7509 H   0  0  0  0  0  0  0  0  0  0  0  0  # atno 10718 bound_to 10713
  153.1844  135.6833  153.8435 H   0  0  0  0  0  0  0  0  0  0  0  0  # atno 10763 bound_to 10752
  153.7756  135.3190  155.3359 H   0  0  0  0  0  0  0  0  0  0  0  0  # atno 10764 bound_to 10752
  154.8079  135.4736  154.0536 H   0  0  0  0  0  0  0  0  0  0  0  0  # atno 10765 bound_to 10752
  140.8822  134.1917  157.4583 H   0  0  0  0  0  0  0  0  0  0  0  0  # atno 11005 bound_to 11000
  146.3302  139.8503  142.8874 LP  0  0  0  0  0  0  0  0  0  0  0  0  # atno 17320 bound_to 7965
  145.2925  141.0171  143.3655 LP  0  0  0  0  0  0  0  0  0  0  0  0  # atno 17321 bound_to 7965
  139.4783  144.5581  151.8282 LP  0  0  0  0  0  0  0  0  0  0  0  0  # atno 17342 bound_to 10162
  140.4685  144.1621  150.5915 LP  0  0  0  0  0  0  0  0  0  0  0  0  # atno 17343 bound_to 10162
  156.7880  130.4880  149.5389 LP  0  0  0  0  0  0  0  0  0  0  0  0  # atno 17370 bound_to 10713
  156.1260  130.6144  151.0264 LP  0  0  0  0  0  0  0  0  0  0  0  0  # atno 17371 bound_to 10713
  139.8721  134.9822  156.5148 LP  0  0  0  0  0  0  0  0  0  0  0  0  # atno 17394 bound_to 11000
  140.8447  133.8178  155.9109 LP  0  0  0  0  0  0  0  0  0  0  0  0  # atno 17395 bound_to 11000

$$$$
