AV-unprocessed.smi:1945|AV-procd|sdf|7857|dock5
  -GOLD-   2272010 03D 1   1.00000     0.00000
 Structure written by MMmdl.
 47 48  0  0  0  0  0  0  0  0  1 V2000
  156.2914  132.5794  162.5933 C   0  0  0  0  0  0  0  0  0  0  0  0
  155.9053  134.0269  162.5171 C   0  0  0  0  0  0  0  0  0  0  0  0
  155.3021  134.7175  161.4260 C   0  0  0  0  0  0  0  0  0  0  0  0
  155.1772  135.9917  161.9084 C   0  0  0  0  0  0  0  0  0  0  0  0
  154.6486  137.0866  161.3000 N   0  0  0  0  0  0  0  0  0  0  0  0
  153.8906  137.1448  160.1915 C   0  0  0  0  0  0  0  0  0  0  0  0
  153.6166  136.1894  159.4651 O   0  0  0  0  0  0  0  0  0  0  0  0
  153.4615  138.3949  159.9648 N   0  0  0  0  0  0  0  0  0  0  0  0
  152.5669  138.7936  158.8828 C   0  0  0  0  0  0  0  0  0  0  0  0
  151.7379  140.0285  159.2662 C   0  0  0  0  0  0  0  0  0  0  0  0
  152.6146  141.0581  159.6972 O   0  0  0  0  0  0  0  0  0  0  0  0
  151.9718  142.2239  160.1919 C   0  0  2  0  0  0  0  0  0  0  0  0
  151.5164  143.0933  159.0003 C   0  0  0  0  0  0  0  0  0  0  0  0
  150.9513  144.4428  159.4670 C   0  0  0  0  0  0  0  0  0  0  0  0
  151.9703  145.1959  160.3333 C   0  0  0  0  0  0  0  0  0  0  0  0
  152.4173  144.3394  161.5272 C   0  0  0  0  0  0  0  0  0  0  0  0
  152.9902  142.9816  161.0737 C   0  0  1  0  0  0  0  0  0  0  0  0
  153.4259  142.1440  162.2868 C   0  0  0  0  0  0  0  0  0  0  0  0
  155.6688  136.0311  163.1941 N   0  0  0  0  0  0  0  0  0  0  0  0
  155.7513  137.1462  164.1171 C   0  0  0  0  0  0  0  0  0  0  0  0
  156.1242  134.8146  163.5641 N   0  0  0  0  0  0  0  0  0  0  0  0
  155.9648  132.0373  161.7056 H   0  0  0  0  0  0  0  0  0  0  0  0
  155.8394  132.0969  163.4602 H   0  0  0  0  0  0  0  0  0  0  0  0
  157.3727  132.4658  162.6725 H   0  0  0  0  0  0  0  0  0  0  0  0
  155.0135  134.3239  160.4630 H   0  0  0  0  0  0  0  0  0  0  0  0
  154.8294  137.9652  161.7625 H   0  0  0  0  0  0  0  0  0  0  0  0
  153.7454  139.1191  160.6079 H   0  0  0  0  0  0  0  0  0  0  0  0
  153.1859  139.0288  158.0168 H   0  0  0  0  0  0  0  0  0  0  0  0
  151.9186  137.9678  158.5848 H   0  0  0  0  0  0  0  0  0  0  0  0
  151.1282  140.3456  158.4197 H   0  0  0  0  0  0  0  0  0  0  0  0
  151.0562  139.7798  160.0806 H   0  0  0  0  0  0  0  0  0  0  0  0
  151.1104  141.9513  160.8053 H   0  0  0  0  0  0  0  0  0  0  0  0
  152.3619  143.2668  158.3329 H   0  0  0  0  0  0  0  0  0  0  0  0
  150.7624  142.5737  158.4098 H   0  0  0  0  0  0  0  0  0  0  0  0
  150.6768  145.0490  158.6034 H   0  0  0  0  0  0  0  0  0  0  0  0
  150.0352  144.2794  160.0359 H   0  0  0  0  0  0  0  0  0  0  0  0
  152.8381  145.4640  159.7292 H   0  0  0  0  0  0  0  0  0  0  0  0
  151.5384  146.1323  160.6877 H   0  0  0  0  0  0  0  0  0  0  0  0
  153.1644  144.8846  162.1051 H   0  0  0  0  0  0  0  0  0  0  0  0
  151.5698  144.1777  162.1947 H   0  0  0  0  0  0  0  0  0  0  0  0
  153.8785  143.1788  160.4714 H   0  0  0  0  0  0  0  0  0  0  0  0
  152.5764  141.9003  162.9257 H   0  0  0  0  0  0  0  0  0  0  0  0
  154.1553  142.6819  162.8929 H   0  0  0  0  0  0  0  0  0  0  0  0
  153.8884  141.2066  161.9767 H   0  0  0  0  0  0  0  0  0  0  0  0
  154.8231  137.7177  164.0915 H   0  0  0  0  0  0  0  0  0  0  0  0
  156.5787  137.7954  163.8303 H   0  0  0  0  0  0  0  0  0  0  0  0
  155.9141  136.7889  165.1348 H   0  0  0  0  0  0  0  0  0  0  0  0
  1  2  1  0  0  0  0
  1 22  1  0  0  0  0
  1 23  1  0  0  0  0
  1 24  1  0  0  0  0
  2 21  2  0  0  0  0
  2  3  1  0  0  0  0
  3  4  2  0  0  0  0
  3 25  1  0  0  0  0
  4  5  1  0  0  0  0
  4 19  1  0  0  0  0
  5  6  1  0  0  0  0
  5 26  1  0  0  0  0
  6  7  2  0  0  0  0
  6  8  1  0  0  0  0
  8  9  1  0  0  0  0
  8 27  1  0  0  0  0
  9 10  1  0  0  0  0
  9 28  1  0  0  0  0
  9 29  1  0  0  0  0
 10 11  1  0  0  0  0
 10 30  1  0  0  0  0
 10 31  1  0  0  0  0
 11 12  1  0  0  0  0
 12 17  1  0  0  0  0
 12 13  1  0  0  0  0
 12 32  1  0  0  0  0
 13 14  1  0  0  0  0
 13 33  1  0  0  0  0
 13 34  1  0  0  0  0
 14 15  1  0  0  0  0
 14 35  1  0  0  0  0
 14 36  1  0  0  0  0
 15 16  1  0  0  0  0
 15 37  1  0  0  0  0
 15 38  1  0  0  0  0
 16 17  1  0  0  0  0
 16 39  1  0  0  0  0
 16 40  1  0  0  0  0
 17 18  1  0  0  0  0
 17 41  1  0  0  0  0
 18 42  1  0  0  0  0
 18 43  1  0  0  0  0
 18 44  1  0  0  0  0
 19 20  1  0  0  0  0
 19 21  1  0  0  0  0
 20 45  1  0  0  0  0
 20 46  1  0  0  0  0
 20 47  1  0  0  0  0
M  END
> <s_m_source_file>
AV-unprocessed.smi

> <i_m_source_file_index>
1945

> <i_lp_mmshare_version>
43012

> <i_f3d_flags>
0

> <s_epik_input>
W0NIM11jMVtjSF1jKG4objEpW0NIM10pW05IXUMoPU8pW05IXVtDSDJdW0NIMl1PW0NAQEhdMltDSDJdW0NIMl1bQ0gyXVtDSDJdW0NASF0yW0NIM10=

> <s_epik_cmdline>
J2VwaWtfcHl0aG9uJywgJy1waCcsICc3LjAnLCAnLXRuJywgJzgnLCAnLW1hJywgJzIwMCcsICctbWV0YWxfYmluZGluZycsICctaW1hZScsICc8aW5maWxlLm1hZT4nLCAnLW9tYWUnLCAnPG91dGZpbGUubWFlPic=

> <r_lp_tautomer_probability>
1

> <r_epik_Ionization_Penalty>
9.47735e-05

> <r_epik_Ionization_Penalty_Charging>
0

> <r_epik_Ionization_Penalty_Neutral>
9.47735e-05

> <r_epik_State_Penalty>
-0

> <r_epik_Charging_Adjusted_Penalty>
0

> <i_epik_Tot_Q>
0

> <i_epik_Tot_abs_Q>
0

> <r_epik_Metal_State_Penalty>
-0

> <b_epik_Metal_Only>
0

> <s_lp_Force_Field>
OPLS_2005

> <r_lp_Energy>
11.707

> <b_lp_Chiralities_Consistent>
1

> <s_lp_Variant>
AV-unprocessed.smi:1945-1

> <Gold.Version>
5.8.1

> <Gold.Id.Protein>
6NUR|6NUR_protein|mol2

> <Gold.PLP.Fitness>
48.4846

> <Gold.PLP.PLP>
-46.3120

> <Gold.PLP.part.hbond>
-1.0000

> <Gold.PLP.part.metal>
0.0000

> <Gold.PLP.part.buried>
-6.9347

> <Gold.PLP.part.nonpolar>
-37.6337

> <Gold.PLP.part.repulsive>
0.1780

> <Gold.PLP.ligand.clash>
0.0000

> <Gold.PLP.ligand.torsion>
0.4491

> <Gold.PLP.Chemscore.Hbond>
1.0000

> <Gold.PLP.Chemscore.CHOScore>
0.0000

> <Gold.PLP.Chemscore.Metal>
0.0000

> <Gold.Chemscore.Hbonds>
donor molecule, donor type, donor heavy atom, donor atom, acceptor molecule, acceptor atom, score
      P1  H  6896  6907       L1     7  1.00

> <Gold.PLP.Chemscore.Internal.Correction>
0.0708

> <Gold.Rescore>
     Score         DG    S(hbond)    S(metal)    S(lipo)     H(rot)  DE(clash)    DE(int)     intcor
     15.70     -17.31       1.00        0.00     108.30       1.63       0.01       1.60       ----

> <Gold.Chemscore.Fitness>
15.7020

> <Gold.Chemscore.DG>
-17.3054

> <Gold.Chemscore.ZeroCoef>
-5.4800

> <Gold.Chemscore.Hbond>
0.9972

> <Gold.Chemscore.Metal>
0.0000

> <Gold.Chemscore.Lipo>
108.3030

> <Gold.Chemscore.Internal_Hbond>
0.0000

> <Gold.Chemscore.DEClash>
0.0060

> <Gold.Chemscore.DEInternal>
1.5974

> <Gold.Chemscore.Rot>
1.6316

> <Gold.Chemscore.Internal.Correction>
   9.000000E+99

> <Gold.Chemscore.Hbonds>
donor molecule, donor type, donor heavy atom, donor atom, acceptor molecule, acceptor atom, score
      P1  H  6896  6907       L1     7  0.96

> <Gold.Chemscore.Hbond.Weighted>
-3.3307

> <Gold.Chemscore.Metal.Weighted>
-0.0000

> <Gold.Chemscore.Lipo.Weighted>
-12.6714

> <Gold.Chemscore.Internal_Hbond.Weighted>
0.0000

> <Gold.Chemscore.DEClash.Weighted>
0.0060

> <Gold.Chemscore.DEInternal.Weighted>
1.5974

> <Gold.Chemscore.Rot.Weighted>
4.1768

> <Gold.Chemscore.Internal.Correction.Weighted>
   9.000000E+99

> <Gold.Protein.RotatedTorsions>
[ 6907 6896 6895 6894 ] final   44.25 input  -60.11 | X-H torsion
[ 7974 7965 7964 7962 ] final  -17.98 input  175.53 | X-H torsion
[ 8008 7997 7996 7995 ] final  -34.39 input   59.86 | X-H torsion
[ 10167 10162 10161 10158 ] final -168.87 input  -65.29 | X-H torsion
[ 10718 10713 10712 10709 ] final -148.68 input   66.30 | X-H torsion
[ 10763 10752 10751 10750 ] final  163.17 input  -60.55 | X-H torsion
[ 11005 11000 10999 10996 ] final  -39.50 input  -57.11 | X-H torsion

> <Gold.Protein.ActiveResidues>
 VAL166  LYS551  ARG553  GLY616  TRP617  ASP618  TYR619  PRO620  LYS621  CYS622 
 ASP623  PHE694  ASN695  SER759  ASP760  ASP761  ALA762  ILE779  LEU786  VAL792 
 PHE793  MET794  SER795  GLU796  ALA797  LYS798  CYS799  TRP800  GLU811  SER814 

> <Gold.Protein.RotatedAtoms>
  152.2302  134.8329  160.0474 H   0  0  0  0  0  0  0  0  0  0  0  0  # atno 6907 bound_to 6896
  151.9080  133.3549  159.3862 H   0  0  0  0  0  0  0  0  0  0  0  0  # atno 6908 bound_to 6896
  150.7023  134.4686  159.5459 H   0  0  0  0  0  0  0  0  0  0  0  0  # atno 6909 bound_to 6896
  146.1914  140.3857  142.8456 H   0  0  0  0  0  0  0  0  0  0  0  0  # atno 7974 bound_to 7965
  154.4122  140.1685  156.2042 H   0  0  0  0  0  0  0  0  0  0  0  0  # atno 8008 bound_to 7997
  155.9499  140.3401  155.6375 H   0  0  0  0  0  0  0  0  0  0  0  0  # atno 8009 bound_to 7997
  155.6883  140.0731  157.2449 H   0  0  0  0  0  0  0  0  0  0  0  0  # atno 8010 bound_to 7997
  139.5958  144.1116  152.1687 H   0  0  0  0  0  0  0  0  0  0  0  0  # atno 10167 bound_to 10162
  156.4234  130.8040  151.2264 H   0  0  0  0  0  0  0  0  0  0  0  0  # atno 10718 bound_to 10713
  154.2896  135.2761  155.2661 H   0  0  0  0  0  0  0  0  0  0  0  0  # atno 10763 bound_to 10752
  154.5146  135.5773  153.6635 H   0  0  0  0  0  0  0  0  0  0  0  0  # atno 10764 bound_to 10752
  152.9916  135.6189  154.3060 H   0  0  0  0  0  0  0  0  0  0  0  0  # atno 10765 bound_to 10752
  141.0107  133.6909  156.2196 H   0  0  0  0  0  0  0  0  0  0  0  0  # atno 11005 bound_to 11000
  144.8495  140.6979  143.6177 LP  0  0  0  0  0  0  0  0  0  0  0  0  # atno 17320 bound_to 7965
  145.3779  139.1643  143.4296 LP  0  0  0  0  0  0  0  0  0  0  0  0  # atno 17321 bound_to 7965
  140.0701  144.5786  150.7198 LP  0  0  0  0  0  0  0  0  0  0  0  0  # atno 17342 bound_to 10162
  140.7210  143.2589  151.4277 LP  0  0  0  0  0  0  0  0  0  0  0  0  # atno 17343 bound_to 10162
  157.7508  131.0221  150.3777 LP  0  0  0  0  0  0  0  0  0  0  0  0  # atno 17370 bound_to 10713
  156.4099  130.3932  149.6899 LP  0  0  0  0  0  0  0  0  0  0  0  0  # atno 17371 bound_to 10713
  140.6739  134.4839  157.5588 LP  0  0  0  0  0  0  0  0  0  0  0  0  # atno 17394 bound_to 11000
  139.9088  134.8390  156.1605 LP  0  0  0  0  0  0  0  0  0  0  0  0  # atno 17395 bound_to 11000

$$$$
