#       Name:                AV-unprocessed.smi:1762
#       Creating user name   scv26
#       Creation time:       Fri Mar 27 08:32:19 2020


#       File generated by GOLD software.
#

@<TRIPOS>MOLECULE
AV-unprocessed.smi:1762
    58    59     1
SMALL
NO_CHARGES


@<TRIPOS>ATOM
      1 ****        -5.1426  -1.5235   2.1371 C.3            1 S1                 0.0000
      2 ****        -3.6276  -1.5749   1.9118 C.3            1 S1                 0.0000
      3 ****        -3.2198  -1.0007   0.5415 C.3            1 S1                 0.0000
      4 ****        -1.7653  -0.9777   0.3460 N.3            1 S1                 0.0000
      5 ****        -1.3659  -0.4538  -0.9904 C.3            1 S1                 0.0000
      6 ****         0.1630  -0.2645  -1.1342 C.2            1 S1                 0.0000
      7 ****         0.9261  -1.2205  -0.9904 O.2            1 S1                 0.0000
      8 ****         0.5941   0.9820  -1.3847 N.am           1 S1                 0.0000
      9 ****         1.9927   1.3739  -1.5059 C.3            1 S1                 0.0000
     10 ****         2.6392   1.5797  -0.1257 C.3            1 S1                 0.0000
     11 ****         4.0957   1.9896  -0.2300 C.ar           1 S1                 0.0000
     12 ****         5.1252   1.0413  -0.0487 C.ar           1 S1                 0.0000
     13 ****         6.4613   1.4709  -0.1650 C.ar           1 S1                 0.0000
     14 ****         6.7150   2.8247  -0.4577 C.ar           1 S1                 0.0000
     15 ****         5.6168   3.6924  -0.6212 C.ar           1 S1                 0.0000
     16 ****         4.3318   3.2909  -0.5119 N.ar           1 S1                 0.0000
     17 ****        -1.9475  -1.2403  -2.2131 C.3            1 S1                 0.0000
     18 ****        -1.6243  -2.7475  -2.2001 C.3            1 S1                 0.0000
     19 ****        -1.5727  -0.6225  -3.5753 C.3            1 S1                 0.0000
     20 ****        -1.1538  -0.2658   1.4824 C.3            1 S1                 0.0000
     21 ****        -1.5818  -0.8371   2.8480 C.3            1 S1                 0.0000
     22 ****        -1.0184  -0.0255   4.0201 C.3            1 S1                 0.0000
     23 ****        -3.0005  -0.8196   2.9400 O.3            1 S1                 0.0000
     24 ****        -5.6720  -2.1026   1.3802 H              1 S1                 0.0000
     25 ****        -5.5131  -0.4988   2.0956 H              1 S1                 0.0000
     26 ****        -5.4050  -1.9334   3.1127 H              1 S1                 0.0000
     27 ****        -3.2997  -2.6136   1.9837 H              1 S1                 0.0000
     28 ****        -3.7006  -1.6193  -0.2136 H              1 S1                 0.0000
     29 ****        -3.6252   0.0065   0.4298 H              1 S1                 0.0000
     30 ****        -1.7894   0.5502  -1.0657 H              1 S1                 0.0000
     31 ****        -0.0959   1.7126  -1.4826 H              1 S1                 0.0000
     32 ****         2.5437   0.6260  -2.0787 H              1 S1                 0.0000
     33 ****         2.0364   2.2992  -2.0811 H              1 S1                 0.0000
     34 ****         2.0952   2.3438   0.4316 H              1 S1                 0.0000
     35 ****         2.5692   0.6647   0.4640 H              1 S1                 0.0000
     36 ****         4.8981   0.0085   0.1718 H              1 S1                 0.0000
     37 ****         7.2764   0.7746  -0.0333 H              1 S1                 0.0000
     38 ****         7.7269   3.1896  -0.5551 H              1 S1                 0.0000
     39 ****         5.7745   4.7368  -0.8465 H              1 S1                 0.0000
     40 ****        -3.0319  -1.1502  -2.1770 H              1 S1                 0.0000
     41 ****        -0.5590  -2.9376  -2.3263 H              1 S1                 0.0000
     42 ****        -2.1429  -3.2610  -3.0102 H              1 S1                 0.0000
     43 ****        -1.9389  -3.2177  -1.2683 H              1 S1                 0.0000
     44 ****        -0.5126  -0.7391  -3.8020 H              1 S1                 0.0000
     45 ****        -1.8069   0.4421  -3.6022 H              1 S1                 0.0000
     46 ****        -2.1288  -1.0984  -4.3834 H              1 S1                 0.0000
     47 ****        -0.0663  -0.3218   1.4477 H              1 S1                 0.0000
     48 ****        -1.4132   0.7932   1.4330 H              1 S1                 0.0000
     49 ****        -1.2329  -1.8675   2.9374 H              1 S1                 0.0000
     50 ****         0.0716  -0.0161   4.0043 H              1 S1                 0.0000
     51 ****        -1.3330  -0.4492   4.9741 H              1 S1                 0.0000
     52 ****        -1.3632   1.0085   3.9856 H              1 S1                 0.0000
     53 ****        -1.4134  -1.9137   0.3377 LP             1 S1                 0.0000
     54 ****         0.5586  -2.1263  -0.7793 LP             1 S1                 0.0000
     55 ****         1.9131  -1.0910  -1.0847 LP             1 S1                 0.0000
     56 ****         3.5780   3.9362  -0.6356 LP             1 S1                 0.0000
     57 ****        -3.2682  -1.2005   3.8251 LP             1 S1                 0.0000
     58 ****        -3.3133   0.1281   2.8766 LP             1 S1                 0.0000
@<TRIPOS>BOND
    1    1    2 1     
    2    1   24 1     
    3    1   25 1     
    4    1   26 1     
    5    2   23 1     
    6    2    3 1     
    7    2   27 1     
    8    3    4 1     
    9    3   28 1     
   10    3   29 1     
   11    4    5 1     
   12    4   20 1     
   13    5    6 1     
   14    5   17 1     
   15    5   30 1     
   16    6    7 2     
   17    6    8 am    
   18    8    9 1     
   19    8   31 1     
   20    9   10 1     
   21    9   32 1     
   22    9   33 1     
   23   10   11 1     
   24   10   34 1     
   25   10   35 1     
   26   11   16 ar    
   27   11   12 ar    
   28   12   13 ar    
   29   12   36 1     
   30   13   14 ar    
   31   13   37 1     
   32   14   15 ar    
   33   14   38 1     
   34   15   16 ar    
   35   15   39 1     
   36   17   18 1     
   37   17   19 1     
   38   17   40 1     
   39   18   41 1     
   40   18   42 1     
   41   18   43 1     
   42   19   44 1     
   43   19   45 1     
   44   19   46 1     
   45   20   21 1     
   46   20   47 1     
   47   20   48 1     
   48   21   22 1     
   49   21   23 1     
   50   21   49 1     
   51   22   50 1     
   52   22   51 1     
   53   22   52 1     
   54    4   53 1     
   55    7   54 1     
   56    7   55 1     
   57   16   56 1     
   58   23   57 1     
   59   23   58 1     
@<TRIPOS>SUBSTRUCTURE
      1 S1             1
@<TRIPOS>SET
LONE_PAIRS      STATIC     ATOMS    <user>   **** ""
6 53 54 55 56 57 58
DONOR_HYDROGENS      STATIC     ATOMS    <user>   **** ""
1 31
ATOM$BLUE        STATIC     ATOMS    COLORGROUP SYSTEM
6 53 54 55 56 57 58
ATOM$RED        STATIC     ATOMS    COLORGROUP SYSTEM
1 31
