#       Name:                AV-unprocessed.smi:1945
#       Creating user name   scv26
#       Creation time:       Fri Mar 27 10:00:40 2020


#       File generated by GOLD software.
#

@<TRIPOS>MOLECULE
AV-unprocessed.smi:1945
    52    53     1
SMALL
NO_CHARGES


@<TRIPOS>ATOM
      1 ****        -3.8767   3.1698   0.9320 C.3            1 S1                 0.0000
      2 ****        -3.4419   1.7642   1.2244 C.2            1 S1                 0.0000
      3 ****        -2.1128   1.2608   1.3281 C.2            1 S1                 0.0000
      4 ****        -2.3137  -0.0640   1.6046 C.2            1 S1                 0.0000
      5 ****        -1.3896  -1.0451   1.7815 N.am           1 S1                 0.0000
      6 ****        -0.0542  -0.9202   1.8622 C.2            1 S1                 0.0000
      7 ****         0.5517   0.1435   1.9949 O.2            1 S1                 0.0000
      8 ****         0.5531  -2.1121   1.7680 N.am           1 S1                 0.0000
      9 ****         1.9955  -2.3061   1.6531 C.3            1 S1                 0.0000
     10 ****         2.4540  -2.1822   0.1913 C.3            1 S1                 0.0000
     11 ****         2.2806  -0.8365  -0.2252 O.3            1 S1                 0.0000
     12 ****         2.4731  -0.5895  -1.6118 C.3            1 S1                 0.0000
     13 ****         1.2098  -0.9740  -2.4145 C.3            1 S1                 0.0000
     14 ****        -0.0005  -0.1058  -2.0301 C.3            1 S1                 0.0000
     15 ****         0.3138   1.3903  -2.1769 C.3            1 S1                 0.0000
     16 ****         1.5719   1.7798  -1.3847 C.3            1 S1                 0.0000
     17 ****         2.7848   0.9140  -1.7845 C.3            1 S1                 0.0000
     18 ****         4.0565   1.3300  -1.0288 C.3            1 S1                 0.0000
     19 ****        -3.6679  -0.3112   1.6417 N.pl3          1 S1                 0.0000
     20 ****        -4.3730  -1.5547   1.8831 C.3            1 S1                 0.0000
     21 ****        -4.3621   0.8251   1.4149 N.2            1 S1                 0.0000
     22 ****        -3.0228   3.8050   0.6961 H              1 S1                 0.0000
     23 ****        -4.3896   3.6076   1.7886 H              1 S1                 0.0000
     24 ****        -4.5581   3.2023   0.0816 H              1 S1                 0.0000
     25 ****        -1.1825   1.7957   1.2084 H              1 S1                 0.0000
     26 ****        -1.7525  -1.9868   1.7747 H              1 S1                 0.0000
     27 ****        -0.0238  -2.9357   1.6812 H              1 S1                 0.0000
     28 ****         2.5369  -1.6037   2.2892 H              1 S1                 0.0000
     29 ****         2.2290  -3.3039   2.0246 H              1 S1                 0.0000
     30 ****         3.5066  -2.4533   0.1025 H              1 S1                 0.0000
     31 ****         1.8874  -2.8736  -0.4321 H              1 S1                 0.0000
     32 ****         3.3263  -1.1685  -1.9696 H              1 S1                 0.0000
     33 ****         1.4130  -0.8487  -3.4786 H              1 S1                 0.0000
     34 ****         0.9653  -2.0272  -2.2827 H              1 S1                 0.0000
     35 ****        -0.8575  -0.3668  -2.6515 H              1 S1                 0.0000
     36 ****        -0.2931  -0.3173  -1.0022 H              1 S1                 0.0000
     37 ****         0.4585   1.6303  -3.2308 H              1 S1                 0.0000
     38 ****        -0.5367   1.9827  -1.8379 H              1 S1                 0.0000
     39 ****         1.7943   2.8340  -1.5528 H              1 S1                 0.0000
     40 ****         1.3756   1.6755  -0.3167 H              1 S1                 0.0000
     41 ****         2.9761   1.0886  -2.8444 H              1 S1                 0.0000
     42 ****         3.9391   1.2073   0.0484 H              1 S1                 0.0000
     43 ****         4.3001   2.3758  -1.2176 H              1 S1                 0.0000
     44 ****         4.9123   0.7307  -1.3407 H              1 S1                 0.0000
     45 ****        -3.9212  -2.3556   1.2973 H              1 S1                 0.0000
     46 ****        -5.4219  -1.4614   1.5983 H              1 S1                 0.0000
     47 ****        -4.3130  -1.8082   2.9417 H              1 S1                 0.0000
     48 ****         0.0451   1.0039   2.0509 LP             1 S1                 0.0000
     49 ****         1.5503   0.1470   2.0467 LP             1 S1                 0.0000
     50 ****         2.9329  -0.2721   0.2807 LP             1 S1                 0.0000
     51 ****         1.3486  -0.5602   0.0094 LP             1 S1                 0.0000
     52 ****        -5.3558   0.9357   1.3947 LP             1 S1                 0.0000
@<TRIPOS>BOND
    1    1    2 1     
    2    1   22 1     
    3    1   23 1     
    4    1   24 1     
    5    2   21 2     
    6    2    3 1     
    7    3    4 2     
    8    3   25 1     
    9    4    5 1     
   10    4   19 1     
   11    5    6 am    
   12    5   26 1     
   13    6    7 2     
   14    6    8 am    
   15    8    9 1     
   16    8   27 1     
   17    9   10 1     
   18    9   28 1     
   19    9   29 1     
   20   10   11 1     
   21   10   30 1     
   22   10   31 1     
   23   11   12 1     
   24   12   17 1     
   25   12   13 1     
   26   12   32 1     
   27   13   14 1     
   28   13   33 1     
   29   13   34 1     
   30   14   15 1     
   31   14   35 1     
   32   14   36 1     
   33   15   16 1     
   34   15   37 1     
   35   15   38 1     
   36   16   17 1     
   37   16   39 1     
   38   16   40 1     
   39   17   18 1     
   40   17   41 1     
   41   18   42 1     
   42   18   43 1     
   43   18   44 1     
   44   19   20 1     
   45   19   21 1     
   46   20   45 1     
   47   20   46 1     
   48   20   47 1     
   49    7   48 1     
   50    7   49 1     
   51   11   50 1     
   52   11   51 1     
   53   21   52 1     
@<TRIPOS>SUBSTRUCTURE
      1 S1             1
@<TRIPOS>SET
LONE_PAIRS      STATIC     ATOMS    <user>   **** ""
5 48 49 50 51 52
DONOR_HYDROGENS      STATIC     ATOMS    <user>   **** ""
2 26 27
ATOM$BLUE        STATIC     ATOMS    COLORGROUP SYSTEM
5 48 49 50 51 52
ATOM$RED        STATIC     ATOMS    COLORGROUP SYSTEM
2 26 27
