AV-unprocessed.smi:283|AV-procd|sdf|2153|dock8
  -GOLD-   2262021493D 1   1.00000     0.00000
 Structure written by MMmdl.
 48 51  0  0  0  0  0  0  0  0  1 V2000
  150.0724  142.4304  158.0989 C   0  0  0  0  0  0  0  0  0  0  0  0
  151.2326  141.5589  157.5999 C   0  0  2  0  0  0  0  0  0  0  0  0
  150.7086  140.3780  156.9151 N   0  0  0  0  0  0  0  0  0  0  0  0
  149.6782  140.4720  156.0446 C   0  0  0  0  0  0  0  0  0  0  0  0
  149.2804  141.6735  155.5503 N   0  0  0  0  0  0  0  0  0  0  0  0
  148.2609  141.7378  154.6899 C   0  0  0  0  0  0  0  0  0  0  0  0
  147.5131  140.7430  154.2084 N   0  0  0  0  0  0  0  0  0  0  0  0
  147.9015  139.5333  154.7065 C   0  0  0  0  0  0  0  0  0  0  0  0
  148.9680  139.3179  155.6238 C   0  0  0  0  0  0  0  0  0  0  0  0
  149.0751  137.9640  155.9123 N   0  0  0  0  0  0  0  0  0  0  0  0
  148.1230  137.4150  155.2072 C   0  0  0  0  0  0  0  0  0  0  0  0
  147.3651  138.2848  154.4545 N   0  0  0  0  0  0  0  0  0  0  0  0
  146.2133  137.9382  153.5585 C   0  0  2  0  0  0  0  0  0  0  0  0
  146.1298  136.5492  153.4262 O   0  0  0  0  0  0  0  0  0  0  0  0
  146.2345  136.1693  152.0551 C   0  0  1  0  0  0  0  0  0  0  0  0
  145.3976  134.9019  151.8209 C   0  0  0  0  0  0  0  0  0  0  0  0
  145.3258  134.5977  150.4443 O   0  0  0  0  0  0  0  0  0  0  0  0
  145.7559  137.4132  151.3012 C   0  0  2  0  0  0  0  0  0  0  0  0
  146.1861  137.4641  149.9542 O   0  0  0  0  0  0  0  0  0  0  0  0
  146.3326  138.5415  152.1452 C   0  0  2  0  0  0  0  0  0  0  0  0
  147.6633  138.8745  151.7782 O   0  0  0  0  0  0  0  0  0  0  0  0
  152.2024  141.2510  158.7435 C   0  0  0  0  0  0  0  0  0  0  0  0
  152.5131  139.9076  159.0582 C   0  0  0  0  0  0  0  0  0  0  0  0
  153.4055  139.6028  160.1031 C   0  0  0  0  0  0  0  0  0  0  0  0
  153.9920  140.6395  160.8511 C   0  0  0  0  0  0  0  0  0  0  0  0
  153.6812  141.9793  160.5547 C   0  0  0  0  0  0  0  0  0  0  0  0
  152.7891  142.2905  159.5088 C   0  0  0  0  0  0  0  0  0  0  0  0
  152.4363  143.9543  159.1970 Cl  0  0  0  0  0  0  0  0  0  0  0  0
  145.3311  138.2920  154.0935 H   0  0  0  0  0  0  0  0  0  0  0  0
  147.2859  135.9767  151.8370 H   0  0  0  0  0  0  0  0  0  0  0  0
  144.6665  137.4632  151.3288 H   0  0  0  0  0  0  0  0  0  0  0  0
  145.7253  139.4449  152.0815 H   0  0  0  0  0  0  0  0  0  0  0  0
  150.4403  143.3591  158.5366 H   0  0  0  0  0  0  0  0  0  0  0  0
  149.4851  141.9138  158.8589 H   0  0  0  0  0  0  0  0  0  0  0  0
  149.4011  142.6966  157.2820 H   0  0  0  0  0  0  0  0  0  0  0  0
  151.7592  142.1327  156.8381 H   0  0  0  0  0  0  0  0  0  0  0  0
  151.2230  139.5216  157.0625 H   0  0  0  0  0  0  0  0  0  0  0  0
  148.0079  142.7267  154.3374 H   0  0  0  0  0  0  0  0  0  0  0  0
  147.9439  136.3497  155.2191 H   0  0  0  0  0  0  0  0  0  0  0  0
  145.8578  134.0542  152.3291 H   0  0  0  0  0  0  0  0  0  0  0  0
  144.3922  135.0135  152.2274 H   0  0  0  0  0  0  0  0  0  0  0  0
  146.0305  135.0449  150.0006 H   0  0  0  0  0  0  0  0  0  0  0  0
  145.4964  137.8545  149.4389 H   0  0  0  0  0  0  0  0  0  0  0  0
  148.1888  138.0898  151.8132 H   0  0  0  0  0  0  0  0  0  0  0  0
  152.0687  139.0997  158.4958 H   0  0  0  0  0  0  0  0  0  0  0  0
  153.6396  138.5732  160.3302 H   0  0  0  0  0  0  0  0  0  0  0  0
  154.6772  140.4075  161.6531 H   0  0  0  0  0  0  0  0  0  0  0  0
  154.1296  142.7728  161.1343 H   0  0  0  0  0  0  0  0  0  0  0  0
  1  2  1  0  0  0  0
  1 33  1  0  0  0  0
  1 34  1  0  0  0  0
  1 35  1  0  0  0  0
  2  3  1  0  0  0  0
  2 22  1  0  0  0  0
  2 36  1  0  0  0  0
  3  4  1  0  0  0  0
  3 37  1  0  0  0  0
  4  9  1  0  0  0  0
  4  5  2  0  0  0  0
  5  6  1  0  0  0  0
  6  7  2  0  0  0  0
  6 38  1  0  0  0  0
  7  8  1  0  0  0  0
  8 12  1  0  0  0  0
  8  9  2  0  0  0  0
  9 10  1  0  0  0  0
 10 11  2  0  0  0  0
 11 12  1  0  0  0  0
 11 39  1  0  0  0  0
 12 13  1  0  0  0  0
 13 29  1  0  0  0  0
 13 20  1  0  0  0  0
 13 14  1  0  0  0  0
 14 15  1  0  0  0  0
 15 30  1  0  0  0  0
 15 16  1  0  0  0  0
 15 18  1  0  0  0  0
 16 17  1  0  0  0  0
 16 40  1  0  0  0  0
 16 41  1  0  0  0  0
 17 42  1  0  0  0  0
 18 31  1  0  0  0  0
 18 19  1  0  0  0  0
 18 20  1  0  0  0  0
 19 43  1  0  0  0  0
 20 32  1  0  0  0  0
 20 21  1  0  0  0  0
 21 44  1  0  0  0  0
 22 27  1  0  0  0  0
 22 23  2  0  0  0  0
 23 24  1  0  0  0  0
 23 45  1  0  0  0  0
 24 25  2  0  0  0  0
 24 46  1  0  0  0  0
 25 26  1  0  0  0  0
 25 47  1  0  0  0  0
 26 27  2  0  0  0  0
 26 48  1  0  0  0  0
 27 28  1  0  0  0  0
M  END
> <s_m_source_file>
AV-unprocessed.smi

> <i_m_source_file_index>
283

> <i_lp_mmshare_version>
43012

> <i_f3d_flags>
0

> <s_epik_input>
Q2xjMVtjSF1bY0hdW2NIXVtjSF1jMVtDQEhdKFtDSDNdKVtOSF1jKG5bY0hdbjIpYyhjMjMpbltjSF1uM1tDQEBIXTRPW0NASF0oW0NIMl1bT0hdKVtDQEBIXShbT0hdKVtDQEhdNFtPSF0=

> <s_epik_cmdline>
J2VwaWtfcHl0aG9uJywgJy1waCcsICc3LjAnLCAnLXRuJywgJzgnLCAnLW1hJywgJzIwMCcsICctbWV0YWxfYmluZGluZycsICctaW1hZScsICc8aW5maWxlLm1hZT4nLCAnLW9tYWUnLCAnPG91dGZpbGUubWFlPic=

> <r_lp_tautomer_probability>
1

> <r_epik_Ionization_Penalty>
0.000266407

> <r_epik_Ionization_Penalty_Charging>
0

> <r_epik_Ionization_Penalty_Neutral>
0.000266407

> <r_epik_State_Penalty>
-0

> <r_epik_Charging_Adjusted_Penalty>
0

> <i_epik_Tot_Q>
0

> <i_epik_Tot_abs_Q>
0

> <r_epik_Metal_State_Penalty>
-0

> <b_epik_Metal_Only>
0

> <s_epik_Chemistry_Notes>
This compound contains an acetal/aminal-like group ( X-CH(R)-Y where X, Y are N, S, or O) that may be acid/base labile, releasing an aldehyde.

> <s_lp_Force_Field>
OPLS_2005

> <r_lp_Energy>
51.2739

> <b_lp_Chiralities_Consistent>
1

> <s_lp_Variant>
AV-unprocessed.smi:283-29

> <Gold.Version>
5.8.1

> <Gold.Id.Protein>
6NUR|6NUR_protein|mol2

> <Gold.PLP.Fitness>
50.2981

> <Gold.PLP.PLP>
-41.7481

> <Gold.PLP.part.hbond>
-5.2115

> <Gold.PLP.part.metal>
0.0000

> <Gold.PLP.part.buried>
0.5205

> <Gold.PLP.part.nonpolar>
-38.4127

> <Gold.PLP.part.repulsive>
0.9639

> <Gold.PLP.ligand.clash>
0.0000

> <Gold.PLP.ligand.torsion>
0.4258

> <Gold.PLP.Chemscore.Hbond>
2.3539

> <Gold.PLP.Chemscore.CHOScore>
0.7521

> <Gold.PLP.Chemscore.Metal>
0.0000

> <Gold.Chemscore.Hbonds>
donor molecule, donor type, donor heavy atom, donor atom, acceptor molecule, acceptor atom, score
      L1  H    17    42       P1  7921  0.05
      L1  H    19    43       P1 10171  0.74
      L1  H    21    44       P1  7948  1.00
      P1  H  7954  7966       L1    19  0.59
      L1  C     6    38       P1  8028  0.78

> <Gold.PLP.Chemscore.Internal.Correction>
0.0836

> <Gold.Rescore>
     Score         DG    S(hbond)    S(metal)    S(lipo)     H(rot)  DE(clash)    DE(int)     intcor
     11.50     -15.92       2.69        0.00     102.23       4.10       1.63       2.80       ----

> <Gold.Chemscore.Fitness>
11.4958

> <Gold.Chemscore.DG>
-15.9217

> <Gold.Chemscore.ZeroCoef>
-5.4800

> <Gold.Chemscore.Hbond>
2.6854

> <Gold.Chemscore.Metal>
0.0000

> <Gold.Chemscore.Lipo>
102.2271

> <Gold.Chemscore.Internal_Hbond>
0.0000

> <Gold.Chemscore.DEClash>
1.6252

> <Gold.Chemscore.DEInternal>
2.8007

> <Gold.Chemscore.Rot>
4.0968

> <Gold.Chemscore.Internal.Correction>
   9.000000E+99

> <Gold.Chemscore.Hbonds>
donor molecule, donor type, donor heavy atom, donor atom, acceptor molecule, acceptor atom, score
      L1  H    17    42       P1  7921  0.05
      L1  H    19    43       P1 10171  0.74
      L1  H    21    44       P1  7948  0.98
      P1  H  7954  7966       L1    19  0.45

> <Gold.Chemscore.Hbond.Weighted>
-8.9691

> <Gold.Chemscore.Metal.Weighted>
-0.0000

> <Gold.Chemscore.Lipo.Weighted>
-11.9606

> <Gold.Chemscore.Internal_Hbond.Weighted>
0.0000

> <Gold.Chemscore.DEClash.Weighted>
1.6252

> <Gold.Chemscore.DEInternal.Weighted>
2.8007

> <Gold.Chemscore.Rot.Weighted>
10.4879

> <Gold.Chemscore.Internal.Correction.Weighted>
   9.000000E+99

> <Gold.Protein.RotatedTorsions>
[ 6907 6896 6895 6894 ] final   73.88 input  -60.11 | X-H torsion
[ 7974 7965 7964 7962 ] final -145.35 input  175.53 | X-H torsion
[ 8008 7997 7996 7995 ] final  -78.99 input   59.86 | X-H torsion
[ 10167 10162 10161 10158 ] final  124.79 input  -65.29 | X-H torsion
[ 10718 10713 10712 10709 ] final  111.54 input   66.30 | X-H torsion
[ 10763 10752 10751 10750 ] final   73.78 input  -60.55 | X-H torsion
[ 11005 11000 10999 10996 ] final    2.20 input  -57.11 | X-H torsion

> <Gold.Protein.ActiveResidues>
 VAL166  LYS551  ARG553  GLY616  TRP617  ASP618  TYR619  PRO620  LYS621  CYS622 
 ASP623  PHE694  ASN695  SER759  ASP760  ASP761  ALA762  ILE779  LEU786  VAL792 
 PHE793  MET794  SER795  GLU796  ALA797  LYS798  CYS799  TRP800  GLU811  SER814 

> <Gold.Protein.RotatedAtoms>
  152.4946  134.4356  159.9526 H   0  0  0  0  0  0  0  0  0  0  0  0  # atno 6907 bound_to 6896
  151.4336  133.3657  159.2780 H   0  0  0  0  0  0  0  0  0  0  0  0  # atno 6908 bound_to 6896
  150.9137  134.8577  159.7502 H   0  0  0  0  0  0  0  0  0  0  0  0  # atno 6909 bound_to 6896
  144.8234  140.5595  143.5563 H   0  0  0  0  0  0  0  0  0  0  0  0  # atno 7974 bound_to 7965
  154.5742  140.0685  156.9009 H   0  0  0  0  0  0  0  0  0  0  0  0  # atno 8008 bound_to 7997
  155.2579  140.3356  155.4257 H   0  0  0  0  0  0  0  0  0  0  0  0  # atno 8009 bound_to 7997
  156.2141  140.1771  156.7613 H   0  0  0  0  0  0  0  0  0  0  0  0  # atno 8010 bound_to 7997
  139.5722  144.6944  151.3749 H   0  0  0  0  0  0  0  0  0  0  0  0  # atno 10167 bound_to 10162
  157.6439  131.0952  150.6764 H   0  0  0  0  0  0  0  0  0  0  0  0  # atno 10718 bound_to 10713
  153.0543  135.5050  154.7944 H   0  0  0  0  0  0  0  0  0  0  0  0  # atno 10763 bound_to 10752
  154.6782  135.2964  154.9652 H   0  0  0  0  0  0  0  0  0  0  0  0  # atno 10764 bound_to 10752
  154.0447  135.6712  153.4846 H   0  0  0  0  0  0  0  0  0  0  0  0  # atno 10765 bound_to 10752
  140.6070  133.9783  155.8159 H   0  0  0  0  0  0  0  0  0  0  0  0  # atno 11005 bound_to 11000
  145.5055  139.1481  143.3634 LP  0  0  0  0  0  0  0  0  0  0  0  0  # atno 17320 bound_to 7965
  146.2539  140.5195  142.8882 LP  0  0  0  0  0  0  0  0  0  0  0  0  # atno 17321 bound_to 7965
  140.7006  143.7642  150.7396 LP  0  0  0  0  0  0  0  0  0  0  0  0  # atno 17342 bound_to 10162
  140.1151  143.4663  152.2347 LP  0  0  0  0  0  0  0  0  0  0  0  0  # atno 17343 bound_to 10162
  156.7084  130.4644  149.5554 LP  0  0  0  0  0  0  0  0  0  0  0  0  # atno 17370 bound_to 10713
  156.1747  130.6460  151.0880 LP  0  0  0  0  0  0  0  0  0  0  0  0  # atno 17371 bound_to 10713
  141.0834  134.0028  157.3351 LP  0  0  0  0  0  0  0  0  0  0  0  0  # atno 17394 bound_to 11000
  139.9208  135.0200  156.8057 LP  0  0  0  0  0  0  0  0  0  0  0  0  # atno 17395 bound_to 11000

$$$$
