AV-unprocessed.smi:1047|AV-procd|sdf|4587|dock7
  -GOLD-   22720 3 63D 1   1.00000     0.00000
 Structure written by MMmdl.
 58 60  0  0  0  0  0  0  0  0  4 V2000
  148.2568  132.9134  152.6945 C   0  0  0  0  0  0  0  0  0  0  0  0
  146.7801  132.8632  153.1107 C   0  0  0  0  0  0  0  0  0  0  0  0
  146.0767  134.1489  152.8738 N   0  3  2  0  0  0  0  0  0  0  0  0
  145.8712  134.4567  151.4371 C   0  0  0  0  0  0  0  0  0  0  0  0
  145.1225  135.7897  151.2738 C   0  0  0  0  0  0  0  0  0  0  0  0
  145.8357  136.8257  151.9391 O   0  0  0  0  0  0  0  0  0  0  0  0
  145.9483  136.5919  153.3391 C   0  0  2  0  0  0  0  0  0  0  0  0
  146.6550  137.8003  153.9729 C   0  0  0  0  0  0  0  0  0  0  0  0
  147.6592  138.3781  153.0571 N   0  3  0  0  0  0  0  0  0  0  0  0
  148.6301  139.2756  153.7157 C   0  0  0  0  0  0  0  0  0  0  0  0
  149.4452  138.5264  154.7870 C   0  0  1  0  0  0  0  0  0  0  0  0
  149.7194  137.2208  154.3215 O   0  0  0  0  0  0  0  0  0  0  0  0
  150.7934  139.1890  155.1345 C   0  0  0  0  0  0  0  0  0  0  0  0
  150.6422  140.5012  155.7789 N   0  0  0  0  0  0  0  0  0  0  0  0
  149.9212  141.5832  155.3766 C   0  0  0  0  0  0  0  0  0  0  0  0
  150.0858  142.5584  156.3123 N   0  3  0  0  0  0  0  0  0  0  0  0
  150.9195  142.0920  157.3303 C   0  0  0  0  0  0  0  0  0  0  0  0
  151.3737  142.7116  158.4882 C   0  0  0  0  0  0  0  0  0  0  0  0
  152.2218  141.9600  159.3321 C   0  0  0  0  0  0  0  0  0  0  0  0
  152.7342  142.6070  160.6075 C   0  0  0  0  0  0  0  0  0  0  0  0
  152.5884  140.6299  159.0008 C   0  0  0  0  0  0  0  0  0  0  0  0
  153.5021  139.8313  159.9152 C   0  0  0  0  0  0  0  0  0  0  0  0
  152.1153  140.0170  157.8184 C   0  0  0  0  0  0  0  0  0  0  0  0
  151.2793  140.7711  156.9972 C   0  0  0  0  0  0  0  0  0  0  0  0
  146.7403  135.2867  153.5549 C   0  0  0  0  0  0  0  0  0  0  0  0
  148.7149  131.9289  152.7921 H   0  0  0  0  0  0  0  0  0  0  0  0
  148.8338  133.5990  153.3140 H   0  0  0  0  0  0  0  0  0  0  0  0
  148.3639  133.2245  151.6551 H   0  0  0  0  0  0  0  0  0  0  0  0
  146.2957  132.0802  152.5260 H   0  0  0  0  0  0  0  0  0  0  0  0
  146.6855  132.5704  154.1574 H   0  0  0  0  0  0  0  0  0  0  0  0
  146.8367  134.5084  150.9312 H   0  0  0  0  0  0  0  0  0  0  0  0
  145.2998  133.6641  150.9549 H   0  0  0  0  0  0  0  0  0  0  0  0
  145.0355  136.0434  150.2171 H   0  0  0  0  0  0  0  0  0  0  0  0
  144.1076  135.7178  151.6680 H   0  0  0  0  0  0  0  0  0  0  0  0
  144.9532  136.4889  153.7767 H   0  0  0  0  0  0  0  0  0  0  0  0
  145.9220  138.5724  154.2110 H   0  0  0  0  0  0  0  0  0  0  0  0
  147.1328  137.5116  154.9102 H   0  0  0  0  0  0  0  0  0  0  0  0
  148.1670  137.6239  152.6165 H   0  0  0  0  0  0  0  0  0  0  0  0
  149.2941  139.7160  152.9704 H   0  0  0  0  0  0  0  0  0  0  0  0
  148.0707  140.0936  154.1701 H   0  0  0  0  0  0  0  0  0  0  0  0
  148.8500  138.4406  155.6974 H   0  0  0  0  0  0  0  0  0  0  0  0
  149.6350  137.2078  153.3798 H   0  0  0  0  0  0  0  0  0  0  0  0
  151.3459  138.5581  155.8324 H   0  0  0  0  0  0  0  0  0  0  0  0
  151.4263  139.2881  154.2525 H   0  0  0  0  0  0  0  0  0  0  0  0
  149.3237  141.6549  154.4790 H   0  0  0  0  0  0  0  0  0  0  0  0
  151.0897  143.7248  158.7342 H   0  0  0  0  0  0  0  0  0  0  0  0
  152.4061  142.0436  161.4812 H   0  0  0  0  0  0  0  0  0  0  0  0
  152.3663  143.6281  160.7127 H   0  0  0  0  0  0  0  0  0  0  0  0
  153.8238  142.6440  160.6077 H   0  0  0  0  0  0  0  0  0  0  0  0
  153.6837  138.8299  159.5234 H   0  0  0  0  0  0  0  0  0  0  0  0
  153.0567  139.7253  160.9048 H   0  0  0  0  0  0  0  0  0  0  0  0
  154.4673  140.3274  160.0211 H   0  0  0  0  0  0  0  0  0  0  0  0
  152.3973  139.0043  157.5718 H   0  0  0  0  0  0  0  0  0  0  0  0
  146.8180  135.0774  154.6228 H   0  0  0  0  0  0  0  0  0  0  0  0
  147.7576  135.3951  153.1748 H   0  0  0  0  0  0  0  0  0  0  0  0
  147.1814  138.9048  152.3393 H   0  0  0  0  0  0  0  0  0  0  0  0
  145.1620  134.0582  153.2926 H   0  0  0  0  0  0  0  0  0  0  0  0
  149.6546  143.4728  156.2605 H   0  0  0  0  0  0  0  0  0  0  0  0
  1  2  1  0  0  0  0
  1 26  1  0  0  0  0
  1 27  1  0  0  0  0
  1 28  1  0  0  0  0
  2  3  1  0  0  0  0
  2 29  1  0  0  0  0
  2 30  1  0  0  0  0
  3 25  1  0  0  0  0
  3  4  1  0  0  0  0
  3 57  1  0  0  0  0
  4  5  1  0  0  0  0
  4 31  1  0  0  0  0
  4 32  1  0  0  0  0
  5  6  1  0  0  0  0
  5 33  1  0  0  0  0
  5 34  1  0  0  0  0
  6  7  1  0  0  0  0
  7  8  1  0  0  0  0
  7 25  1  0  0  0  0
  7 35  1  0  0  0  0
  8  9  1  0  0  0  0
  8 36  1  0  0  0  0
  8 37  1  0  0  0  0
  9 10  1  0  0  0  0
  9 38  1  0  0  0  0
  9 56  1  0  0  0  0
 10 11  1  0  0  0  0
 10 39  1  0  0  0  0
 10 40  1  0  0  0  0
 11 12  1  0  0  0  0
 11 13  1  0  0  0  0
 11 41  1  0  0  0  0
 12 42  1  0  0  0  0
 13 14  1  0  0  0  0
 13 43  1  0  0  0  0
 13 44  1  0  0  0  0
 14 24  1  0  0  0  0
 14 15  1  0  0  0  0
 15 16  2  0  0  0  0
 15 45  1  0  0  0  0
 16 17  1  0  0  0  0
 16 58  1  0  0  0  0
 17 24  2  0  0  0  0
 17 18  1  0  0  0  0
 18 19  2  0  0  0  0
 18 46  1  0  0  0  0
 19 20  1  0  0  0  0
 19 21  1  0  0  0  0
 20 47  1  0  0  0  0
 20 48  1  0  0  0  0
 20 49  1  0  0  0  0
 21 22  1  0  0  0  0
 21 23  2  0  0  0  0
 22 50  1  0  0  0  0
 22 51  1  0  0  0  0
 22 52  1  0  0  0  0
 23 24  1  0  0  0  0
 23 53  1  0  0  0  0
 25 54  1  0  0  0  0
 25 55  1  0  0  0  0
M  CHG  1   3   1
M  CHG  1   9   1
M  CHG  1  16   1
M  END
> <s_m_source_file>
AV-unprocessed.smi

> <i_m_source_file_index>
1047

> <i_lp_mmshare_version>
43012

> <i_f3d_flags>
0

> <s_epik_input>
W0NIM11bQ0gyXU4xW0NIMl1bQ0gyXU9bQ0BIXShbQ0gyXTEpW0NIMl1bTkhdW0NIMl1bQ0BIXShbT0hdKVtDSDJdbihbY0hdbjIpYyhjMjMpW2NIXWMoW0NIM10pYyhbY0hdMylbQ0gzXQ==

> <s_epik_cmdline>
J2VwaWtfcHl0aG9uJywgJy1waCcsICc3LjAnLCAnLXRuJywgJzgnLCAnLW1hJywgJzIwMCcsICctbWV0YWxfYmluZGluZycsICctaW1hZScsICc8aW5maWxlLm1hZT4nLCAnLW9tYWUnLCAnPG91dGZpbGUubWFlPic=

> <r_epik_Ionization_Penalty>
1.6114

> <r_epik_Ionization_Penalty_Charging>
1.61139

> <r_epik_Ionization_Penalty_Neutral>
5.04732e-06

> <r_epik_State_Penalty>
1.63724

> <r_epik_Charging_Adjusted_Penalty>
3.24864

> <i_epik_Tot_Q>
3

> <i_epik_Tot_abs_Q>
3

> <r_epik_Metal_State_Penalty>
5.64594

> <b_epik_Metal_Only>
0

> <s_lp_Force_Field>
OPLS_2005

> <r_lp_Energy>
41.4775

> <b_lp_Chiralities_Consistent>
1

> <s_lp_Variant>
AV-unprocessed.smi:1047-28

> <Gold.Version>
5.8.1

> <Gold.Id.Protein>
6NUR|6NUR_protein|mol2

> <Gold.PLP.Fitness>
56.7061

> <Gold.PLP.PLP>
-42.9123

> <Gold.PLP.part.hbond>
-3.2556

> <Gold.PLP.part.metal>
0.0000

> <Gold.PLP.part.buried>
-3.2204

> <Gold.PLP.part.nonpolar>
-37.6032

> <Gold.PLP.part.repulsive>
0.3651

> <Gold.PLP.ligand.clash>
0.0000

> <Gold.PLP.ligand.torsion>
0.6901

> <Gold.PLP.Chemscore.Hbond>
5.0000

> <Gold.PLP.Chemscore.CHOScore>
0.0000

> <Gold.PLP.Chemscore.Metal>
0.0000

> <Gold.Chemscore.Hbonds>
donor molecule, donor type, donor heavy atom, donor atom, acceptor molecule, acceptor atom, score
      L1  H     9    38       P1  7948  2.00
      L1  H    12    42       P1  7948  0.93
      L1  H    16    58       P1  8028  2.00

> <Gold.PLP.Chemscore.Internal.Correction>
0.1739

> <Gold.Rescore>
     Score         DG    S(hbond)    S(metal)    S(lipo)     H(rot)  DE(clash)    DE(int)     intcor
     19.71     -20.79       2.88        0.00     109.53       2.78       0.58       0.50       ----

> <Gold.Chemscore.Fitness>
19.7136

> <Gold.Chemscore.DG>
-20.7916

> <Gold.Chemscore.ZeroCoef>
-5.4800

> <Gold.Chemscore.Hbond>
2.8820

> <Gold.Chemscore.Metal>
0.0000

> <Gold.Chemscore.Lipo>
109.5275

> <Gold.Chemscore.Internal_Hbond>
0.0000

> <Gold.Chemscore.DEClash>
0.5825

> <Gold.Chemscore.DEInternal>
0.4955

> <Gold.Chemscore.Rot>
2.7848

> <Gold.Chemscore.Internal.Correction>
   9.000000E+99

> <Gold.Chemscore.Hbonds>
donor molecule, donor type, donor heavy atom, donor atom, acceptor molecule, acceptor atom, score
      L1  H     9    38       P1  7948  1.00
      L1  H    12    42       P1  7948  0.67
      L1  H    16    58       P1  8028  0.97

> <Gold.Chemscore.Hbond.Weighted>
-9.6260

> <Gold.Chemscore.Metal.Weighted>
-0.0000

> <Gold.Chemscore.Lipo.Weighted>
-12.8147

> <Gold.Chemscore.Internal_Hbond.Weighted>
0.0000

> <Gold.Chemscore.DEClash.Weighted>
0.5825

> <Gold.Chemscore.DEInternal.Weighted>
0.4955

> <Gold.Chemscore.Rot.Weighted>
7.1291

> <Gold.Chemscore.Internal.Correction.Weighted>
   9.000000E+99

> <Gold.Protein.RotatedTorsions>
[ 6907 6896 6895 6894 ] final   85.24 input  -60.11 | X-H torsion
[ 7974 7965 7964 7962 ] final  142.21 input  175.53 | X-H torsion
[ 8008 7997 7996 7995 ] final   45.65 input   59.86 | X-H torsion
[ 10167 10162 10161 10158 ] final   -4.49 input  -65.29 | X-H torsion
[ 10718 10713 10712 10709 ] final -128.02 input   66.30 | X-H torsion
[ 10763 10752 10751 10750 ] final   75.79 input  -60.55 | X-H torsion
[ 11005 11000 10999 10996 ] final   87.40 input  -57.11 | X-H torsion

> <Gold.Protein.ActiveResidues>
 VAL166  LYS551  ARG553  GLY616  TRP617  ASP618  TYR619  PRO620  LYS621  CYS622 
 ASP623  PHE694  ASN695  SER759  ASP760  ASP761  ALA762  ILE779  LEU786  VAL792 
 PHE793  MET794  SER795  GLU796  ALA797  LYS798  CYS799  TRP800  GLU811  SER814 

> <Gold.Protein.RotatedAtoms>
  152.5370  134.2617  159.8937 H   0  0  0  0  0  0  0  0  0  0  0  0  # atno 6907 bound_to 6896
  151.2576  133.4311  159.2622 H   0  0  0  0  0  0  0  0  0  0  0  0  # atno 6908 bound_to 6896
  151.0482  134.9669  159.8254 H   0  0  0  0  0  0  0  0  0  0  0  0  # atno 6909 bound_to 6896
  144.9027  139.5400  143.5746 H   0  0  0  0  0  0  0  0  0  0  0  0  # atno 7974 bound_to 7965
  155.3393  140.3407  155.4239 H   0  0  0  0  0  0  0  0  0  0  0  0  # atno 8008 bound_to 7997
  156.1821  140.1668  156.8290 H   0  0  0  0  0  0  0  0  0  0  0  0  # atno 8009 bound_to 7997
  154.5345  140.0738  156.8387 H   0  0  0  0  0  0  0  0  0  0  0  0  # atno 8010 bound_to 7997
  140.6929  143.6417  150.8429 H   0  0  0  0  0  0  0  0  0  0  0  0  # atno 10167 bound_to 10162
  156.1911  130.6796  151.0425 H   0  0  0  0  0  0  0  0  0  0  0  0  # atno 10718 bound_to 10713
  153.0680  135.4975  154.8242 H   0  0  0  0  0  0  0  0  0  0  0  0  # atno 10763 bound_to 10752
  154.6981  135.2996  154.9384 H   0  0  0  0  0  0  0  0  0  0  0  0  # atno 10764 bound_to 10752
  154.0116  135.6753  153.4818 H   0  0  0  0  0  0  0  0  0  0  0  0  # atno 10765 bound_to 10752
  139.8920  134.8419  156.2854 H   0  0  0  0  0  0  0  0  0  0  0  0  # atno 11005 bound_to 11000
  146.3117  139.7771  142.9014 LP  0  0  0  0  0  0  0  0  0  0  0  0  # atno 17320 bound_to 7965
  145.3588  141.0322  143.3296 LP  0  0  0  0  0  0  0  0  0  0  0  0  # atno 17321 bound_to 7965
  140.0132  143.5620  152.2830 LP  0  0  0  0  0  0  0  0  0  0  0  0  # atno 17342 bound_to 10162
  139.6352  144.7649  151.2454 LP  0  0  0  0  0  0  0  0  0  0  0  0  # atno 17343 bound_to 10162
  157.6929  131.0804  150.7053 LP  0  0  0  0  0  0  0  0  0  0  0  0  # atno 17370 bound_to 10713
  156.7110  130.4652  149.5547 LP  0  0  0  0  0  0  0  0  0  0  0  0  # atno 17371 bound_to 10713
  141.0011  133.7151  156.0962 LP  0  0  0  0  0  0  0  0  0  0  0  0  # atno 17394 bound_to 11000
  140.7497  134.4059  157.5543 LP  0  0  0  0  0  0  0  0  0  0  0  0  # atno 17395 bound_to 11000

$$$$
