AV-unprocessed.smi:282|AV-procd|sdf|2122|dock2
  -GOLD-   2262021423D 1   1.00000     0.00000
 Structure written by MMmdl.
 65 69  0  0  0  0  0  0  0  0  2 V2000
  146.0554  128.2530  153.1978 C   0  0  0  0  0  0  0  0  0  0  0  0
  146.5474  129.5788  153.7956 C   0  0  0  0  0  0  0  0  0  0  0  0
  147.0613  130.5981  152.7433 C   0  0  1  0  0  0  0  0  0  0  0  0
  145.9752  130.8580  151.6724 C   0  0  0  0  0  0  0  0  0  0  0  0
  146.3730  131.9097  150.7018 N   0  3  1  0  0  0  0  0  0  0  0  0
  145.3730  132.1316  149.6240 C   0  0  0  0  0  0  0  0  0  0  0  0
  144.1480  132.9248  150.1207 C   0  0  0  0  0  0  0  0  0  0  0  0
  144.5726  134.2441  150.7808 C   0  0  0  0  0  0  0  0  0  0  0  0
  145.6036  133.9828  151.8883 C   0  0  0  0  0  0  0  0  0  0  0  0
  146.8058  133.1813  151.3434 C   0  0  1  0  0  0  0  0  0  0  0  0
  147.8779  132.9147  152.4116 C   0  0  0  0  0  0  0  0  0  0  0  0
  147.4734  131.8725  153.3511 N   0  0  0  0  0  0  0  0  0  0  0  0
  148.3574  131.8234  154.3757 C   0  0  0  0  0  0  0  0  0  0  0  0
  148.3188  132.7607  155.3595 N   0  0  0  0  0  0  0  0  0  0  0  0
  149.1823  132.6933  156.3776 C   0  0  0  0  0  0  0  0  0  0  0  0
  150.1382  131.7892  156.6025 N   0  0  0  0  0  0  0  0  0  0  0  0
  150.1715  130.8428  155.6211 C   0  0  0  0  0  0  0  0  0  0  0  0
  149.3159  130.7824  154.4865 C   0  0  0  0  0  0  0  0  0  0  0  0
  149.6239  129.6722  153.7121 N   0  0  0  0  0  0  0  0  0  0  0  0
  150.6088  129.1058  154.3545 C   0  0  0  0  0  0  0  0  0  0  0  0
  151.0179  129.7532  155.5005 N   0  0  0  0  0  0  0  0  0  0  0  0
  152.0865  129.3394  156.4005 C   0  0  0  0  0  0  0  0  0  0  0  0
  153.3557  130.2507  156.3942 C   0  0  0  0  0  0  0  0  0  0  0  0
  152.9295  131.7043  156.7453 C   0  0  0  0  0  0  0  0  0  0  0  0
  152.3885  131.8354  158.0451 O   0  0  0  0  0  0  0  0  0  0  0  0
  154.4232  129.7591  157.4059 C   0  0  0  0  0  0  0  0  0  0  0  0
  155.0818  128.4357  156.9743 C   0  0  0  0  0  0  0  0  0  0  0  0
  155.6517  128.5763  155.6791 O   0  0  0  0  0  0  0  0  0  0  0  0
  154.6834  128.8644  154.6782 C   0  0  0  0  0  0  0  0  0  0  0  0
  153.9971  130.2094  154.9823 C   0  0  0  0  0  0  0  0  0  0  0  0
  145.8160  127.5416  153.9885 H   0  0  0  0  0  0  0  0  0  0  0  0
  146.8187  127.7986  152.5656 H   0  0  0  0  0  0  0  0  0  0  0  0
  145.1537  128.3849  152.6004 H   0  0  0  0  0  0  0  0  0  0  0  0
  145.7501  130.0284  154.3887 H   0  0  0  0  0  0  0  0  0  0  0  0
  147.3360  129.3277  154.5039 H   0  0  0  0  0  0  0  0  0  0  0  0
  147.9344  130.1745  152.2443 H   0  0  0  0  0  0  0  0  0  0  0  0
  145.7732  129.9438  151.1146 H   0  0  0  0  0  0  0  0  0  0  0  0
  145.0421  131.1388  152.1613 H   0  0  0  0  0  0  0  0  0  0  0  0
  145.8572  132.6824  148.8165 H   0  0  0  0  0  0  0  0  0  0  0  0
  145.0629  131.1761  149.1987 H   0  0  0  0  0  0  0  0  0  0  0  0
  143.4781  133.1296  149.2853 H   0  0  0  0  0  0  0  0  0  0  0  0
  143.5733  132.3273  150.8290 H   0  0  0  0  0  0  0  0  0  0  0  0
  145.0026  134.9077  150.0294 H   0  0  0  0  0  0  0  0  0  0  0  0
  143.7025  134.7590  151.1895 H   0  0  0  0  0  0  0  0  0  0  0  0
  145.9464  134.9335  152.2980 H   0  0  0  0  0  0  0  0  0  0  0  0
  145.1313  133.4499  152.7142 H   0  0  0  0  0  0  0  0  0  0  0  0
  147.2731  133.7885  150.5667 H   0  0  0  0  0  0  0  0  0  0  0  0
  148.8020  132.5999  151.9239 H   0  0  0  0  0  0  0  0  0  0  0  0
  148.1066  133.8414  152.9410 H   0  0  0  0  0  0  0  0  0  0  0  0
  149.0945  133.4742  157.1187 H   0  0  0  0  0  0  0  0  0  0  0  0
  151.0753  128.1971  154.0020 H   0  0  0  0  0  0  0  0  0  0  0  0
  151.6594  129.2569  157.3986 H   0  0  0  0  0  0  0  0  0  0  0  0
  152.3682  128.3222  156.1245 H   0  0  0  0  0  0  0  0  0  0  0  0
  153.7824  132.3792  156.6666 H   0  0  0  0  0  0  0  0  0  0  0  0
  152.1728  132.0664  156.0498 H   0  0  0  0  0  0  0  0  0  0  0  0
  152.2482  130.9709  158.4004 H   0  0  0  0  0  0  0  0  0  0  0  0
  155.2172  130.5009  157.4955 H   0  0  0  0  0  0  0  0  0  0  0  0
  154.0009  129.6633  158.4057 H   0  0  0  0  0  0  0  0  0  0  0  0
  155.8738  128.1721  157.6753 H   0  0  0  0  0  0  0  0  0  0  0  0
  154.3733  127.6079  156.9817 H   0  0  0  0  0  0  0  0  0  0  0  0
  155.1896  128.9195  153.7143 H   0  0  0  0  0  0  0  0  0  0  0  0
  153.9637  128.0491  154.6018 H   0  0  0  0  0  0  0  0  0  0  0  0
  153.2510  130.4286  154.2177 H   0  0  0  0  0  0  0  0  0  0  0  0
  154.7567  130.9856  154.8883 H   0  0  0  0  0  0  0  0  0  0  0  0
  147.1948  131.5419  150.2441 H   0  0  0  0  0  0  0  0  0  0  0  0
  1  2  1  0  0  0  0
  1 31  1  0  0  0  0
  1 32  1  0  0  0  0
  1 33  1  0  0  0  0
  2  3  1  0  0  0  0
  2 34  1  0  0  0  0
  2 35  1  0  0  0  0
  3 12  1  0  0  0  0
  3  4  1  0  0  0  0
  3 36  1  0  0  0  0
  4  5  1  0  0  0  0
  4 37  1  0  0  0  0
  4 38  1  0  0  0  0
  5 10  1  0  0  0  0
  5  6  1  0  0  0  0
  5 65  1  0  0  0  0
  6  7  1  0  0  0  0
  6 39  1  0  0  0  0
  6 40  1  0  0  0  0
  7  8  1  0  0  0  0
  7 41  1  0  0  0  0
  7 42  1  0  0  0  0
  8  9  1  0  0  0  0
  8 43  1  0  0  0  0
  8 44  1  0  0  0  0
  9 10  1  0  0  0  0
  9 45  1  0  0  0  0
  9 46  1  0  0  0  0
 10 11  1  0  0  0  0
 10 47  1  0  0  0  0
 11 12  1  0  0  0  0
 11 48  1  0  0  0  0
 11 49  1  0  0  0  0
 12 13  1  0  0  0  0
 13 18  1  0  0  0  0
 13 14  2  0  0  0  0
 14 15  1  0  0  0  0
 15 16  2  0  0  0  0
 15 50  1  0  0  0  0
 16 17  1  0  0  0  0
 17 21  1  0  0  0  0
 17 18  2  0  0  0  0
 18 19  1  0  0  0  0
 19 20  2  0  0  0  0
 20 21  1  0  0  0  0
 20 51  1  0  0  0  0
 21 22  1  0  0  0  0
 22 23  1  0  0  0  0
 22 52  1  0  0  0  0
 22 53  1  0  0  0  0
 23 30  1  0  0  0  0
 23 24  1  0  0  0  0
 23 26  1  0  0  0  0
 24 25  1  0  0  0  0
 24 54  1  0  0  0  0
 24 55  1  0  0  0  0
 25 56  1  0  0  0  0
 26 27  1  0  0  0  0
 26 57  1  0  0  0  0
 26 58  1  0  0  0  0
 27 28  1  0  0  0  0
 27 59  1  0  0  0  0
 27 60  1  0  0  0  0
 28 29  1  0  0  0  0
 29 30  1  0  0  0  0
 29 61  1  0  0  0  0
 29 62  1  0  0  0  0
 30 63  1  0  0  0  0
 30 64  1  0  0  0  0
M  CHG  1   5   1
M  END
> <s_m_source_file>
AV-unprocessed.smi

> <i_m_source_file_index>
282

> <i_lp_mmshare_version>
43012

> <i_f3d_flags>
0

> <s_epik_input>
W0NIMl0xW0NIMl1bQ0gyXVtDSDJdW0NAQEhdKE4xMilbQ0gyXU4oW0NAQEhdKFtDSDJdMilbQ0gyXVtDSDNdKWMobltjSF1uMyljKGMzNCluW2NIXW40W0NIMl1DNShbQ0gyXVtPSF0pW0NIMl1bQ0gyXU9bQ0gyXVtDSDJdNQ==

> <s_epik_cmdline>
J2VwaWtfcHl0aG9uJywgJy1waCcsICc3LjAnLCAnLXRuJywgJzgnLCAnLW1hJywgJzIwMCcsICctbWV0YWxfYmluZGluZycsICctaW1hZScsICc8aW5maWxlLm1hZT4nLCAnLW9tYWUnLCAnPG91dGZpbGUubWFlPic=

> <r_lp_tautomer_probability>
1

> <r_epik_Ionization_Penalty>
0.00308583

> <r_epik_Ionization_Penalty_Charging>
0.00300384

> <r_epik_Ionization_Penalty_Neutral>
8.19894e-05

> <r_epik_State_Penalty>
-0

> <r_epik_Charging_Adjusted_Penalty>
0.00300384

> <i_epik_Tot_Q>
1

> <i_epik_Tot_abs_Q>
1

> <r_epik_Metal_State_Penalty>
-0

> <b_epik_Metal_Only>
0

> <s_lp_Force_Field>
OPLS_2005

> <r_lp_Energy>
60.0912

> <b_lp_Chiralities_Consistent>
1

> <s_lp_Variant>
AV-unprocessed.smi:282-6

> <Gold.Version>
5.8.1

> <Gold.Id.Protein>
6NUR|6NUR_protein|mol2

> <Gold.PLP.Fitness>
49.7451

> <Gold.PLP.PLP>
-41.7594

> <Gold.PLP.part.hbond>
-2.0000

> <Gold.PLP.part.metal>
0.0000

> <Gold.PLP.part.buried>
-3.8428

> <Gold.PLP.part.nonpolar>
-36.1283

> <Gold.PLP.part.repulsive>
0.2686

> <Gold.PLP.ligand.clash>
0.0000

> <Gold.PLP.ligand.torsion>
0.6957

> <Gold.PLP.Chemscore.Hbond>
2.0000

> <Gold.PLP.Chemscore.CHOScore>
1.0000

> <Gold.PLP.Chemscore.Metal>
0.0000

> <Gold.Chemscore.Hbonds>
donor molecule, donor type, donor heavy atom, donor atom, acceptor molecule, acceptor atom, score
      L1  H     5    65       P1 10747  1.00
      P1  H  6896  6908       L1    25  1.00
      L1  C    20    51       P1 10737  0.96

> <Gold.PLP.Chemscore.Internal.Correction>
0.3771

> <Gold.Rescore>
     Score         DG    S(hbond)    S(metal)    S(lipo)     H(rot)  DE(clash)    DE(int)     intcor
     14.29     -17.91       1.98        0.00     103.42       2.46       0.33       3.30       ----

> <Gold.Chemscore.Fitness>
14.2893

> <Gold.Chemscore.DG>
-17.9145

> <Gold.Chemscore.ZeroCoef>
-5.4800

> <Gold.Chemscore.Hbond>
1.9840

> <Gold.Chemscore.Metal>
0.0000

> <Gold.Chemscore.Lipo>
103.4154

> <Gold.Chemscore.Internal_Hbond>
0.0000

> <Gold.Chemscore.DEClash>
0.3285

> <Gold.Chemscore.DEInternal>
3.2967

> <Gold.Chemscore.Rot>
2.4576

> <Gold.Chemscore.Internal.Correction>
   9.000000E+99

> <Gold.Chemscore.Hbonds>
donor molecule, donor type, donor heavy atom, donor atom, acceptor molecule, acceptor atom, score
      L1  H     5    65       P1 10747  0.97
      P1  H  6896  6908       L1    25  0.78

> <Gold.Chemscore.Hbond.Weighted>
-6.6265

> <Gold.Chemscore.Metal.Weighted>
-0.0000

> <Gold.Chemscore.Lipo.Weighted>
-12.0996

> <Gold.Chemscore.Internal_Hbond.Weighted>
0.0000

> <Gold.Chemscore.DEClash.Weighted>
0.3285

> <Gold.Chemscore.DEInternal.Weighted>
3.2967

> <Gold.Chemscore.Rot.Weighted>
6.2915

> <Gold.Chemscore.Internal.Correction.Weighted>
   9.000000E+99

> <Gold.Protein.RotatedTorsions>
[ 6907 6896 6895 6894 ] final   56.67 input  -60.11 | X-H torsion
[ 7974 7965 7964 7962 ] final  147.11 input  175.53 | X-H torsion
[ 8008 7997 7996 7995 ] final -148.43 input   59.86 | X-H torsion
[ 10167 10162 10161 10158 ] final -177.84 input  -65.29 | X-H torsion
[ 10718 10713 10712 10709 ] final  136.90 input   66.30 | X-H torsion
[ 10763 10752 10751 10750 ] final  -53.30 input  -60.55 | X-H torsion
[ 11005 11000 10999 10996 ] final   21.78 input  -57.11 | X-H torsion

> <Gold.Protein.ActiveResidues>
 VAL166  LYS551  ARG553  GLY616  TRP617  ASP618  TYR619  PRO620  LYS621  CYS622 
 ASP623  PHE694  ASN695  SER759  ASP760  ASP761  ALA762  ILE779  LEU786  VAL792 
 PHE793  MET794  SER795  GLU796  ALA797  LYS798  CYS799  TRP800  GLU811  SER814 

> <Gold.Protein.RotatedAtoms>
  152.3659  134.6805  160.0191 H   0  0  0  0  0  0  0  0  0  0  0  0  # atno 6907 bound_to 6896
  151.7114  133.3307  159.3299 H   0  0  0  0  0  0  0  0  0  0  0  0  # atno 6908 bound_to 6896
  150.7638  134.6464  159.6309 H   0  0  0  0  0  0  0  0  0  0  0  0  # atno 6909 bound_to 6896
  144.8617  139.5988  143.5927 H   0  0  0  0  0  0  0  0  0  0  0  0  # atno 7974 bound_to 7965
  155.5915  140.0653  157.2757 H   0  0  0  0  0  0  0  0  0  0  0  0  # atno 8008 bound_to 7997
  154.4304  140.1834  156.1126 H   0  0  0  0  0  0  0  0  0  0  0  0  # atno 8009 bound_to 7997
  156.0229  140.3315  155.7061 H   0  0  0  0  0  0  0  0  0  0  0  0  # atno 8010 bound_to 7997
  139.5461  144.2232  152.0990 H   0  0  0  0  0  0  0  0  0  0  0  0  # atno 10167 bound_to 10162
  157.4418  131.1058  151.0134 H   0  0  0  0  0  0  0  0  0  0  0  0  # atno 10718 bound_to 10713
  154.1565  135.6481  153.4976 H   0  0  0  0  0  0  0  0  0  0  0  0  # atno 10763 bound_to 10752
  153.0122  135.5350  154.6754 H   0  0  0  0  0  0  0  0  0  0  0  0  # atno 10764 bound_to 10752
  154.6056  135.2948  155.0459 H   0  0  0  0  0  0  0  0  0  0  0  0  # atno 10765 bound_to 10752
  140.3878  134.1852  155.7663 H   0  0  0  0  0  0  0  0  0  0  0  0  # atno 11005 bound_to 11000
  146.2866  139.7020  142.9191 LP  0  0  0  0  0  0  0  0  0  0  0  0  # atno 17320 bound_to 7965
  145.4299  141.0414  143.2917 LP  0  0  0  0  0  0  0  0  0  0  0  0  # atno 17321 bound_to 7965
  140.1719  144.4927  150.6575 LP  0  0  0  0  0  0  0  0  0  0  0  0  # atno 17342 bound_to 10162
  140.6709  143.2285  151.5627 LP  0  0  0  0  0  0  0  0  0  0  0  0  # atno 17343 bound_to 10162
  157.0995  130.5976  149.5457 LP  0  0  0  0  0  0  0  0  0  0  0  0  # atno 17370 bound_to 10713
  155.9952  130.5018  150.7448 LP  0  0  0  0  0  0  0  0  0  0  0  0  # atno 17371 bound_to 10713
  141.1901  133.8223  157.0930 LP  0  0  0  0  0  0  0  0  0  0  0  0  # atno 17394 bound_to 11000
  140.0430  134.9845  157.0996 LP  0  0  0  0  0  0  0  0  0  0  0  0  # atno 17395 bound_to 11000

$$$$
