AV-unprocessed.smi:1884|AV-procd|sdf|7648|dock4
  -GOLD-   22720 9373D 1   1.00000     0.00000
 Structure written by MMmdl.
 41 43  0  0  0  0  0  0  0  0  2 V2000
  149.4815  140.7793  154.3708 C   0  0  0  0  0  0  0  0  0  0  0  0
  150.2268  141.2912  155.5574 C   0  0  0  0  0  0  0  0  0  0  0  0
  150.1768  142.5607  156.0500 N   0  3  0  0  0  0  0  0  0  0  0  0
  151.0060  142.6664  157.1676 C   0  0  0  0  0  0  0  0  0  0  0  0
  151.2798  143.7483  157.9988 C   0  0  0  0  0  0  0  0  0  0  0  0
  152.1768  143.5181  159.0624 C   0  0  0  0  0  0  0  0  0  0  0  0
  152.7627  142.2521  159.2676 C   0  0  0  0  0  0  0  0  0  0  0  0
  152.4782  141.1628  158.4178 C   0  0  0  0  0  0  0  0  0  0  0  0
  151.5912  141.3988  157.3671 C   0  0  0  0  0  0  0  0  0  0  0  0
  151.0822  140.5830  156.3486 N   0  0  0  0  0  0  0  0  0  0  0  0
  151.5003  139.1749  156.2584 C   0  0  0  0  0  0  0  0  0  0  0  0
  150.3214  138.2170  155.9954 C   0  0  2  0  0  0  0  0  0  0  0  0
  149.7052  137.8617  157.2165 O   0  0  0  0  0  0  0  0  0  0  0  0
  150.7572  136.9318  155.2771 C   0  0  0  0  0  0  0  0  0  0  0  0
  149.6054  136.1441  155.0057 O   0  0  0  0  0  0  0  0  0  0  0  0
  149.7431  134.7730  154.9810 C   0  0  0  0  0  0  0  0  0  0  0  0
  148.8744  134.0581  154.1311 C   0  0  0  0  0  0  0  0  0  0  0  0
  148.9443  132.6543  154.0422 C   0  0  0  0  0  0  0  0  0  0  0  0
  149.8909  131.9461  154.8083 C   0  0  0  0  0  0  0  0  0  0  0  0
  149.9673  130.4976  154.7183 C   0  0  0  0  0  0  0  0  0  0  0  0
  150.0283  129.3444  154.6468 N   0  0  0  0  0  0  0  0  0  0  0  0
  150.7640  132.6485  155.6618 C   0  0  0  0  0  0  0  0  0  0  0  0
  150.6925  134.0527  155.7492 C   0  0  0  0  0  0  0  0  0  0  0  0
  148.8522  141.5619  153.9460 H   0  0  0  0  0  0  0  0  0  0  0  0
  148.8462  139.9413  154.6573 H   0  0  0  0  0  0  0  0  0  0  0  0
  150.1798  140.4419  153.6048 H   0  0  0  0  0  0  0  0  0  0  0  0
  150.8310  144.7187  157.8444 H   0  0  0  0  0  0  0  0  0  0  0  0
  152.4196  144.3281  159.7351 H   0  0  0  0  0  0  0  0  0  0  0  0
  153.4438  142.1129  160.0947 H   0  0  0  0  0  0  0  0  0  0  0  0
  152.9296  140.1968  158.5888 H   0  0  0  0  0  0  0  0  0  0  0  0
  152.2233  139.1079  155.4448 H   0  0  0  0  0  0  0  0  0  0  0  0
  152.0416  138.8984  157.1633 H   0  0  0  0  0  0  0  0  0  0  0  0
  149.5692  138.7209  155.3875 H   0  0  0  0  0  0  0  0  0  0  0  0
  150.3686  137.8359  157.8889 H   0  0  0  0  0  0  0  0  0  0  0  0
  151.2857  137.1775  154.3541 H   0  0  0  0  0  0  0  0  0  0  0  0
  151.4375  136.3677  155.9180 H   0  0  0  0  0  0  0  0  0  0  0  0
  148.1455  134.5922  153.5391 H   0  0  0  0  0  0  0  0  0  0  0  0
  148.2684  132.1279  153.3835 H   0  0  0  0  0  0  0  0  0  0  0  0
  151.4936  132.1157  156.2547 H   0  0  0  0  0  0  0  0  0  0  0  0
  151.3785  134.5537  156.4151 H   0  0  0  0  0  0  0  0  0  0  0  0
  149.6150  143.3001  155.6479 H   0  0  0  0  0  0  0  0  0  0  0  0
  1  2  1  0  0  0  0
  1 24  1  0  0  0  0
  1 25  1  0  0  0  0
  1 26  1  0  0  0  0
  2 10  1  0  0  0  0
  2  3  2  0  0  0  0
  3  4  1  0  0  0  0
  3 41  1  0  0  0  0
  4  9  2  0  0  0  0
  4  5  1  0  0  0  0
  5  6  2  0  0  0  0
  5 27  1  0  0  0  0
  6  7  1  0  0  0  0
  6 28  1  0  0  0  0
  7  8  2  0  0  0  0
  7 29  1  0  0  0  0
  8  9  1  0  0  0  0
  8 30  1  0  0  0  0
  9 10  1  0  0  0  0
 10 11  1  0  0  0  0
 11 12  1  0  0  0  0
 11 31  1  0  0  0  0
 11 32  1  0  0  0  0
 12 13  1  0  0  0  0
 12 14  1  0  0  0  0
 12 33  1  0  0  0  0
 13 34  1  0  0  0  0
 14 15  1  0  0  0  0
 14 35  1  0  0  0  0
 14 36  1  0  0  0  0
 15 16  1  0  0  0  0
 16 23  1  0  0  0  0
 16 17  2  0  0  0  0
 17 18  1  0  0  0  0
 17 37  1  0  0  0  0
 18 19  2  0  0  0  0
 18 38  1  0  0  0  0
 19 20  1  0  0  0  0
 19 22  1  0  0  0  0
 20 21  3  0  0  0  0
 22 23  2  0  0  0  0
 22 39  1  0  0  0  0
 23 40  1  0  0  0  0
M  CHG  1   3   1
M  END
> <s_m_source_file>
AV-unprocessed.smi

> <i_m_source_file_index>
1884

> <i_lp_mmshare_version>
43012

> <i_f3d_flags>
0

> <s_epik_input>
W2NIXTFbY0hdW2NIXVtjSF1jKGMxMiluKGMobjIpW0NIM10pW0NIMl1bQ0BIXShbT0hdKVtDSDJdT2MzW2NIXVtjSF1jKEMjTilbY0hdW2NIXTM=

> <s_epik_cmdline>
J2VwaWtfcHl0aG9uJywgJy1waCcsICc3LjAnLCAnLXRuJywgJzgnLCAnLW1hJywgJzIwMCcsICctbWV0YWxfYmluZGluZycsICctaW1hZScsICc8aW5maWxlLm1hZT4nLCAnLW9tYWUnLCAnPG91dGZpbGUubWFlPic=

> <r_epik_Ionization_Penalty>
1.04791

> <r_epik_Ionization_Penalty_Charging>
1.04791

> <r_epik_Ionization_Penalty_Neutral>
2.3993e-06

> <r_epik_State_Penalty>
1.10051

> <r_epik_Charging_Adjusted_Penalty>
2.14841

> <i_epik_Tot_Q>
1

> <i_epik_Tot_abs_Q>
1

> <r_epik_Metal_State_Penalty>
5.09283

> <b_epik_Metal_Only>
0

> <s_lp_Force_Field>
OPLS_2005

> <r_lp_Energy>
18.2912

> <b_lp_Chiralities_Consistent>
1

> <s_lp_Variant>
AV-unprocessed.smi:1884-3

> <Gold.Version>
5.8.1

> <Gold.Id.Protein>
6NUR|6NUR_protein|mol2

> <Gold.PLP.Fitness>
48.3695

> <Gold.PLP.PLP>
-44.4349

> <Gold.PLP.part.hbond>
-1.0000

> <Gold.PLP.part.metal>
0.0000

> <Gold.PLP.part.buried>
-3.5588

> <Gold.PLP.part.nonpolar>
-39.5793

> <Gold.PLP.part.repulsive>
0.3606

> <Gold.PLP.ligand.clash>
0.0000

> <Gold.PLP.ligand.torsion>
1.0651

> <Gold.PLP.Chemscore.Hbond>
2.0000

> <Gold.PLP.Chemscore.CHOScore>
0.0000

> <Gold.PLP.Chemscore.Metal>
0.0000

> <Gold.Chemscore.Hbonds>
donor molecule, donor type, donor heavy atom, donor atom, acceptor molecule, acceptor atom, score
      L1  H     3    41       P1  8028  2.00

> <Gold.PLP.Chemscore.Internal.Correction>
0.0648

> <Gold.Rescore>
     Score         DG    S(hbond)    S(metal)    S(lipo)     H(rot)  DE(clash)    DE(int)     intcor
     14.74     -15.80       0.99        0.00     112.34       2.39       0.04       1.02       ----

> <Gold.Chemscore.Fitness>
14.7353

> <Gold.Chemscore.DG>
-15.7952

> <Gold.Chemscore.ZeroCoef>
-5.4800

> <Gold.Chemscore.Hbond>
0.9863

> <Gold.Chemscore.Metal>
0.0000

> <Gold.Chemscore.Lipo>
112.3396

> <Gold.Chemscore.Internal_Hbond>
0.0000

> <Gold.Chemscore.DEClash>
0.0366

> <Gold.Chemscore.DEInternal>
1.0233

> <Gold.Chemscore.Rot>
2.3917

> <Gold.Chemscore.Internal.Correction>
   9.000000E+99

> <Gold.Chemscore.Hbonds>
donor molecule, donor type, donor heavy atom, donor atom, acceptor molecule, acceptor atom, score
      L1  H     3    41       P1  8028  0.96

> <Gold.Chemscore.Hbond.Weighted>
-3.2944

> <Gold.Chemscore.Metal.Weighted>
-0.0000

> <Gold.Chemscore.Lipo.Weighted>
-13.1437

> <Gold.Chemscore.Internal_Hbond.Weighted>
0.0000

> <Gold.Chemscore.DEClash.Weighted>
0.0366

> <Gold.Chemscore.DEInternal.Weighted>
1.0233

> <Gold.Chemscore.Rot.Weighted>
6.1229

> <Gold.Chemscore.Internal.Correction.Weighted>
   9.000000E+99

> <Gold.Protein.RotatedTorsions>
[ 6907 6896 6895 6894 ] final   52.94 input  -60.11 | X-H torsion
[ 7974 7965 7964 7962 ] final  144.49 input  175.53 | X-H torsion
[ 8008 7997 7996 7995 ] final   62.10 input   59.86 | X-H torsion
[ 10167 10162 10161 10158 ] final  175.23 input  -65.29 | X-H torsion
[ 10718 10713 10712 10709 ] final  161.04 input   66.30 | X-H torsion
[ 10763 10752 10751 10750 ] final -143.99 input  -60.55 | X-H torsion
[ 11005 11000 10999 10996 ] final  107.24 input  -57.11 | X-H torsion

> <Gold.Protein.ActiveResidues>
 VAL166  LYS551  ARG553  GLY616  TRP617  ASP618  TYR619  PRO620  LYS621  CYS622 
 ASP623  PHE694  ASN695  SER759  ASP760  ASP761  ALA762  ILE779  LEU786  VAL792 
 PHE793  MET794  SER795  GLU796  ALA797  LYS798  CYS799  TRP800  GLU811  SER814 

> <Gold.Protein.RotatedAtoms>
  152.3285  134.7289  160.0295 H   0  0  0  0  0  0  0  0  0  0  0  0  # atno 6907 bound_to 6896
  151.7714  133.3336  159.3453 H   0  0  0  0  0  0  0  0  0  0  0  0  # atno 6908 bound_to 6896
  150.7409  134.5947  159.6050 H   0  0  0  0  0  0  0  0  0  0  0  0  # atno 6909 bound_to 6896
  144.8832  139.5668  143.5833 H   0  0  0  0  0  0  0  0  0  0  0  0  # atno 7974 bound_to 7965
  155.6089  140.3495  155.4616 H   0  0  0  0  0  0  0  0  0  0  0  0  # atno 8008 bound_to 7997
  156.0170  140.1245  157.0420 H   0  0  0  0  0  0  0  0  0  0  0  0  # atno 8009 bound_to 7997
  154.4301  140.1070  156.5896 H   0  0  0  0  0  0  0  0  0  0  0  0  # atno 8010 bound_to 7997
  139.5170  144.3056  152.0339 H   0  0  0  0  0  0  0  0  0  0  0  0  # atno 10167 bound_to 10162
  157.1421  131.0543  151.2321 H   0  0  0  0  0  0  0  0  0  0  0  0  # atno 10718 bound_to 10713
  154.8447  135.3452  154.6275 H   0  0  0  0  0  0  0  0  0  0  0  0  # atno 10763 bound_to 10752
  153.6884  135.6976  153.5102 H   0  0  0  0  0  0  0  0  0  0  0  0  # atno 10764 bound_to 10752
  153.2614  135.4322  155.0853 H   0  0  0  0  0  0  0  0  0  0  0  0  # atno 10765 bound_to 10752
  139.8825  134.9394  156.5789 H   0  0  0  0  0  0  0  0  0  0  0  0  # atno 11005 bound_to 11000
  146.3008  139.7419  142.9093 LP  0  0  0  0  0  0  0  0  0  0  0  0  # atno 17320 bound_to 7965
  145.3917  141.0373  143.3120 LP  0  0  0  0  0  0  0  0  0  0  0  0  # atno 17321 bound_to 7965
  140.2502  144.4177  150.6225 LP  0  0  0  0  0  0  0  0  0  0  0  0  # atno 17342 bound_to 10162
  140.6230  143.2178  151.6655 LP  0  0  0  0  0  0  0  0  0  0  0  0  # atno 17343 bound_to 10162
  157.4297  130.7484  149.6980 LP  0  0  0  0  0  0  0  0  0  0  0  0  # atno 17370 bound_to 10713
  155.9786  130.4049  150.3635 LP  0  0  0  0  0  0  0  0  0  0  0  0  # atno 17371 bound_to 10713
  140.8042  133.8481  155.8753 LP  0  0  0  0  0  0  0  0  0  0  0  0  # atno 17394 bound_to 11000
  140.9565  134.1711  157.4687 LP  0  0  0  0  0  0  0  0  0  0  0  0  # atno 17395 bound_to 11000

$$$$
