AV-unprocessed.smi:1611|AV-procd|sdf|6474|dock7
  -GOLD-   22720 7133D 1   1.00000     0.00000
 Structure written by MMmdl.
 48 49  0  0  0  0  0  0  0  0  1 V2000
  148.0900  128.7341  151.8293 C   0  0  0  0  0  0  0  0  0  0  0  0
  147.4792  130.1003  152.0900 C   0  0  0  0  0  0  0  0  0  0  0  0
  146.4260  130.5455  151.2657 C   0  0  0  0  0  0  0  0  0  0  0  0
  145.8334  131.8015  151.4833 C   0  0  0  0  0  0  0  0  0  0  0  0
  146.2939  132.6306  152.5242 C   0  0  0  0  0  0  0  0  0  0  0  0
  145.6401  133.9812  152.7517 C   0  0  0  0  0  0  0  0  0  0  0  0
  147.3615  132.2008  153.3457 C   0  0  0  0  0  0  0  0  0  0  0  0
  147.8065  133.0200  154.3512 O   0  0  0  0  0  0  0  0  0  0  0  0
  149.1520  133.4438  154.1853 C   0  0  0  0  0  0  0  0  0  0  0  0
  149.3266  134.8175  154.8530 C   0  0  2  0  0  0  0  0  0  0  0  0
  148.3728  135.6872  154.2753 O   0  0  0  0  0  0  0  0  0  0  0  0
  150.7279  135.4115  154.5895 C   0  0  0  0  0  0  0  0  0  0  0  0
  150.8481  136.7851  155.0944 N   0  0  0  0  0  0  0  0  0  0  0  0
  149.9800  137.6785  154.4988 N   0  0  0  0  0  0  0  0  0  0  0  0
  149.9593  138.9255  154.8382 C   0  0  0  0  0  0  0  0  0  0  0  0
  148.9721  139.8059  154.1202 C   0  0  0  0  0  0  0  0  0  0  0  0
  150.8687  139.4086  155.8724 C   0  0  0  0  0  0  0  0  0  0  0  0
  150.7990  140.8868  156.2311 C   0  0  0  0  0  0  0  0  0  0  0  0
  151.7192  138.5218  156.4476 C   0  0  0  0  0  0  0  0  0  0  0  0
  152.6476  138.9031  157.4624 C   0  0  0  0  0  0  0  0  0  0  0  0
  153.4022  139.2313  158.2767 N   0  0  0  0  0  0  0  0  0  0  0  0
  151.7464  137.1072  156.0688 C   0  0  0  0  0  0  0  0  0  0  0  0
  152.4999  136.2752  156.5765 O   0  0  0  0  0  0  0  0  0  0  0  0
  147.9470  130.9256  153.1432 C   0  0  0  0  0  0  0  0  0  0  0  0
  149.0729  130.4465  154.0498 C   0  0  0  0  0  0  0  0  0  0  0  0
  147.7139  128.3015  150.9018 H   0  0  0  0  0  0  0  0  0  0  0  0
  147.8467  128.0491  152.6419 H   0  0  0  0  0  0  0  0  0  0  0  0
  149.1747  128.8047  151.7466 H   0  0  0  0  0  0  0  0  0  0  0  0
  146.0625  129.9214  150.4622 H   0  0  0  0  0  0  0  0  0  0  0  0
  145.0230  132.1255  150.8470 H   0  0  0  0  0  0  0  0  0  0  0  0
  145.4858  134.1621  153.8158 H   0  0  0  0  0  0  0  0  0  0  0  0
  144.6688  134.0373  152.2597 H   0  0  0  0  0  0  0  0  0  0  0  0
  146.2699  134.7774  152.3547 H   0  0  0  0  0  0  0  0  0  0  0  0
  149.7969  132.7108  154.6720 H   0  0  0  0  0  0  0  0  0  0  0  0
  149.4456  133.4741  153.1342 H   0  0  0  0  0  0  0  0  0  0  0  0
  149.1459  134.7245  155.9246 H   0  0  0  0  0  0  0  0  0  0  0  0
  148.7812  136.1423  153.5551 H   0  0  0  0  0  0  0  0  0  0  0  0
  151.4893  134.7985  155.0751 H   0  0  0  0  0  0  0  0  0  0  0  0
  150.9703  135.3624  153.5258 H   0  0  0  0  0  0  0  0  0  0  0  0
  149.4789  140.6381  153.6314 H   0  0  0  0  0  0  0  0  0  0  0  0
  148.2422  140.2168  154.8179 H   0  0  0  0  0  0  0  0  0  0  0  0
  148.4226  139.2591  153.3523 H   0  0  0  0  0  0  0  0  0  0  0  0
  151.4721  141.1458  157.0481 H   0  0  0  0  0  0  0  0  0  0  0  0
  149.7903  141.1601  156.5425 H   0  0  0  0  0  0  0  0  0  0  0  0
  151.0724  141.5010  155.3725 H   0  0  0  0  0  0  0  0  0  0  0  0
  149.1553  131.0434  154.9578 H   0  0  0  0  0  0  0  0  0  0  0  0
  150.0257  130.5000  153.5229 H   0  0  0  0  0  0  0  0  0  0  0  0
  148.9097  129.4153  154.3621 H   0  0  0  0  0  0  0  0  0  0  0  0
  1  2  1  0  0  0  0
  1 26  1  0  0  0  0
  1 27  1  0  0  0  0
  1 28  1  0  0  0  0
  2 24  1  0  0  0  0
  2  3  2  0  0  0  0
  3  4  1  0  0  0  0
  3 29  1  0  0  0  0
  4  5  2  0  0  0  0
  4 30  1  0  0  0  0
  5  6  1  0  0  0  0
  5  7  1  0  0  0  0
  6 31  1  0  0  0  0
  6 32  1  0  0  0  0
  6 33  1  0  0  0  0
  7  8  1  0  0  0  0
  7 24  2  0  0  0  0
  8  9  1  0  0  0  0
  9 10  1  0  0  0  0
  9 34  1  0  0  0  0
  9 35  1  0  0  0  0
 10 11  1  0  0  0  0
 10 12  1  0  0  0  0
 10 36  1  0  0  0  0
 11 37  1  0  0  0  0
 12 13  1  0  0  0  0
 12 38  1  0  0  0  0
 12 39  1  0  0  0  0
 13 22  1  0  0  0  0
 13 14  1  0  0  0  0
 14 15  2  0  0  0  0
 15 16  1  0  0  0  0
 15 17  1  0  0  0  0
 16 40  1  0  0  0  0
 16 41  1  0  0  0  0
 16 42  1  0  0  0  0
 17 18  1  0  0  0  0
 17 19  2  0  0  0  0
 18 43  1  0  0  0  0
 18 44  1  0  0  0  0
 18 45  1  0  0  0  0
 19 20  1  0  0  0  0
 19 22  1  0  0  0  0
 20 21  3  0  0  0  0
 22 23  2  0  0  0  0
 24 25  1  0  0  0  0
 25 46  1  0  0  0  0
 25 47  1  0  0  0  0
 25 48  1  0  0  0  0
M  END
> <s_m_source_file>
AV-unprocessed.smi

> <i_m_source_file_index>
1611

> <i_lp_mmshare_version>
43012

> <i_f3d_flags>
0

> <s_epik_input>
W0NIM11jMVtjSF1bY0hdYyhbQ0gzXSljKGMxW0NIM10pT1tDSDJdW0NASF0oW09IXSlbQ0gyXW4ybmMoW0NIM10pYyhbQ0gzXSljKEMjTiljMj1P

> <s_epik_cmdline>
J2VwaWtfcHl0aG9uJywgJy1waCcsICc3LjAnLCAnLXRuJywgJzgnLCAnLW1hJywgJzIwMCcsICctbWV0YWxfYmluZGluZycsICctaW1hZScsICc8aW5maWxlLm1hZT4nLCAnLW9tYWUnLCAnPG91dGZpbGUubWFlPic=

> <r_lp_tautomer_probability>
1

> <r_epik_Ionization_Penalty>
1.17331e-07

> <r_epik_Ionization_Penalty_Charging>
1.57223e-10

> <r_epik_Ionization_Penalty_Neutral>
1.17174e-07

> <r_epik_State_Penalty>
-0

> <r_epik_Charging_Adjusted_Penalty>
1.57223e-10

> <i_epik_Tot_Q>
0

> <i_epik_Tot_abs_Q>
0

> <r_epik_Metal_State_Penalty>
-0

> <b_epik_Metal_Only>
0

> <s_lp_Force_Field>
OPLS_2005

> <r_lp_Energy>
36.6232

> <b_lp_Chiralities_Consistent>
1

> <s_lp_Variant>
AV-unprocessed.smi:1611-1

> <Gold.Version>
5.8.1

> <Gold.Id.Protein>
6NUR|6NUR_protein|mol2

> <Gold.PLP.Fitness>
43.1589

> <Gold.PLP.PLP>
-34.4966

> <Gold.PLP.part.hbond>
-3.0000

> <Gold.PLP.part.metal>
0.0000

> <Gold.PLP.part.buried>
-1.3370

> <Gold.PLP.part.nonpolar>
-31.3603

> <Gold.PLP.part.repulsive>
0.7155

> <Gold.PLP.ligand.clash>
0.0000

> <Gold.PLP.ligand.torsion>
0.2213

> <Gold.PLP.Chemscore.Hbond>
3.0000

> <Gold.PLP.Chemscore.CHOScore>
0.0000

> <Gold.PLP.Chemscore.Metal>
0.0000

> <Gold.Chemscore.Hbonds>
donor molecule, donor type, donor heavy atom, donor atom, acceptor molecule, acceptor atom, score
      L1  H    11    37       P1  7948  0.91
      P1  H  7997  8010       L1    21  0.65
      P1  H 10752 10763       L1    23  0.95

> <Gold.PLP.Chemscore.Internal.Correction>
0.1049

> <Gold.Rescore>
     Score         DG    S(hbond)    S(metal)    S(lipo)     H(rot)  DE(clash)    DE(int)     intcor
     18.16     -20.37       2.89        0.00      94.43       2.27       0.21       2.00       ----

> <Gold.Chemscore.Fitness>
18.1590

> <Gold.Chemscore.DG>
-20.3696

> <Gold.Chemscore.ZeroCoef>
-5.4800

> <Gold.Chemscore.Hbond>
2.8903

> <Gold.Chemscore.Metal>
0.0000

> <Gold.Chemscore.Lipo>
94.4343

> <Gold.Chemscore.Internal_Hbond>
0.0000

> <Gold.Chemscore.DEClash>
0.2118

> <Gold.Chemscore.DEInternal>
1.9988

> <Gold.Chemscore.Rot>
2.2706

> <Gold.Chemscore.Internal.Correction>
   9.000000E+99

> <Gold.Chemscore.Hbonds>
donor molecule, donor type, donor heavy atom, donor atom, acceptor molecule, acceptor atom, score
      L1  H    11    37       P1  7948  0.89
      P1  H  7997  8010       L1    21  0.06
      P1  H 10752 10763       L1    23  0.21

> <Gold.Chemscore.Hbond.Weighted>
-9.6535

> <Gold.Chemscore.Metal.Weighted>
-0.0000

> <Gold.Chemscore.Lipo.Weighted>
-11.0488

> <Gold.Chemscore.Internal_Hbond.Weighted>
0.0000

> <Gold.Chemscore.DEClash.Weighted>
0.2118

> <Gold.Chemscore.DEInternal.Weighted>
1.9988

> <Gold.Chemscore.Rot.Weighted>
5.8127

> <Gold.Chemscore.Internal.Correction.Weighted>
   9.000000E+99

> <Gold.Protein.RotatedTorsions>
[ 6907 6896 6895 6894 ] final  113.23 input  -60.11 | X-H torsion
[ 7974 7965 7964 7962 ] final   63.59 input  175.53 | X-H torsion
[ 8008 7997 7996 7995 ] final   35.50 input   59.86 | X-H torsion
[ 10167 10162 10161 10158 ] final   36.66 input  -65.29 | X-H torsion
[ 10718 10713 10712 10709 ] final  -55.84 input   66.30 | X-H torsion
[ 10763 10752 10751 10750 ] final   87.19 input  -60.55 | X-H torsion
[ 11005 11000 10999 10996 ] final -171.73 input  -57.11 | X-H torsion

> <Gold.Protein.ActiveResidues>
 VAL166  LYS551  ARG553  GLY616  TRP617  ASP618  TYR619  PRO620  LYS621  CYS622 
 ASP623  PHE694  ASN695  SER759  ASP760  ASP761  ALA762  ILE779  LEU786  VAL792 
 PHE793  MET794  SER795  GLU796  ALA797  LYS798  CYS799  TRP800  GLU811  SER814 

> <Gold.Protein.RotatedAtoms>
  152.4872  133.8405  159.7149 H   0  0  0  0  0  0  0  0  0  0  0  0  # atno 6907 bound_to 6896
  150.8970  133.7159  159.2896 H   0  0  0  0  0  0  0  0  0  0  0  0  # atno 6908 bound_to 6896
  151.4613  135.1042  159.9778 H   0  0  0  0  0  0  0  0  0  0  0  0  # atno 6909 bound_to 6896
  145.8600  139.3309  143.0824 H   0  0  0  0  0  0  0  0  0  0  0  0  # atno 7974 bound_to 7965
  155.1722  140.3292  155.4390 H   0  0  0  0  0  0  0  0  0  0  0  0  # atno 8008 bound_to 7997
  156.2506  140.1941  156.6774 H   0  0  0  0  0  0  0  0  0  0  0  0  # atno 8009 bound_to 7997
  154.6330  140.0580  156.9741 H   0  0  0  0  0  0  0  0  0  0  0  0  # atno 8010 bound_to 7997
  140.4107  144.1597  150.6139 H   0  0  0  0  0  0  0  0  0  0  0  0  # atno 10167 bound_to 10162
  156.1336  130.4158  150.0225 H   0  0  0  0  0  0  0  0  0  0  0  0  # atno 10718 bound_to 10713
  153.1643  135.4553  154.9816 H   0  0  0  0  0  0  0  0  0  0  0  0  # atno 10763 bound_to 10752
  154.7921  135.3224  154.7756 H   0  0  0  0  0  0  0  0  0  0  0  0  # atno 10764 bound_to 10752
  153.8241  135.6944  153.4878 H   0  0  0  0  0  0  0  0  0  0  0  0  # atno 10765 bound_to 10752
  140.5049  134.5858  157.5000 H   0  0  0  0  0  0  0  0  0  0  0  0  # atno 11005 bound_to 11000
  145.9259  140.9083  143.0381 LP  0  0  0  0  0  0  0  0  0  0  0  0  # atno 17320 bound_to 7965
  144.6727  140.1352  143.7441 LP  0  0  0  0  0  0  0  0  0  0  0  0  # atno 17321 bound_to 7965
  140.4641  143.2437  151.9179 LP  0  0  0  0  0  0  0  0  0  0  0  0  # atno 17342 bound_to 10162
  139.4782  144.5437  151.8489 LP  0  0  0  0  0  0  0  0  0  0  0  0  # atno 17343 bound_to 10162
  156.8130  130.9331  151.3643 LP  0  0  0  0  0  0  0  0  0  0  0  0  # atno 17370 bound_to 10713
  157.6511  130.8885  149.9636 LP  0  0  0  0  0  0  0  0  0  0  0  0  # atno 17371 bound_to 10713
  139.9692  134.7321  156.0076 LP  0  0  0  0  0  0  0  0  0  0  0  0  # atno 17394 bound_to 11000
  141.1416  133.6563  156.3746 LP  0  0  0  0  0  0  0  0  0  0  0  0  # atno 17395 bound_to 11000

$$$$
