AV-unprocessed.smi:2611|AV-procd|sdf|10210|dock6
  -GOLD-   2272014213D 1   1.00000     0.00000
 Structure written by MMmdl.
 39 40  0  0  0  0  0  0  0  0  1 V2000
  146.0718  140.5380  154.7402 C   0  0  0  0  0  0  0  0  0  0  0  0
  147.1760  141.5753  154.9927 C   0  0  0  0  0  0  0  0  0  0  0  0
  147.0333  142.8277  154.1155 C   0  0  0  0  0  0  0  0  0  0  0  0
  148.5418  140.9704  154.8784 C   0  0  0  0  0  0  0  0  0  0  0  0
  149.0044  140.5286  153.7144 N   0  0  0  0  0  0  0  0  0  0  0  0
  150.2873  140.0592  154.0308 O   0  0  0  0  0  0  0  0  0  0  0  0
  150.4362  140.2606  155.3618 C   0  0  0  0  0  0  0  0  0  0  0  0
  151.7352  139.9048  156.0033 C   0  0  0  0  0  0  0  0  0  0  0  0
  151.6000  139.6893  157.5190 C   0  0  0  0  0  0  0  0  0  0  0  0
  152.2590  140.7507  158.2711 N   0  0  0  0  0  0  0  0  0  0  0  0
  152.0000  142.0641  158.1520 C   0  0  0  0  0  0  0  0  0  0  0  0
  151.1735  142.4976  157.3480 O   0  0  0  0  0  0  0  0  0  0  0  0
  152.7341  142.8644  158.9666 N   0  0  0  0  0  0  0  0  0  0  0  0
  153.5540  142.4166  160.1045 C   0  0  0  0  0  0  0  0  0  0  0  0
  152.7301  142.5433  161.3966 C   0  0  0  0  0  0  0  0  0  0  0  0
  152.2869  144.2793  161.7182 S   0  0  0  0  0  0  0  0  0  0  0  0
  151.6116  144.7315  160.0891 C   0  0  0  0  0  0  0  0  0  0  0  0
  152.5720  144.3230  158.9592 C   0  0  0  0  0  0  0  0  0  0  0  0
  149.3875  140.8409  155.9390 N   0  0  0  0  0  0  0  0  0  0  0  0
  146.1598  139.6963  155.4277 H   0  0  0  0  0  0  0  0  0  0  0  0
  146.1207  140.1455  153.7242 H   0  0  0  0  0  0  0  0  0  0  0  0
  145.0831  140.9759  154.8792 H   0  0  0  0  0  0  0  0  0  0  0  0
  147.0540  141.9081  156.0249 H   0  0  0  0  0  0  0  0  0  0  0  0
  147.7858  143.5738  154.3722 H   0  0  0  0  0  0  0  0  0  0  0  0
  146.0539  143.2881  154.2462 H   0  0  0  0  0  0  0  0  0  0  0  0
  147.1484  142.5877  153.0578 H   0  0  0  0  0  0  0  0  0  0  0  0
  152.1220  139.0046  155.5240 H   0  0  0  0  0  0  0  0  0  0  0  0
  152.4524  140.7006  155.7986 H   0  0  0  0  0  0  0  0  0  0  0  0
  150.5466  139.6829  157.8001 H   0  0  0  0  0  0  0  0  0  0  0  0
  152.0040  138.7169  157.8058 H   0  0  0  0  0  0  0  0  0  0  0  0
  152.9598  140.4672  158.9404 H   0  0  0  0  0  0  0  0  0  0  0  0
  153.9192  141.3955  159.9942 H   0  0  0  0  0  0  0  0  0  0  0  0
  154.4545  143.0283  160.1770 H   0  0  0  0  0  0  0  0  0  0  0  0
  151.8185  141.9487  161.3273 H   0  0  0  0  0  0  0  0  0  0  0  0
  153.2955  142.1642  162.2478 H   0  0  0  0  0  0  0  0  0  0  0  0
  150.6430  144.2474  159.9587 H   0  0  0  0  0  0  0  0  0  0  0  0
  151.4356  145.8071  160.0694 H   0  0  0  0  0  0  0  0  0  0  0  0
  153.5388  144.8107  159.0915 H   0  0  0  0  0  0  0  0  0  0  0  0
  152.1957  144.6851  158.0012 H   0  0  0  0  0  0  0  0  0  0  0  0
  1  2  1  0  0  0  0
  1 20  1  0  0  0  0
  1 21  1  0  0  0  0
  1 22  1  0  0  0  0
  2  3  1  0  0  0  0
  2  4  1  0  0  0  0
  2 23  1  0  0  0  0
  3 24  1  0  0  0  0
  3 25  1  0  0  0  0
  3 26  1  0  0  0  0
  4 19  1  0  0  0  0
  4  5  2  0  0  0  0
  5  6  1  0  0  0  0
  6  7  1  0  0  0  0
  7  8  1  0  0  0  0
  7 19  2  0  0  0  0
  8  9  1  0  0  0  0
  8 27  1  0  0  0  0
  8 28  1  0  0  0  0
  9 10  1  0  0  0  0
  9 29  1  0  0  0  0
  9 30  1  0  0  0  0
 10 11  1  0  0  0  0
 10 31  1  0  0  0  0
 11 12  2  0  0  0  0
 11 13  1  0  0  0  0
 13 18  1  0  0  0  0
 13 14  1  0  0  0  0
 14 15  1  0  0  0  0
 14 32  1  0  0  0  0
 14 33  1  0  0  0  0
 15 16  1  0  0  0  0
 15 34  1  0  0  0  0
 15 35  1  0  0  0  0
 16 17  1  0  0  0  0
 17 18  1  0  0  0  0
 17 36  1  0  0  0  0
 17 37  1  0  0  0  0
 18 38  1  0  0  0  0
 18 39  1  0  0  0  0
M  END
> <s_m_source_file>
AV-unprocessed.smi

> <i_m_source_file_index>
2611

> <i_lp_mmshare_version>
43012

> <i_f3d_flags>
0

> <s_epik_input>
W0NIM11bQ0hdKFtDSDNdKWMxbm9jKG4xKVtDSDJdW0NIMl1bTkhdQyg9TylOMltDSDJdW0NIMl1TW0NIMl1bQ0gyXTI=

> <s_epik_cmdline>
J2VwaWtfcHl0aG9uJywgJy1waCcsICc3LjAnLCAnLXRuJywgJzgnLCAnLW1hJywgJzIwMCcsICctbWV0YWxfYmluZGluZycsICctaW1hZScsICc8aW5maWxlLm1hZT4nLCAnLW9tYWUnLCAnPG91dGZpbGUubWFlPic=

> <r_lp_tautomer_probability>
1

> <r_epik_Ionization_Penalty>
4.28847e-05

> <r_epik_Ionization_Penalty_Charging>
0

> <r_epik_Ionization_Penalty_Neutral>
4.28847e-05

> <r_epik_State_Penalty>
-0

> <r_epik_Charging_Adjusted_Penalty>
0

> <i_epik_Tot_Q>
0

> <i_epik_Tot_abs_Q>
0

> <r_epik_Metal_State_Penalty>
-0

> <b_epik_Metal_Only>
0

> <s_lp_Force_Field>
OPLS_2005

> <r_lp_Energy>
14.602

> <b_lp_Chiralities_Consistent>
1

> <s_lp_Variant>
AV-unprocessed.smi:2611-1

> <Gold.Version>
5.8.1

> <Gold.Id.Protein>
6NUR|6NUR_protein|mol2

> <Gold.PLP.Fitness>
40.4327

> <Gold.PLP.PLP>
-38.8743

> <Gold.PLP.part.hbond>
-1.0000

> <Gold.PLP.part.metal>
0.0000

> <Gold.PLP.part.buried>
-6.2382

> <Gold.PLP.part.nonpolar>
-34.9373

> <Gold.PLP.part.repulsive>
3.1089

> <Gold.PLP.ligand.clash>
0.0000

> <Gold.PLP.ligand.torsion>
0.7681

> <Gold.PLP.Chemscore.Hbond>
0.9920

> <Gold.PLP.Chemscore.CHOScore>
0.0000

> <Gold.PLP.Chemscore.Metal>
0.0000

> <Gold.Chemscore.Hbonds>
donor molecule, donor type, donor heavy atom, donor atom, acceptor molecule, acceptor atom, score
      P1  H  7989  7998       L1     6  0.99

> <Gold.PLP.Chemscore.Internal.Correction>
0.1186

> <Gold.Rescore>
     Score         DG    S(hbond)    S(metal)    S(lipo)     H(rot)  DE(clash)    DE(int)     intcor
     11.76     -13.72       0.96        0.00      80.74       1.72       0.17       1.79       ----

> <Gold.Chemscore.Fitness>
11.7577

> <Gold.Chemscore.DG>
-13.7237

> <Gold.Chemscore.ZeroCoef>
-5.4800

> <Gold.Chemscore.Hbond>
0.9576

> <Gold.Chemscore.Metal>
0.0000

> <Gold.Chemscore.Lipo>
80.7424

> <Gold.Chemscore.Internal_Hbond>
0.0000

> <Gold.Chemscore.DEClash>
0.1746

> <Gold.Chemscore.DEInternal>
1.7914

> <Gold.Chemscore.Rot>
1.7193

> <Gold.Chemscore.Internal.Correction>
   9.000000E+99

> <Gold.Chemscore.Hbonds>
donor molecule, donor type, donor heavy atom, donor atom, acceptor molecule, acceptor atom, score
      P1  H  7989  7998       L1     6  0.23

> <Gold.Chemscore.Hbond.Weighted>
-3.1983

> <Gold.Chemscore.Metal.Weighted>
-0.0000

> <Gold.Chemscore.Lipo.Weighted>
-9.4469

> <Gold.Chemscore.Internal_Hbond.Weighted>
0.0000

> <Gold.Chemscore.DEClash.Weighted>
0.1746

> <Gold.Chemscore.DEInternal.Weighted>
1.7914

> <Gold.Chemscore.Rot.Weighted>
4.4015

> <Gold.Chemscore.Internal.Correction.Weighted>
   9.000000E+99

> <Gold.Protein.RotatedTorsions>
[ 6907 6896 6895 6894 ] final  -44.51 input  -60.11 | X-H torsion
[ 7974 7965 7964 7962 ] final   41.06 input  175.53 | X-H torsion
[ 8008 7997 7996 7995 ] final  -68.83 input   59.86 | X-H torsion
[ 10167 10162 10161 10158 ] final   46.28 input  -65.29 | X-H torsion
[ 10718 10713 10712 10709 ] final  176.42 input   66.30 | X-H torsion
[ 10763 10752 10751 10750 ] final  -55.22 input  -60.55 | X-H torsion
[ 11005 11000 10999 10996 ] final   93.99 input  -57.11 | X-H torsion

> <Gold.Protein.ActiveResidues>
 VAL166  LYS551  ARG553  GLY616  TRP617  ASP618  TYR619  PRO620  LYS621  CYS622 
 ASP623  PHE694  ASN695  SER759  ASP760  ASP761  ALA762  ILE779  LEU786  VAL792 
 PHE793  MET794  SER795  GLU796  ALA797  LYS798  CYS799  TRP800  GLU811  SER814 

> <Gold.Protein.RotatedAtoms>
  150.9320  134.8734  159.7556 H   0  0  0  0  0  0  0  0  0  0  0  0  # atno 6907 bound_to 6896
  152.5042  134.4065  159.9444 H   0  0  0  0  0  0  0  0  0  0  0  0  # atno 6908 bound_to 6896
  151.4092  133.3693  159.2777 H   0  0  0  0  0  0  0  0  0  0  0  0  # atno 6909 bound_to 6896
  146.0854  139.5459  142.9510 H   0  0  0  0  0  0  0  0  0  0  0  0  # atno 7974 bound_to 7965
  154.4895  140.0865  156.7563 H   0  0  0  0  0  0  0  0  0  0  0  0  # atno 8008 bound_to 7997
  155.4266  140.3448  155.4258 H   0  0  0  0  0  0  0  0  0  0  0  0  # atno 8009 bound_to 7997
  156.1310  140.1501  156.9054 H   0  0  0  0  0  0  0  0  0  0  0  0  # atno 8010 bound_to 7997
  140.3156  144.2768  150.6192 H   0  0  0  0  0  0  0  0  0  0  0  0  # atno 10167 bound_to 10162
  156.9203  130.9938  151.3005 H   0  0  0  0  0  0  0  0  0  0  0  0  # atno 10718 bound_to 10713
  154.1873  135.6433  153.5050 H   0  0  0  0  0  0  0  0  0  0  0  0  # atno 10763 bound_to 10752
  153.0044  135.5420  154.6452 H   0  0  0  0  0  0  0  0  0  0  0  0  # atno 10764 bound_to 10752
  154.5832  135.2927  155.0684 H   0  0  0  0  0  0  0  0  0  0  0  0  # atno 10765 bound_to 10752
  139.8803  134.8821  156.3799 H   0  0  0  0  0  0  0  0  0  0  0  0  # atno 11005 bound_to 11000
  145.6140  141.0334  143.1951 LP  0  0  0  0  0  0  0  0  0  0  0  0  # atno 17320 bound_to 7965
  144.7322  139.7692  143.7343 LP  0  0  0  0  0  0  0  0  0  0  0  0  # atno 17321 bound_to 7965
  140.5530  143.2203  151.7895 LP  0  0  0  0  0  0  0  0  0  0  0  0  # atno 17342 bound_to 10162
  139.4885  144.4451  151.9719 LP  0  0  0  0  0  0  0  0  0  0  0  0  # atno 17343 bound_to 10162
  157.5912  130.8445  149.8661 LP  0  0  0  0  0  0  0  0  0  0  0  0  # atno 17370 bound_to 10713
  156.0494  130.3721  150.1238 LP  0  0  0  0  0  0  0  0  0  0  0  0  # atno 17371 bound_to 10713
  140.9406  133.7517  156.0142 LP  0  0  0  0  0  0  0  0  0  0  0  0  # atno 17394 bound_to 11000
  140.8223  134.3274  157.5377 LP  0  0  0  0  0  0  0  0  0  0  0  0  # atno 17395 bound_to 11000

$$$$
