AV-unprocessed.smi:880|AV-procd|sdf|4034|dock3
  -GOLD-   22720 1523D 1   1.00000     0.00000
 Structure written by MMmdl.
 32 33  0  0  0  0  0  0  0  0  1 V2000
  153.5260  141.9519  161.0763 C   0  0  0  0  0  0  0  0  0  0  0  0
  153.0053  143.1890  160.3277 C   0  0  0  0  0  0  0  0  0  0  0  0
  152.1801  144.0948  161.2535 C   0  0  0  0  0  0  0  0  0  0  0  0
  152.2109  142.8153  159.1006 C   0  0  0  0  0  0  0  0  0  0  0  0
  151.6469  143.6650  158.1037 C   0  0  0  0  0  0  0  0  0  0  0  0
  151.0629  142.8022  157.2217 C   0  0  0  0  0  0  0  0  0  0  0  0
  151.2845  141.5258  157.6914 N   0  0  0  0  0  0  0  0  0  0  0  0
  150.8800  140.2626  157.0996 C   0  0  0  0  0  0  0  0  0  0  0  0
  150.4242  140.4474  155.6506 C   0  0  0  0  0  0  0  0  0  0  0  0
  151.1055  139.9963  154.7302 O   0  0  0  0  0  0  0  0  0  0  0  0
  149.2751  141.1150  155.4668 N   0  0  0  0  0  0  0  0  0  0  0  0
  148.6615  141.3853  154.2079 C   0  0  0  0  0  0  0  0  0  0  0  0
  147.3609  142.1588  154.2132 C   0  0  0  0  0  0  0  0  0  0  0  0
  147.3534  140.6875  153.9031 C   0  0  0  0  0  0  0  0  0  0  0  0
  151.9878  141.5342  158.8443 N   0  0  0  0  0  0  0  0  0  0  0  0
  154.1405  141.3292  160.4255 H   0  0  0  0  0  0  0  0  0  0  0  0
  152.7083  141.3376  161.4545 H   0  0  0  0  0  0  0  0  0  0  0  0
  154.1409  142.2418  161.9286 H   0  0  0  0  0  0  0  0  0  0  0  0
  153.8804  143.7593  160.0123 H   0  0  0  0  0  0  0  0  0  0  0  0
  151.8687  145.0047  160.7394 H   0  0  0  0  0  0  0  0  0  0  0  0
  152.7575  144.3932  162.1289 H   0  0  0  0  0  0  0  0  0  0  0  0
  151.2809  143.5876  161.6047 H   0  0  0  0  0  0  0  0  0  0  0  0
  151.6716  144.7429  158.0412 H   0  0  0  0  0  0  0  0  0  0  0  0
  150.5198  142.9871  156.3066 H   0  0  0  0  0  0  0  0  0  0  0  0
  151.7112  139.5567  157.1404 H   0  0  0  0  0  0  0  0  0  0  0  0
  150.0701  139.8407  157.6962 H   0  0  0  0  0  0  0  0  0  0  0  0
  148.7885  141.4434  156.2887 H   0  0  0  0  0  0  0  0  0  0  0  0
  149.3193  141.5597  153.3575 H   0  0  0  0  0  0  0  0  0  0  0  0
  146.9579  142.4713  155.1748 H   0  0  0  0  0  0  0  0  0  0  0  0
  147.1836  142.8468  153.3892 H   0  0  0  0  0  0  0  0  0  0  0  0
  147.1699  140.3929  152.8716 H   0  0  0  0  0  0  0  0  0  0  0  0
  146.9467  140.0166  154.6575 H   0  0  0  0  0  0  0  0  0  0  0  0
  1  2  1  0  0  0  0
  1 16  1  0  0  0  0
  1 17  1  0  0  0  0
  1 18  1  0  0  0  0
  2  3  1  0  0  0  0
  2  4  1  0  0  0  0
  2 19  1  0  0  0  0
  3 20  1  0  0  0  0
  3 21  1  0  0  0  0
  3 22  1  0  0  0  0
  4 15  2  0  0  0  0
  4  5  1  0  0  0  0
  5  6  2  0  0  0  0
  5 23  1  0  0  0  0
  6  7  1  0  0  0  0
  6 24  1  0  0  0  0
  7  8  1  0  0  0  0
  7 15  1  0  0  0  0
  8  9  1  0  0  0  0
  8 25  1  0  0  0  0
  8 26  1  0  0  0  0
  9 10  2  0  0  0  0
  9 11  1  0  0  0  0
 11 12  1  0  0  0  0
 11 27  1  0  0  0  0
 12 14  1  0  0  0  0
 12 13  1  0  0  0  0
 12 28  1  0  0  0  0
 13 14  1  0  0  0  0
 13 29  1  0  0  0  0
 13 30  1  0  0  0  0
 14 31  1  0  0  0  0
 14 32  1  0  0  0  0
M  END
> <s_m_source_file>
AV-unprocessed.smi

> <i_m_source_file_index>
880

> <i_lp_mmshare_version>
43012

> <i_f3d_flags>
0

> <s_epik_input>
W0NIM11bQ0hdKFtDSDNdKWMxW2NIXVtjSF1uKG4xKVtDSDJdQyg9TylbTkhdW0NIXTJbQ0gyXVtDSDJdMg==

> <s_epik_cmdline>
J2VwaWtfcHl0aG9uJywgJy1waCcsICc3LjAnLCAnLXRuJywgJzgnLCAnLW1hJywgJzIwMCcsICctbWV0YWxfYmluZGluZycsICctaW1hZScsICc8aW5maWxlLm1hZT4nLCAnLW9tYWUnLCAnPG91dGZpbGUubWFlPic=

> <r_lp_tautomer_probability>
1

> <r_epik_Ionization_Penalty>
5.52855e-05

> <r_epik_Ionization_Penalty_Charging>
0

> <r_epik_Ionization_Penalty_Neutral>
5.52855e-05

> <r_epik_State_Penalty>
-0

> <r_epik_Charging_Adjusted_Penalty>
0

> <i_epik_Tot_Q>
0

> <i_epik_Tot_abs_Q>
0

> <r_epik_Metal_State_Penalty>
-0

> <b_epik_Metal_Only>
0

> <s_lp_Force_Field>
OPLS_2005

> <r_lp_Energy>
12.9381

> <b_lp_Chiralities_Consistent>
1

> <s_lp_Variant>
AV-unprocessed.smi:880-1

> <Gold.Version>
5.8.1

> <Gold.Id.Protein>
6NUR|6NUR_protein|mol2

> <Gold.PLP.Fitness>
43.4198

> <Gold.PLP.PLP>
-37.9517

> <Gold.PLP.part.hbond>
-1.0000

> <Gold.PLP.part.metal>
0.0000

> <Gold.PLP.part.buried>
-4.5129

> <Gold.PLP.part.nonpolar>
-33.4298

> <Gold.PLP.part.repulsive>
0.1913

> <Gold.PLP.ligand.clash>
0.0000

> <Gold.PLP.ligand.torsion>
0.2977

> <Gold.PLP.Chemscore.Hbond>
1.0000

> <Gold.PLP.Chemscore.CHOScore>
1.0000

> <Gold.PLP.Chemscore.Metal>
0.0000

> <Gold.Chemscore.Hbonds>
donor molecule, donor type, donor heavy atom, donor atom, acceptor molecule, acceptor atom, score
      P1  H  7989  7998       L1    10  1.00
      L1  C     6    24       P1  8028  1.00

> <Gold.PLP.Chemscore.Internal.Correction>
0.0636

> <Gold.Rescore>
     Score         DG    S(hbond)    S(metal)    S(lipo)     H(rot)  DE(clash)    DE(int)     intcor
     15.70     -16.07       0.98        0.00      95.47       1.50       0.00       0.37       ----

> <Gold.Chemscore.Fitness>
15.6976

> <Gold.Chemscore.DG>
-16.0691

> <Gold.Chemscore.ZeroCoef>
-5.4800

> <Gold.Chemscore.Hbond>
0.9779

> <Gold.Chemscore.Metal>
0.0000

> <Gold.Chemscore.Lipo>
95.4674

> <Gold.Chemscore.Internal_Hbond>
0.0000

> <Gold.Chemscore.DEClash>
0.0000

> <Gold.Chemscore.DEInternal>
0.3714

> <Gold.Chemscore.Rot>
1.5026

> <Gold.Chemscore.Internal.Correction>
   9.000000E+99

> <Gold.Chemscore.Hbonds>
donor molecule, donor type, donor heavy atom, donor atom, acceptor molecule, acceptor atom, score
      P1  H  7989  7998       L1    10  0.98

> <Gold.Chemscore.Hbond.Weighted>
-3.2661

> <Gold.Chemscore.Metal.Weighted>
-0.0000

> <Gold.Chemscore.Lipo.Weighted>
-11.1697

> <Gold.Chemscore.Internal_Hbond.Weighted>
0.0000

> <Gold.Chemscore.DEClash.Weighted>
0.0000

> <Gold.Chemscore.DEInternal.Weighted>
0.3714

> <Gold.Chemscore.Rot.Weighted>
3.8468

> <Gold.Chemscore.Internal.Correction.Weighted>
   9.000000E+99

> <Gold.Protein.RotatedTorsions>
[ 6907 6896 6895 6894 ] final -124.80 input  -60.11 | X-H torsion
[ 7974 7965 7964 7962 ] final  -64.08 input  175.53 | X-H torsion
[ 8008 7997 7996 7995 ] final  -57.16 input   59.86 | X-H torsion
[ 10167 10162 10161 10158 ] final -103.57 input  -65.29 | X-H torsion
[ 10718 10713 10712 10709 ] final  -65.60 input   66.30 | X-H torsion
[ 10763 10752 10751 10750 ] final  104.78 input  -60.55 | X-H torsion
[ 11005 11000 10999 10996 ] final -172.79 input  -57.11 | X-H torsion

> <Gold.Protein.ActiveResidues>
 VAL166  LYS551  ARG553  GLY616  TRP617  ASP618  TYR619  PRO620  LYS621  CYS622 
 ASP623  PHE694  ASN695  SER759  ASP760  ASP761  ALA762  ILE779  LEU786  VAL792 
 PHE793  MET794  SER795  GLU796  ALA797  LYS798  CYS799  TRP800  GLU811  SER814 

> <Gold.Protein.RotatedAtoms>
  150.8804  133.7381  159.2933 H   0  0  0  0  0  0  0  0  0  0  0  0  # atno 6907 bound_to 6896
  151.4964  135.1058  159.9827 H   0  0  0  0  0  0  0  0  0  0  0  0  # atno 6908 bound_to 6896
  152.4755  133.8083  159.7045 H   0  0  0  0  0  0  0  0  0  0  0  0  # atno 6909 bound_to 6896
  145.7711  140.8812  143.0379 H   0  0  0  0  0  0  0  0  0  0  0  0  # atno 7974 bound_to 7965
  154.4257  140.1113  156.5754 H   0  0  0  0  0  0  0  0  0  0  0  0  # atno 8008 bound_to 7997
  155.6169  140.3495  155.4620 H   0  0  0  0  0  0  0  0  0  0  0  0  # atno 8009 bound_to 7997
  156.0055  140.1208  157.0495 H   0  0  0  0  0  0  0  0  0  0  0  0  # atno 8010 bound_to 7997
  140.2186  143.3693  152.0989 H   0  0  0  0  0  0  0  0  0  0  0  0  # atno 10167 bound_to 10162
  156.0660  130.4250  150.1588 H   0  0  0  0  0  0  0  0  0  0  0  0  # atno 10718 bound_to 10713
  153.3705  135.3932  155.1785 H   0  0  0  0  0  0  0  0  0  0  0  0  # atno 10763 bound_to 10752
  154.8693  135.3701  154.4984 H   0  0  0  0  0  0  0  0  0  0  0  0  # atno 10764 bound_to 10752
  153.5451  135.7084  153.5678 H   0  0  0  0  0  0  0  0  0  0  0  0  # atno 10765 bound_to 10752
  140.4930  134.5966  157.4961 H   0  0  0  0  0  0  0  0  0  0  0  0  # atno 11005 bound_to 11000
  144.6812  139.9857  143.7484 LP  0  0  0  0  0  0  0  0  0  0  0  0  # atno 17320 bound_to 7965
  146.0168  139.3217  143.0837 LP  0  0  0  0  0  0  0  0  0  0  0  0  # atno 17321 bound_to 7965
  139.5153  144.6960  151.5629 LP  0  0  0  0  0  0  0  0  0  0  0  0  # atno 17342 bound_to 10162
  140.6271  143.9147  150.6574 LP  0  0  0  0  0  0  0  0  0  0  0  0  # atno 17343 bound_to 10162
  156.9648  130.9816  151.3471 LP  0  0  0  0  0  0  0  0  0  0  0  0  # atno 17370 bound_to 10713
  157.5701  130.8305  149.8380 LP  0  0  0  0  0  0  0  0  0  0  0  0  # atno 17371 bound_to 10713
  139.9758  134.7218  155.9953 LP  0  0  0  0  0  0  0  0  0  0  0  0  # atno 17394 bound_to 11000
  141.1474  133.6553  156.3909 LP  0  0  0  0  0  0  0  0  0  0  0  0  # atno 17395 bound_to 11000

$$$$
