AV-unprocessed.smi:643|AV-procd|sdf|3153|dock7
  -GOLD-   22720 0 73D 1   1.00000     0.00000
 Structure written by MMmdl.
 40 41  0  0  0  0  0  0  0  0  1 V2000
  145.4018  135.9627  150.7721 C   0  0  0  0  0  0  0  0  0  0  0  0
  145.2609  134.9130  151.8963 C   0  0  0  0  0  0  0  0  0  0  0  0
  143.7994  134.4144  151.9137 C   0  0  0  0  0  0  0  0  0  0  0  0
  146.2144  133.7263  151.6843 C   0  0  0  0  0  0  0  0  0  0  0  0
  146.3723  133.0702  153.0586 C   0  0  0  0  0  0  0  0  0  0  0  0
  146.1118  134.1761  154.0902 C   0  0  0  0  0  0  0  0  0  0  0  0
  145.6599  135.4232  153.3058 C   0  0  1  0  0  0  0  0  0  0  0  0
  146.7595  136.3903  153.2597 N   0  0  0  0  0  0  0  0  0  0  0  0
  146.7978  137.5716  153.8934 C   0  0  0  0  0  0  0  0  0  0  0  0
  145.8916  137.9897  154.6138 O   0  0  0  0  0  0  0  0  0  0  0  0
  147.9427  138.2234  153.6290 N   0  0  0  0  0  0  0  0  0  0  0  0
  148.3598  139.4982  154.0924 C   0  0  0  0  0  0  0  0  0  0  0  0
  147.7106  140.7423  153.8311 C   0  0  0  0  0  0  0  0  0  0  0  0
  148.4923  141.6476  154.4903 C   0  0  0  0  0  0  0  0  0  0  0  0
  149.5200  140.9493  155.0904 N   0  0  0  0  0  0  0  0  0  0  0  0
  150.6073  141.4654  155.8991 C   0  0  0  0  0  0  0  0  0  0  0  0
  150.1173  141.9738  157.2615 C   0  0  0  0  0  0  0  0  0  0  0  0
  149.7140  140.9488  158.0113 F   0  0  0  0  0  0  0  0  0  0  0  0
  151.0911  142.6235  157.8990 F   0  0  0  0  0  0  0  0  0  0  0  0
  149.4381  139.6231  154.8476 N   0  0  0  0  0  0  0  0  0  0  0  0
  145.0747  135.5575  149.8142 H   0  0  0  0  0  0  0  0  0  0  0  0
  146.4327  136.2930  150.6403 H   0  0  0  0  0  0  0  0  0  0  0  0
  144.7959  136.8451  150.9806 H   0  0  0  0  0  0  0  0  0  0  0  0
  143.6282  133.6685  152.6900 H   0  0  0  0  0  0  0  0  0  0  0  0
  143.5233  133.9615  150.9609 H   0  0  0  0  0  0  0  0  0  0  0  0
  143.1065  135.2365  152.0962 H   0  0  0  0  0  0  0  0  0  0  0  0
  145.8609  133.0254  150.9272 H   0  0  0  0  0  0  0  0  0  0  0  0
  147.1889  134.0893  151.3542 H   0  0  0  0  0  0  0  0  0  0  0  0
  145.6360  132.2747  153.1788 H   0  0  0  0  0  0  0  0  0  0  0  0
  147.3580  132.6202  153.1792 H   0  0  0  0  0  0  0  0  0  0  0  0
  145.3259  133.8588  154.7765 H   0  0  0  0  0  0  0  0  0  0  0  0
  146.9972  134.3696  154.6979 H   0  0  0  0  0  0  0  0  0  0  0  0
  144.7956  135.8720  153.7985 H   0  0  0  0  0  0  0  0  0  0  0  0
  147.5538  136.1368  152.6907 H   0  0  0  0  0  0  0  0  0  0  0  0
  148.5881  137.7595  153.0068 H   0  0  0  0  0  0  0  0  0  0  0  0
  146.8199  140.9544  153.2592 H   0  0  0  0  0  0  0  0  0  0  0  0
  148.4028  142.7200  154.5828 H   0  0  0  0  0  0  0  0  0  0  0  0
  151.3426  140.6710  156.0351 H   0  0  0  0  0  0  0  0  0  0  0  0
  151.1052  142.2660  155.3506 H   0  0  0  0  0  0  0  0  0  0  0  0
  149.2721  142.6555  157.1615 H   0  0  0  0  0  0  0  0  0  0  0  0
  1  2  1  0  0  0  0
  1 21  1  0  0  0  0
  1 22  1  0  0  0  0
  1 23  1  0  0  0  0
  2  7  1  0  0  0  0
  2  3  1  0  0  0  0
  2  4  1  0  0  0  0
  3 24  1  0  0  0  0
  3 25  1  0  0  0  0
  3 26  1  0  0  0  0
  4  5  1  0  0  0  0
  4 27  1  0  0  0  0
  4 28  1  0  0  0  0
  5  6  1  0  0  0  0
  5 29  1  0  0  0  0
  5 30  1  0  0  0  0
  6  7  1  0  0  0  0
  6 31  1  0  0  0  0
  6 32  1  0  0  0  0
  7  8  1  0  0  0  0
  7 33  1  0  0  0  0
  8  9  1  0  0  0  0
  8 34  1  0  0  0  0
  9 10  2  0  0  0  0
  9 11  1  0  0  0  0
 11 12  1  0  0  0  0
 11 35  1  0  0  0  0
 12 20  2  0  0  0  0
 12 13  1  0  0  0  0
 13 14  2  0  0  0  0
 13 36  1  0  0  0  0
 14 15  1  0  0  0  0
 14 37  1  0  0  0  0
 15 16  1  0  0  0  0
 15 20  1  0  0  0  0
 16 17  1  0  0  0  0
 16 38  1  0  0  0  0
 16 39  1  0  0  0  0
 17 18  1  0  0  0  0
 17 19  1  0  0  0  0
 17 40  1  0  0  0  0
M  END
> <s_m_source_file>
AV-unprocessed.smi

> <i_m_source_file_index>
643

> <i_lp_mmshare_version>
43012

> <i_f3d_flags>
0

> <s_epik_input>
W0NIM11DMShbQ0gzXSlbQ0gyXVtDSDJdW0NIMl1bQ0BIXTFbTkhdQyg9TylbTkhdYzJbY0hdW2NIXW4objIpW0NIMl1bQ0hdKEYpRg==

> <s_epik_cmdline>
J2VwaWtfcHl0aG9uJywgJy1waCcsICc3LjAnLCAnLXRuJywgJzgnLCAnLW1hJywgJzIwMCcsICctbWV0YWxfYmluZGluZycsICctaW1hZScsICc8aW5maWxlLm1hZT4nLCAnLW9tYWUnLCAnPG91dGZpbGUubWFlPic=

> <r_lp_tautomer_probability>
1

> <r_epik_Ionization_Penalty>
3.99908e-05

> <r_epik_Ionization_Penalty_Charging>
0

> <r_epik_Ionization_Penalty_Neutral>
3.99908e-05

> <r_epik_State_Penalty>
-0

> <r_epik_Charging_Adjusted_Penalty>
0

> <i_epik_Tot_Q>
0

> <i_epik_Tot_abs_Q>
0

> <r_epik_Metal_State_Penalty>
-0

> <b_epik_Metal_Only>
0

> <s_lp_Force_Field>
OPLS_2005

> <r_lp_Energy>
26.1954

> <b_lp_Chiralities_Consistent>
1

> <s_lp_Variant>
AV-unprocessed.smi:643-1

> <Gold.Version>
5.8.1

> <Gold.Id.Protein>
6NUR|6NUR_protein|mol2

> <Gold.PLP.Fitness>
39.1082

> <Gold.PLP.PLP>
-31.8169

> <Gold.PLP.part.hbond>
-2.0000

> <Gold.PLP.part.metal>
0.0000

> <Gold.PLP.part.buried>
-3.4850

> <Gold.PLP.part.nonpolar>
-26.8035

> <Gold.PLP.part.repulsive>
0.1980

> <Gold.PLP.ligand.clash>
0.0000

> <Gold.PLP.ligand.torsion>
0.8267

> <Gold.PLP.Chemscore.Hbond>
1.9760

> <Gold.PLP.Chemscore.CHOScore>
1.0000

> <Gold.PLP.Chemscore.Metal>
0.0000

> <Gold.Chemscore.Hbonds>
donor molecule, donor type, donor heavy atom, donor atom, acceptor molecule, acceptor atom, score
      L1  H     8    34       P1  7948  1.00
      L1  H    11    35       P1  7948  0.98
      L1  C    14    37       P1  8028  1.00

> <Gold.PLP.Chemscore.Internal.Correction>
0.0168

> <Gold.Rescore>
     Score         DG    S(hbond)    S(metal)    S(lipo)     H(rot)  DE(clash)    DE(int)     intcor
     14.65     -15.48       1.95        0.00      57.57       1.28       0.02       0.81       ----

> <Gold.Chemscore.Fitness>
14.6529

> <Gold.Chemscore.DG>
-15.4751

> <Gold.Chemscore.ZeroCoef>
-5.4800

> <Gold.Chemscore.Hbond>
1.9548

> <Gold.Chemscore.Metal>
0.0000

> <Gold.Chemscore.Lipo>
57.5667

> <Gold.Chemscore.Internal_Hbond>
0.0000

> <Gold.Chemscore.DEClash>
0.0154

> <Gold.Chemscore.DEInternal>
0.8067

> <Gold.Chemscore.Rot>
1.2771

> <Gold.Chemscore.Internal.Correction>
   9.000000E+99

> <Gold.Chemscore.Hbonds>
donor molecule, donor type, donor heavy atom, donor atom, acceptor molecule, acceptor atom, score
      L1  H     8    34       P1  7948  0.99
      L1  H    11    35       P1  7948  0.93

> <Gold.Chemscore.Hbond.Weighted>
-6.5292

> <Gold.Chemscore.Metal.Weighted>
-0.0000

> <Gold.Chemscore.Lipo.Weighted>
-6.7353

> <Gold.Chemscore.Internal_Hbond.Weighted>
0.0000

> <Gold.Chemscore.DEClash.Weighted>
0.0154

> <Gold.Chemscore.DEInternal.Weighted>
0.8067

> <Gold.Chemscore.Rot.Weighted>
3.2694

> <Gold.Chemscore.Internal.Correction.Weighted>
   9.000000E+99

> <Gold.Protein.RotatedTorsions>
[ 6907 6896 6895 6894 ] final  -84.56 input  -60.11 | X-H torsion
[ 7974 7965 7964 7962 ] final -164.64 input  175.53 | X-H torsion
[ 8008 7997 7996 7995 ] final   36.32 input   59.86 | X-H torsion
[ 10167 10162 10161 10158 ] final -118.08 input  -65.29 | X-H torsion
[ 10718 10713 10712 10709 ] final -152.60 input   66.30 | X-H torsion
[ 10763 10752 10751 10750 ] final -174.84 input  -60.55 | X-H torsion
[ 11005 11000 10999 10996 ] final   -4.55 input  -57.11 | X-H torsion

> <Gold.Protein.ActiveResidues>
 VAL166  LYS551  ARG553  GLY616  TRP617  ASP618  TYR619  PRO620  LYS621  CYS622 
 ASP623  PHE694  ASN695  SER759  ASP760  ASP761  ALA762  ILE779  LEU786  VAL792 
 PHE793  MET794  SER795  GLU796  ALA797  LYS798  CYS799  TRP800  GLU811  SER814 

> <Gold.Protein.RotatedAtoms>
  150.6875  134.3339  159.4838 H   0  0  0  0  0  0  0  0  0  0  0  0  # atno 6907 bound_to 6896
  152.1200  134.9209  160.0572 H   0  0  0  0  0  0  0  0  0  0  0  0  # atno 6908 bound_to 6896
  152.0419  133.3946  159.4377 H   0  0  0  0  0  0  0  0  0  0  0  0  # atno 6909 bound_to 6896
  144.7291  140.2931  143.6217 H   0  0  0  0  0  0  0  0  0  0  0  0  # atno 7974 bound_to 7965
  155.1854  140.3303  155.4367 H   0  0  0  0  0  0  0  0  0  0  0  0  # atno 8008 bound_to 7997
  156.2461  140.1919  156.6900 H   0  0  0  0  0  0  0  0  0  0  0  0  # atno 8009 bound_to 7997
  154.6242  140.0591  156.9639 H   0  0  0  0  0  0  0  0  0  0  0  0  # atno 8010 bound_to 7997
  140.0613  143.4965  152.2030 H   0  0  0  0  0  0  0  0  0  0  0  0  # atno 10167 bound_to 10162
  156.4747  130.8275  151.2503 H   0  0  0  0  0  0  0  0  0  0  0  0  # atno 10718 bound_to 10713
  154.5915  135.2845  155.0631 H   0  0  0  0  0  0  0  0  0  0  0  0  # atno 10763 bound_to 10752
  154.1930  135.6437  153.5069 H   0  0  0  0  0  0  0  0  0  0  0  0  # atno 10764 bound_to 10752
  153.0123  135.5450  154.6602 H   0  0  0  0  0  0  0  0  0  0  0  0  # atno 10765 bound_to 10752
  140.6814  133.9150  155.8558 H   0  0  0  0  0  0  0  0  0  0  0  0  # atno 11005 bound_to 11000
  145.7836  139.1900  143.2144 LP  0  0  0  0  0  0  0  0  0  0  0  0  # atno 17320 bound_to 7965
  146.0814  140.7760  142.9640 LP  0  0  0  0  0  0  0  0  0  0  0  0  # atno 17321 bound_to 7965
  139.5892  144.7543  151.3444 LP  0  0  0  0  0  0  0  0  0  0  0  0  # atno 17342 bound_to 10162
  140.7170  143.7239  150.7675 LP  0  0  0  0  0  0  0  0  0  0  0  0  # atno 17343 bound_to 10162
  157.7488  131.0065  150.3153 LP  0  0  0  0  0  0  0  0  0  0  0  0  # atno 17370 bound_to 10713
  156.3583  130.3842  149.7272 LP  0  0  0  0  0  0  0  0  0  0  0  0  # atno 17371 bound_to 10713
  141.0314  134.0751  157.4009 LP  0  0  0  0  0  0  0  0  0  0  0  0  # atno 17394 bound_to 11000
  139.8950  135.0139  156.6982 LP  0  0  0  0  0  0  0  0  0  0  0  0  # atno 17395 bound_to 11000

$$$$
