AV-unprocessed.smi:157|AV-procd|sdf|1299|dock9
  -GOLD-   2262018583D 1   1.00000     0.00000
 Structure written by MMmdl.
 35 37  0  0  0  0  0  0  0  0  1 V2000
  150.9831  136.2041  155.9257 O   0  0  0  0  0  0  0  0  0  0  0  0
  150.5347  137.4840  155.5330 C   0  0  0  0  0  0  0  0  0  0  0  0
  151.7310  138.3363  155.0562 C   0  0  1  0  0  0  0  0  0  0  0  0
  151.2156  139.5958  154.6128 O   0  0  0  0  0  0  0  0  0  0  0  0
  151.5352  140.6158  155.5148 C   0  0  1  0  0  0  0  0  0  0  0  0
  150.2973  141.3939  155.8370 N   0  0  0  0  0  0  0  0  0  0  0  0
  150.1014  142.1866  156.8996 C   0  0  0  0  0  0  0  0  0  0  0  0
  148.9162  142.7714  156.9374 N   0  0  0  0  0  0  0  0  0  0  0  0
  148.2760  142.3088  155.7892 C   0  0  0  0  0  0  0  0  0  0  0  0
  149.1147  141.4495  155.0940 C   0  0  0  0  0  0  0  0  0  0  0  0
  149.0422  140.7178  153.9240 N   0  0  0  0  0  0  0  0  0  0  0  0
  147.8690  140.4809  153.4270 C   0  0  0  0  0  0  0  0  0  0  0  0
  146.6187  140.9291  153.8290 N   0  0  0  0  0  0  0  0  0  0  0  0
  146.3287  142.3221  154.1227 C   0  0  0  0  0  0  0  0  0  0  0  0
  146.8918  142.7940  155.4689 C   0  0  1  0  0  0  0  0  0  0  0  0
  146.0468  142.3461  156.5088 O   0  0  0  0  0  0  0  0  0  0  0  0
  152.0838  139.9448  156.7693 C   0  0  0  0  0  0  0  0  0  0  0  0
  152.7342  138.7258  156.1568 C   0  0  1  0  0  0  0  0  0  0  0  0
  152.9834  137.7195  157.1176 O   0  0  0  0  0  0  0  0  0  0  0  0
  152.2514  137.8268  154.2437 H   0  0  0  0  0  0  0  0  0  0  0  0
  152.2249  141.3230  155.0523 H   0  0  0  0  0  0  0  0  0  0  0  0
  146.8677  143.8840  155.4899 H   0  0  0  0  0  0  0  0  0  0  0  0
  153.6812  139.0155  155.6991 H   0  0  0  0  0  0  0  0  0  0  0  0
  151.0227  135.6516  155.1602 H   0  0  0  0  0  0  0  0  0  0  0  0
  149.7668  137.3961  154.7646 H   0  0  0  0  0  0  0  0  0  0  0  0
  150.0624  137.9287  156.4087 H   0  0  0  0  0  0  0  0  0  0  0  0
  150.8456  142.3447  157.6660 H   0  0  0  0  0  0  0  0  0  0  0  0
  147.7991  139.8383  152.5482 H   0  0  0  0  0  0  0  0  0  0  0  0
  145.8006  140.4514  153.4795 H   0  0  0  0  0  0  0  0  0  0  0  0
  146.7745  142.9198  153.3263 H   0  0  0  0  0  0  0  0  0  0  0  0
  145.2539  142.4971  154.0691 H   0  0  0  0  0  0  0  0  0  0  0  0
  146.4173  142.6284  157.3314 H   0  0  0  0  0  0  0  0  0  0  0  0
  152.7732  140.6000  157.3026 H   0  0  0  0  0  0  0  0  0  0  0  0
  151.2631  139.6652  157.4325 H   0  0  0  0  0  0  0  0  0  0  0  0
  153.1896  138.1352  157.9409 H   0  0  0  0  0  0  0  0  0  0  0  0
  1  2  1  0  0  0  0
  1 24  1  0  0  0  0
  2  3  1  0  0  0  0
  2 25  1  0  0  0  0
  2 26  1  0  0  0  0
  3 20  1  0  0  0  0
  3 18  1  0  0  0  0
  3  4  1  0  0  0  0
  4  5  1  0  0  0  0
  5 21  1  0  0  0  0
  5  6  1  0  0  0  0
  5 17  1  0  0  0  0
  6 10  1  0  0  0  0
  6  7  1  0  0  0  0
  7  8  2  0  0  0  0
  7 27  1  0  0  0  0
  8  9  1  0  0  0  0
  9 15  1  0  0  0  0
  9 10  2  0  0  0  0
 10 11  1  0  0  0  0
 11 12  2  0  0  0  0
 12 13  1  0  0  0  0
 12 28  1  0  0  0  0
 13 14  1  0  0  0  0
 13 29  1  0  0  0  0
 14 15  1  0  0  0  0
 14 30  1  0  0  0  0
 14 31  1  0  0  0  0
 15 22  1  0  0  0  0
 15 16  1  0  0  0  0
 16 32  1  0  0  0  0
 17 18  1  0  0  0  0
 17 33  1  0  0  0  0
 17 34  1  0  0  0  0
 18 23  1  0  0  0  0
 18 19  1  0  0  0  0
 19 35  1  0  0  0  0
M  END
> <s_m_source_file>
AV-unprocessed.smi

> <i_m_source_file_index>
157

> <i_lp_mmshare_version>
43012

> <i_f3d_flags>
0

> <s_epik_input>
W09IXVtDSDJdW0NASF0xT1tDQEhdKFtDSDJdW0NAQEhdMVtPSF0pbihbY0hdbjIpYyhjMjMpTj1bQ0hdW05IXVtDSDJdW0NASF0zW09IXQ==

> <s_epik_cmdline>
J2VwaWtfcHl0aG9uJywgJy1waCcsICc3LjAnLCAnLXRuJywgJzgnLCAnLW1hJywgJzIwMCcsICctbWV0YWxfYmluZGluZycsICctaW1hZScsICc8aW5maWxlLm1hZT4nLCAnLW9tYWUnLCAnPG91dGZpbGUubWFlPic=

> <r_lp_tautomer_probability>
1

> <r_epik_Ionization_Penalty>
0.0357149

> <r_epik_Ionization_Penalty_Charging>
0.0355056

> <r_epik_Ionization_Penalty_Neutral>
0.000209255

> <r_epik_State_Penalty>
0.0296046

> <r_epik_Charging_Adjusted_Penalty>
0.0651102

> <i_epik_Tot_Q>
0

> <i_epik_Tot_abs_Q>
0

> <r_epik_Metal_State_Penalty>
3.03559e-05

> <b_epik_Metal_Only>
0

> <s_epik_Chemistry_Notes>
This compound has an imine and may undergo hydrolysis. This compound contains an acetal/aminal-like group ( X-CH(R)-Y where X, Y are N, S, or O) that may be acid/base labile, releasing an aldehyde.

> <s_lp_Force_Field>
OPLS_2005

> <r_lp_Energy>
47.2619

> <b_lp_Chiralities_Consistent>
1

> <s_lp_Variant>
AV-unprocessed.smi:157-9

> <Gold.Version>
5.8.1

> <Gold.Id.Protein>
6NUR|6NUR_protein|mol2

> <Gold.PLP.Fitness>
42.0696

> <Gold.PLP.PLP>
-30.0431

> <Gold.PLP.part.hbond>
-5.4650

> <Gold.PLP.part.metal>
0.0000

> <Gold.PLP.part.buried>
-3.5489

> <Gold.PLP.part.nonpolar>
-22.1914

> <Gold.PLP.part.repulsive>
0.3822

> <Gold.PLP.ligand.clash>
0.0000

> <Gold.PLP.ligand.torsion>
0.5268

> <Gold.PLP.Chemscore.Hbond>
3.4477

> <Gold.PLP.Chemscore.CHOScore>
0.9075

> <Gold.PLP.Chemscore.Metal>
0.0000

> <Gold.Chemscore.Hbonds>
donor molecule, donor type, donor heavy atom, donor atom, acceptor molecule, acceptor atom, score
      L1  H    13    29       P1 10175  0.23
      L1  C    12    28       P1  7957  0.67

> <Gold.PLP.Chemscore.Internal.Correction>
0.0144

> <Gold.Rescore>
     Score         DG    S(hbond)    S(metal)    S(lipo)     H(rot)  DE(clash)    DE(int)     intcor
      5.29      -7.43       2.00        0.00      39.08       3.64       0.01       2.13       ----

> <Gold.Chemscore.Fitness>
5.2901

> <Gold.Chemscore.DG>
-7.4293

> <Gold.Chemscore.ZeroCoef>
-5.4800

> <Gold.Chemscore.Hbond>
2.0018

> <Gold.Chemscore.Metal>
0.0000

> <Gold.Chemscore.Lipo>
39.0779

> <Gold.Chemscore.Internal_Hbond>
0.0000

> <Gold.Chemscore.DEClash>
0.0088

> <Gold.Chemscore.DEInternal>
2.1304

> <Gold.Chemscore.Rot>
3.6362

> <Gold.Chemscore.Internal.Correction>
   9.000000E+99

> <Gold.Chemscore.Hbonds>
donor molecule, donor type, donor heavy atom, donor atom, acceptor molecule, acceptor atom, score
      L1  H    13    29       P1 10175  0.21

> <Gold.Chemscore.Hbond.Weighted>
-6.6859

> <Gold.Chemscore.Metal.Weighted>
-0.0000

> <Gold.Chemscore.Lipo.Weighted>
-4.5721

> <Gold.Chemscore.Internal_Hbond.Weighted>
0.0000

> <Gold.Chemscore.DEClash.Weighted>
0.0088

> <Gold.Chemscore.DEInternal.Weighted>
2.1304

> <Gold.Chemscore.Rot.Weighted>
9.3087

> <Gold.Chemscore.Internal.Correction.Weighted>
   9.000000E+99

> <Gold.Protein.RotatedTorsions>
[ 6907 6896 6895 6894 ] final   45.57 input  -60.11 | X-H torsion
[ 7974 7965 7964 7962 ] final  -86.24 input  175.53 | X-H torsion
[ 8008 7997 7996 7995 ] final   87.52 input   59.86 | X-H torsion
[ 10167 10162 10161 10158 ] final -139.54 input  -65.29 | X-H torsion
[ 10718 10713 10712 10709 ] final -153.16 input   66.30 | X-H torsion
[ 10763 10752 10751 10750 ] final -152.49 input  -60.55 | X-H torsion
[ 11005 11000 10999 10996 ] final  -32.30 input  -57.11 | X-H torsion

> <Gold.Protein.ActiveResidues>
 VAL166  LYS551  ARG553  GLY616  TRP617  ASP618  TYR619  PRO620  LYS621  CYS622 
 ASP623  PHE694  ASN695  SER759  ASP760  ASP761  ALA762  ILE779  LEU786  VAL792 
 PHE793  MET794  SER795  GLU796  ALA797  LYS798  CYS799  TRP800  GLU811  SER814 

> <Gold.Protein.RotatedAtoms>
  152.2461  134.8180  160.0452 H   0  0  0  0  0  0  0  0  0  0  0  0  # atno 6907 bound_to 6896
  151.8877  133.3504  159.3796 H   0  0  0  0  0  0  0  0  0  0  0  0  # atno 6908 bound_to 6896
  150.7069  134.4881  159.5547 H   0  0  0  0  0  0  0  0  0  0  0  0  # atno 6909 bound_to 6896
  145.4825  140.9556  143.1857 H   0  0  0  0  0  0  0  0  0  0  0  0  # atno 7974 bound_to 7965
  155.9763  140.3381  155.6622 H   0  0  0  0  0  0  0  0  0  0  0  0  # atno 8008 bound_to 7997
  155.6607  140.0716  157.2573 H   0  0  0  0  0  0  0  0  0  0  0  0  # atno 8009 bound_to 7997
  154.4180  140.1709  156.1761 H   0  0  0  0  0  0  0  0  0  0  0  0  # atno 8010 bound_to 7997
  139.8370  143.7372  152.2664 H   0  0  0  0  0  0  0  0  0  0  0  0  # atno 10167 bound_to 10162
  156.4821  130.8308  151.2534 H   0  0  0  0  0  0  0  0  0  0  0  0  # atno 10718 bound_to 10713
  154.7990  135.3235  154.7596 H   0  0  0  0  0  0  0  0  0  0  0  0  # atno 10763 bound_to 10752
  153.8268  135.6883  153.4824 H   0  0  0  0  0  0  0  0  0  0  0  0  # atno 10764 bound_to 10752
  153.1697  135.4628  154.9828 H   0  0  0  0  0  0  0  0  0  0  0  0  # atno 10765 bound_to 10752
  140.9540  133.7203  156.1265 H   0  0  0  0  0  0  0  0  0  0  0  0  # atno 11005 bound_to 11000
  144.7881  139.6385  143.7125 LP  0  0  0  0  0  0  0  0  0  0  0  0  # atno 17320 bound_to 7965
  146.2333  139.5855  142.9541 LP  0  0  0  0  0  0  0  0  0  0  0  0  # atno 17321 bound_to 7965
  139.7597  144.7510  151.0382 LP  0  0  0  0  0  0  0  0  0  0  0  0  # atno 17342 bound_to 10162
  140.7802  143.4765  151.0076 LP  0  0  0  0  0  0  0  0  0  0  0  0  # atno 17343 bound_to 10162
  157.7482  131.0041  150.3064 LP  0  0  0  0  0  0  0  0  0  0  0  0  # atno 17370 bound_to 10713
  156.3511  130.3831  149.7328 LP  0  0  0  0  0  0  0  0  0  0  0  0  # atno 17371 bound_to 10713
  140.7562  134.3990  157.5533 LP  0  0  0  0  0  0  0  0  0  0  0  0  # atno 17394 bound_to 11000
  139.8856  134.8932  156.2631 LP  0  0  0  0  0  0  0  0  0  0  0  0  # atno 17395 bound_to 11000

$$$$
