AV-unprocessed.smi:232|AV-procd|sdf|1770|dock9
  -GOLD-   2262020313D 1   1.00000     0.00000
 Structure written by MMmdl.
 52 55  0  0  0  0  0  0  0  0  1 V2000
  152.1078  145.2794  159.2092 C   0  0  0  0  0  0  0  0  0  0  0  0
  151.9948  144.1040  158.2302 C   0  0  0  0  0  0  0  0  0  0  0  0
  152.7785  142.8557  158.6922 C   0  0  1  0  0  0  0  0  0  0  0  0
  153.2579  142.9481  160.1541 C   0  0  0  0  0  0  0  0  0  0  0  0
  152.8405  141.6276  160.8115 C   0  0  0  0  0  0  0  0  0  0  0  0
  152.4826  140.7071  159.6438 C   0  0  2  0  0  0  0  0  0  0  0  0
  153.7016  139.8868  159.1723 C   0  0  0  0  0  0  0  0  0  0  0  0
  151.9840  141.6286  158.6283 N   0  0  0  0  0  0  0  0  0  0  0  0
  151.6105  141.0912  157.4357 C   0  0  0  0  0  0  0  0  0  0  0  0
  152.4817  140.3140  156.7380 N   0  0  0  0  0  0  0  0  0  0  0  0
  152.1186  139.7627  155.5768 C   0  0  0  0  0  0  0  0  0  0  0  0
  150.9504  139.8540  154.9394 N   0  0  0  0  0  0  0  0  0  0  0  0
  150.0713  140.6331  155.6318 C   0  0  0  0  0  0  0  0  0  0  0  0
  150.3159  141.2838  156.8746 C   0  0  0  0  0  0  0  0  0  0  0  0
  149.1851  141.9929  157.2646 N   0  0  0  0  0  0  0  0  0  0  0  0
  148.3196  141.7644  156.3150 C   0  0  0  0  0  0  0  0  0  0  0  0
  148.7690  140.9573  155.2955 N   0  0  0  0  0  0  0  0  0  0  0  0
  148.0191  140.5430  154.1224 C   0  0  0  0  0  0  0  0  0  0  0  0
  147.8524  139.0103  154.0364 C   0  0  2  0  0  0  0  0  0  0  0  0
  149.0298  138.4653  153.4715 O   0  0  0  0  0  0  0  0  0  0  0  0
  146.6645  138.5820  153.1517 C   0  0  2  0  0  0  0  0  0  0  0  0
  146.2907  137.1022  153.2502 C   0  0  0  0  0  0  0  0  0  0  0  0
  145.5734  136.8318  151.9390 C   0  0  0  0  0  0  0  0  0  0  0  0
  146.0554  137.9578  151.0208 C   0  0  0  0  0  0  0  0  0  0  0  0
  147.0199  138.6748  151.7801 O   0  0  0  0  0  0  0  0  0  0  0  0
  151.5608  146.1463  158.8378 H   0  0  0  0  0  0  0  0  0  0  0  0
  153.1479  145.5769  159.3447 H   0  0  0  0  0  0  0  0  0  0  0  0
  151.7005  145.0272  160.1882 H   0  0  0  0  0  0  0  0  0  0  0  0
  150.9449  143.8476  158.0846 H   0  0  0  0  0  0  0  0  0  0  0  0
  152.3566  144.4409  157.2591 H   0  0  0  0  0  0  0  0  0  0  0  0
  153.6536  142.7278  158.0533 H   0  0  0  0  0  0  0  0  0  0  0  0
  154.3407  143.0742  160.1845 H   0  0  0  0  0  0  0  0  0  0  0  0
  152.8165  143.7901  160.6888 H   0  0  0  0  0  0  0  0  0  0  0  0
  153.6101  141.2169  161.4658 H   0  0  0  0  0  0  0  0  0  0  0  0
  151.9516  141.7964  161.4210 H   0  0  0  0  0  0  0  0  0  0  0  0
  151.6947  140.0250  159.9620 H   0  0  0  0  0  0  0  0  0  0  0  0
  154.0767  139.2544  159.9770 H   0  0  0  0  0  0  0  0  0  0  0  0
  154.5212  140.5281  158.8471 H   0  0  0  0  0  0  0  0  0  0  0  0
  153.4435  139.2297  158.3413 H   0  0  0  0  0  0  0  0  0  0  0  0
  152.8712  139.1603  155.0901 H   0  0  0  0  0  0  0  0  0  0  0  0
  147.3225  142.1794  156.3326 H   0  0  0  0  0  0  0  0  0  0  0  0
  147.0464  141.0338  154.1609 H   0  0  0  0  0  0  0  0  0  0  0  0
  148.5223  140.9220  153.2317 H   0  0  0  0  0  0  0  0  0  0  0  0
  147.7273  138.6060  155.0419 H   0  0  0  0  0  0  0  0  0  0  0  0
  149.2358  138.9459  152.6846 H   0  0  0  0  0  0  0  0  0  0  0  0
  145.7840  139.1973  153.3492 H   0  0  0  0  0  0  0  0  0  0  0  0
  147.1924  136.4905  153.3046 H   0  0  0  0  0  0  0  0  0  0  0  0
  145.6753  136.8754  154.1213 H   0  0  0  0  0  0  0  0  0  0  0  0
  145.8190  135.8446  151.5461 H   0  0  0  0  0  0  0  0  0  0  0  0
  144.4916  136.8851  152.0667 H   0  0  0  0  0  0  0  0  0  0  0  0
  146.4946  137.5834  150.0960 H   0  0  0  0  0  0  0  0  0  0  0  0
  145.2304  138.6229  150.7616 H   0  0  0  0  0  0  0  0  0  0  0  0
  1  2  1  0  0  0  0
  1 26  1  0  0  0  0
  1 27  1  0  0  0  0
  1 28  1  0  0  0  0
  2  3  1  0  0  0  0
  2 29  1  0  0  0  0
  2 30  1  0  0  0  0
  3  8  1  0  0  0  0
  3  4  1  0  0  0  0
  3 31  1  0  0  0  0
  4  5  1  0  0  0  0
  4 32  1  0  0  0  0
  4 33  1  0  0  0  0
  5  6  1  0  0  0  0
  5 34  1  0  0  0  0
  5 35  1  0  0  0  0
  6  7  1  0  0  0  0
  6  8  1  0  0  0  0
  6 36  1  0  0  0  0
  7 37  1  0  0  0  0
  7 38  1  0  0  0  0
  7 39  1  0  0  0  0
  8  9  1  0  0  0  0
  9 14  1  0  0  0  0
  9 10  2  0  0  0  0
 10 11  1  0  0  0  0
 11 12  2  0  0  0  0
 11 40  1  0  0  0  0
 12 13  1  0  0  0  0
 13 17  1  0  0  0  0
 13 14  2  0  0  0  0
 14 15  1  0  0  0  0
 15 16  2  0  0  0  0
 16 17  1  0  0  0  0
 16 41  1  0  0  0  0
 17 18  1  0  0  0  0
 18 19  1  0  0  0  0
 18 42  1  0  0  0  0
 18 43  1  0  0  0  0
 19 20  1  0  0  0  0
 19 21  1  0  0  0  0
 19 44  1  0  0  0  0
 20 45  1  0  0  0  0
 21 25  1  0  0  0  0
 21 22  1  0  0  0  0
 21 46  1  0  0  0  0
 22 23  1  0  0  0  0
 22 47  1  0  0  0  0
 22 48  1  0  0  0  0
 23 24  1  0  0  0  0
 23 49  1  0  0  0  0
 23 50  1  0  0  0  0
 24 25  1  0  0  0  0
 24 51  1  0  0  0  0
 24 52  1  0  0  0  0
M  END
> <s_m_source_file>
AV-unprocessed.smi

> <i_m_source_file_index>
232

> <i_lp_mmshare_version>
43012

> <i_f3d_flags>
0

> <s_epik_input>
W0NIM11bQ0gyXVtDQEBIXTFbQ0gyXVtDSDJdW0NAQEhdKFtDSDNdKU4xYyhuW2NIXW4yKWMoYzIzKW5bY0hdbjNbQ0gyXVtDQEhdKFtPSF0pW0NAQEhdNFtDSDJdW0NIMl1bQ0gyXU80

> <s_epik_cmdline>
J2VwaWtfcHl0aG9uJywgJy1waCcsICc3LjAnLCAnLXRuJywgJzgnLCAnLW1hJywgJzIwMCcsICctbWV0YWxfYmluZGluZycsICctaW1hZScsICc8aW5maWxlLm1hZT4nLCAnLW9tYWUnLCAnPG91dGZpbGUubWFlPic=

> <r_lp_tautomer_probability>
1

> <r_epik_Ionization_Penalty>
0.00258048

> <r_epik_Ionization_Penalty_Charging>
0

> <r_epik_Ionization_Penalty_Neutral>
0.00258048

> <r_epik_State_Penalty>
0.00168551

> <r_epik_Charging_Adjusted_Penalty>
0.00168551

> <i_epik_Tot_Q>
0

> <i_epik_Tot_abs_Q>
0

> <r_epik_Metal_State_Penalty>
-0

> <b_epik_Metal_Only>
0

> <s_lp_Force_Field>
OPLS_2005

> <r_lp_Energy>
53.6071

> <b_lp_Chiralities_Consistent>
1

> <s_lp_Variant>
AV-unprocessed.smi:232-4

> <Gold.Version>
5.8.1

> <Gold.Id.Protein>
6NUR|6NUR_protein|mol2

> <Gold.PLP.Fitness>
50.5319

> <Gold.PLP.PLP>
-44.8551

> <Gold.PLP.part.hbond>
-4.1640

> <Gold.PLP.part.metal>
0.0000

> <Gold.PLP.part.buried>
1.8075

> <Gold.PLP.part.nonpolar>
-43.3585

> <Gold.PLP.part.repulsive>
2.0838

> <Gold.PLP.ligand.clash>
0.0000

> <Gold.PLP.ligand.torsion>
1.4633

> <Gold.PLP.Chemscore.Hbond>
2.7600

> <Gold.PLP.Chemscore.CHOScore>
0.0000

> <Gold.PLP.Chemscore.Metal>
0.0000

> <Gold.Chemscore.Hbonds>
donor molecule, donor type, donor heavy atom, donor atom, acceptor molecule, acceptor atom, score
      L1  H    20    45       P1  7957  1.00
      P1  H  7989  7998       L1    12  0.75
      P1  H  7997  8010       L1    10  0.94

> <Gold.PLP.Chemscore.Internal.Correction>
0.3233

> <Gold.Rescore>
     Score         DG    S(hbond)    S(metal)    S(lipo)     H(rot)  DE(clash)    DE(int)     intcor
     13.29     -18.29       1.73        0.00     113.25       2.43       2.02       2.98       ----

> <Gold.Chemscore.Fitness>
13.2868

> <Gold.Chemscore.DG>
-18.2927

> <Gold.Chemscore.ZeroCoef>
-5.4800

> <Gold.Chemscore.Hbond>
1.7285

> <Gold.Chemscore.Metal>
0.0000

> <Gold.Chemscore.Lipo>
113.2500

> <Gold.Chemscore.Internal_Hbond>
0.0000

> <Gold.Chemscore.DEClash>
2.0235

> <Gold.Chemscore.DEInternal>
2.9824

> <Gold.Chemscore.Rot>
2.4260

> <Gold.Chemscore.Internal.Correction>
   9.000000E+99

> <Gold.Chemscore.Hbonds>
donor molecule, donor type, donor heavy atom, donor atom, acceptor molecule, acceptor atom, score
      L1  H    20    45       P1  7957  0.98
      P1  H  7989  7998       L1    12  0.06
      P1  H  7997  8010       L1    10  0.23

> <Gold.Chemscore.Hbond.Weighted>
-5.7732

> <Gold.Chemscore.Metal.Weighted>
-0.0000

> <Gold.Chemscore.Lipo.Weighted>
-13.2502

> <Gold.Chemscore.Internal_Hbond.Weighted>
0.0000

> <Gold.Chemscore.DEClash.Weighted>
2.0235

> <Gold.Chemscore.DEInternal.Weighted>
2.9824

> <Gold.Chemscore.Rot.Weighted>
6.2107

> <Gold.Chemscore.Internal.Correction.Weighted>
   9.000000E+99

> <Gold.Protein.RotatedTorsions>
[ 6907 6896 6895 6894 ] final   27.61 input  -60.11 | X-H torsion
[ 7974 7965 7964 7962 ] final  -63.56 input  175.53 | X-H torsion
[ 8008 7997 7996 7995 ] final   59.54 input   59.86 | X-H torsion
[ 10167 10162 10161 10158 ] final -136.83 input  -65.29 | X-H torsion
[ 10718 10713 10712 10709 ] final -117.14 input   66.30 | X-H torsion
[ 10763 10752 10751 10750 ] final -178.77 input  -60.55 | X-H torsion
[ 11005 11000 10999 10996 ] final   69.16 input  -57.11 | X-H torsion

> <Gold.Protein.ActiveResidues>
 VAL166  LYS551  ARG553  GLY616  TRP617  ASP618  TYR619  PRO620  LYS621  CYS622 
 ASP623  PHE694  ASN695  SER759  ASP760  ASP761  ALA762  ILE779  LEU786  VAL792 
 PHE793  MET794  SER795  GLU796  ALA797  LYS798  CYS799  TRP800  GLU811  SER814 

> <Gold.Protein.RotatedAtoms>
  152.0048  134.9909  160.0566 H   0  0  0  0  0  0  0  0  0  0  0  0  # atno 6907 bound_to 6896
  152.1485  133.4503  159.4810 H   0  0  0  0  0  0  0  0  0  0  0  0  # atno 6908 bound_to 6896
  150.6873  134.2136  159.4412 H   0  0  0  0  0  0  0  0  0  0  0  0  # atno 6909 bound_to 6896
  145.7776  140.8779  143.0347 H   0  0  0  0  0  0  0  0  0  0  0  0  # atno 7974 bound_to 7965
  155.5678  140.3489  155.4507 H   0  0  0  0  0  0  0  0  0  0  0  0  # atno 8008 bound_to 7997
  156.0467  140.1308  157.0122 H   0  0  0  0  0  0  0  0  0  0  0  0  # atno 8009 bound_to 7997
  154.4415  140.1013  156.6301 H   0  0  0  0  0  0  0  0  0  0  0  0  # atno 8010 bound_to 7997
  139.8638  143.7043  152.2647 H   0  0  0  0  0  0  0  0  0  0  0  0  # atno 10167 bound_to 10162
  156.1013  130.6174  150.9126 H   0  0  0  0  0  0  0  0  0  0  0  0  # atno 10718 bound_to 10713
  154.5435  135.2808  155.1074 H   0  0  0  0  0  0  0  0  0  0  0  0  # atno 10763 bound_to 10752
  154.2547  135.6333  153.5256 H   0  0  0  0  0  0  0  0  0  0  0  0  # atno 10764 bound_to 10752
  152.9985  135.5591  154.5981 H   0  0  0  0  0  0  0  0  0  0  0  0  # atno 10765 bound_to 10752
  139.9670  134.6965  156.0526 H   0  0  0  0  0  0  0  0  0  0  0  0  # atno 11005 bound_to 11000
  144.6802  139.9943  143.7484 LP  0  0  0  0  0  0  0  0  0  0  0  0  # atno 17320 bound_to 7965
  146.0107  139.3167  143.0872 LP  0  0  0  0  0  0  0  0  0  0  0  0  # atno 17321 bound_to 7965
  139.7348  144.7574  151.0744 LP  0  0  0  0  0  0  0  0  0  0  0  0  # atno 17342 bound_to 10162
  140.7771  143.5043  150.9731 LP  0  0  0  0  0  0  0  0  0  0  0  0  # atno 17343 bound_to 10162
  157.6183  131.0931  150.8669 LP  0  0  0  0  0  0  0  0  0  0  0  0  # atno 17370 bound_to 10713
  156.8797  130.5175  149.5291 LP  0  0  0  0  0  0  0  0  0  0  0  0  # atno 17371 bound_to 10713
  141.1349  133.6577  156.3567 LP  0  0  0  0  0  0  0  0  0  0  0  0  # atno 17394 bound_to 11000
  140.5376  134.6152  157.5370 LP  0  0  0  0  0  0  0  0  0  0  0  0  # atno 17395 bound_to 11000

$$$$
