AV-unprocessed.smi:370|AV-procd|sdf|2438|dock4
  -GOLD-   2262022373D 1   1.00000     0.00000
 Structure written by MMmdl.
 41 42  0  0  0  0  0  0  0  0  2 V2000
  145.6875  133.3569  162.3476 C   0  0  0  0  0  0  0  0  0  0  0  0
  146.1528  134.6765  161.8343 C   0  0  0  0  0  0  0  0  0  0  0  0
  147.2956  135.0742  161.2005 C   0  0  0  0  0  0  0  0  0  0  0  0
  147.0806  136.4627  160.9832 C   0  0  0  0  0  0  0  0  0  0  0  0
  147.9347  137.3109  160.3901 N   0  5  0  0  0  0  0  0  0  0  0  0
  148.8270  136.8521  159.4820 C   0  0  0  0  0  0  0  0  0  0  0  0
  149.3070  135.7170  159.4372 O   0  0  0  0  0  0  0  0  0  0  0  0
  149.1868  137.7624  158.5679 N   0  0  0  0  0  0  0  0  0  0  0  0
  150.1291  137.5320  157.4762 C   0  0  0  0  0  0  0  0  0  0  0  0
  150.9682  138.7976  157.1389 C   0  0  0  0  0  0  0  0  0  0  0  0
  151.4673  139.3843  158.4815 C   0  0  0  0  0  0  0  0  0  0  0  0
  152.2134  138.2990  156.3619 C   0  0  0  0  0  0  0  0  0  0  0  0
  150.1905  139.7769  156.3287 N   0  0  0  0  0  0  0  0  0  0  0  0
  149.6921  139.2630  155.0479 C   0  0  0  0  0  0  0  0  0  0  0  0
  148.7985  140.2837  154.3231 C   0  0  0  0  0  0  0  0  0  0  0  0
  149.5146  141.4976  154.1308 O   0  0  0  0  0  0  0  0  0  0  0  0
  149.9609  142.0619  155.3577 C   0  0  0  0  0  0  0  0  0  0  0  0
  150.8663  141.0577  156.0907 C   0  0  0  0  0  0  0  0  0  0  0  0
  145.9184  136.8750  161.4616 N   0  0  0  0  0  0  0  0  0  0  0  0
  145.3139  135.7340  162.0023 O   0  0  0  0  0  0  0  0  0  0  0  0
  146.3969  132.9525  163.0695 H   0  0  0  0  0  0  0  0  0  0  0  0
  145.5885  132.6404  161.5320 H   0  0  0  0  0  0  0  0  0  0  0  0
  144.7183  133.4447  162.8392 H   0  0  0  0  0  0  0  0  0  0  0  0
  148.1473  134.4686  160.9289 H   0  0  0  0  0  0  0  0  0  0  0  0
  148.7788  138.6835  158.6343 H   0  0  0  0  0  0  0  0  0  0  0  0
  150.7720  136.6873  157.7259 H   0  0  0  0  0  0  0  0  0  0  0  0
  149.5643  137.2116  156.5988 H   0  0  0  0  0  0  0  0  0  0  0  0
  152.0337  138.6420  159.0453 H   0  0  0  0  0  0  0  0  0  0  0  0
  150.6451  139.7034  159.1215 H   0  0  0  0  0  0  0  0  0  0  0  0
  152.1283  140.2390  158.3389 H   0  0  0  0  0  0  0  0  0  0  0  0
  152.6917  137.4601  156.8688 H   0  0  0  0  0  0  0  0  0  0  0  0
  152.9774  139.0699  156.2651 H   0  0  0  0  0  0  0  0  0  0  0  0
  151.9533  137.9645  155.3568 H   0  0  0  0  0  0  0  0  0  0  0  0
  150.5255  139.0021  154.3958 H   0  0  0  0  0  0  0  0  0  0  0  0
  149.1073  138.3566  155.1938 H   0  0  0  0  0  0  0  0  0  0  0  0
  148.4898  139.8947  153.3527 H   0  0  0  0  0  0  0  0  0  0  0  0
  147.8894  140.4753  154.8952 H   0  0  0  0  0  0  0  0  0  0  0  0
  150.5069  142.9820  155.1491 H   0  0  0  0  0  0  0  0  0  0  0  0
  149.1037  142.3317  155.9767 H   0  0  0  0  0  0  0  0  0  0  0  0
  151.1732  141.5160  157.0289 H   0  0  0  0  0  0  0  0  0  0  0  0
  151.7703  140.9038  155.5016 H   0  0  0  0  0  0  0  0  0  0  0  0
  1  2  1  0  0  0  0
  1 21  1  0  0  0  0
  1 22  1  0  0  0  0
  1 23  1  0  0  0  0
  2 20  1  0  0  0  0
  2  3  2  0  0  0  0
  3  4  1  0  0  0  0
  3 24  1  0  0  0  0
  4  5  1  0  0  0  0
  4 19  2  0  0  0  0
  5  6  1  0  0  0  0
  6  7  2  0  0  0  0
  6  8  1  0  0  0  0
  8  9  1  0  0  0  0
  8 25  1  0  0  0  0
  9 10  1  0  0  0  0
  9 26  1  0  0  0  0
  9 27  1  0  0  0  0
 10 11  1  0  0  0  0
 10 12  1  0  0  0  0
 10 13  1  0  0  0  0
 11 28  1  0  0  0  0
 11 29  1  0  0  0  0
 11 30  1  0  0  0  0
 12 31  1  0  0  0  0
 12 32  1  0  0  0  0
 12 33  1  0  0  0  0
 13 18  1  0  0  0  0
 13 14  1  0  0  0  0
 14 15  1  0  0  0  0
 14 34  1  0  0  0  0
 14 35  1  0  0  0  0
 15 16  1  0  0  0  0
 15 36  1  0  0  0  0
 15 37  1  0  0  0  0
 16 17  1  0  0  0  0
 17 18  1  0  0  0  0
 17 38  1  0  0  0  0
 17 39  1  0  0  0  0
 18 40  1  0  0  0  0
 18 41  1  0  0  0  0
 19 20  1  0  0  0  0
M  CHG  1   5  -1
M  END
> <s_m_source_file>
AV-unprocessed.smi

> <i_m_source_file_index>
370

> <i_lp_mmshare_version>
43012

> <i_f3d_flags>
0

> <s_epik_input>
W0NIM11jMVtjSF1jKG5vMSlbTkhdQyg9TylbTkhdW0NIMl1DKFtDSDNdKShbQ0gzXSlOMltDSDJdW0NIMl1PW0NIMl1bQ0gyXTI=

> <s_epik_cmdline>
J2VwaWtfcHl0aG9uJywgJy1waCcsICc3LjAnLCAnLXRuJywgJzgnLCAnLW1hJywgJzIwMCcsICctbWV0YWxfYmluZGluZycsICctaW1hZScsICc8aW5maWxlLm1hZT4nLCAnLW9tYWUnLCAnPG91dGZpbGUubWFlPic=

> <r_epik_Ionization_Penalty>
6.88367

> <r_epik_Ionization_Penalty_Charging>
6.57198

> <r_epik_Ionization_Penalty_Neutral>
0.311685

> <r_epik_State_Penalty>
6.77619

> <r_epik_Charging_Adjusted_Penalty>
13.3482

> <i_epik_Tot_Q>
-1

> <i_epik_Tot_abs_Q>
1

> <r_epik_Metal_State_Penalty>
2.70533

> <b_epik_Metal_Only>
1

> <s_lp_Force_Field>
OPLS_2005

> <r_lp_Energy>
34.5841

> <b_lp_Chiralities_Consistent>
1

> <s_lp_Variant>
AV-unprocessed.smi:370-3

> <Gold.Version>
5.8.1

> <Gold.Id.Protein>
6NUR|6NUR_protein|mol2

> <Gold.PLP.Fitness>
39.3199

> <Gold.PLP.PLP>
-27.0437

> <Gold.PLP.part.hbond>
-5.0000

> <Gold.PLP.part.metal>
0.0000

> <Gold.PLP.part.buried>
-0.9592

> <Gold.PLP.part.nonpolar>
-21.1942

> <Gold.PLP.part.repulsive>
0.3504

> <Gold.PLP.ligand.clash>
0.0000

> <Gold.PLP.ligand.torsion>
0.7404

> <Gold.PLP.Chemscore.Hbond>
4.5549

> <Gold.PLP.Chemscore.CHOScore>
0.0000

> <Gold.PLP.Chemscore.Metal>
0.0000

> <Gold.Chemscore.Hbonds>
donor molecule, donor type, donor heavy atom, donor atom, acceptor molecule, acceptor atom, score
      P1  H  6896  6909       L1     7  1.00
      P1  H  6931  6943       L1     5  1.16
      P1  H  6934  6947       L1     5  1.54
      P1  H  7989  7998       L1    16  0.08
      P1  H  8011  8017       L1    16  0.63

> <Gold.PLP.Chemscore.Internal.Correction>
0.0922

> <Gold.Rescore>
     Score         DG    S(hbond)    S(metal)    S(lipo)     H(rot)  DE(clash)    DE(int)     intcor
     14.25     -17.16       2.38        0.00      65.39       1.53       0.56       2.34       ----

> <Gold.Chemscore.Fitness>
14.2549

> <Gold.Chemscore.DG>
-17.1604

> <Gold.Chemscore.ZeroCoef>
-5.4800

> <Gold.Chemscore.Hbond>
2.3770

> <Gold.Chemscore.Metal>
0.0000

> <Gold.Chemscore.Lipo>
65.3857

> <Gold.Chemscore.Internal_Hbond>
0.0000

> <Gold.Chemscore.DEClash>
0.5649

> <Gold.Chemscore.DEInternal>
2.3406

> <Gold.Chemscore.Rot>
1.5269

> <Gold.Chemscore.Internal.Correction>
   9.000000E+99

> <Gold.Chemscore.Hbonds>
donor molecule, donor type, donor heavy atom, donor atom, acceptor molecule, acceptor atom, score
      P1  H  6896  6909       L1     7  0.96
      P1  H  6931  6943       L1     5  0.22
      P1  H  6934  6947       L1     5  0.26
      P1  H  8011  8017       L1    16  0.58

> <Gold.Chemscore.Hbond.Weighted>
-7.9393

> <Gold.Chemscore.Metal.Weighted>
-0.0000

> <Gold.Chemscore.Lipo.Weighted>
-7.6501

> <Gold.Chemscore.Internal_Hbond.Weighted>
0.0000

> <Gold.Chemscore.DEClash.Weighted>
0.5649

> <Gold.Chemscore.DEInternal.Weighted>
2.3406

> <Gold.Chemscore.Rot.Weighted>
3.9090

> <Gold.Chemscore.Internal.Correction.Weighted>
   9.000000E+99

> <Gold.Protein.RotatedTorsions>
[ 6907 6896 6895 6894 ] final   43.90 input  -60.11 | X-H torsion
[ 7974 7965 7964 7962 ] final   21.68 input  175.53 | X-H torsion
[ 8008 7997 7996 7995 ] final -146.95 input   59.86 | X-H torsion
[ 10167 10162 10161 10158 ] final  -48.02 input  -65.29 | X-H torsion
[ 10718 10713 10712 10709 ] final  -60.53 input   66.30 | X-H torsion
[ 10763 10752 10751 10750 ] final -147.65 input  -60.55 | X-H torsion
[ 11005 11000 10999 10996 ] final  -84.63 input  -57.11 | X-H torsion

> <Gold.Protein.ActiveResidues>
 VAL166  LYS551  ARG553  GLY616  TRP617  ASP618  TYR619  PRO620  LYS621  CYS622 
 ASP623  PHE694  ASN695  SER759  ASP760  ASP761  ALA762  ILE779  LEU786  VAL792 
 PHE793  MET794  SER795  GLU796  ALA797  LYS798  CYS799  TRP800  GLU811  SER814 

> <Gold.Protein.RotatedAtoms>
  152.2260  134.8368  160.0479 H   0  0  0  0  0  0  0  0  0  0  0  0  # atno 6907 bound_to 6896
  151.9134  133.3562  159.3880 H   0  0  0  0  0  0  0  0  0  0  0  0  # atno 6908 bound_to 6896
  150.7012  134.4634  159.5435 H   0  0  0  0  0  0  0  0  0  0  0  0  # atno 6909 bound_to 6896
  146.2061  139.7993  142.8725 H   0  0  0  0  0  0  0  0  0  0  0  0  # atno 7974 bound_to 7965
  155.5676  140.0631  157.2814 H   0  0  0  0  0  0  0  0  0  0  0  0  # atno 8008 bound_to 7997
  154.4371  140.1874  156.0892 H   0  0  0  0  0  0  0  0  0  0  0  0  # atno 8009 bound_to 7997
  156.0400  140.3296  155.7237 H   0  0  0  0  0  0  0  0  0  0  0  0  # atno 8010 bound_to 7997
  140.6749  143.2758  151.4010 H   0  0  0  0  0  0  0  0  0  0  0  0  # atno 10167 bound_to 10162
  156.0984  130.4189  150.0867 H   0  0  0  0  0  0  0  0  0  0  0  0  # atno 10718 bound_to 10713
  154.8274  135.3354  154.6852 H   0  0  0  0  0  0  0  0  0  0  0  0  # atno 10763 bound_to 10752
  153.7476  135.6941  153.4957 H   0  0  0  0  0  0  0  0  0  0  0  0  # atno 10764 bound_to 10752
  153.2199  135.4452  155.0428 H   0  0  0  0  0  0  0  0  0  0  0  0  # atno 10765 bound_to 10752
  141.1649  133.7356  156.8896 H   0  0  0  0  0  0  0  0  0  0  0  0  # atno 11005 bound_to 11000
  145.3313  141.0267  143.3444 LP  0  0  0  0  0  0  0  0  0  0  0  0  # atno 17320 bound_to 7965
  144.8797  139.4922  143.6729 LP  0  0  0  0  0  0  0  0  0  0  0  0  # atno 17321 bound_to 7965
  139.6037  144.1242  152.2226 LP  0  0  0  0  0  0  0  0  0  0  0  0  # atno 17342 bound_to 10162
  140.0634  144.5838  150.7245 LP  0  0  0  0  0  0  0  0  0  0  0  0  # atno 17343 bound_to 10162
  156.8861  130.9573  151.3594 LP  0  0  0  0  0  0  0  0  0  0  0  0  # atno 17370 bound_to 10713
  157.6149  130.8611  149.9012 LP  0  0  0  0  0  0  0  0  0  0  0  0  # atno 17371 bound_to 10713
  140.1657  134.9134  157.2771 LP  0  0  0  0  0  0  0  0  0  0  0  0  # atno 17394 bound_to 11000
  140.2559  134.3628  155.7424 LP  0  0  0  0  0  0  0  0  0  0  0  0  # atno 17395 bound_to 11000

$$$$
