AV-unprocessed.smi:1867|AV-procd|sdf|7576|dock4
  -GOLD-   22720 9283D 1   1.00000     0.00000
 Structure written by MMmdl.
 52 55  0  0  0  0  0  0  0  0  4 V2000
  152.1464  136.4634  158.1411 O   0  0  0  0  0  0  0  0  0  0  0  0
  151.6825  136.6971  157.0266 C   0  0  0  0  0  0  0  0  0  0  0  0
  151.5576  137.9864  156.6249 N   0  0  0  0  0  0  0  0  0  0  0  0
  151.7959  139.1817  157.3543 C   0  0  0  0  0  0  0  0  0  0  0  0
  151.5434  140.4092  156.7078 C   0  0  0  0  0  0  0  0  0  0  0  0
  151.7390  141.6199  157.4030 C   0  0  0  0  0  0  0  0  0  0  0  0
  152.1790  141.5922  158.7473 C   0  0  0  0  0  0  0  0  0  0  0  0
  152.3875  142.7601  159.5047 N   0  0  0  0  0  0  0  0  0  0  0  0
  151.8182  144.0375  159.1065 C   0  0  0  0  0  0  0  0  0  0  0  0
  152.1371  144.9792  160.2667 C   0  0  0  0  0  0  0  0  0  0  0  0
  152.1013  144.0548  161.4840 C   0  0  0  0  0  0  0  0  0  0  0  0
  152.5891  142.7045  160.9457 C   0  0  0  0  0  0  0  0  0  0  0  0
  152.3899  140.3899  159.3342 N   0  3  0  0  0  0  0  0  0  0  0  0
  152.2162  139.2077  158.7048 C   0  0  0  0  0  0  0  0  0  0  0  0
  151.3196  135.6835  156.1829 N   0  5  0  0  0  0  0  0  0  0  0  0
  150.6560  134.4104  156.4977 C   0  0  2  0  0  0  0  0  0  0  0  0
  151.6342  133.3934  157.1163 C   0  0  0  0  0  0  0  0  0  0  0  0
  151.2047  132.0201  156.5648 C   0  0  0  0  0  0  0  0  0  0  0  0
  150.0610  132.2919  155.6725 N   0  3  2  0  0  0  0  0  0  0  0  0
  149.8325  131.3485  154.5560 C   0  0  0  0  0  0  0  0  0  0  0  0
  148.5365  131.7394  153.8169 C   0  0  0  0  0  0  0  0  0  0  0  0
  148.5472  133.2197  153.3822 C   0  0  0  0  0  0  0  0  0  0  0  0
  148.8730  134.1476  154.5695 C   0  0  0  0  0  0  0  0  0  0  0  0
  150.1913  133.6887  155.2273 C   0  0  1  0  0  0  0  0  0  0  0  0
  151.2905  138.1141  155.6599 H   0  0  0  0  0  0  0  0  0  0  0  0
  151.2028  140.4263  155.6827 H   0  0  0  0  0  0  0  0  0  0  0  0
  151.5404  142.5537  156.8985 H   0  0  0  0  0  0  0  0  0  0  0  0
  152.2445  144.3948  158.1685 H   0  0  0  0  0  0  0  0  0  0  0  0
  150.7397  143.9330  158.9804 H   0  0  0  0  0  0  0  0  0  0  0  0
  153.1406  145.3898  160.1456 H   0  0  0  0  0  0  0  0  0  0  0  0
  151.4376  145.8123  160.3422 H   0  0  0  0  0  0  0  0  0  0  0  0
  152.7045  144.4218  162.3147 H   0  0  0  0  0  0  0  0  0  0  0  0
  151.0731  143.9584  161.8351 H   0  0  0  0  0  0  0  0  0  0  0  0
  152.0438  141.8810  161.4082 H   0  0  0  0  0  0  0  0  0  0  0  0
  153.6520  142.5689  161.1477 H   0  0  0  0  0  0  0  0  0  0  0  0
  152.4061  138.3351  159.3119 H   0  0  0  0  0  0  0  0  0  0  0  0
  149.8000  134.5302  157.1645 H   0  0  0  0  0  0  0  0  0  0  0  0
  152.6636  133.5959  156.8151 H   0  0  0  0  0  0  0  0  0  0  0  0
  151.6026  133.4254  158.2059 H   0  0  0  0  0  0  0  0  0  0  0  0
  152.0252  131.5662  156.0060 H   0  0  0  0  0  0  0  0  0  0  0  0
  150.9130  131.3278  157.3555 H   0  0  0  0  0  0  0  0  0  0  0  0
  150.6841  131.3681  153.8739 H   0  0  0  0  0  0  0  0  0  0  0  0
  149.7523  130.3331  154.9453 H   0  0  0  0  0  0  0  0  0  0  0  0
  148.3931  131.0960  152.9483 H   0  0  0  0  0  0  0  0  0  0  0  0
  147.6823  131.5658  154.4723 H   0  0  0  0  0  0  0  0  0  0  0  0
  149.2915  133.3611  152.5976 H   0  0  0  0  0  0  0  0  0  0  0  0
  147.5847  133.4904  152.9473 H   0  0  0  0  0  0  0  0  0  0  0  0
  148.9519  135.1781  154.2182 H   0  0  0  0  0  0  0  0  0  0  0  0
  148.0482  134.1218  155.2845 H   0  0  0  0  0  0  0  0  0  0  0  0
  150.9922  133.7319  154.4847 H   0  0  0  0  0  0  0  0  0  0  0  0
  149.2387  132.2680  156.2583 H   0  0  0  0  0  0  0  0  0  0  0  0
  152.6947  140.3734  160.3074 H   0  0  0  0  0  0  0  0  0  0  0  0
  1  2  2  0  0  0  0
  2  3  1  0  0  0  0
  2 15  1  0  0  0  0
  3  4  1  0  0  0  0
  3 25  1  0  0  0  0
  4 14  1  0  0  0  0
  4  5  2  0  0  0  0
  5  6  1  0  0  0  0
  5 26  1  0  0  0  0
  6  7  2  0  0  0  0
  6 27  1  0  0  0  0
  7  8  1  0  0  0  0
  7 13  1  0  0  0  0
  8 12  1  0  0  0  0
  8  9  1  0  0  0  0
  9 10  1  0  0  0  0
  9 28  1  0  0  0  0
  9 29  1  0  0  0  0
 10 11  1  0  0  0  0
 10 30  1  0  0  0  0
 10 31  1  0  0  0  0
 11 12  1  0  0  0  0
 11 32  1  0  0  0  0
 11 33  1  0  0  0  0
 12 34  1  0  0  0  0
 12 35  1  0  0  0  0
 13 14  2  0  0  0  0
 13 52  1  0  0  0  0
 14 36  1  0  0  0  0
 15 16  1  0  0  0  0
 16 24  1  0  0  0  0
 16 17  1  0  0  0  0
 16 37  1  0  0  0  0
 17 18  1  0  0  0  0
 17 38  1  0  0  0  0
 17 39  1  0  0  0  0
 18 19  1  0  0  0  0
 18 40  1  0  0  0  0
 18 41  1  0  0  0  0
 19 24  1  0  0  0  0
 19 20  1  0  0  0  0
 19 51  1  0  0  0  0
 20 21  1  0  0  0  0
 20 42  1  0  0  0  0
 20 43  1  0  0  0  0
 21 22  1  0  0  0  0
 21 44  1  0  0  0  0
 21 45  1  0  0  0  0
 22 23  1  0  0  0  0
 22 46  1  0  0  0  0
 22 47  1  0  0  0  0
 23 24  1  0  0  0  0
 23 48  1  0  0  0  0
 23 49  1  0  0  0  0
 24 50  1  0  0  0  0
M  CHG  1  13   1
M  CHG  1  15  -1
M  CHG  1  19   1
M  END
> <s_m_source_file>
AV-unprocessed.smi

> <i_m_source_file_index>
1867

> <i_lp_mmshare_version>
43012

> <i_f3d_flags>
0

> <s_epik_input>
W0NIMl0xW0NIMl1bQ0gyXVtDSDJdW0NASF0oTjEyKVtDQEBIXShbQ0gyXVtDSDJdMilbTkhdQyg9TylbTkhdYzNbY0hdW2NIXWMobltjSF0zKU40W0NIMl1bQ0gyXVtDSDJdW0NIMl00

> <s_epik_cmdline>
J2VwaWtfcHl0aG9uJywgJy1waCcsICc3LjAnLCAnLXRuJywgJzgnLCAnLW1hJywgJzIwMCcsICctbWV0YWxfYmluZGluZycsICctaW1hZScsICc8aW5maWxlLm1hZT4nLCAnLW9tYWUnLCAnPG91dGZpbGUubWFlPic=

> <r_lp_tautomer_probability>
0.999994

> <r_epik_Ionization_Penalty>
8.56137

> <r_epik_Ionization_Penalty_Charging>
8.56136

> <r_epik_Ionization_Penalty_Neutral>
3.91889e-06

> <r_epik_State_Penalty>
8.16255

> <r_epik_Charging_Adjusted_Penalty>
16.7239

> <i_epik_Tot_Q>
1

> <i_epik_Tot_abs_Q>
3

> <r_epik_Metal_State_Penalty>
4.14279

> <b_epik_Metal_Only>
1

> <s_lp_Force_Field>
OPLS_2005

> <r_lp_Energy>
66.0689

> <b_lp_Chiralities_Consistent>
1

> <s_lp_Variant>
AV-unprocessed.smi:1867-17

> <Gold.Version>
5.8.1

> <Gold.Id.Protein>
6NUR|6NUR_protein|mol2

> <Gold.PLP.Fitness>
50.3215

> <Gold.PLP.PLP>
-45.2248

> <Gold.PLP.part.hbond>
-1.5479

> <Gold.PLP.part.metal>
0.0000

> <Gold.PLP.part.buried>
-5.4962

> <Gold.PLP.part.nonpolar>
-37.3362

> <Gold.PLP.part.repulsive>
0.2388

> <Gold.PLP.ligand.clash>
0.0000

> <Gold.PLP.ligand.torsion>
0.5650

> <Gold.PLP.Chemscore.Hbond>
2.0000

> <Gold.PLP.Chemscore.CHOScore>
0.0000

> <Gold.PLP.Chemscore.Metal>
0.0000

> <Gold.Chemscore.Hbonds>
donor molecule, donor type, donor heavy atom, donor atom, acceptor molecule, acceptor atom, score
      P1  H  6896  6909       L1     1  0.01
      P1  H 10752 10765       L1    15  1.37

> <Gold.PLP.Chemscore.Internal.Correction>
0.2268

> <Gold.Rescore>
     Score         DG    S(hbond)    S(metal)    S(lipo)     H(rot)  DE(clash)    DE(int)     intcor
     14.39     -16.35       0.00        0.00     114.83       1.00       0.04       1.93       ----

> <Gold.Chemscore.Fitness>
14.3853

> <Gold.Chemscore.DG>
-16.3548

> <Gold.Chemscore.ZeroCoef>
-5.4800

> <Gold.Chemscore.Hbond>
0.0000

> <Gold.Chemscore.Metal>
0.0000

> <Gold.Chemscore.Lipo>
114.8273

> <Gold.Chemscore.Internal_Hbond>
0.0000

> <Gold.Chemscore.DEClash>
0.0358

> <Gold.Chemscore.DEInternal>
1.9337

> <Gold.Chemscore.Rot>
1.0000

> <Gold.Chemscore.Internal.Correction>
   9.000000E+99

> <Gold.Chemscore.Hbonds>
donor molecule, donor type, donor heavy atom, donor atom, acceptor molecule, acceptor atom, score
      P1  H  6896  6909       L1     1  0.02
      P1  H 10752 10765       L1    15  0.15

> <Gold.Chemscore.Hbond.Weighted>
-0.0000

> <Gold.Chemscore.Metal.Weighted>
-0.0000

> <Gold.Chemscore.Lipo.Weighted>
-13.4348

> <Gold.Chemscore.Internal_Hbond.Weighted>
0.0000

> <Gold.Chemscore.DEClash.Weighted>
0.0358

> <Gold.Chemscore.DEInternal.Weighted>
1.9337

> <Gold.Chemscore.Rot.Weighted>
2.5600

> <Gold.Chemscore.Internal.Correction.Weighted>
   9.000000E+99

> <Gold.Protein.RotatedTorsions>
[ 6907 6896 6895 6894 ] final  160.03 input  -60.11 | X-H torsion
[ 7974 7965 7964 7962 ] final   84.32 input  175.53 | X-H torsion
[ 8008 7997 7996 7995 ] final  -12.86 input   59.86 | X-H torsion
[ 10167 10162 10161 10158 ] final  -19.90 input  -65.29 | X-H torsion
[ 10718 10713 10712 10709 ] final  174.98 input   66.30 | X-H torsion
[ 10763 10752 10751 10750 ] final -148.97 input  -60.55 | X-H torsion
[ 11005 11000 10999 10996 ] final   93.74 input  -57.11 | X-H torsion

> <Gold.Protein.ActiveResidues>
 VAL166  LYS551  ARG553  GLY616  TRP617  ASP618  TYR619  PRO620  LYS621  CYS622 
 ASP623  PHE694  ASN695  SER759  ASP760  ASP761  ALA762  ILE779  LEU786  VAL792 
 PHE793  MET794  SER795  GLU796  ALA797  LYS798  CYS799  TRP800  GLU811  SER814 

> <Gold.Protein.RotatedAtoms>
  151.9767  133.3744  159.4091 H   0  0  0  0  0  0  0  0  0  0  0  0  # atno 6907 bound_to 6896
  150.6941  134.4082  159.5159 H   0  0  0  0  0  0  0  0  0  0  0  0  # atno 6908 bound_to 6896
  152.1795  134.8766  160.0578 H   0  0  0  0  0  0  0  0  0  0  0  0  # atno 6909 bound_to 6896
  145.6002  139.2351  143.2250 H   0  0  0  0  0  0  0  0  0  0  0  0  # atno 7974 bound_to 7965
  154.5341  140.2265  155.8753 H   0  0  0  0  0  0  0  0  0  0  0  0  # atno 8008 bound_to 7997
  156.1793  140.3104  155.9082 H   0  0  0  0  0  0  0  0  0  0  0  0  # atno 8009 bound_to 7997
  155.3391  140.0449  157.3035 H   0  0  0  0  0  0  0  0  0  0  0  0  # atno 8010 bound_to 7997
  140.7272  143.4774  151.0164 H   0  0  0  0  0  0  0  0  0  0  0  0  # atno 10167 bound_to 10162
  156.9416  131.0003  151.2967 H   0  0  0  0  0  0  0  0  0  0  0  0  # atno 10718 bound_to 10713
  154.8203  135.3321  154.7056 H   0  0  0  0  0  0  0  0  0  0  0  0  # atno 10763 bound_to 10752
  153.7690  135.6927  153.4914 H   0  0  0  0  0  0  0  0  0  0  0  0  # atno 10764 bound_to 10752
  153.2058  135.4500  155.0269 H   0  0  0  0  0  0  0  0  0  0  0  0  # atno 10765 bound_to 10752
  139.8806  134.8807  156.3762 H   0  0  0  0  0  0  0  0  0  0  0  0  # atno 11005 bound_to 11000
  146.1581  140.6827  142.9290 LP  0  0  0  0  0  0  0  0  0  0  0  0  # atno 17320 bound_to 7965
  144.7313  140.4679  143.6936 LP  0  0  0  0  0  0  0  0  0  0  0  0  # atno 17321 bound_to 7965
  139.8470  143.7488  152.3179 LP  0  0  0  0  0  0  0  0  0  0  0  0  # atno 17342 bound_to 10162
  139.7657  144.7493  151.0298 LP  0  0  0  0  0  0  0  0  0  0  0  0  # atno 17343 bound_to 10162
  157.5781  130.8357  149.8484 LP  0  0  0  0  0  0  0  0  0  0  0  0  # atno 17370 bound_to 10713
  156.0402  130.3741  150.1456 LP  0  0  0  0  0  0  0  0  0  0  0  0  # atno 17371 bound_to 10713
  140.9430  133.7502  156.0171 LP  0  0  0  0  0  0  0  0  0  0  0  0  # atno 17394 bound_to 11000
  140.8197  134.3304  157.5385 LP  0  0  0  0  0  0  0  0  0  0  0  0  # atno 17395 bound_to 11000

$$$$
