AV-unprocessed.smi:3349|AV-procd|sdf|12937|dock9
  -GOLD-   2272019373D 1   1.00000     0.00000
 Structure written by MMmdl.
 41 42  0  0  0  0  0  0  0  0  2 V2000
  146.2510  133.9402  155.0713 C   0  0  0  0  0  0  0  0  0  0  0  0
  147.2107  134.9148  154.3461 C   0  0  2  0  0  0  0  0  0  0  0  0
  147.5525  136.1187  155.2713 C   0  0  0  0  0  0  0  0  0  0  0  0
  148.3917  137.1249  154.6259 N   0  0  0  0  0  0  0  0  0  0  0  0
  148.3488  138.4426  154.8817 C   0  0  0  0  0  0  0  0  0  0  0  0
  147.5760  138.9407  155.7010 O   0  0  0  0  0  0  0  0  0  0  0  0
  149.3262  139.3233  154.0884 C   0  0  1  0  0  0  0  0  0  0  0  0
  149.0802  140.8294  154.3111 C   0  0  0  0  0  0  0  0  0  0  0  0
  150.7014  138.9380  154.3801 N   0  0  0  0  0  0  0  0  0  0  0  0
  151.3042  137.7534  154.2558 C   0  0  0  0  0  0  0  0  0  0  0  0
  152.5660  137.7450  154.6616 N   0  0  0  0  0  0  0  0  0  0  0  0
  152.6849  139.0453  155.0626 C   0  0  0  0  0  0  0  0  0  0  0  0
  151.5948  139.8000  154.9271 N   0  0  0  0  0  0  0  0  0  0  0  0
  146.6507  135.3379  153.0184 N   0  3  0  0  0  0  0  0  0  0  0  0
  146.3650  134.2138  152.0824 C   0  0  0  0  0  0  0  0  0  0  0  0
  145.7854  134.7183  150.7497 C   0  0  0  0  0  0  0  0  0  0  0  0
  144.6152  135.4822  150.9910 O   0  0  0  0  0  0  0  0  0  0  0  0
  144.9058  136.6316  151.7695 C   0  0  0  0  0  0  0  0  0  0  0  0
  145.4423  136.2014  153.1445 C   0  0  0  0  0  0  0  0  0  0  0  0
  146.6091  133.6735  156.0652 H   0  0  0  0  0  0  0  0  0  0  0  0
  146.1432  132.9932  154.5453 H   0  0  0  0  0  0  0  0  0  0  0  0
  145.2590  134.3773  155.1886 H   0  0  0  0  0  0  0  0  0  0  0  0
  148.1407  134.3806  154.1450 H   0  0  0  0  0  0  0  0  0  0  0  0
  146.6554  136.6362  155.6109 H   0  0  0  0  0  0  0  0  0  0  0  0
  148.0706  135.7689  156.1648 H   0  0  0  0  0  0  0  0  0  0  0  0
  149.0558  136.7955  153.9400 H   0  0  0  0  0  0  0  0  0  0  0  0
  149.1579  139.1262  153.0282 H   0  0  0  0  0  0  0  0  0  0  0  0
  148.0616  141.1051  154.0363 H   0  0  0  0  0  0  0  0  0  0  0  0
  149.7557  141.4273  153.6986 H   0  0  0  0  0  0  0  0  0  0  0  0
  149.2317  141.1226  155.3505 H   0  0  0  0  0  0  0  0  0  0  0  0
  150.8084  136.8774  153.8643 H   0  0  0  0  0  0  0  0  0  0  0  0
  153.6001  139.4460  155.4730 H   0  0  0  0  0  0  0  0  0  0  0  0
  147.2742  133.6655  151.8418 H   0  0  0  0  0  0  0  0  0  0  0  0
  145.6721  133.5133  152.5516 H   0  0  0  0  0  0  0  0  0  0  0  0
  146.5201  135.3142  150.2054 H   0  0  0  0  0  0  0  0  0  0  0  0
  145.5276  133.8734  150.1105 H   0  0  0  0  0  0  0  0  0  0  0  0
  145.6228  137.2708  151.2515 H   0  0  0  0  0  0  0  0  0  0  0  0
  143.9921  137.2137  151.8909 H   0  0  0  0  0  0  0  0  0  0  0  0
  144.6663  135.6646  153.6925 H   0  0  0  0  0  0  0  0  0  0  0  0
  145.6627  137.1079  153.7042 H   0  0  0  0  0  0  0  0  0  0  0  0
  147.3621  135.8992  152.5720 H   0  0  0  0  0  0  0  0  0  0  0  0
  1  2  1  0  0  0  0
  1 20  1  0  0  0  0
  1 21  1  0  0  0  0
  1 22  1  0  0  0  0
  2  3  1  0  0  0  0
  2 14  1  0  0  0  0
  2 23  1  0  0  0  0
  3  4  1  0  0  0  0
  3 24  1  0  0  0  0
  3 25  1  0  0  0  0
  4  5  1  0  0  0  0
  4 26  1  0  0  0  0
  5  6  2  0  0  0  0
  5  7  1  0  0  0  0
  7  8  1  0  0  0  0
  7  9  1  0  0  0  0
  7 27  1  0  0  0  0
  8 28  1  0  0  0  0
  8 29  1  0  0  0  0
  8 30  1  0  0  0  0
  9 13  1  0  0  0  0
  9 10  1  0  0  0  0
 10 11  2  0  0  0  0
 10 31  1  0  0  0  0
 11 12  1  0  0  0  0
 12 13  2  0  0  0  0
 12 32  1  0  0  0  0
 14 19  1  0  0  0  0
 14 15  1  0  0  0  0
 14 41  1  0  0  0  0
 15 16  1  0  0  0  0
 15 33  1  0  0  0  0
 15 34  1  0  0  0  0
 16 17  1  0  0  0  0
 16 35  1  0  0  0  0
 16 36  1  0  0  0  0
 17 18  1  0  0  0  0
 18 19  1  0  0  0  0
 18 37  1  0  0  0  0
 18 38  1  0  0  0  0
 19 39  1  0  0  0  0
 19 40  1  0  0  0  0
M  CHG  1  14   1
M  END
> <s_m_source_file>
AV-unprocessed.smi

> <i_m_source_file_index>
3349

> <i_lp_mmshare_version>
43012

> <i_f3d_flags>
0

> <s_epik_input>
W0NIMl0xW0NIMl1PW0NIMl1bQ0gyXU4xW0NASF0oW0NIM10pW0NIMl1bTkhdQyg9TylbQ0BIXShbQ0gzXSluMltjSF1uW2NIXW4y

> <s_epik_cmdline>
J2VwaWtfcHl0aG9uJywgJy1waCcsICc3LjAnLCAnLXRuJywgJzgnLCAnLW1hJywgJzIwMCcsICctbWV0YWxfYmluZGluZycsICctaW1hZScsICc8aW5maWxlLm1hZT4nLCAnLW9tYWUnLCAnPG91dGZpbGUubWFlPic=

> <r_lp_tautomer_probability>
1

> <r_epik_Ionization_Penalty>
0.71326

> <r_epik_Ionization_Penalty_Charging>
0.713252

> <r_epik_Ionization_Penalty_Neutral>
8.10337e-06

> <r_epik_State_Penalty>
0.737017

> <r_epik_Charging_Adjusted_Penalty>
1.45027

> <i_epik_Tot_Q>
1

> <i_epik_Tot_abs_Q>
1

> <r_epik_Metal_State_Penalty>
0.73702

> <b_epik_Metal_Only>
0

> <s_lp_Force_Field>
OPLS_2005

> <r_lp_Energy>
26.6465

> <b_lp_Chiralities_Consistent>
1

> <s_lp_Variant>
AV-unprocessed.smi:3349-7

> <Gold.Version>
5.8.1

> <Gold.Id.Protein>
6NUR|6NUR_protein|mol2

> <Gold.PLP.Fitness>
41.7423

> <Gold.PLP.PLP>
-27.0829

> <Gold.PLP.part.hbond>
-4.0000

> <Gold.PLP.part.metal>
0.0000

> <Gold.PLP.part.buried>
-2.2791

> <Gold.PLP.part.nonpolar>
-21.6549

> <Gold.PLP.part.repulsive>
0.3455

> <Gold.PLP.ligand.clash>
0.0000

> <Gold.PLP.ligand.torsion>
0.3195

> <Gold.PLP.Chemscore.Hbond>
4.1178

> <Gold.PLP.Chemscore.CHOScore>
0.9330

> <Gold.PLP.Chemscore.Metal>
0.0000

> <Gold.Chemscore.Hbonds>
donor molecule, donor type, donor heavy atom, donor atom, acceptor molecule, acceptor atom, score
      L1  H     4    26       P1  7948  0.53
      L1  H    14    41       P1  7948  2.00
      P1  H  7989  7998       L1    13  0.75
      P1  H 10752 10765       L1    11  0.37
      L1  C    10    31       P1  7948  0.18
      L1  C    10    31       P1  7949  0.69

> <Gold.PLP.Chemscore.Internal.Correction>
0.1459

> <Gold.Rescore>
     Score         DG    S(hbond)    S(metal)    S(lipo)     H(rot)  DE(clash)    DE(int)     intcor
      8.59     -11.44       2.55        0.00      35.65       2.63       1.29       1.56       ----

> <Gold.Chemscore.Fitness>
8.5855

> <Gold.Chemscore.DG>
-11.4386

> <Gold.Chemscore.ZeroCoef>
-5.4800

> <Gold.Chemscore.Hbond>
2.5532

> <Gold.Chemscore.Metal>
0.0000

> <Gold.Chemscore.Lipo>
35.6527

> <Gold.Chemscore.Internal_Hbond>
0.0000

> <Gold.Chemscore.DEClash>
1.2887

> <Gold.Chemscore.DEInternal>
1.5644

> <Gold.Chemscore.Rot>
2.6329

> <Gold.Chemscore.Internal.Correction>
   9.000000E+99

> <Gold.Chemscore.Hbonds>
donor molecule, donor type, donor heavy atom, donor atom, acceptor molecule, acceptor atom, score
      L1  H     4    26       P1  7948  0.52
      L1  H    14    41       P1  7948  0.98
      P1  H  7989  7998       L1    13  0.08
      P1  H 10752 10765       L1    11  0.07

> <Gold.Chemscore.Hbond.Weighted>
-8.5275

> <Gold.Chemscore.Metal.Weighted>
-0.0000

> <Gold.Chemscore.Lipo.Weighted>
-4.1714

> <Gold.Chemscore.Internal_Hbond.Weighted>
0.0000

> <Gold.Chemscore.DEClash.Weighted>
1.2887

> <Gold.Chemscore.DEInternal.Weighted>
1.5644

> <Gold.Chemscore.Rot.Weighted>
6.7403

> <Gold.Chemscore.Internal.Correction.Weighted>
   9.000000E+99

> <Gold.Protein.RotatedTorsions>
[ 6907 6896 6895 6894 ] final -137.75 input  -60.11 | X-H torsion
[ 7974 7965 7964 7962 ] final  177.98 input  175.53 | X-H torsion
[ 8008 7997 7996 7995 ] final  133.58 input   59.86 | X-H torsion
[ 10167 10162 10161 10158 ] final   42.72 input  -65.29 | X-H torsion
[ 10718 10713 10712 10709 ] final   10.88 input   66.30 | X-H torsion
[ 10763 10752 10751 10750 ] final  167.48 input  -60.55 | X-H torsion
[ 11005 11000 10999 10996 ] final  129.05 input  -57.11 | X-H torsion

> <Gold.Protein.ActiveResidues>
 VAL166  LYS551  ARG553  GLY616  TRP617  ASP618  TYR619  PRO620  LYS621  CYS622 
 ASP623  PHE694  ASN695  SER759  ASP760  ASP761  ALA762  ILE779  LEU786  VAL792 
 PHE793  MET794  SER795  GLU796  ALA797  LYS798  CYS799  TRP800  GLU811  SER814 

> <Gold.Protein.RotatedAtoms>
  151.0264  133.5830  159.2665 H   0  0  0  0  0  0  0  0  0  0  0  0  # atno 6907 bound_to 6896
  151.2927  135.0746  159.9220 H   0  0  0  0  0  0  0  0  0  0  0  0  # atno 6908 bound_to 6896
  152.5335  133.9959  159.7926 H   0  0  0  0  0  0  0  0  0  0  0  0  # atno 6909 bound_to 6896
  144.7162  140.0328  143.6438 H   0  0  0  0  0  0  0  0  0  0  0  0  # atno 7974 bound_to 7965
  156.2993  140.2518  156.3276 H   0  0  0  0  0  0  0  0  0  0  0  0  # atno 8008 bound_to 7997
  154.9176  140.0401  157.1999 H   0  0  0  0  0  0  0  0  0  0  0  0  # atno 8009 bound_to 7997
  154.8343  140.2880  155.5705 H   0  0  0  0  0  0  0  0  0  0  0  0  # atno 8010 bound_to 7997
  140.3516  144.2343  150.6145 H   0  0  0  0  0  0  0  0  0  0  0  0  # atno 10167 bound_to 10162
  156.9874  130.6029  149.5682 H   0  0  0  0  0  0  0  0  0  0  0  0  # atno 10718 bound_to 10713
  154.3544  135.2753  155.2354 H   0  0  0  0  0  0  0  0  0  0  0  0  # atno 10763 bound_to 10752
  154.4569  135.5917  153.6233 H   0  0  0  0  0  0  0  0  0  0  0  0  # atno 10764 bound_to 10752
  152.9847  135.6055  154.3758 H   0  0  0  0  0  0  0  0  0  0  0  0  # atno 10765 bound_to 10752
  139.9594  134.9606  156.9092 H   0  0  0  0  0  0  0  0  0  0  0  0  # atno 11005 bound_to 11000
  146.0088  139.3152  143.0883 LP  0  0  0  0  0  0  0  0  0  0  0  0  # atno 17320 bound_to 7965
  145.8706  140.9422  143.0652 LP  0  0  0  0  0  0  0  0  0  0  0  0  # atno 17321 bound_to 7965
  140.5213  143.2265  151.8384 LP  0  0  0  0  0  0  0  0  0  0  0  0  # atno 17342 bound_to 10162
  139.4825  144.4833  151.9279 LP  0  0  0  0  0  0  0  0  0  0  0  0  # atno 17343 bound_to 10162
  156.0220  130.5315  150.8303 LP  0  0  0  0  0  0  0  0  0  0  0  0  # atno 17370 bound_to 10713
  157.5483  131.0943  150.9732 LP  0  0  0  0  0  0  0  0  0  0  0  0  # atno 17371 bound_to 10713
  140.5534  134.0605  155.7376 LP  0  0  0  0  0  0  0  0  0  0  0  0  # atno 17394 bound_to 11000
  141.1270  133.9367  157.2615 LP  0  0  0  0  0  0  0  0  0  0  0  0  # atno 17395 bound_to 11000

$$$$
