AV-unprocessed.smi:100|AV-procd|sdf|898|dock9
  -GOLD-   2262017393D 1   1.00000     0.00000
 Structure written by MMmdl.
 31 33  0  0  0  0  0  0  0  0  1 V2000
  149.4184  138.3545  153.3198 N   0  0  0  0  0  0  0  0  0  0  0  0
  150.3841  138.7185  154.1749 C   0  0  0  0  0  0  0  0  0  0  0  0
  151.4812  137.9324  154.2779 N   0  0  0  0  0  0  0  0  0  0  0  0
  152.4581  138.2741  155.1241 C   0  0  0  0  0  0  0  0  0  0  0  0
  152.5288  139.3337  155.9340 N   0  0  0  0  0  0  0  0  0  0  0  0
  151.4214  140.1254  155.8304 C   0  0  0  0  0  0  0  0  0  0  0  0
  150.3101  139.8870  154.9746 C   0  0  0  0  0  0  0  0  0  0  0  0
  149.3706  140.8974  155.1255 N   0  0  0  0  0  0  0  0  0  0  0  0
  149.9002  141.6865  156.0214 C   0  0  0  0  0  0  0  0  0  0  0  0
  151.1333  141.2996  156.4991 N   0  0  0  0  0  0  0  0  0  0  0  0
  151.9712  142.0068  157.5202 C   0  0  1  0  0  0  0  0  0  0  0  0
  151.5252  143.3171  157.6759 O   0  0  0  0  0  0  0  0  0  0  0  0
  151.6560  143.7405  159.0360 C   0  0  1  0  0  0  0  0  0  0  0  0
  150.2687  144.1568  159.5545 C   0  0  0  0  0  0  0  0  0  0  0  0
  149.9112  145.4167  159.0278 O   0  0  0  0  0  0  0  0  0  0  0  0
  152.2312  142.5323  159.7948 C   0  0  2  0  0  0  0  0  0  0  0  0
  153.5547  142.6655  159.9011 F   0  0  0  0  0  0  0  0  0  0  0  0
  151.9262  141.3464  158.9004 C   0  0  1  0  0  0  0  0  0  0  0  0
  150.6796  140.7575  159.2228 O   0  0  0  0  0  0  0  0  0  0  0  0
  148.5902  138.9249  153.2247 H   0  0  0  0  0  0  0  0  0  0  0  0
  149.5190  137.5103  152.7753 H   0  0  0  0  0  0  0  0  0  0  0  0
  153.3043  137.6039  155.1576 H   0  0  0  0  0  0  0  0  0  0  0  0
  149.4017  142.5828  156.3607 H   0  0  0  0  0  0  0  0  0  0  0  0
  152.9777  142.0257  157.0987 H   0  0  0  0  0  0  0  0  0  0  0  0
  152.3465  144.5828  159.1043 H   0  0  0  0  0  0  0  0  0  0  0  0
  149.5083  143.4139  159.3167 H   0  0  0  0  0  0  0  0  0  0  0  0
  150.2872  144.2574  160.6400 H   0  0  0  0  0  0  0  0  0  0  0  0
  149.1315  145.3127  158.5043 H   0  0  0  0  0  0  0  0  0  0  0  0
  151.8487  142.4223  160.8104 H   0  0  0  0  0  0  0  0  0  0  0  0
  152.6920  140.5721  158.9622 H   0  0  0  0  0  0  0  0  0  0  0  0
  150.4931  140.0861  158.5841 H   0  0  0  0  0  0  0  0  0  0  0  0
  1  2  1  0  0  0  0
  1 20  1  0  0  0  0
  1 21  1  0  0  0  0
  2  7  1  0  0  0  0
  2  3  2  0  0  0  0
  3  4  1  0  0  0  0
  4  5  2  0  0  0  0
  4 22  1  0  0  0  0
  5  6  1  0  0  0  0
  6 10  1  0  0  0  0
  6  7  2  0  0  0  0
  7  8  1  0  0  0  0
  8  9  2  0  0  0  0
  9 10  1  0  0  0  0
  9 23  1  0  0  0  0
 10 11  1  0  0  0  0
 11 18  1  0  0  0  0
 11 12  1  0  0  0  0
 11 24  1  0  0  0  0
 12 13  1  0  0  0  0
 13 14  1  0  0  0  0
 13 16  1  0  0  0  0
 13 25  1  0  0  0  0
 14 15  1  0  0  0  0
 14 26  1  0  0  0  0
 14 27  1  0  0  0  0
 15 28  1  0  0  0  0
 16 17  1  0  0  0  0
 16 18  1  0  0  0  0
 16 29  1  0  0  0  0
 18 19  1  0  0  0  0
 18 30  1  0  0  0  0
 19 31  1  0  0  0  0
M  END
> <s_m_source_file>
AV-unprocessed.smi

> <i_m_source_file_index>
100

> <i_lp_mmshare_version>
43012

> <i_f3d_flags>
0

> <s_epik_input>
bjFbY0hdbmMoW05IMl0pYyhjMTIpbltjSF1uMltDQEBIXTNPW0NAQEhdKFtDSDJdW09IXSlbQ0BIXShGKVtDQEhdM1tPSF0=

> <s_epik_cmdline>
J2VwaWtfcHl0aG9uJywgJy1waCcsICc3LjAnLCAnLXRuJywgJzgnLCAnLW1hJywgJzIwMCcsICctbWV0YWxfYmluZGluZycsICctaW1hZScsICc8aW5maWxlLm1hZT4nLCAnLW9tYWUnLCAnPG91dGZpbGUubWFlPic=

> <r_lp_tautomer_probability>
1

> <r_epik_Ionization_Penalty>
0.000750324

> <r_epik_Ionization_Penalty_Charging>
0

> <r_epik_Ionization_Penalty_Neutral>
0.000750324

> <r_epik_State_Penalty>
-0

> <r_epik_Charging_Adjusted_Penalty>
0

> <i_epik_Tot_Q>
0

> <i_epik_Tot_abs_Q>
0

> <r_epik_Metal_State_Penalty>
-0

> <b_epik_Metal_Only>
0

> <s_epik_Chemistry_Notes>
This compound contains an acetal/aminal-like group ( X-CH(R)-Y where X, Y are N, S, or O) that may be acid/base labile, releasing an aldehyde.

> <s_lp_Force_Field>
OPLS_2005

> <r_lp_Energy>
37.0589

> <b_lp_Chiralities_Consistent>
1

> <s_lp_Variant>
AV-unprocessed.smi:100-2

> <Gold.Version>
5.8.1

> <Gold.Id.Protein>
6NUR|6NUR_protein|mol2

> <Gold.PLP.Fitness>
45.7743

> <Gold.PLP.PLP>
-34.8597

> <Gold.PLP.part.hbond>
-5.4247

> <Gold.PLP.part.metal>
0.0000

> <Gold.PLP.part.buried>
-3.3301

> <Gold.PLP.part.nonpolar>
-26.5277

> <Gold.PLP.part.repulsive>
0.4857

> <Gold.PLP.ligand.clash>
0.0000

> <Gold.PLP.ligand.torsion>
0.5321

> <Gold.PLP.Chemscore.Hbond>
2.9920

> <Gold.PLP.Chemscore.CHOScore>
1.0000

> <Gold.PLP.Chemscore.Metal>
0.0000

> <Gold.Chemscore.Hbonds>
donor molecule, donor type, donor heavy atom, donor atom, acceptor molecule, acceptor atom, score
      L1  H     1    21       P1  7948  1.00
      L1  H    15    28       P1  8029  1.00
      P1  H  7997  8009       L1     5  0.96
      L1  C     9    23       P1  8028  1.00

> <Gold.PLP.Chemscore.Internal.Correction>
0.0029

> <Gold.Rescore>
     Score         DG    S(hbond)    S(metal)    S(lipo)     H(rot)  DE(clash)    DE(int)     intcor
      9.76     -11.47       2.66        0.00      45.04       3.19       1.32       0.39       ----

> <Gold.Chemscore.Fitness>
9.7589

> <Gold.Chemscore.DG>
-11.4741

> <Gold.Chemscore.ZeroCoef>
-5.4800

> <Gold.Chemscore.Hbond>
2.6621

> <Gold.Chemscore.Metal>
0.0000

> <Gold.Chemscore.Lipo>
45.0360

> <Gold.Chemscore.Internal_Hbond>
0.0000

> <Gold.Chemscore.DEClash>
1.3220

> <Gold.Chemscore.DEInternal>
0.3933

> <Gold.Chemscore.Rot>
3.1901

> <Gold.Chemscore.Internal.Correction>
   9.000000E+99

> <Gold.Chemscore.Hbonds>
donor molecule, donor type, donor heavy atom, donor atom, acceptor molecule, acceptor atom, score
      L1  H     1    21       P1  7948  0.73
      L1  H    15    28       P1  8029  0.90
      P1  H  7997  8009       L1     5  0.86

> <Gold.Chemscore.Hbond.Weighted>
-8.8916

> <Gold.Chemscore.Metal.Weighted>
-0.0000

> <Gold.Chemscore.Lipo.Weighted>
-5.2692

> <Gold.Chemscore.Internal_Hbond.Weighted>
0.0000

> <Gold.Chemscore.DEClash.Weighted>
1.3220

> <Gold.Chemscore.DEInternal.Weighted>
0.3933

> <Gold.Chemscore.Rot.Weighted>
8.1667

> <Gold.Chemscore.Internal.Correction.Weighted>
   9.000000E+99

> <Gold.Protein.RotatedTorsions>
[ 6907 6896 6895 6894 ] final -123.92 input  -60.11 | X-H torsion
[ 7974 7965 7964 7962 ] final   85.12 input  175.53 | X-H torsion
[ 8008 7997 7996 7995 ] final -172.84 input   59.86 | X-H torsion
[ 10167 10162 10161 10158 ] final   64.26 input  -65.29 | X-H torsion
[ 10718 10713 10712 10709 ] final -176.78 input   66.30 | X-H torsion
[ 10763 10752 10751 10750 ] final  -47.44 input  -60.55 | X-H torsion
[ 11005 11000 10999 10996 ] final  -86.47 input  -57.11 | X-H torsion

> <Gold.Protein.ActiveResidues>
 VAL166  LYS551  ARG553  GLY616  TRP617  ASP618  TYR619  PRO620  LYS621  CYS622 
 ASP623  PHE694  ASN695  SER759  ASP760  ASP761  ALA762  ILE779  LEU786  VAL792 
 PHE793  MET794  SER795  GLU796  ALA797  LYS798  CYS799  TRP800  GLU811  SER814 

> <Gold.Protein.RotatedAtoms>
  150.8718  133.7495  159.2958 H   0  0  0  0  0  0  0  0  0  0  0  0  # atno 6907 bound_to 6896
  151.5105  135.1063  159.9862 H   0  0  0  0  0  0  0  0  0  0  0  0  # atno 6908 bound_to 6896
  152.4700  133.7963  159.6985 H   0  0  0  0  0  0  0  0  0  0  0  0  # atno 6909 bound_to 6896
  145.5898  139.2336  143.2306 H   0  0  0  0  0  0  0  0  0  0  0  0  # atno 7974 bound_to 7965
  155.9497  140.1124  157.0987 H   0  0  0  0  0  0  0  0  0  0  0  0  # atno 8008 bound_to 7997
  154.4107  140.1203  156.5103 H   0  0  0  0  0  0  0  0  0  0  0  0  # atno 8009 bound_to 7997
  155.6857  140.3473  155.4875 H   0  0  0  0  0  0  0  0  0  0  0  0  # atno 8010 bound_to 7997
  140.1241  144.4704  150.6903 H   0  0  0  0  0  0  0  0  0  0  0  0  # atno 10167 bound_to 10162
  156.8197  130.9615  151.3112 H   0  0  0  0  0  0  0  0  0  0  0  0  # atno 10718 bound_to 10713
  154.0614  135.6617  153.4812 H   0  0  0  0  0  0  0  0  0  0  0  0  # atno 10763 bound_to 10752
  153.0425  135.5135  154.7655 H   0  0  0  0  0  0  0  0  0  0  0  0  # atno 10764 bound_to 10752
  154.6693  135.3027  154.9730 H   0  0  0  0  0  0  0  0  0  0  0  0  # atno 10765 bound_to 10752
  141.1629  133.7456  156.9167 H   0  0  0  0  0  0  0  0  0  0  0  0  # atno 11005 bound_to 11000
  146.1655  140.6724  142.9257 LP  0  0  0  0  0  0  0  0  0  0  0  0  # atno 17320 bound_to 7965
  144.7356  140.4800  143.6906 LP  0  0  0  0  0  0  0  0  0  0  0  0  # atno 17321 bound_to 7965
  140.6855  143.2348  151.5272 LP  0  0  0  0  0  0  0  0  0  0  0  0  # atno 17342 bound_to 10162
  139.5553  144.2291  152.1602 LP  0  0  0  0  0  0  0  0  0  0  0  0  # atno 17343 bound_to 10162
  157.6463  130.8847  149.9545 LP  0  0  0  0  0  0  0  0  0  0  0  0  # atno 17370 bound_to 10713
  156.0996  130.3657  150.0243 LP  0  0  0  0  0  0  0  0  0  0  0  0  # atno 17371 bound_to 10713
  140.1480  134.9249  157.2555 LP  0  0  0  0  0  0  0  0  0  0  0  0  # atno 17394 bound_to 11000
  140.2757  134.3408  155.7359 LP  0  0  0  0  0  0  0  0  0  0  0  0  # atno 17395 bound_to 11000

$$$$
