#       Name:                AV-unprocessed.smi:3084
#       Creating user name   scv26
#       Creation time:       Fri Mar 27 17:14:13 2020


#       File generated by GOLD software.
#

@<TRIPOS>MOLECULE
AV-unprocessed.smi:3084
    29    30     1
SMALL
NO_CHARGES


@<TRIPOS>ATOM
      1 ****        -3.6782   0.2267  -1.6863 C.2            1 S1                 0.0000
      2 ****        -3.8101  -1.1327  -1.6495 N.2            1 S1                 0.0000
      3 ****        -2.5313  -1.4791  -1.6108 C.2            1 S1                 0.0000
      4 ****        -1.6925  -0.4416  -1.6120 N.pl3          1 S1                 0.0000
      5 ****        -0.2418  -0.3989  -1.5922 C.3            1 S1                 0.0000
      6 ****         0.3269   0.2779  -0.3281 C.3            1 S1                 0.0000
      7 ****        -0.1443  -0.3937   0.9824 C.3            1 S1                 0.0000
      8 ****         0.4877   0.2737   2.2139 C.3            1 S1                 0.0000
      9 ****         2.0171   0.2991   2.0834 C.3            1 S1                 0.0000
     10 ****         2.4384   0.9686   0.7657 C.3            1 S1                 0.0000
     11 ****         1.8073   0.2938  -0.3897 N.4            1 S1                 1.0000
     12 ****        -2.4291   0.6926  -1.6713 N.2            1 S1                 0.0000
     13 ****        -4.5277   0.8926  -1.7277 H              1 S1                 0.0000
     14 ****        -2.2014  -2.5073  -1.5789 H              1 S1                 0.0000
     15 ****         0.1309  -1.4212  -1.6715 H              1 S1                 0.0000
     16 ****         0.0934   0.1263  -2.4877 H              1 S1                 0.0000
     17 ****        -0.0041   1.3178  -0.3205 H              1 S1                 0.0000
     18 ****        -1.2303  -0.3443   1.0685 H              1 S1                 0.0000
     19 ****         0.1159  -1.4530   0.9685 H              1 S1                 0.0000
     20 ****         0.1107   1.2924   2.3135 H              1 S1                 0.0000
     21 ****         0.1960  -0.2566   3.1210 H              1 S1                 0.0000
     22 ****         2.4565   0.8286   2.9295 H              1 S1                 0.0000
     23 ****         2.4056  -0.7197   2.1196 H              1 S1                 0.0000
     24 ****         2.1542   2.0218   0.7665 H              1 S1                 0.0000
     25 ****         3.5219   0.9306   0.6517 H              1 S1                 0.0000
     26 ****         2.1371  -0.6601  -0.4229 H              1 S1                 0.0000
     27 ****         2.0924   0.7663  -1.2358 H              1 S1                 0.0000
     28 ****        -4.6328  -1.7013  -1.6512 LP             1 S1                 0.0000
     29 ****        -2.1152   1.6417  -1.6973 LP             1 S1                 0.0000
@<TRIPOS>BOND
    1    1   12 2     
    2    1    2 1     
    3    1   13 1     
    4    2    3 2     
    5    3    4 1     
    6    3   14 1     
    7    4    5 1     
    8    4   12 1     
    9    5    6 1     
   10    5   15 1     
   11    5   16 1     
   12    6   11 1     
   13    6    7 1     
   14    6   17 1     
   15    7    8 1     
   16    7   18 1     
   17    7   19 1     
   18    8    9 1     
   19    8   20 1     
   20    8   21 1     
   21    9   10 1     
   22    9   22 1     
   23    9   23 1     
   24   10   11 1     
   25   10   24 1     
   26   10   25 1     
   27   11   26 1     
   28   11   27 1     
   29    2   28 1     
   30   12   29 1     
@<TRIPOS>SUBSTRUCTURE
      1 S1             1
@<TRIPOS>SET
LONE_PAIRS      STATIC     ATOMS    <user>   **** ""
2 28 29
DONOR_HYDROGENS      STATIC     ATOMS    <user>   **** ""
2 26 27
ATOM$BLUE        STATIC     ATOMS    COLORGROUP SYSTEM
2 28 29
ATOM$RED        STATIC     ATOMS    COLORGROUP SYSTEM
2 26 27
