AV-unprocessed.smi:180|AV-procd|sdf|1451|dock2
  -GOLD-   2262019243D 1   1.00000     0.00000
 Structure written by MMmdl.
 54 57  0  0  0  0  0  0  0  0  1 V2000
  153.4056  137.6728  159.7854 C   0  0  0  0  0  0  0  0  0  0  0  0
  153.3506  138.6961  158.6557 C   0  0  0  0  0  0  0  0  0  0  0  0
  153.9800  139.7488  158.7529 O   0  0  0  0  0  0  0  0  0  0  0  0
  152.5951  138.3767  157.5938 N   0  0  0  0  0  0  0  0  0  0  0  0
  152.4224  139.2022  156.4015 C   0  0  0  0  0  0  0  0  0  0  0  0
  150.9461  139.3538  155.9858 C   0  0  2  0  0  0  0  0  0  0  0  0
  150.3035  138.0365  155.5038 C   0  0  0  0  0  0  0  0  0  0  0  0
  148.9269  138.2734  155.0765 N   0  0  0  0  0  0  0  0  0  0  0  0
  148.1317  137.1941  154.8600 C   0  0  0  0  0  0  0  0  0  0  0  0
  148.4041  136.0152  155.4818 N   0  0  0  0  0  0  0  0  0  0  0  0
  147.6307  134.9457  155.2744 C   0  0  0  0  0  0  0  0  0  0  0  0
  146.5485  134.8363  154.5023 N   0  0  0  0  0  0  0  0  0  0  0  0
  146.2616  136.0170  153.8835 C   0  0  0  0  0  0  0  0  0  0  0  0
  146.9953  137.2317  154.0023 C   0  0  0  0  0  0  0  0  0  0  0  0
  146.3967  138.2199  153.2293 N   0  0  0  0  0  0  0  0  0  0  0  0
  145.3773  137.6213  152.6771 C   0  0  0  0  0  0  0  0  0  0  0  0
  145.2116  136.3003  153.0273 N   0  0  0  0  0  0  0  0  0  0  0  0
  144.1641  135.4009  152.5685 C   0  0  0  0  0  0  0  0  0  0  0  0
  144.5984  134.4292  151.4414 C   0  0  0  0  0  0  0  0  0  0  0  0
  144.6576  135.2204  150.2681 O   0  0  0  0  0  0  0  0  0  0  0  0
  145.9923  133.8086  151.6803 C   0  0  0  0  0  0  0  0  0  0  0  0
  146.3561  132.7791  150.5950 C   0  0  0  0  0  0  0  0  0  0  0  0
  145.3510  131.7746  150.5197 O   0  0  0  0  0  0  0  0  0  0  0  0
  144.0785  132.2901  150.1460 C   0  0  0  0  0  0  0  0  0  0  0  0
  143.5829  133.2902  151.2061 C   0  0  0  0  0  0  0  0  0  0  0  0
  148.8111  139.3398  154.0870 C   0  0  0  0  0  0  0  0  0  0  0  0
  149.4925  140.6167  154.6049 C   0  0  0  0  0  0  0  0  0  0  0  0
  150.8431  140.3338  154.9553 O   0  0  0  0  0  0  0  0  0  0  0  0
  153.0358  136.6992  159.4614 H   0  0  0  0  0  0  0  0  0  0  0  0
  152.7982  138.0090  160.6257 H   0  0  0  0  0  0  0  0  0  0  0  0
  154.4318  137.5476  160.1320 H   0  0  0  0  0  0  0  0  0  0  0  0
  152.1123  137.4900  157.6064 H   0  0  0  0  0  0  0  0  0  0  0  0
  152.8345  140.1865  156.6246 H   0  0  0  0  0  0  0  0  0  0  0  0
  153.0118  138.8090  155.5715 H   0  0  0  0  0  0  0  0  0  0  0  0
  150.3957  139.7177  156.8555 H   0  0  0  0  0  0  0  0  0  0  0  0
  150.8668  137.6195  154.6679 H   0  0  0  0  0  0  0  0  0  0  0  0
  150.3240  137.3029  156.3110 H   0  0  0  0  0  0  0  0  0  0  0  0
  147.9201  134.0500  155.8039 H   0  0  0  0  0  0  0  0  0  0  0  0
  144.7070  138.1334  152.0018 H   0  0  0  0  0  0  0  0  0  0  0  0
  143.8048  134.8375  153.4310 H   0  0  0  0  0  0  0  0  0  0  0  0
  143.3221  136.0090  152.2345 H   0  0  0  0  0  0  0  0  0  0  0  0
  145.0527  134.7073  149.5800 H   0  0  0  0  0  0  0  0  0  0  0  0
  146.7549  134.5866  151.7331 H   0  0  0  0  0  0  0  0  0  0  0  0
  146.0099  133.2960  152.6420 H   0  0  0  0  0  0  0  0  0  0  0  0
  146.4828  133.2571  149.6225 H   0  0  0  0  0  0  0  0  0  0  0  0
  147.3066  132.3040  150.8379 H   0  0  0  0  0  0  0  0  0  0  0  0
  144.1366  132.7545  149.1605 H   0  0  0  0  0  0  0  0  0  0  0  0
  143.3768  131.4602  150.0610 H   0  0  0  0  0  0  0  0  0  0  0  0
  143.4218  132.7391  152.1323 H   0  0  0  0  0  0  0  0  0  0  0  0
  142.6125  133.6954  150.9164 H   0  0  0  0  0  0  0  0  0  0  0  0
  149.2866  139.0148  153.1606 H   0  0  0  0  0  0  0  0  0  0  0  0
  147.7711  139.5574  153.8484 H   0  0  0  0  0  0  0  0  0  0  0  0
  149.4809  141.3871  153.8338 H   0  0  0  0  0  0  0  0  0  0  0  0
  148.9582  141.0204  155.4664 H   0  0  0  0  0  0  0  0  0  0  0  0
  1  2  1  0  0  0  0
  1 29  1  0  0  0  0
  1 30  1  0  0  0  0
  1 31  1  0  0  0  0
  2  3  2  0  0  0  0
  2  4  1  0  0  0  0
  4  5  1  0  0  0  0
  4 32  1  0  0  0  0
  5  6  1  0  0  0  0
  5 33  1  0  0  0  0
  5 34  1  0  0  0  0
  6 28  1  0  0  0  0
  6  7  1  0  0  0  0
  6 35  1  0  0  0  0
  7  8  1  0  0  0  0
  7 36  1  0  0  0  0
  7 37  1  0  0  0  0
  8  9  1  0  0  0  0
  8 26  1  0  0  0  0
  9 14  1  0  0  0  0
  9 10  2  0  0  0  0
 10 11  1  0  0  0  0
 11 12  2  0  0  0  0
 11 38  1  0  0  0  0
 12 13  1  0  0  0  0
 13 17  1  0  0  0  0
 13 14  2  0  0  0  0
 14 15  1  0  0  0  0
 15 16  2  0  0  0  0
 16 17  1  0  0  0  0
 16 39  1  0  0  0  0
 17 18  1  0  0  0  0
 18 19  1  0  0  0  0
 18 40  1  0  0  0  0
 18 41  1  0  0  0  0
 19 25  1  0  0  0  0
 19 20  1  0  0  0  0
 19 21  1  0  0  0  0
 20 42  1  0  0  0  0
 21 22  1  0  0  0  0
 21 43  1  0  0  0  0
 21 44  1  0  0  0  0
 22 23  1  0  0  0  0
 22 45  1  0  0  0  0
 22 46  1  0  0  0  0
 23 24  1  0  0  0  0
 24 25  1  0  0  0  0
 24 47  1  0  0  0  0
 24 48  1  0  0  0  0
 25 49  1  0  0  0  0
 25 50  1  0  0  0  0
 26 27  1  0  0  0  0
 26 51  1  0  0  0  0
 26 52  1  0  0  0  0
 27 28  1  0  0  0  0
 27 53  1  0  0  0  0
 27 54  1  0  0  0  0
M  END
> <s_m_source_file>
AV-unprocessed.smi

> <i_m_source_file_index>
180

> <i_lp_mmshare_version>
43012

> <i_f3d_flags>
0

> <s_epik_input>
W0NIM11DKD1PKVtOSF1bQ0gyXVtDQEBIXTFbQ0gyXU4oW0NIMl1bQ0gyXU8xKWMobltjSF1uMiljKGMyMyluW2NIXW4zW0NIMl1DNChbT0hdKVtDSDJdW0NIMl1PW0NIMl1bQ0gyXTQ=

> <s_epik_cmdline>
J2VwaWtfcHl0aG9uJywgJy1waCcsICc3LjAnLCAnLXRuJywgJzgnLCAnLW1hJywgJzIwMCcsICctbWV0YWxfYmluZGluZycsICctaW1hZScsICc8aW5maWxlLm1hZT4nLCAnLW9tYWUnLCAnPG91dGZpbGUubWFlPic=

> <r_lp_tautomer_probability>
1

> <r_epik_Ionization_Penalty>
7.38871e-05

> <r_epik_Ionization_Penalty_Charging>
0

> <r_epik_Ionization_Penalty_Neutral>
7.38871e-05

> <r_epik_State_Penalty>
-0

> <r_epik_Charging_Adjusted_Penalty>
0

> <i_epik_Tot_Q>
0

> <i_epik_Tot_abs_Q>
0

> <r_epik_Metal_State_Penalty>
-0

> <b_epik_Metal_Only>
0

> <s_lp_Force_Field>
OPLS_2005

> <r_lp_Energy>
31.1245

> <b_lp_Chiralities_Consistent>
1

> <s_lp_Variant>
AV-unprocessed.smi:180-1

> <Gold.Version>
5.8.1

> <Gold.Id.Protein>
6NUR|6NUR_protein|mol2

> <Gold.PLP.Fitness>
45.3023

> <Gold.PLP.PLP>
-32.6658

> <Gold.PLP.part.hbond>
-3.0000

> <Gold.PLP.part.metal>
0.0000

> <Gold.PLP.part.buried>
-1.8506

> <Gold.PLP.part.nonpolar>
-27.7020

> <Gold.PLP.part.repulsive>
0.7688

> <Gold.PLP.ligand.clash>
0.0000

> <Gold.PLP.ligand.torsion>
1.1146

> <Gold.PLP.Chemscore.Hbond>
2.9760

> <Gold.PLP.Chemscore.CHOScore>
1.8386

> <Gold.PLP.Chemscore.Metal>
0.0000

> <Gold.Chemscore.Hbonds>
donor molecule, donor type, donor heavy atom, donor atom, acceptor molecule, acceptor atom, score
      L1  H    20    42       P1  7921  0.44
      P1  H  7989  7998       L1    28  0.95
      P1  H  7997  8008       L1     3  1.00
      L1  C    16    39       P1 10171  1.00
      L1  C    16    39       P1 10175  0.81

> <Gold.PLP.Chemscore.Internal.Correction>
0.4220

> <Gold.Rescore>
     Score         DG    S(hbond)    S(metal)    S(lipo)     H(rot)  DE(clash)    DE(int)     intcor
     12.04     -15.71       2.59        0.00      78.83       2.99       1.24       2.42       ----

> <Gold.Chemscore.Fitness>
12.0418

> <Gold.Chemscore.DG>
-15.7053

> <Gold.Chemscore.ZeroCoef>
-5.4800

> <Gold.Chemscore.Hbond>
2.5907

> <Gold.Chemscore.Metal>
0.0000

> <Gold.Chemscore.Lipo>
78.8278

> <Gold.Chemscore.Internal_Hbond>
0.0000

> <Gold.Chemscore.DEClash>
1.2426

> <Gold.Chemscore.DEInternal>
2.4209

> <Gold.Chemscore.Rot>
2.9885

> <Gold.Chemscore.Internal.Correction>
   9.000000E+99

> <Gold.Chemscore.Hbonds>
donor molecule, donor type, donor heavy atom, donor atom, acceptor molecule, acceptor atom, score
      L1  H    20    42       P1  7921  0.43
      P1  H  7989  7998       L1    28  0.21
      P1  H  7997  8008       L1     3  0.65

> <Gold.Chemscore.Hbond.Weighted>
-8.6531

> <Gold.Chemscore.Metal.Weighted>
-0.0000

> <Gold.Chemscore.Lipo.Weighted>
-9.2228

> <Gold.Chemscore.Internal_Hbond.Weighted>
0.0000

> <Gold.Chemscore.DEClash.Weighted>
1.2426

> <Gold.Chemscore.DEInternal.Weighted>
2.4209

> <Gold.Chemscore.Rot.Weighted>
7.6506

> <Gold.Chemscore.Internal.Correction.Weighted>
   9.000000E+99

> <Gold.Protein.RotatedTorsions>
[ 6907 6896 6895 6894 ] final  130.21 input  -60.11 | X-H torsion
[ 7974 7965 7964 7962 ] final   -6.03 input  175.53 | X-H torsion
[ 8008 7997 7996 7995 ] final -102.29 input   59.86 | X-H torsion
[ 10167 10162 10161 10158 ] final  152.75 input  -65.29 | X-H torsion
[ 10718 10713 10712 10709 ] final  -10.74 input   66.30 | X-H torsion
[ 10763 10752 10751 10750 ] final -147.72 input  -60.55 | X-H torsion
[ 11005 11000 10999 10996 ] final   -5.27 input  -57.11 | X-H torsion

> <Gold.Protein.ActiveResidues>
 VAL166  LYS551  ARG553  GLY616  TRP617  ASP618  TYR619  PRO620  LYS621  CYS622 
 ASP623  PHE694  ASN695  SER759  ASP760  ASP761  ALA762  ILE779  LEU786  VAL792 
 PHE793  MET794  SER795  GLU796  ALA797  LYS798  CYS799  TRP800  GLU811  SER814 

> <Gold.Protein.RotatedAtoms>
  152.3548  133.6224  159.5971 H   0  0  0  0  0  0  0  0  0  0  0  0  # atno 6907 bound_to 6896
  150.7561  133.9517  159.3496 H   0  0  0  0  0  0  0  0  0  0  0  0  # atno 6908 bound_to 6896
  151.7364  135.0865  160.0359 H   0  0  0  0  0  0  0  0  0  0  0  0  # atno 6909 bound_to 6896
  146.2340  140.2110  142.8335 H   0  0  0  0  0  0  0  0  0  0  0  0  # atno 7974 bound_to 7965
  154.8546  140.0429  157.1626 H   0  0  0  0  0  0  0  0  0  0  0  0  # atno 8008 bound_to 7997
  154.8905  140.2986  155.5353 H   0  0  0  0  0  0  0  0  0  0  0  0  # atno 8009 bound_to 7997
  156.2997  140.2394  156.3920 H   0  0  0  0  0  0  0  0  0  0  0  0  # atno 8010 bound_to 7997
  139.4831  144.5331  151.7690 H   0  0  0  0  0  0  0  0  0  0  0  0  # atno 10167 bound_to 10162
  156.6692  130.5004  149.6006 H   0  0  0  0  0  0  0  0  0  0  0  0  # atno 10718 bound_to 10713
  154.8271  135.3353  154.6862 H   0  0  0  0  0  0  0  0  0  0  0  0  # atno 10763 bound_to 10752
  153.7486  135.6941  153.4955 H   0  0  0  0  0  0  0  0  0  0  0  0  # atno 10764 bound_to 10752
  153.2192  135.4455  155.0420 H   0  0  0  0  0  0  0  0  0  0  0  0  # atno 10765 bound_to 10752
  140.6894  133.9084  155.8608 H   0  0  0  0  0  0  0  0  0  0  0  0  # atno 11005 bound_to 11000
  144.9707  140.8365  143.5457 LP  0  0  0  0  0  0  0  0  0  0  0  0  # atno 17320 bound_to 7965
  145.2091  139.2213  143.5152 LP  0  0  0  0  0  0  0  0  0  0  0  0  # atno 17321 bound_to 7965
  140.4860  144.1380  150.5941 LP  0  0  0  0  0  0  0  0  0  0  0  0  # atno 17342 bound_to 10162
  140.4225  143.2605  151.9698 LP  0  0  0  0  0  0  0  0  0  0  0  0  # atno 17343 bound_to 10162
  156.1952  130.6585  151.1106 LP  0  0  0  0  0  0  0  0  0  0  0  0  # atno 17370 bound_to 10713
  157.7083  131.0746  150.6590 LP  0  0  0  0  0  0  0  0  0  0  0  0  # atno 17371 bound_to 10713
  141.0254  134.0831  157.4074 LP  0  0  0  0  0  0  0  0  0  0  0  0  # atno 17394 bound_to 11000
  139.8928  135.0127  156.6865 LP  0  0  0  0  0  0  0  0  0  0  0  0  # atno 17395 bound_to 11000

$$$$
