AV-unprocessed.smi:3181|AV-procd|sdf|12150|dock1
  -GOLD-   2272017583D 1   1.00000     0.00000
 Structure written by MMmdl.
 42 43  0  0  0  0  0  0  0  0  2 V2000
  148.4671  140.8410  156.9467 C   0  0  0  0  0  0  0  0  0  0  0  0
  149.6400  141.2116  156.0242 C   0  0  1  0  0  0  0  0  0  0  0  0
  149.2078  141.4165  154.5565 C   0  0  0  0  0  0  0  0  0  0  0  0
  147.7757  141.5991  154.4104 N   0  0  0  0  0  0  0  0  0  0  0  0
  147.0652  142.6944  154.1363 C   0  0  0  0  0  0  0  0  0  0  0  0
  145.7581  142.4828  154.0767 N   0  0  0  0  0  0  0  0  0  0  0  0
  145.7303  141.1440  154.3480 C   0  0  0  0  0  0  0  0  0  0  0  0
  146.9135  140.5661  154.5570 N   0  0  0  0  0  0  0  0  0  0  0  0
  150.2944  142.4392  156.5311 N   0  3  0  0  0  0  0  0  0  0  0  0
  150.8440  142.3697  157.9047 C   0  0  1  0  0  0  0  0  0  0  0  0
  151.4981  141.0032  158.1955 C   0  0  0  0  0  0  0  0  0  0  0  0
  152.1297  140.9638  159.5961 C   0  0  0  0  0  0  0  0  0  0  0  0
  153.1457  142.1059  159.7934 C   0  0  2  0  0  0  0  0  0  0  0  0
  153.8419  142.0216  161.1617 C   0  0  0  0  0  0  0  0  0  0  0  0
  152.5083  143.4906  159.5118 C   0  0  2  0  0  0  0  0  0  0  0  0
  151.5175  143.9649  160.5940 C   0  0  0  0  0  0  0  0  0  0  0  0
  151.8680  143.5045  158.1077 C   0  0  0  0  0  0  0  0  0  0  0  0
  148.0119  139.8936  156.6569 H   0  0  0  0  0  0  0  0  0  0  0  0
  147.6890  141.6046  156.9261 H   0  0  0  0  0  0  0  0  0  0  0  0
  148.8009  140.7331  157.9793 H   0  0  0  0  0  0  0  0  0  0  0  0
  150.3499  140.3840  156.0634 H   0  0  0  0  0  0  0  0  0  0  0  0
  149.7166  142.2830  154.1302 H   0  0  0  0  0  0  0  0  0  0  0  0
  149.4981  140.5599  153.9476 H   0  0  0  0  0  0  0  0  0  0  0  0
  147.5125  143.6643  153.9754 H   0  0  0  0  0  0  0  0  0  0  0  0
  144.8112  140.5786  154.3936 H   0  0  0  0  0  0  0  0  0  0  0  0
  151.0280  142.7103  155.8920 H   0  0  0  0  0  0  0  0  0  0  0  0
  150.0165  142.5244  158.5981 H   0  0  0  0  0  0  0  0  0  0  0  0
  150.7639  140.2011  158.1187 H   0  0  0  0  0  0  0  0  0  0  0  0
  152.2638  140.7939  157.4473 H   0  0  0  0  0  0  0  0  0  0  0  0
  151.3473  141.0214  160.3534 H   0  0  0  0  0  0  0  0  0  0  0  0
  152.6218  140.0015  159.7418 H   0  0  0  0  0  0  0  0  0  0  0  0
  153.9288  141.9642  159.0467 H   0  0  0  0  0  0  0  0  0  0  0  0
  153.1265  142.0623  161.9833 H   0  0  0  0  0  0  0  0  0  0  0  0
  154.5514  142.8389  161.2931 H   0  0  0  0  0  0  0  0  0  0  0  0
  154.3961  141.0877  161.2596 H   0  0  0  0  0  0  0  0  0  0  0  0
  153.3167  144.2234  159.4976 H   0  0  0  0  0  0  0  0  0  0  0  0
  150.6960  143.2640  160.7383 H   0  0  0  0  0  0  0  0  0  0  0  0
  151.0834  144.9289  160.3270 H   0  0  0  0  0  0  0  0  0  0  0  0
  152.0113  144.0980  161.5563 H   0  0  0  0  0  0  0  0  0  0  0  0
  152.6577  143.4115  157.3604 H   0  0  0  0  0  0  0  0  0  0  0  0
  151.3969  144.4715  157.9254 H   0  0  0  0  0  0  0  0  0  0  0  0
  149.5942  143.1671  156.5314 H   0  0  0  0  0  0  0  0  0  0  0  0
  1  2  1  0  0  0  0
  1 18  1  0  0  0  0
  1 19  1  0  0  0  0
  1 20  1  0  0  0  0
  2  3  1  0  0  0  0
  2  9  1  0  0  0  0
  2 21  1  0  0  0  0
  3  4  1  0  0  0  0
  3 22  1  0  0  0  0
  3 23  1  0  0  0  0
  4  8  1  0  0  0  0
  4  5  1  0  0  0  0
  5  6  2  0  0  0  0
  5 24  1  0  0  0  0
  6  7  1  0  0  0  0
  7  8  2  0  0  0  0
  7 25  1  0  0  0  0
  9 10  1  0  0  0  0
  9 26  1  0  0  0  0
  9 42  1  0  0  0  0
 10 17  1  0  0  0  0
 10 11  1  0  0  0  0
 10 27  1  0  0  0  0
 11 12  1  0  0  0  0
 11 28  1  0  0  0  0
 11 29  1  0  0  0  0
 12 13  1  0  0  0  0
 12 30  1  0  0  0  0
 12 31  1  0  0  0  0
 13 14  1  0  0  0  0
 13 15  1  0  0  0  0
 13 32  1  0  0  0  0
 14 33  1  0  0  0  0
 14 34  1  0  0  0  0
 14 35  1  0  0  0  0
 15 16  1  0  0  0  0
 15 17  1  0  0  0  0
 15 36  1  0  0  0  0
 16 37  1  0  0  0  0
 16 38  1  0  0  0  0
 16 39  1  0  0  0  0
 17 40  1  0  0  0  0
 17 41  1  0  0  0  0
M  CHG  1   9   1
M  END
> <s_m_source_file>
AV-unprocessed.smi

> <i_m_source_file_index>
3181

> <i_lp_mmshare_version>
43012

> <i_f3d_flags>
0

> <s_epik_input>
bjFbY0hdbltjSF1uMVtDSDJdW0NAQEhdKFtDSDNdKVtOSF1bQ0BASF0yW0NIMl1bQ0gyXVtDQEBIXShbQ0gzXSlbQ0BASF0oW0NIM10pW0NIMl0y

> <s_epik_cmdline>
J2VwaWtfcHl0aG9uJywgJy1waCcsICc3LjAnLCAnLXRuJywgJzgnLCAnLW1hJywgJzIwMCcsICctbWV0YWxfYmluZGluZycsICctaW1hZScsICc8aW5maWxlLm1hZT4nLCAnLW9tYWUnLCAnPG91dGZpbGUubWFlPic=

> <r_lp_tautomer_probability>
1

> <r_epik_Ionization_Penalty>
0.000617007

> <r_epik_Ionization_Penalty_Charging>
0.000616215

> <r_epik_Ionization_Penalty_Neutral>
7.92544e-07

> <r_epik_State_Penalty>
0.000388807

> <r_epik_Charging_Adjusted_Penalty>
0.00100502

> <i_epik_Tot_Q>
1

> <i_epik_Tot_abs_Q>
1

> <r_epik_Metal_State_Penalty>
-0

> <b_epik_Metal_Only>
0

> <s_lp_Force_Field>
OPLS_2005

> <r_lp_Energy>
21.8546

> <b_lp_Chiralities_Consistent>
1

> <s_lp_Variant>
AV-unprocessed.smi:3181-16

> <Gold.Version>
5.8.1

> <Gold.Id.Protein>
6NUR|6NUR_protein|mol2

> <Gold.PLP.Fitness>
42.8971

> <Gold.PLP.PLP>
-34.2851

> <Gold.PLP.part.hbond>
-1.0000

> <Gold.PLP.part.metal>
0.0000

> <Gold.PLP.part.buried>
-1.0667

> <Gold.PLP.part.nonpolar>
-33.1954

> <Gold.PLP.part.repulsive>
0.3791

> <Gold.PLP.ligand.clash>
0.0000

> <Gold.PLP.ligand.torsion>
0.9760

> <Gold.PLP.Chemscore.Hbond>
2.0000

> <Gold.PLP.Chemscore.CHOScore>
1.5119

> <Gold.PLP.Chemscore.Metal>
0.0000

> <Gold.Chemscore.Hbonds>
donor molecule, donor type, donor heavy atom, donor atom, acceptor molecule, acceptor atom, score
      L1  H     9    42       P1  8028  1.89
      L1  C     5    24       P1  8028  0.86
      L1  C     7    25       P1 10175  0.70

> <Gold.PLP.Chemscore.Internal.Correction>
0.0283

> <Gold.Rescore>
     Score         DG    S(hbond)    S(metal)    S(lipo)     H(rot)  DE(clash)    DE(int)     intcor
     10.64     -13.81       0.81        0.00      94.17       2.11       0.87       2.29       ----

> <Gold.Chemscore.Fitness>
10.6428

> <Gold.Chemscore.DG>
-13.8065

> <Gold.Chemscore.ZeroCoef>
-5.4800

> <Gold.Chemscore.Hbond>
0.8111

> <Gold.Chemscore.Metal>
0.0000

> <Gold.Chemscore.Lipo>
94.1694

> <Gold.Chemscore.Internal_Hbond>
0.0000

> <Gold.Chemscore.DEClash>
0.8734

> <Gold.Chemscore.DEInternal>
2.2903

> <Gold.Chemscore.Rot>
2.1095

> <Gold.Chemscore.Internal.Correction>
   9.000000E+99

> <Gold.Chemscore.Hbonds>
donor molecule, donor type, donor heavy atom, donor atom, acceptor molecule, acceptor atom, score
      L1  H     9    42       P1  8028  0.91

> <Gold.Chemscore.Hbond.Weighted>
-2.7090

> <Gold.Chemscore.Metal.Weighted>
-0.0000

> <Gold.Chemscore.Lipo.Weighted>
-11.0178

> <Gold.Chemscore.Internal_Hbond.Weighted>
0.0000

> <Gold.Chemscore.DEClash.Weighted>
0.8734

> <Gold.Chemscore.DEInternal.Weighted>
2.2903

> <Gold.Chemscore.Rot.Weighted>
5.4003

> <Gold.Chemscore.Internal.Correction.Weighted>
   9.000000E+99

> <Gold.Protein.RotatedTorsions>
[ 6907 6896 6895 6894 ] final  134.92 input  -60.11 | X-H torsion
[ 7974 7965 7964 7962 ] final  113.45 input  175.53 | X-H torsion
[ 8008 7997 7996 7995 ] final   32.48 input   59.86 | X-H torsion
[ 10167 10162 10161 10158 ] final   46.61 input  -65.29 | X-H torsion
[ 10718 10713 10712 10709 ] final   35.73 input   66.30 | X-H torsion
[ 10763 10752 10751 10750 ] final  -68.49 input  -60.55 | X-H torsion
[ 11005 11000 10999 10996 ] final  -47.03 input  -57.11 | X-H torsion

> <Gold.Protein.ActiveResidues>
 VAL166  LYS551  ARG553  GLY616  TRP617  ASP618  TYR619  PRO620  LYS621  CYS622 
 ASP623  PHE694  ASN695  SER759  ASP760  ASP761  ALA762  ILE779  LEU786  VAL792 
 PHE793  MET794  SER795  GLU796  ALA797  LYS798  CYS799  TRP800  GLU811  SER814 

> <Gold.Protein.RotatedAtoms>
  152.3060  133.5704  159.5649 H   0  0  0  0  0  0  0  0  0  0  0  0  # atno 6907 bound_to 6896
  150.7300  134.0222  159.3714 H   0  0  0  0  0  0  0  0  0  0  0  0  # atno 6908 bound_to 6896
  151.8118  135.0679  160.0465 H   0  0  0  0  0  0  0  0  0  0  0  0  # atno 6909 bound_to 6896
  145.2168  139.2880  143.4239 H   0  0  0  0  0  0  0  0  0  0  0  0  # atno 7974 bound_to 7965
  155.1231  140.3250  155.4492 H   0  0  0  0  0  0  0  0  0  0  0  0  # atno 8008 bound_to 7997
  156.2657  140.2023  156.6301 H   0  0  0  0  0  0  0  0  0  0  0  0  # atno 8009 bound_to 7997
  154.6668  140.0541  157.0110 H   0  0  0  0  0  0  0  0  0  0  0  0  # atno 8010 bound_to 7997
  140.3121  144.2808  150.6198 H   0  0  0  0  0  0  0  0  0  0  0  0  # atno 10167 bound_to 10162
  157.3262  130.7474  149.6817 H   0  0  0  0  0  0  0  0  0  0  0  0  # atno 10718 bound_to 10713
  154.3897  135.6055  153.5836 H   0  0  0  0  0  0  0  0  0  0  0  0  # atno 10763 bound_to 10752
  152.9787  135.5880  154.4312 H   0  0  0  0  0  0  0  0  0  0  0  0  # atno 10764 bound_to 10752
  154.4094  135.2844  155.2024 H   0  0  0  0  0  0  0  0  0  0  0  0  # atno 10765 bound_to 10752
  141.0616  133.6707  156.3239 H   0  0  0  0  0  0  0  0  0  0  0  0  # atno 11005 bound_to 11000
  146.3385  140.2462  142.8597 LP  0  0  0  0  0  0  0  0  0  0  0  0  # atno 17320 bound_to 7965
  144.9803  140.8453  143.5401 LP  0  0  0  0  0  0  0  0  0  0  0  0  # atno 17321 bound_to 7965
  140.5559  143.2199  151.7848 LP  0  0  0  0  0  0  0  0  0  0  0  0  # atno 17342 bound_to 10162
  139.4891  144.4414  151.9759 LP  0  0  0  0  0  0  0  0  0  0  0  0  # atno 17343 bound_to 10162
  155.9691  130.4208  150.4442 LP  0  0  0  0  0  0  0  0  0  0  0  0  # atno 17370 bound_to 10713
  157.2466  131.0537  151.2405 LP  0  0  0  0  0  0  0  0  0  0  0  0  # atno 17371 bound_to 10713
  140.5858  134.5700  157.5489 LP  0  0  0  0  0  0  0  0  0  0  0  0  # atno 17394 bound_to 11000
  139.9437  134.7740  156.0614 LP  0  0  0  0  0  0  0  0  0  0  0  0  # atno 17395 bound_to 11000

$$$$
