AV-unprocessed.smi:2510|AV-procd|sdf|9877|dock3
  -GOLD-   2272013513D 1   1.00000     0.00000
 Structure written by MMmdl.
 48 49  0  0  0  0  0  0  0  0  1 V2000
  149.1100  139.5579  157.5618 C   0  0  0  0  0  0  0  0  0  0  0  0
  149.9876  139.4534  156.3032 C   0  0  0  0  0  0  0  0  0  0  0  0
  149.4142  138.5673  155.1706 C   0  0  0  0  0  0  0  0  0  0  0  0
  150.5167  138.3690  154.0960 C   0  0  0  0  0  0  0  0  0  0  0  0
  151.9189  138.0616  154.6450 C   0  0  0  0  0  0  0  0  0  0  0  0
  148.6544  137.3071  155.6879 C   0  0  2  0  0  0  0  0  0  0  0  0
  148.6565  136.1887  154.7466 N   0  0  0  0  0  0  0  0  0  0  0  0
  148.3786  134.9148  155.0608 C   0  0  0  0  0  0  0  0  0  0  0  0
  147.9833  134.5596  156.1708 O   0  0  0  0  0  0  0  0  0  0  0  0
  148.6146  133.8809  153.9586 C   0  0  0  0  0  0  0  0  0  0  0  0
  147.2910  133.3841  153.4383 C   0  0  0  0  0  0  0  0  0  0  0  0
  146.8616  133.2903  152.0812 C   0  0  0  0  0  0  0  0  0  0  0  0
  145.5775  132.8315  152.1637 C   0  0  0  0  0  0  0  0  0  0  0  0
  144.5668  132.5397  151.1070 C   0  0  0  0  0  0  0  0  0  0  0  0
  145.3127  132.6682  153.5038 N   0  0  0  0  0  0  0  0  0  0  0  0
  146.3524  132.9970  154.2921 N   0  0  0  0  0  0  0  0  0  0  0  0
  147.3374  138.1003  155.6276 C   0  0  2  0  0  0  0  0  0  0  0  0
  146.0170  137.4194  155.2725 C   0  0  0  0  0  0  0  0  0  0  0  0
  148.0372  139.0512  154.6392 C   0  0  2  0  0  0  0  0  0  0  0  0
  147.8290  138.6741  153.2819 O   0  0  0  0  0  0  0  0  0  0  0  0
  146.6784  139.2678  152.7067 C   0  0  0  0  0  0  0  0  0  0  0  0
  144.4391  132.3386  153.8892 H   0  0  0  0  0  0  0  0  0  0  0  0
  149.5205  140.2955  158.2514 H   0  0  0  0  0  0  0  0  0  0  0  0
  149.0576  138.6125  158.1008 H   0  0  0  0  0  0  0  0  0  0  0  0
  148.0928  139.8654  157.3205 H   0  0  0  0  0  0  0  0  0  0  0  0
  150.1393  140.4679  155.9353 H   0  0  0  0  0  0  0  0  0  0  0  0
  150.9858  139.1225  156.5875 H   0  0  0  0  0  0  0  0  0  0  0  0
  150.2291  137.6007  153.3789 H   0  0  0  0  0  0  0  0  0  0  0  0
  150.6218  139.2701  153.4936 H   0  0  0  0  0  0  0  0  0  0  0  0
  152.6535  138.0766  153.8394 H   0  0  0  0  0  0  0  0  0  0  0  0
  151.9699  137.0761  155.1067 H   0  0  0  0  0  0  0  0  0  0  0  0
  152.2275  138.8009  155.3842 H   0  0  0  0  0  0  0  0  0  0  0  0
  148.9100  137.0179  156.7082 H   0  0  0  0  0  0  0  0  0  0  0  0
  148.9796  136.3846  153.8097 H   0  0  0  0  0  0  0  0  0  0  0  0
  149.1935  134.3320  153.1520 H   0  0  0  0  0  0  0  0  0  0  0  0
  149.2158  133.0618  154.3560 H   0  0  0  0  0  0  0  0  0  0  0  0
  147.4093  133.5417  151.1851 H   0  0  0  0  0  0  0  0  0  0  0  0
  145.0518  132.2224  150.1837 H   0  0  0  0  0  0  0  0  0  0  0  0
  143.9727  133.4273  150.8882 H   0  0  0  0  0  0  0  0  0  0  0  0
  143.8882  131.7458  151.4202 H   0  0  0  0  0  0  0  0  0  0  0  0
  147.2195  138.6255  156.5766 H   0  0  0  0  0  0  0  0  0  0  0  0
  146.0515  136.9415  154.2934 H   0  0  0  0  0  0  0  0  0  0  0  0
  145.1974  138.1375  155.2565 H   0  0  0  0  0  0  0  0  0  0  0  0
  145.7637  136.6514  156.0033 H   0  0  0  0  0  0  0  0  0  0  0  0
  147.8570  140.1111  154.8280 H   0  0  0  0  0  0  0  0  0  0  0  0
  146.5543  138.9078  151.6855 H   0  0  0  0  0  0  0  0  0  0  0  0
  146.7777  140.3532  152.6707 H   0  0  0  0  0  0  0  0  0  0  0  0
  145.7754  139.0194  153.2641 H   0  0  0  0  0  0  0  0  0  0  0  0
  1  2  1  0  0  0  0
  1 23  1  0  0  0  0
  1 24  1  0  0  0  0
  1 25  1  0  0  0  0
  2  3  1  0  0  0  0
  2 26  1  0  0  0  0
  2 27  1  0  0  0  0
  3 19  1  0  0  0  0
  3  4  1  0  0  0  0
  3  6  1  0  0  0  0
  4  5  1  0  0  0  0
  4 28  1  0  0  0  0
  4 29  1  0  0  0  0
  5 30  1  0  0  0  0
  5 31  1  0  0  0  0
  5 32  1  0  0  0  0
  6  7  1  0  0  0  0
  6 17  1  0  0  0  0
  6 33  1  0  0  0  0
  7  8  1  0  0  0  0
  7 34  1  0  0  0  0
  8  9  2  0  0  0  0
  8 10  1  0  0  0  0
 10 11  1  0  0  0  0
 10 35  1  0  0  0  0
 10 36  1  0  0  0  0
 11 16  2  0  0  0  0
 11 12  1  0  0  0  0
 12 13  2  0  0  0  0
 12 37  1  0  0  0  0
 13 14  1  0  0  0  0
 13 15  1  0  0  0  0
 14 38  1  0  0  0  0
 14 39  1  0  0  0  0
 14 40  1  0  0  0  0
 15 22  1  0  0  0  0
 15 16  1  0  0  0  0
 17 18  1  0  0  0  0
 17 19  1  0  0  0  0
 17 41  1  0  0  0  0
 18 42  1  0  0  0  0
 18 43  1  0  0  0  0
 18 44  1  0  0  0  0
 19 20  1  0  0  0  0
 19 45  1  0  0  0  0
 20 21  1  0  0  0  0
 21 46  1  0  0  0  0
 21 47  1  0  0  0  0
 21 48  1  0  0  0  0
M  END
> <s_m_source_file>
AV-unprocessed.smi

> <i_m_source_file_index>
2510

> <i_lp_mmshare_version>
43012

> <i_f3d_flags>
0

> <s_epik_input>
W0NIM11PW0NAQEhdMVtDQEhdKFtDSDNdKVtDQEBIXShDMShbQ0gyXVtDSDNdKVtDSDJdW0NIM10pW05IXUMoPU8pW0NIMl1jMltjSF1jKFtDSDNdKVtuSF1uMg==

> <s_epik_cmdline>
J2VwaWtfcHl0aG9uJywgJy1waCcsICc3LjAnLCAnLXRuJywgJzgnLCAnLW1hJywgJzIwMCcsICctbWV0YWxfYmluZGluZycsICctaW1hZScsICc8aW5maWxlLm1hZT4nLCAnLW9tYWUnLCAnPG91dGZpbGUubWFlPic=

> <r_lp_tautomer_probability>
0.5

> <r_epik_Ionization_Penalty>
9.73156e-05

> <r_epik_Ionization_Penalty_Charging>
0

> <r_epik_Ionization_Penalty_Neutral>
9.73156e-05

> <r_epik_State_Penalty>
0.41068

> <r_epik_Charging_Adjusted_Penalty>
0.41068

> <i_epik_Tot_Q>
0

> <i_epik_Tot_abs_Q>
0

> <r_epik_Metal_State_Penalty>
0.410699

> <b_epik_Metal_Only>
0

> <s_lp_Force_Field>
OPLS_2005

> <r_lp_Energy>
26.3407

> <b_lp_Chiralities_Consistent>
1

> <s_lp_Variant>
AV-unprocessed.smi:2510-8

> <Gold.Version>
5.8.1

> <Gold.Id.Protein>
6NUR|6NUR_protein|mol2

> <Gold.PLP.Fitness>
27.6769

> <Gold.PLP.PLP>
-23.1820

> <Gold.PLP.part.hbond>
-1.9481

> <Gold.PLP.part.metal>
0.0000

> <Gold.PLP.part.buried>
-4.1886

> <Gold.PLP.part.nonpolar>
-19.8081

> <Gold.PLP.part.repulsive>
2.1564

> <Gold.PLP.ligand.clash>
0.0000

> <Gold.PLP.ligand.torsion>
1.1093

> <Gold.PLP.Chemscore.Hbond>
1.9913

> <Gold.PLP.Chemscore.CHOScore>
0.0000

> <Gold.PLP.Chemscore.Metal>
0.0000

> <Gold.Chemscore.Hbonds>
donor molecule, donor type, donor heavy atom, donor atom, acceptor molecule, acceptor atom, score
      L1  H     7    34       P1  7948  1.00
      L1  H    15    22       P1 10957  0.96

> <Gold.PLP.Chemscore.Internal.Correction>
0.7396

> <Gold.Rescore>
     Score         DG    S(hbond)    S(metal)    S(lipo)     H(rot)  DE(clash)    DE(int)     intcor
     10.56     -15.47       1.92        0.00      70.30       1.81       1.91       3.00       ----

> <Gold.Chemscore.Fitness>
10.5609

> <Gold.Chemscore.DG>
-15.4680

> <Gold.Chemscore.ZeroCoef>
-5.4800

> <Gold.Chemscore.Hbond>
1.9151

> <Gold.Chemscore.Metal>
0.0000

> <Gold.Chemscore.Lipo>
70.3048

> <Gold.Chemscore.Internal_Hbond>
0.0000

> <Gold.Chemscore.DEClash>
1.9114

> <Gold.Chemscore.DEInternal>
2.9957

> <Gold.Chemscore.Rot>
1.8102

> <Gold.Chemscore.Internal.Correction>
   9.000000E+99

> <Gold.Chemscore.Hbonds>
donor molecule, donor type, donor heavy atom, donor atom, acceptor molecule, acceptor atom, score
      L1  H     7    34       P1  7948  0.97
      L1  H    15    22       P1 10957  0.27

> <Gold.Chemscore.Hbond.Weighted>
-6.3964

> <Gold.Chemscore.Metal.Weighted>
-0.0000

> <Gold.Chemscore.Lipo.Weighted>
-8.2257

> <Gold.Chemscore.Internal_Hbond.Weighted>
0.0000

> <Gold.Chemscore.DEClash.Weighted>
1.9114

> <Gold.Chemscore.DEInternal.Weighted>
2.9957

> <Gold.Chemscore.Rot.Weighted>
4.6341

> <Gold.Chemscore.Internal.Correction.Weighted>
   9.000000E+99

> <Gold.Protein.RotatedTorsions>
[ 6907 6896 6895 6894 ] final -129.58 input  -60.11 | X-H torsion
[ 7974 7965 7964 7962 ] final -160.82 input  175.53 | X-H torsion
[ 8008 7997 7996 7995 ] final   33.69 input   59.86 | X-H torsion
[ 10167 10162 10161 10158 ] final  -94.88 input  -65.29 | X-H torsion
[ 10718 10713 10712 10709 ] final  -53.12 input   66.30 | X-H torsion
[ 10763 10752 10751 10750 ] final  -29.20 input  -60.55 | X-H torsion
[ 11005 11000 10999 10996 ] final   89.62 input  -57.11 | X-H torsion

> <Gold.Protein.ActiveResidues>
 VAL166  LYS551  ARG553  GLY616  TRP617  ASP618  TYR619  PRO620  LYS621  CYS622 
 ASP623  PHE694  ASN695  SER759  ASP760  ASP761  ALA762  ILE779  LEU786  VAL792 
 PHE793  MET794  SER795  GLU796  ALA797  LYS798  CYS799  TRP800  GLU811  SER814 

> <Gold.Protein.RotatedAtoms>
  150.9303  133.6775  159.2812 H   0  0  0  0  0  0  0  0  0  0  0  0  # atno 6907 bound_to 6896
  151.4199  135.0995  159.9620 H   0  0  0  0  0  0  0  0  0  0  0  0  # atno 6908 bound_to 6896
  152.5023  133.8757  159.7376 H   0  0  0  0  0  0  0  0  0  0  0  0  # atno 6909 bound_to 6896
  144.7413  140.3486  143.6120 H   0  0  0  0  0  0  0  0  0  0  0  0  # atno 7974 bound_to 7965
  155.1427  140.3267  155.4448 H   0  0  0  0  0  0  0  0  0  0  0  0  # atno 8008 bound_to 7997
  156.2599  140.1991  156.6492 H   0  0  0  0  0  0  0  0  0  0  0  0  # atno 8009 bound_to 7997
  154.6530  140.0556  156.9964 H   0  0  0  0  0  0  0  0  0  0  0  0  # atno 8010 bound_to 7997
  140.3099  143.3111  152.0159 H   0  0  0  0  0  0  0  0  0  0  0  0  # atno 10167 bound_to 10162
  156.1563  130.4150  149.9864 H   0  0  0  0  0  0  0  0  0  0  0  0  # atno 10718 bound_to 10713
  153.7608  135.6919  153.4926 H   0  0  0  0  0  0  0  0  0  0  0  0  # atno 10763 bound_to 10752
  153.1940  135.4460  155.0183 H   0  0  0  0  0  0  0  0  0  0  0  0  # atno 10764 bound_to 10752
  154.8154  135.3396  154.7123 H   0  0  0  0  0  0  0  0  0  0  0  0  # atno 10765 bound_to 10752
  139.8872  134.8563  156.3168 H   0  0  0  0  0  0  0  0  0  0  0  0  # atno 11005 bound_to 11000
  145.7299  139.1733  143.2436 LP  0  0  0  0  0  0  0  0  0  0  0  0  # atno 17320 bound_to 7965
  146.1214  140.7304  142.9456 LP  0  0  0  0  0  0  0  0  0  0  0  0  # atno 17321 bound_to 7965
  139.4896  144.6392  151.6912 LP  0  0  0  0  0  0  0  0  0  0  0  0  # atno 17342 bound_to 10162
  140.5577  144.0320  150.6155 LP  0  0  0  0  0  0  0  0  0  0  0  0  # atno 17343 bound_to 10162
  156.7707  130.9185  151.3644 LP  0  0  0  0  0  0  0  0  0  0  0  0  # atno 17370 bound_to 10713
  157.6697  130.9040  150.0012 LP  0  0  0  0  0  0  0  0  0  0  0  0  # atno 17371 bound_to 10713
  140.9814  133.7265  156.0677 LP  0  0  0  0  0  0  0  0  0  0  0  0  # atno 17394 bound_to 11000
  140.7745  134.3795  157.5501 LP  0  0  0  0  0  0  0  0  0  0  0  0  # atno 17395 bound_to 11000

$$$$
