AV-unprocessed.smi:2382|AV-procd|sdf|9458|dock2
  -GOLD-   2272013 83D 1   1.00000     0.00000
 Structure written by MMmdl.
 37 38  0  0  0  0  0  0  0  0  1 V2000
  151.9346  144.2629  159.1826 C   0  0  0  0  0  0  0  0  0  0  0  0
  152.4166  142.8744  159.4921 C   0  0  0  0  0  0  0  0  0  0  0  0
  153.4282  142.7119  160.3289 N   0  0  0  0  0  0  0  0  0  0  0  0
  153.6109  141.3774  160.3932 N   0  0  0  0  0  0  0  0  0  0  0  0
  154.6600  140.8433  161.2398 C   0  0  0  0  0  0  0  0  0  0  0  0
  152.7110  140.6956  159.5968 C   0  0  0  0  0  0  0  0  0  0  0  0
  152.7000  139.2042  159.4969 C   0  0  0  0  0  0  0  0  0  0  0  0
  151.9223  141.6351  158.9897 C   0  0  0  0  0  0  0  0  0  0  0  0
  150.7889  141.4269  158.0221 C   0  0  0  0  0  0  0  0  0  0  0  0
  150.9914  142.2495  156.7400 C   0  0  0  0  0  0  0  0  0  0  0  0
  149.7841  142.2775  155.9243 N   0  0  0  0  0  0  0  0  0  0  0  0
  149.4647  141.3686  154.9897 C   0  0  0  0  0  0  0  0  0  0  0  0
  150.1587  140.3880  154.7225 O   0  0  0  0  0  0  0  0  0  0  0  0
  148.2818  141.6098  154.4029 N   0  0  0  0  0  0  0  0  0  0  0  0
  147.4833  140.8562  153.4424 C   0  0  0  0  0  0  0  0  0  0  0  0
  146.4598  141.9854  153.5503 C   0  0  0  0  0  0  0  0  0  0  0  0
  147.1899  142.4900  154.7943 C   0  0  0  0  0  0  0  0  0  0  0  0
  150.8748  144.2655  158.9275 H   0  0  0  0  0  0  0  0  0  0  0  0
  152.4801  144.6849  158.3387 H   0  0  0  0  0  0  0  0  0  0  0  0
  152.0681  144.9313  160.0337 H   0  0  0  0  0  0  0  0  0  0  0  0
  155.2721  140.1438  160.6703 H   0  0  0  0  0  0  0  0  0  0  0  0
  154.2147  140.3207  162.0863 H   0  0  0  0  0  0  0  0  0  0  0  0
  155.2985  141.6443  161.6142 H   0  0  0  0  0  0  0  0  0  0  0  0
  151.7687  138.8465  159.0577 H   0  0  0  0  0  0  0  0  0  0  0  0
  152.7991  138.7443  160.4802 H   0  0  0  0  0  0  0  0  0  0  0  0
  153.5225  138.8536  158.8736 H   0  0  0  0  0  0  0  0  0  0  0  0
  150.6974  140.3702  157.7679 H   0  0  0  0  0  0  0  0  0  0  0  0
  149.8368  141.6988  158.4794 H   0  0  0  0  0  0  0  0  0  0  0  0
  151.2503  143.2776  156.9951 H   0  0  0  0  0  0  0  0  0  0  0  0
  151.8260  141.8542  156.1583 H   0  0  0  0  0  0  0  0  0  0  0  0
  149.1425  143.0407  156.0822 H   0  0  0  0  0  0  0  0  0  0  0  0
  147.9287  140.7615  152.4514 H   0  0  0  0  0  0  0  0  0  0  0  0
  147.1241  139.8997  153.8245 H   0  0  0  0  0  0  0  0  0  0  0  0
  146.5120  142.6862  152.7154 H   0  0  0  0  0  0  0  0  0  0  0  0
  145.4382  141.6506  153.7330 H   0  0  0  0  0  0  0  0  0  0  0  0
  146.7106  142.2043  155.7318 H   0  0  0  0  0  0  0  0  0  0  0  0
  147.4281  143.5538  154.7637 H   0  0  0  0  0  0  0  0  0  0  0  0
  1  2  1  0  0  0  0
  1 18  1  0  0  0  0
  1 19  1  0  0  0  0
  1 20  1  0  0  0  0
  2  8  1  0  0  0  0
  2  3  2  0  0  0  0
  3  4  1  0  0  0  0
  4  5  1  0  0  0  0
  4  6  1  0  0  0  0
  5 21  1  0  0  0  0
  5 22  1  0  0  0  0
  5 23  1  0  0  0  0
  6  7  1  0  0  0  0
  6  8  2  0  0  0  0
  7 24  1  0  0  0  0
  7 25  1  0  0  0  0
  7 26  1  0  0  0  0
  8  9  1  0  0  0  0
  9 10  1  0  0  0  0
  9 27  1  0  0  0  0
  9 28  1  0  0  0  0
 10 11  1  0  0  0  0
 10 29  1  0  0  0  0
 10 30  1  0  0  0  0
 11 12  1  0  0  0  0
 11 31  1  0  0  0  0
 12 13  2  0  0  0  0
 12 14  1  0  0  0  0
 14 17  1  0  0  0  0
 14 15  1  0  0  0  0
 15 16  1  0  0  0  0
 15 32  1  0  0  0  0
 15 33  1  0  0  0  0
 16 17  1  0  0  0  0
 16 34  1  0  0  0  0
 16 35  1  0  0  0  0
 17 36  1  0  0  0  0
 17 37  1  0  0  0  0
M  END
> <s_m_source_file>
AV-unprocessed.smi

> <i_m_source_file_index>
2382

> <i_lp_mmshare_version>
43012

> <i_f3d_flags>
0

> <s_epik_input>
W0NIM11jMW5uKFtDSDNdKWMoW0NIM10pYzFbQ0gyXVtDSDJdW05IXUMoPU8pTjJbQ0gyXVtDSDJdW0NIMl0y

> <s_epik_cmdline>
J2VwaWtfcHl0aG9uJywgJy1waCcsICc3LjAnLCAnLXRuJywgJzgnLCAnLW1hJywgJzIwMCcsICctbWV0YWxfYmluZGluZycsICctaW1hZScsICc8aW5maWxlLm1hZT4nLCAnLW9tYWUnLCAnPG91dGZpbGUubWFlPic=

> <r_lp_tautomer_probability>
1

> <r_epik_Ionization_Penalty>
0.0127252

> <r_epik_Ionization_Penalty_Charging>
0

> <r_epik_Ionization_Penalty_Neutral>
0.0127252

> <r_epik_State_Penalty>
0.00981091

> <r_epik_Charging_Adjusted_Penalty>
0.00981091

> <i_epik_Tot_Q>
0

> <i_epik_Tot_abs_Q>
0

> <r_epik_Metal_State_Penalty>
0.00960532

> <b_epik_Metal_Only>
0

> <s_lp_Force_Field>
OPLS_2005

> <r_lp_Energy>
14.7801

> <b_lp_Chiralities_Consistent>
1

> <s_lp_Variant>
AV-unprocessed.smi:2382-1

> <Gold.Version>
5.8.1

> <Gold.Id.Protein>
6NUR|6NUR_protein|mol2

> <Gold.PLP.Fitness>
45.6199

> <Gold.PLP.PLP>
-40.6403

> <Gold.PLP.part.hbond>
-2.0000

> <Gold.PLP.part.metal>
0.0000

> <Gold.PLP.part.buried>
-2.8118

> <Gold.PLP.part.nonpolar>
-35.7844

> <Gold.PLP.part.repulsive>
0.2263

> <Gold.PLP.ligand.clash>
0.0000

> <Gold.PLP.ligand.torsion>
0.3256

> <Gold.PLP.Chemscore.Hbond>
1.8400

> <Gold.PLP.Chemscore.CHOScore>
0.0000

> <Gold.PLP.Chemscore.Metal>
0.0000

> <Gold.Chemscore.Hbonds>
donor molecule, donor type, donor heavy atom, donor atom, acceptor molecule, acceptor atom, score
      L1  H    11    31       P1  8028  0.83
      P1  H  7989  7998       L1    13  0.99

> <Gold.PLP.Chemscore.Internal.Correction>
0.1109

> <Gold.Rescore>
     Score         DG    S(hbond)    S(metal)    S(lipo)     H(rot)  DE(clash)    DE(int)     intcor
     17.18     -17.96       1.60        0.00      91.62       1.40       0.41       0.36       ----

> <Gold.Chemscore.Fitness>
17.1828

> <Gold.Chemscore.DG>
-17.9559

> <Gold.Chemscore.ZeroCoef>
-5.4800

> <Gold.Chemscore.Hbond>
1.6006

> <Gold.Chemscore.Metal>
0.0000

> <Gold.Chemscore.Lipo>
91.6151

> <Gold.Chemscore.Internal_Hbond>
0.0000

> <Gold.Chemscore.DEClash>
0.4149

> <Gold.Chemscore.DEInternal>
0.3583

> <Gold.Chemscore.Rot>
1.4020

> <Gold.Chemscore.Internal.Correction>
   9.000000E+99

> <Gold.Chemscore.Hbonds>
donor molecule, donor type, donor heavy atom, donor atom, acceptor molecule, acceptor atom, score
      L1  H    11    31       P1  8028  0.83
      P1  H  7989  7998       L1    13  0.73

> <Gold.Chemscore.Hbond.Weighted>
-5.3460

> <Gold.Chemscore.Metal.Weighted>
-0.0000

> <Gold.Chemscore.Lipo.Weighted>
-10.7190

> <Gold.Chemscore.Internal_Hbond.Weighted>
0.0000

> <Gold.Chemscore.DEClash.Weighted>
0.4149

> <Gold.Chemscore.DEInternal.Weighted>
0.3583

> <Gold.Chemscore.Rot.Weighted>
3.5890

> <Gold.Chemscore.Internal.Correction.Weighted>
   9.000000E+99

> <Gold.Protein.RotatedTorsions>
[ 6907 6896 6895 6894 ] final   98.77 input  -60.11 | X-H torsion
[ 7974 7965 7964 7962 ] final -163.49 input  175.53 | X-H torsion
[ 8008 7997 7996 7995 ] final  157.06 input   59.86 | X-H torsion
[ 10167 10162 10161 10158 ] final  -73.68 input  -65.29 | X-H torsion
[ 10718 10713 10712 10709 ] final -103.38 input   66.30 | X-H torsion
[ 10763 10752 10751 10750 ] final  -17.53 input  -60.55 | X-H torsion
[ 11005 11000 10999 10996 ] final   50.94 input  -57.11 | X-H torsion

> <Gold.Protein.ActiveResidues>
 VAL166  LYS551  ARG553  GLY616  TRP617  ASP618  TYR619  PRO620  LYS621  CYS622 
 ASP623  PHE694  ASN695  SER759  ASP760  ASP761  ALA762  ILE779  LEU786  VAL792 
 PHE793  MET794  SER795  GLU796  ALA797  LYS798  CYS799  TRP800  GLU811  SER814 

> <Gold.Protein.RotatedAtoms>
  152.5403  134.0530  159.8117 H   0  0  0  0  0  0  0  0  0  0  0  0  # atno 6907 bound_to 6896
  151.0669  133.5491  159.2637 H   0  0  0  0  0  0  0  0  0  0  0  0  # atno 6908 bound_to 6896
  151.2368  135.0583  159.9063 H   0  0  0  0  0  0  0  0  0  0  0  0  # atno 6909 bound_to 6896
  144.7324  140.3099  143.6190 H   0  0  0  0  0  0  0  0  0  0  0  0  # atno 7974 bound_to 7965
  156.2386  140.1895  156.7051 H   0  0  0  0  0  0  0  0  0  0  0  0  # atno 8008 bound_to 7997
  154.6153  140.0616  156.9573 H   0  0  0  0  0  0  0  0  0  0  0  0  # atno 8009 bound_to 7997
  155.1949  140.3287  155.4355 H   0  0  0  0  0  0  0  0  0  0  0  0  # atno 8010 bound_to 7997
  140.5090  143.2348  151.7625 H   0  0  0  0  0  0  0  0  0  0  0  0  # atno 10167 bound_to 10162
  156.0263  130.5465  150.7245 H   0  0  0  0  0  0  0  0  0  0  0  0  # atno 10718 bound_to 10713
  153.5753  135.7006  153.5486 H   0  0  0  0  0  0  0  0  0  0  0  0  # atno 10763 bound_to 10752
  153.3308  135.4048  155.1493 H   0  0  0  0  0  0  0  0  0  0  0  0  # atno 10764 bound_to 10752
  154.8626  135.3718  154.5278 H   0  0  0  0  0  0  0  0  0  0  0  0  # atno 10765 bound_to 10752
  140.0974  134.5127  155.8794 H   0  0  0  0  0  0  0  0  0  0  0  0  # atno 11005 bound_to 11000
  145.7675  139.1846  143.2231 LP  0  0  0  0  0  0  0  0  0  0  0  0  # atno 17320 bound_to 7965
  146.0937  140.7626  142.9583 LP  0  0  0  0  0  0  0  0  0  0  0  0  # atno 17321 bound_to 7965
  139.4891  144.4417  151.9757 LP  0  0  0  0  0  0  0  0  0  0  0  0  # atno 17342 bound_to 10162
  140.3508  144.3091  150.5949 LP  0  0  0  0  0  0  0  0  0  0  0  0  # atno 17343 bound_to 10162
  157.4853  131.0906  151.0490 LP  0  0  0  0  0  0  0  0  0  0  0  0  # atno 17370 bound_to 10713
  157.0912  130.5943  149.5440 LP  0  0  0  0  0  0  0  0  0  0  0  0  # atno 17371 bound_to 10713
  141.2096  133.6685  156.6450 LP  0  0  0  0  0  0  0  0  0  0  0  0  # atno 17394 bound_to 11000
  140.3267  134.7963  157.4294 LP  0  0  0  0  0  0  0  0  0  0  0  0  # atno 17395 bound_to 11000

$$$$
