AV-unprocessed.smi:3301|AV-procd|sdf|12655|dock10
  -GOLD-   2272018593D 1   1.00000     0.00000
 Structure written by MMmdl.
 36 37  0  0  0  0  0  0  0  0  1 V2000
  147.8994  141.6564  155.3640 C   0  0  0  0  0  0  0  0  0  0  0  0
  149.2532  140.9978  155.6783 C   0  0  1  0  0  0  0  0  0  0  0  0
  149.8774  140.2734  154.4692 C   0  0  0  0  0  0  0  0  0  0  0  0
  150.7957  139.2197  154.8572 N   0  0  0  0  0  0  0  0  0  0  0  0
  151.8778  139.3306  155.7203 C   0  0  0  0  0  0  0  0  0  0  0  0
  152.4594  138.0845  155.7834 C   0  0  0  0  0  0  0  0  0  0  0  0
  151.7578  137.1977  154.9697 N   0  0  0  0  0  0  0  0  0  0  0  0
  150.7889  137.9419  154.4524 C   0  0  0  0  0  0  0  0  0  0  0  0
  150.1871  142.0122  156.1609 N   0  0  0  0  0  0  0  0  0  0  0  0
  150.5691  142.1926  157.4347 C   0  0  0  0  0  0  0  0  0  0  0  0
  150.1423  141.5197  158.3741 O   0  0  0  0  0  0  0  0  0  0  0  0
  151.5763  143.3253  157.6734 C   0  0  0  0  0  0  0  0  0  0  0  0
  151.8823  143.5381  159.0887 N   0  0  0  0  0  0  0  0  0  0  0  0
  152.5588  142.5114  159.8643 C   0  0  0  0  0  0  0  0  0  0  0  0
  152.5293  143.0195  161.3129 C   0  0  0  0  0  0  0  0  0  0  0  0
  152.1145  144.4926  161.2316 C   0  0  0  0  0  0  0  0  0  0  0  0
  151.6266  144.6427  159.8009 C   0  0  0  0  0  0  0  0  0  0  0  0
  151.0763  145.6617  159.3862 O   0  0  0  0  0  0  0  0  0  0  0  0
  147.1532  140.9166  155.0737 H   0  0  0  0  0  0  0  0  0  0  0  0
  147.9879  142.3778  154.5511 H   0  0  0  0  0  0  0  0  0  0  0  0
  147.5089  142.1827  156.2357 H   0  0  0  0  0  0  0  0  0  0  0  0
  149.0789  140.2533  156.4570 H   0  0  0  0  0  0  0  0  0  0  0  0
  149.0976  139.8409  153.8404 H   0  0  0  0  0  0  0  0  0  0  0  0
  150.4229  140.9833  153.8458 H   0  0  0  0  0  0  0  0  0  0  0  0
  152.1361  140.2609  156.2045 H   0  0  0  0  0  0  0  0  0  0  0  0
  153.3228  137.7610  156.3458 H   0  0  0  0  0  0  0  0  0  0  0  0
  150.0549  137.5469  153.7652 H   0  0  0  0  0  0  0  0  0  0  0  0
  150.5879  142.6223  155.4632 H   0  0  0  0  0  0  0  0  0  0  0  0
  152.5009  143.1120  157.1341 H   0  0  0  0  0  0  0  0  0  0  0  0
  151.1732  144.2432  157.2441 H   0  0  0  0  0  0  0  0  0  0  0  0
  152.0624  141.5452  159.7668 H   0  0  0  0  0  0  0  0  0  0  0  0
  153.5840  142.4078  159.5060 H   0  0  0  0  0  0  0  0  0  0  0  0
  151.7937  142.4591  161.8914 H   0  0  0  0  0  0  0  0  0  0  0  0
  153.4952  142.8948  161.8031 H   0  0  0  0  0  0  0  0  0  0  0  0
  151.3315  144.7414  161.9486 H   0  0  0  0  0  0  0  0  0  0  0  0
  152.9647  145.1553  161.3955 H   0  0  0  0  0  0  0  0  0  0  0  0
  1  2  1  0  0  0  0
  1 19  1  0  0  0  0
  1 20  1  0  0  0  0
  1 21  1  0  0  0  0
  2  3  1  0  0  0  0
  2  9  1  0  0  0  0
  2 22  1  0  0  0  0
  3  4  1  0  0  0  0
  3 23  1  0  0  0  0
  3 24  1  0  0  0  0
  4  8  1  0  0  0  0
  4  5  1  0  0  0  0
  5  6  2  0  0  0  0
  5 25  1  0  0  0  0
  6  7  1  0  0  0  0
  6 26  1  0  0  0  0
  7  8  2  0  0  0  0
  8 27  1  0  0  0  0
  9 10  1  0  0  0  0
  9 28  1  0  0  0  0
 10 11  2  0  0  0  0
 10 12  1  0  0  0  0
 12 13  1  0  0  0  0
 12 29  1  0  0  0  0
 12 30  1  0  0  0  0
 13 17  1  0  0  0  0
 13 14  1  0  0  0  0
 14 15  1  0  0  0  0
 14 31  1  0  0  0  0
 14 32  1  0  0  0  0
 15 16  1  0  0  0  0
 15 33  1  0  0  0  0
 15 34  1  0  0  0  0
 16 17  1  0  0  0  0
 16 35  1  0  0  0  0
 16 36  1  0  0  0  0
 17 18  2  0  0  0  0
M  END
> <s_m_source_file>
AV-unprocessed.smi

> <i_m_source_file_index>
3301

> <i_lp_mmshare_version>
43012

> <i_f3d_flags>
0

> <s_epik_input>
W2NIXTFuW2NIXVtjSF1uMVtDSDJdW0NAQEhdKFtDSDNdKVtOSF1DKD1PKVtDSDJdTjJbQ0gyXVtDSDJdW0NIMl1DMj1P

> <s_epik_cmdline>
J2VwaWtfcHl0aG9uJywgJy1waCcsICc3LjAnLCAnLXRuJywgJzgnLCAnLW1hJywgJzIwMCcsICctbWV0YWxfYmluZGluZycsICctaW1hZScsICc8aW5maWxlLm1hZT4nLCAnLW9tYWUnLCAnPG91dGZpbGUubWFlPic=

> <r_lp_tautomer_probability>
1

> <r_epik_Ionization_Penalty>
0.623868

> <r_epik_Ionization_Penalty_Charging>
0.623868

> <r_epik_Ionization_Penalty_Neutral>
4.45089e-08

> <r_epik_State_Penalty>
0.640129

> <r_epik_Charging_Adjusted_Penalty>
1.264

> <i_epik_Tot_Q>
0

> <i_epik_Tot_abs_Q>
0

> <r_epik_Metal_State_Penalty>
0.307431

> <b_epik_Metal_Only>
0

> <s_lp_Force_Field>
OPLS_2005

> <r_lp_Energy>
14.8621

> <b_lp_Chiralities_Consistent>
1

> <s_lp_Variant>
AV-unprocessed.smi:3301-4

> <Gold.Version>
5.8.1

> <Gold.Id.Protein>
6NUR|6NUR_protein|mol2

> <Gold.PLP.Fitness>
48.9167

> <Gold.PLP.PLP>
-43.9540

> <Gold.PLP.part.hbond>
-3.1112

> <Gold.PLP.part.metal>
0.0000

> <Gold.PLP.part.buried>
-2.6025

> <Gold.PLP.part.nonpolar>
-38.9494

> <Gold.PLP.part.repulsive>
0.4357

> <Gold.PLP.ligand.clash>
0.0000

> <Gold.PLP.ligand.torsion>
0.4834

> <Gold.PLP.Chemscore.Hbond>
0.9280

> <Gold.PLP.Chemscore.CHOScore>
1.0333

> <Gold.PLP.Chemscore.Metal>
0.0000

> <Gold.Chemscore.Hbonds>
donor molecule, donor type, donor heavy atom, donor atom, acceptor molecule, acceptor atom, score
      P1  H 10752 10763       L1     7  1.00
      L1  C     8    27       P1  7948  1.00

> <Gold.PLP.Chemscore.Internal.Correction>
0.0456

> <Gold.Rescore>
     Score         DG    S(hbond)    S(metal)    S(lipo)     H(rot)  DE(clash)    DE(int)     intcor
     10.54     -11.82       0.82        0.00      80.38       2.26       0.74       0.54       ----

> <Gold.Chemscore.Fitness>
10.5425

> <Gold.Chemscore.DG>
-11.8193

> <Gold.Chemscore.ZeroCoef>
-5.4800

> <Gold.Chemscore.Hbond>
0.8182

> <Gold.Chemscore.Metal>
0.0000

> <Gold.Chemscore.Lipo>
80.3776

> <Gold.Chemscore.Internal_Hbond>
0.0000

> <Gold.Chemscore.DEClash>
0.7380

> <Gold.Chemscore.DEInternal>
0.5388

> <Gold.Chemscore.Rot>
2.2647

> <Gold.Chemscore.Internal.Correction>
   9.000000E+99

> <Gold.Chemscore.Hbonds>
donor molecule, donor type, donor heavy atom, donor atom, acceptor molecule, acceptor atom, score
      P1  H 10752 10763       L1     7  0.69

> <Gold.Chemscore.Hbond.Weighted>
-2.7327

> <Gold.Chemscore.Metal.Weighted>
-0.0000

> <Gold.Chemscore.Lipo.Weighted>
-9.4042

> <Gold.Chemscore.Internal_Hbond.Weighted>
0.0000

> <Gold.Chemscore.DEClash.Weighted>
0.7380

> <Gold.Chemscore.DEInternal.Weighted>
0.5388

> <Gold.Chemscore.Rot.Weighted>
5.7975

> <Gold.Chemscore.Internal.Correction.Weighted>
   9.000000E+99

> <Gold.Protein.RotatedTorsions>
[ 6907 6896 6895 6894 ] final  133.00 input  -60.11 | X-H torsion
[ 7974 7965 7964 7962 ] final  -26.34 input  175.53 | X-H torsion
[ 8008 7997 7996 7995 ] final   51.81 input   59.86 | X-H torsion
[ 10167 10162 10161 10158 ] final  135.63 input  -65.29 | X-H torsion
[ 10718 10713 10712 10709 ] final -169.06 input   66.30 | X-H torsion
[ 10763 10752 10751 10750 ] final   49.55 input  -60.55 | X-H torsion
[ 11005 11000 10999 10996 ] final -144.37 input  -57.11 | X-H torsion

> <Gold.Protein.ActiveResidues>
 VAL166  LYS551  ARG553  GLY616  TRP617  ASP618  TYR619  PRO620  LYS621  CYS622 
 ASP623  PHE694  ASN695  SER759  ASP760  ASP761  ALA762  ILE779  LEU786  VAL792 
 PHE793  MET794  SER795  GLU796  ALA797  LYS798  CYS799  TRP800  GLU811  SER814 

> <Gold.Protein.RotatedAtoms>
  152.3265  133.5911  159.5779 H   0  0  0  0  0  0  0  0  0  0  0  0  # atno 6907 bound_to 6896
  150.7399  133.9932  159.3623 H   0  0  0  0  0  0  0  0  0  0  0  0  # atno 6908 bound_to 6896
  151.7812  135.0762  160.0425 H   0  0  0  0  0  0  0  0  0  0  0  0  # atno 6909 bound_to 6896
  146.1432  140.5007  142.8643 H   0  0  0  0  0  0  0  0  0  0  0  0  # atno 7974 bound_to 7965
  155.4414  140.3454  155.4290 H   0  0  0  0  0  0  0  0  0  0  0  0  # atno 8008 bound_to 7997
  156.1276  140.1505  156.9143 H   0  0  0  0  0  0  0  0  0  0  0  0  # atno 8009 bound_to 7997
  154.4870  140.0852  156.7489 H   0  0  0  0  0  0  0  0  0  0  0  0  # atno 8010 bound_to 7997
  139.5210  144.6507  151.5310 H   0  0  0  0  0  0  0  0  0  0  0  0  # atno 10167 bound_to 10162
  156.7060  130.9215  151.3084 H   0  0  0  0  0  0  0  0  0  0  0  0  # atno 10718 bound_to 10713
  152.9786  135.5908  154.4107 H   0  0  0  0  0  0  0  0  0  0  0  0  # atno 10763 bound_to 10752
  154.3742  135.2767  155.2250 H   0  0  0  0  0  0  0  0  0  0  0  0  # atno 10764 bound_to 10752
  154.4192  135.6063  153.6054 H   0  0  0  0  0  0  0  0  0  0  0  0  # atno 10765 bound_to 10752
  140.8031  134.2833  157.4970 H   0  0  0  0  0  0  0  0  0  0  0  0  # atno 11005 bound_to 11000
  144.7816  140.5851  143.6602 LP  0  0  0  0  0  0  0  0  0  0  0  0  # atno 17320 bound_to 7965
  145.4999  139.1484  143.3663 LP  0  0  0  0  0  0  0  0  0  0  0  0  # atno 17321 bound_to 7965
  140.6311  143.9075  150.6606 LP  0  0  0  0  0  0  0  0  0  0  0  0  # atno 17342 bound_to 10162
  140.2379  143.3686  152.1511 LP  0  0  0  0  0  0  0  0  0  0  0  0  # atno 17343 bound_to 10162
  157.6954  130.9277  150.0631 LP  0  0  0  0  0  0  0  0  0  0  0  0  # atno 17370 bound_to 10713
  156.1695  130.3646  149.9186 LP  0  0  0  0  0  0  0  0  0  0  0  0  # atno 17371 bound_to 10713
  139.8720  134.9441  156.3871 LP  0  0  0  0  0  0  0  0  0  0  0  0  # atno 17394 bound_to 11000
  140.9274  133.7603  155.9982 LP  0  0  0  0  0  0  0  0  0  0  0  0  # atno 17395 bound_to 11000

$$$$
