AV-unprocessed.smi:673|AV-procd|sdf|3297|dock10
  -GOLD-   22720 0263D 1   1.00000     0.00000
 Structure written by MMmdl.
 45 46  0  0  0  0  0  0  0  0  1 V2000
  148.2423  138.2691  157.8936 C   0  0  0  0  0  0  0  0  0  0  0  0
  149.3350  137.2245  158.1719 C   0  0  2  0  0  0  0  0  0  0  0  0
  149.9412  136.6827  156.8632 C   0  0  0  0  0  0  0  0  0  0  0  0
  150.1642  137.7309  155.8831 N   0  0  0  0  0  0  0  0  0  0  0  0
  150.9733  138.7908  155.9150 C   0  0  0  0  0  0  0  0  0  0  0  0
  150.9224  139.5358  154.8195 N   0  0  0  0  0  0  0  0  0  0  0  0
  149.9976  138.8282  154.1046 C   0  0  0  0  0  0  0  0  0  0  0  0
  149.5109  137.7378  154.6969 N   0  0  0  0  0  0  0  0  0  0  0  0
  148.7898  136.1218  158.9590 N   0  0  0  0  0  0  0  0  0  0  0  0
  148.2835  136.2122  160.2006 C   0  0  0  0  0  0  0  0  0  0  0  0
  148.1744  137.2879  160.7910 O   0  0  0  0  0  0  0  0  0  0  0  0
  147.8754  135.0292  160.7258 N   0  0  0  0  0  0  0  0  0  0  0  0
  147.4945  133.8438  159.9455 C   0  0  0  0  0  0  0  0  0  0  0  0
  146.0097  133.8745  159.5313 C   0  0  0  0  0  0  0  0  0  0  0  0
  145.0465  134.7058  160.4153 C   0  0  0  0  0  0  0  0  0  0  0  0
  145.0924  134.5007  161.9576 C   0  0  0  0  0  0  0  0  0  0  0  0
  143.8023  135.1167  162.5396 C   0  0  0  0  0  0  0  0  0  0  0  0
  145.0946  133.0039  162.3355 C   0  0  0  0  0  0  0  0  0  0  0  0
  146.2846  135.2569  162.6144 C   0  0  0  0  0  0  0  0  0  0  0  0
  147.7024  134.8478  162.1711 C   0  0  0  0  0  0  0  0  0  0  0  0
  148.6351  139.0992  157.3062 H   0  0  0  0  0  0  0  0  0  0  0  0
  147.8447  138.6848  158.8199 H   0  0  0  0  0  0  0  0  0  0  0  0
  147.4093  137.8344  157.3398 H   0  0  0  0  0  0  0  0  0  0  0  0
  150.1327  137.7057  158.7410 H   0  0  0  0  0  0  0  0  0  0  0  0
  150.8851  136.1709  157.0594 H   0  0  0  0  0  0  0  0  0  0  0  0
  149.2736  135.9441  156.4178 H   0  0  0  0  0  0  0  0  0  0  0  0
  151.6154  139.0186  156.7533 H   0  0  0  0  0  0  0  0  0  0  0  0
  149.6735  139.1250  153.1179 H   0  0  0  0  0  0  0  0  0  0  0  0
  148.8287  135.2048  158.5376 H   0  0  0  0  0  0  0  0  0  0  0  0
  148.1286  133.7224  159.0656 H   0  0  0  0  0  0  0  0  0  0  0  0
  147.6855  132.9393  160.5225 H   0  0  0  0  0  0  0  0  0  0  0  0
  145.9451  134.2701  158.5170 H   0  0  0  0  0  0  0  0  0  0  0  0
  145.6470  132.8486  159.4606 H   0  0  0  0  0  0  0  0  0  0  0  0
  145.1944  135.7648  160.1984 H   0  0  0  0  0  0  0  0  0  0  0  0
  144.0383  134.4894  160.0595 H   0  0  0  0  0  0  0  0  0  0  0  0
  143.7726  135.0318  163.6266 H   0  0  0  0  0  0  0  0  0  0  0  0
  142.9108  134.6213  162.1531 H   0  0  0  0  0  0  0  0  0  0  0  0
  143.7189  136.1759  162.2923 H   0  0  0  0  0  0  0  0  0  0  0  0
  145.0447  132.8708  163.4166 H   0  0  0  0  0  0  0  0  0  0  0  0
  145.9881  132.4860  161.9926 H   0  0  0  0  0  0  0  0  0  0  0  0
  144.2368  132.4878  161.9033 H   0  0  0  0  0  0  0  0  0  0  0  0
  146.1687  136.3270  162.4361 H   0  0  0  0  0  0  0  0  0  0  0  0
  146.2265  135.1402  163.6974 H   0  0  0  0  0  0  0  0  0  0  0  0
  147.9064  133.8198  162.4705 H   0  0  0  0  0  0  0  0  0  0  0  0
  148.4369  135.4384  162.7211 H   0  0  0  0  0  0  0  0  0  0  0  0
  1  2  1  0  0  0  0
  1 21  1  0  0  0  0
  1 22  1  0  0  0  0
  1 23  1  0  0  0  0
  2  3  1  0  0  0  0
  2  9  1  0  0  0  0
  2 24  1  0  0  0  0
  3  4  1  0  0  0  0
  3 25  1  0  0  0  0
  3 26  1  0  0  0  0
  4  8  1  0  0  0  0
  4  5  1  0  0  0  0
  5  6  2  0  0  0  0
  5 27  1  0  0  0  0
  6  7  1  0  0  0  0
  7  8  2  0  0  0  0
  7 28  1  0  0  0  0
  9 10  1  0  0  0  0
  9 29  1  0  0  0  0
 10 11  2  0  0  0  0
 10 12  1  0  0  0  0
 12 20  1  0  0  0  0
 12 13  1  0  0  0  0
 13 14  1  0  0  0  0
 13 30  1  0  0  0  0
 13 31  1  0  0  0  0
 14 15  1  0  0  0  0
 14 32  1  0  0  0  0
 14 33  1  0  0  0  0
 15 16  1  0  0  0  0
 15 34  1  0  0  0  0
 15 35  1  0  0  0  0
 16 17  1  0  0  0  0
 16 18  1  0  0  0  0
 16 19  1  0  0  0  0
 17 36  1  0  0  0  0
 17 37  1  0  0  0  0
 17 38  1  0  0  0  0
 18 39  1  0  0  0  0
 18 40  1  0  0  0  0
 18 41  1  0  0  0  0
 19 20  1  0  0  0  0
 19 42  1  0  0  0  0
 19 43  1  0  0  0  0
 20 44  1  0  0  0  0
 20 45  1  0  0  0  0
M  END
> <s_m_source_file>
AV-unprocessed.smi

> <i_m_source_file_index>
673

> <i_lp_mmshare_version>
43012

> <i_f3d_flags>
0

> <s_epik_input>
bjFbY0hdbltjSF1uMVtDSDJdW0NAQEhdKFtDSDNdKVtOSF1DKD1PKU4oW0NIMl1bQ0gyXTIpW0NIMl1bQ0gyXVtDSDJdQzIoW0NIM10pW0NIM10=

> <s_epik_cmdline>
J2VwaWtfcHl0aG9uJywgJy1waCcsICc3LjAnLCAnLXRuJywgJzgnLCAnLW1hJywgJzIwMCcsICctbWV0YWxfYmluZGluZycsICctaW1hZScsICc8aW5maWxlLm1hZT4nLCAnLW9tYWUnLCAnPG91dGZpbGUubWFlPic=

> <r_lp_tautomer_probability>
1

> <r_epik_Ionization_Penalty>
0.000118908

> <r_epik_Ionization_Penalty_Charging>
0

> <r_epik_Ionization_Penalty_Neutral>
0.000118908

> <r_epik_State_Penalty>
-0

> <r_epik_Charging_Adjusted_Penalty>
0

> <i_epik_Tot_Q>
0

> <i_epik_Tot_abs_Q>
0

> <r_epik_Metal_State_Penalty>
-0

> <b_epik_Metal_Only>
0

> <s_lp_Force_Field>
OPLS_2005

> <r_lp_Energy>
35.7371

> <b_lp_Chiralities_Consistent>
1

> <s_lp_Variant>
AV-unprocessed.smi:673-1

> <Gold.Version>
5.8.1

> <Gold.Id.Protein>
6NUR|6NUR_protein|mol2

> <Gold.PLP.Fitness>
36.4233

> <Gold.PLP.PLP>
-26.7178

> <Gold.PLP.part.hbond>
-2.9886

> <Gold.PLP.part.metal>
0.0000

> <Gold.PLP.part.buried>
-3.8547

> <Gold.PLP.part.nonpolar>
-20.6815

> <Gold.PLP.part.repulsive>
0.3744

> <Gold.PLP.ligand.clash>
0.0000

> <Gold.PLP.ligand.torsion>
0.3901

> <Gold.PLP.Chemscore.Hbond>
2.4880

> <Gold.PLP.Chemscore.CHOScore>
1.0000

> <Gold.PLP.Chemscore.Metal>
0.0000

> <Gold.Chemscore.Hbonds>
donor molecule, donor type, donor heavy atom, donor atom, acceptor molecule, acceptor atom, score
      P1  H  6931  6943       L1    11  0.83
      P1  H  6934  6947       L1    11  0.64
      P1  H  7989  7998       L1     6  1.00
      L1  C     7    28       P1  7957  1.00

> <Gold.PLP.Chemscore.Internal.Correction>
0.0218

> <Gold.Rescore>
     Score         DG    S(hbond)    S(metal)    S(lipo)     H(rot)  DE(clash)    DE(int)     intcor
     13.74     -14.95       2.31        0.00      55.70       1.86       0.71       0.50       ----

> <Gold.Chemscore.Fitness>
13.7412

> <Gold.Chemscore.DG>
-14.9522

> <Gold.Chemscore.ZeroCoef>
-5.4800

> <Gold.Chemscore.Hbond>
2.3116

> <Gold.Chemscore.Metal>
0.0000

> <Gold.Chemscore.Lipo>
55.6980

> <Gold.Chemscore.Internal_Hbond>
0.0000

> <Gold.Chemscore.DEClash>
0.7088

> <Gold.Chemscore.DEInternal>
0.5022

> <Gold.Chemscore.Rot>
1.8614

> <Gold.Chemscore.Internal.Correction>
   9.000000E+99

> <Gold.Chemscore.Hbonds>
donor molecule, donor type, donor heavy atom, donor atom, acceptor molecule, acceptor atom, score
      P1  H  6931  6943       L1    11  0.81
      P1  H  6934  6947       L1    11  0.62
      P1  H  7989  7998       L1     6  0.43

> <Gold.Chemscore.Hbond.Weighted>
-7.7208

> <Gold.Chemscore.Metal.Weighted>
-0.0000

> <Gold.Chemscore.Lipo.Weighted>
-6.5167

> <Gold.Chemscore.Internal_Hbond.Weighted>
0.0000

> <Gold.Chemscore.DEClash.Weighted>
0.7088

> <Gold.Chemscore.DEInternal.Weighted>
0.5022

> <Gold.Chemscore.Rot.Weighted>
4.7653

> <Gold.Chemscore.Internal.Correction.Weighted>
   9.000000E+99

> <Gold.Protein.RotatedTorsions>
[ 6907 6896 6895 6894 ] final  -77.45 input  -60.11 | X-H torsion
[ 7974 7965 7964 7962 ] final -141.55 input  175.53 | X-H torsion
[ 8008 7997 7996 7995 ] final  -62.76 input   59.86 | X-H torsion
[ 10167 10162 10161 10158 ] final   43.34 input  -65.29 | X-H torsion
[ 10718 10713 10712 10709 ] final    9.66 input   66.30 | X-H torsion
[ 10763 10752 10751 10750 ] final  -28.82 input  -60.55 | X-H torsion
[ 11005 11000 10999 10996 ] final  -27.15 input  -57.11 | X-H torsion

> <Gold.Protein.ActiveResidues>
 VAL166  LYS551  ARG553  GLY616  TRP617  ASP618  TYR619  PRO620  LYS621  CYS622 
 ASP623  PHE694  ASN695  SER759  ASP760  ASP761  ALA762  ILE779  LEU786  VAL792 
 PHE793  MET794  SER795  GLU796  ALA797  LYS798  CYS799  TRP800  GLU811  SER814 

> <Gold.Protein.RotatedAtoms>
  150.6998  134.4421  159.5296 H   0  0  0  0  0  0  0  0  0  0  0  0  # atno 6907 bound_to 6896
  152.2129  134.8482  160.0504 H   0  0  0  0  0  0  0  0  0  0  0  0  # atno 6908 bound_to 6896
  151.9361  133.3589  159.3985 H   0  0  0  0  0  0  0  0  0  0  0  0  # atno 6909 bound_to 6896
  144.8511  140.6066  143.5390 H   0  0  0  0  0  0  0  0  0  0  0  0  # atno 7974 bound_to 7965
  154.4517  140.0989  156.6637 H   0  0  0  0  0  0  0  0  0  0  0  0  # atno 8008 bound_to 7997
  155.5265  140.3480  155.4399 H   0  0  0  0  0  0  0  0  0  0  0  0  # atno 8009 bound_to 7997
  156.0694  140.1346  156.9835 H   0  0  0  0  0  0  0  0  0  0  0  0  # atno 8010 bound_to 7997
  140.3454  144.2418  150.6151 H   0  0  0  0  0  0  0  0  0  0  0  0  # atno 10167 bound_to 10162
  156.9696  130.5964  149.5668 H   0  0  0  0  0  0  0  0  0  0  0  0  # atno 10718 bound_to 10713
  153.7546  135.6923  153.4938 H   0  0  0  0  0  0  0  0  0  0  0  0  # atno 10763 bound_to 10752
  153.1980  135.4447  155.0230 H   0  0  0  0  0  0  0  0  0  0  0  0  # atno 10764 bound_to 10752
  154.8175  135.3406  154.7065 H   0  0  0  0  0  0  0  0  0  0  0  0  # atno 10765 bound_to 10752
  140.9093  133.7471  156.0649 H   0  0  0  0  0  0  0  0  0  0  0  0  # atno 11005 bound_to 11000
  145.4499  139.1525  143.3924 LP  0  0  0  0  0  0  0  0  0  0  0  0  # atno 17320 bound_to 7965
  146.2785  140.4624  142.8786 LP  0  0  0  0  0  0  0  0  0  0  0  0  # atno 17321 bound_to 7965
  140.5270  143.2252  151.8299 LP  0  0  0  0  0  0  0  0  0  0  0  0  # atno 17342 bound_to 10162
  139.4834  144.4767  151.9357 LP  0  0  0  0  0  0  0  0  0  0  0  0  # atno 17343 bound_to 10162
  156.0288  130.5381  150.8479 LP  0  0  0  0  0  0  0  0  0  0  0  0  # atno 17370 bound_to 10713
  157.5602  131.0945  150.9570 LP  0  0  0  0  0  0  0  0  0  0  0  0  # atno 17371 bound_to 10713
  140.8130  134.3377  157.5406 LP  0  0  0  0  0  0  0  0  0  0  0  0  # atno 17394 bound_to 11000
  139.8755  134.9265  156.3402 LP  0  0  0  0  0  0  0  0  0  0  0  0  # atno 17395 bound_to 11000

$$$$
