AV-unprocessed.smi:3105|AV-procd|sdf|11819|dock6
  -GOLD-   2272017193D 1   1.00000     0.00000
 Structure written by MMmdl.
 34 34  0  0  0  0  0  0  0  0  2 V2000
  151.2333  142.9552  157.0575 C   0  0  0  0  0  0  0  0  0  0  0  0
  150.6279  141.8921  156.1200 C   0  0  2  0  0  0  0  0  0  0  0  0
  149.2377  142.2649  155.7671 N   0  3  0  0  0  0  0  0  0  0  0  0
  148.5998  141.4328  154.7228 C   0  0  0  0  0  0  0  0  0  0  0  0
  147.2542  142.0247  154.2590 C   0  0  0  0  0  0  0  0  0  0  0  0
  146.2088  142.1832  155.3719 C   0  0  0  0  0  0  0  0  0  0  0  0
  144.9638  141.8014  155.0790 N   0  0  0  0  0  0  0  0  0  0  0  0
  146.5091  142.6379  156.4747 O   0  0  0  0  0  0  0  0  0  0  0  0
  150.6480  140.4705  156.7469 C   0  0  2  0  0  0  0  0  0  0  0  0
  151.6387  140.3339  157.9182 C   0  0  0  0  0  0  0  0  0  0  0  0
  150.9319  139.4420  155.7512 N   0  0  0  0  0  0  0  0  0  0  0  0
  152.1399  139.1447  155.1544 C   0  0  0  0  0  0  0  0  0  0  0  0
  151.9216  138.1239  154.2743 C   0  0  0  0  0  0  0  0  0  0  0  0
  150.5278  137.8670  154.3929 C   0  0  0  0  0  0  0  0  0  0  0  0
  149.9381  138.6579  155.2742 N   0  0  0  0  0  0  0  0  0  0  0  0
  152.2820  142.7524  157.2719 H   0  0  0  0  0  0  0  0  0  0  0  0
  150.7001  142.9955  158.0077 H   0  0  0  0  0  0  0  0  0  0  0  0
  151.1973  143.9514  156.6176 H   0  0  0  0  0  0  0  0  0  0  0  0
  151.2172  141.8690  155.2019 H   0  0  0  0  0  0  0  0  0  0  0  0
  148.6786  142.1704  156.6033 H   0  0  0  0  0  0  0  0  0  0  0  0
  149.2675  141.3170  153.8690 H   0  0  0  0  0  0  0  0  0  0  0  0
  148.4318  140.4337  155.1264 H   0  0  0  0  0  0  0  0  0  0  0  0
  147.4322  143.0090  153.8236 H   0  0  0  0  0  0  0  0  0  0  0  0
  146.8328  141.4078  153.4639 H   0  0  0  0  0  0  0  0  0  0  0  0
  144.2332  141.8762  155.7723 H   0  0  0  0  0  0  0  0  0  0  0  0
  144.7556  141.4316  154.1621 H   0  0  0  0  0  0  0  0  0  0  0  0
  149.6504  140.2616  157.1369 H   0  0  0  0  0  0  0  0  0  0  0  0
  151.3556  140.9592  158.7642 H   0  0  0  0  0  0  0  0  0  0  0  0
  152.6503  140.6105  157.6194 H   0  0  0  0  0  0  0  0  0  0  0  0
  151.6713  139.3066  158.2827 H   0  0  0  0  0  0  0  0  0  0  0  0
  153.0460  139.6779  155.4025 H   0  0  0  0  0  0  0  0  0  0  0  0
  152.6462  137.6389  153.6371 H   0  0  0  0  0  0  0  0  0  0  0  0
  149.9310  137.1358  153.8674 H   0  0  0  0  0  0  0  0  0  0  0  0
  149.2215  143.2328  155.4780 H   0  0  0  0  0  0  0  0  0  0  0  0
  1  2  1  0  0  0  0
  1 16  1  0  0  0  0
  1 17  1  0  0  0  0
  1 18  1  0  0  0  0
  2  3  1  0  0  0  0
  2  9  1  0  0  0  0
  2 19  1  0  0  0  0
  3  4  1  0  0  0  0
  3 20  1  0  0  0  0
  3 34  1  0  0  0  0
  4  5  1  0  0  0  0
  4 21  1  0  0  0  0
  4 22  1  0  0  0  0
  5  6  1  0  0  0  0
  5 23  1  0  0  0  0
  5 24  1  0  0  0  0
  6  7  1  0  0  0  0
  6  8  2  0  0  0  0
  7 25  1  0  0  0  0
  7 26  1  0  0  0  0
  9 10  1  0  0  0  0
  9 11  1  0  0  0  0
  9 27  1  0  0  0  0
 10 28  1  0  0  0  0
 10 29  1  0  0  0  0
 10 30  1  0  0  0  0
 11 15  1  0  0  0  0
 11 12  1  0  0  0  0
 12 13  2  0  0  0  0
 12 31  1  0  0  0  0
 13 14  1  0  0  0  0
 13 32  1  0  0  0  0
 14 15  2  0  0  0  0
 14 33  1  0  0  0  0
M  CHG  1   3   1
M  END
> <s_m_source_file>
AV-unprocessed.smi

> <i_m_source_file_index>
3105

> <i_lp_mmshare_version>
43012

> <i_f3d_flags>
0

> <s_epik_input>
W05IMl1DKD1PKVtDSDJdW0NIMl1bTkhdW0NAQEhdKFtDSDNdKVtDQEhdKFtDSDNdKW4xW2NIXVtjSF1bY0hdbjE=

> <s_epik_cmdline>
J2VwaWtfcHl0aG9uJywgJy1waCcsICc3LjAnLCAnLXRuJywgJzgnLCAnLW1hJywgJzIwMCcsICctbWV0YWxfYmluZGluZycsICctaW1hZScsICc8aW5maWxlLm1hZT4nLCAnLW9tYWUnLCAnPG91dGZpbGUubWFlPic=

> <r_lp_tautomer_probability>
1

> <r_epik_Ionization_Penalty>
0.00475669

> <r_epik_Ionization_Penalty_Charging>
0.00474654

> <r_epik_Ionization_Penalty_Neutral>
1.01546e-05

> <r_epik_State_Penalty>
-0

> <r_epik_Charging_Adjusted_Penalty>
0.00474654

> <i_epik_Tot_Q>
1

> <i_epik_Tot_abs_Q>
1

> <r_epik_Metal_State_Penalty>
-0

> <b_epik_Metal_Only>
0

> <s_lp_Force_Field>
OPLS_2005

> <r_lp_Energy>
5.41696

> <b_lp_Chiralities_Consistent>
1

> <s_lp_Variant>
AV-unprocessed.smi:3105-1

> <Gold.Version>
5.8.1

> <Gold.Id.Protein>
6NUR|6NUR_protein|mol2

> <Gold.PLP.Fitness>
40.8960

> <Gold.PLP.PLP>
-31.7773

> <Gold.PLP.part.hbond>
-1.8487

> <Gold.PLP.part.metal>
0.0000

> <Gold.PLP.part.buried>
-5.1248

> <Gold.PLP.part.nonpolar>
-25.9772

> <Gold.PLP.part.repulsive>
0.3875

> <Gold.PLP.ligand.clash>
0.0000

> <Gold.PLP.ligand.torsion>
1.5727

> <Gold.PLP.Chemscore.Hbond>
2.9600

> <Gold.PLP.Chemscore.CHOScore>
1.0811

> <Gold.PLP.Chemscore.Metal>
0.0000

> <Gold.Chemscore.Hbonds>
donor molecule, donor type, donor heavy atom, donor atom, acceptor molecule, acceptor atom, score
      L1  H     3    34       P1  8028  2.00
      L1  H     7    26       P1 10175  0.60
      L1  C    14    33       P1  7948  1.00

> <Gold.PLP.Chemscore.Internal.Correction>
0.1407

> <Gold.Rescore>
     Score         DG    S(hbond)    S(metal)    S(lipo)     H(rot)  DE(clash)    DE(int)     intcor
     10.31     -12.02       1.83        0.00      66.12       2.85       0.00       1.71       ----

> <Gold.Chemscore.Fitness>
10.3146

> <Gold.Chemscore.DG>
-12.0244

> <Gold.Chemscore.ZeroCoef>
-5.4800

> <Gold.Chemscore.Hbond>
1.8255

> <Gold.Chemscore.Metal>
0.0000

> <Gold.Chemscore.Lipo>
66.1226

> <Gold.Chemscore.Internal_Hbond>
0.0000

> <Gold.Chemscore.DEClash>
0.0009

> <Gold.Chemscore.DEInternal>
1.7089

> <Gold.Chemscore.Rot>
2.8473

> <Gold.Chemscore.Internal.Correction>
   9.000000E+99

> <Gold.Chemscore.Hbonds>
donor molecule, donor type, donor heavy atom, donor atom, acceptor molecule, acceptor atom, score
      L1  H     3    34       P1  8028  0.91
      L1  H     7    26       P1 10175  0.27

> <Gold.Chemscore.Hbond.Weighted>
-6.0973

> <Gold.Chemscore.Metal.Weighted>
-0.0000

> <Gold.Chemscore.Lipo.Weighted>
-7.7363

> <Gold.Chemscore.Internal_Hbond.Weighted>
0.0000

> <Gold.Chemscore.DEClash.Weighted>
0.0009

> <Gold.Chemscore.DEInternal.Weighted>
1.7089

> <Gold.Chemscore.Rot.Weighted>
7.2892

> <Gold.Chemscore.Internal.Correction.Weighted>
   9.000000E+99

> <Gold.Protein.RotatedTorsions>
[ 6907 6896 6895 6894 ] final  175.80 input  -60.11 | X-H torsion
[ 7974 7965 7964 7962 ] final  -36.80 input  175.53 | X-H torsion
[ 8008 7997 7996 7995 ] final   28.02 input   59.86 | X-H torsion
[ 10167 10162 10161 10158 ] final  -43.49 input  -65.29 | X-H torsion
[ 10718 10713 10712 10709 ] final    2.54 input   66.30 | X-H torsion
[ 10763 10752 10751 10750 ] final   70.37 input  -60.55 | X-H torsion
[ 11005 11000 10999 10996 ] final   90.36 input  -57.11 | X-H torsion

> <Gold.Protein.ActiveResidues>
 VAL166  LYS551  ARG553  GLY616  TRP617  ASP618  TYR619  PRO620  LYS621  CYS622 
 ASP623  PHE694  ASN695  SER759  ASP760  ASP761  ALA762  ILE779  LEU786  VAL792 
 PHE793  MET794  SER795  GLU796  ALA797  LYS798  CYS799  TRP800  GLU811  SER814 

> <Gold.Protein.RotatedAtoms>
  151.7304  133.3317  159.3338 H   0  0  0  0  0  0  0  0  0  0  0  0  # atno 6907 bound_to 6896
  150.7615  134.6368  159.6225 H   0  0  0  0  0  0  0  0  0  0  0  0  # atno 6908 bound_to 6896
  152.3595  134.6894  160.0263 H   0  0  0  0  0  0  0  0  0  0  0  0  # atno 6909 bound_to 6896
  146.0630  140.6321  142.8988 H   0  0  0  0  0  0  0  0  0  0  0  0  # atno 7974 bound_to 7965
  155.0520  140.3181  155.4689 H   0  0  0  0  0  0  0  0  0  0  0  0  # atno 8008 bound_to 7997
  156.2832  140.2144  156.5590 H   0  0  0  0  0  0  0  0  0  0  0  0  # atno 8009 bound_to 7997
  154.7202  140.0490  157.0620 H   0  0  0  0  0  0  0  0  0  0  0  0  # atno 8010 bound_to 7997
  140.6932  143.2980  151.3360 H   0  0  0  0  0  0  0  0  0  0  0  0  # atno 10167 bound_to 10162
  156.8645  130.5598  149.5661 H   0  0  0  0  0  0  0  0  0  0  0  0  # atno 10718 bound_to 10713
  153.0338  135.5176  154.7431 H   0  0  0  0  0  0  0  0  0  0  0  0  # atno 10763 bound_to 10752
  154.6425  135.2914  155.0089 H   0  0  0  0  0  0  0  0  0  0  0  0  # atno 10764 bound_to 10752
  154.1002  135.6637  153.4919 H   0  0  0  0  0  0  0  0  0  0  0  0  # atno 10765 bound_to 10752
  139.8857  134.8609  156.3274 H   0  0  0  0  0  0  0  0  0  0  0  0  # atno 11005 bound_to 11000
  144.7186  140.4296  143.7025 LP  0  0  0  0  0  0  0  0  0  0  0  0  # atno 17320 bound_to 7965
  145.6526  139.1567  143.2853 LP  0  0  0  0  0  0  0  0  0  0  0  0  # atno 17321 bound_to 7965
  139.6357  144.0636  152.2513 LP  0  0  0  0  0  0  0  0  0  0  0  0  # atno 17342 bound_to 10162
  140.0125  144.6213  150.7635 LP  0  0  0  0  0  0  0  0  0  0  0  0  # atno 17343 bound_to 10162
  156.0759  130.5781  150.9472 LP  0  0  0  0  0  0  0  0  0  0  0  0  # atno 17370 bound_to 10713
  157.6231  131.0928  150.8585 LP  0  0  0  0  0  0  0  0  0  0  0  0  # atno 17371 bound_to 10713
  140.9746  133.7306  156.0583 LP  0  0  0  0  0  0  0  0  0  0  0  0  # atno 17394 bound_to 11000
  140.7827  134.3707  157.5483 LP  0  0  0  0  0  0  0  0  0  0  0  0  # atno 17395 bound_to 11000

$$$$
