AV-unprocessed.smi:1|AV-procd|sdf|9|dock8
  -GOLD-   2262015 93D 1   1.00000     0.00000
 Structure written by MMmdl.
 57 62  0  0  0  0  0  0  0  0  1 V2000
  150.9959  128.7850  155.7068 O   0  0  0  0  0  0  0  0  0  0  0  0
  151.8996  129.6022  155.9022 C   0  0  0  0  0  0  0  0  0  0  0  0
  151.8017  130.9414  156.2554 N   0  0  0  0  0  0  0  0  0  0  0  0
  151.0779  131.7523  155.5450 C   0  0  0  0  0  0  0  0  0  0  0  0
  150.2929  131.5652  154.3996 N   0  0  0  0  0  0  0  0  0  0  0  0
  149.5454  132.5556  153.7432 C   0  0  0  0  0  0  0  0  0  0  0  0
  149.4776  133.8074  154.1108 N   0  0  0  0  0  0  0  0  0  0  0  0
  150.2418  134.0459  155.2441 C   0  0  0  0  0  0  0  0  0  0  0  0
  151.0123  133.1660  155.9726 C   0  0  0  0  0  0  0  0  0  0  0  0
  151.6203  133.8119  157.0434 N   0  0  0  0  0  0  0  0  0  0  0  0
  151.1828  135.0619  156.9159 C   0  0  0  0  0  0  0  0  0  0  0  0
  150.3507  135.2798  155.8776 N   0  0  0  0  0  0  0  0  0  0  0  0
  149.6861  136.5613  155.4681 C   0  0  2  0  0  0  0  0  0  0  0  0
  150.6710  137.5247  155.2428 O   0  0  0  0  0  0  0  0  0  0  0  0
  150.7926  138.3635  156.3848 C   0  0  1  0  0  0  0  0  0  0  0  0
  151.4593  139.6877  156.0024 C   0  0  0  0  0  0  0  0  0  0  0  0
  151.5014  140.5233  157.1471 O   0  0  0  0  0  0  0  0  0  0  0  0
  152.5016  140.3980  158.0394 C   0  0  0  0  0  0  0  0  0  0  0  0
  153.3496  139.5044  157.9930 O   0  0  0  0  0  0  0  0  0  0  0  0
  152.4737  141.4539  159.0924 C   0  0  0  0  0  0  0  0  0  0  0  0
  153.3330  141.3407  160.2103 C   0  0  0  0  0  0  0  0  0  0  0  0
  153.3280  142.3214  161.2212 C   0  0  0  0  0  0  0  0  0  0  0  0
  152.4640  143.4280  161.1263 C   0  0  0  0  0  0  0  0  0  0  0  0
  151.6050  143.5526  160.0189 C   0  0  0  0  0  0  0  0  0  0  0  0
  151.6080  142.5725  159.0073 C   0  0  0  0  0  0  0  0  0  0  0  0
  149.3409  138.5123  156.8375 C   0  0  2  0  0  0  0  0  0  0  0  0
  149.2420  138.8096  158.2192 O   0  0  0  0  0  0  0  0  0  0  0  0
  149.0606  137.3823  159.0683 S   0  0  0  0  0  0  0  0  0  0  0  0
  150.3422  137.0629  159.7153 O   0  0  0  0  0  0  0  0  0  0  0  0
  147.7923  137.4458  159.8100 O   0  0  0  0  0  0  0  0  0  0  0  0
  148.8602  136.3466  157.7748 O   0  0  0  0  0  0  0  0  0  0  0  0
  148.7678  137.1102  156.5807 C   0  0  2  0  0  0  0  0  0  0  0  0
  153.3110  129.1304  155.7727 C   0  0  0  0  0  0  0  0  0  0  0  0
  153.5784  127.8002  155.3853 C   0  0  0  0  0  0  0  0  0  0  0  0
  154.9085  127.3501  155.2765 C   0  0  0  0  0  0  0  0  0  0  0  0
  155.9745  128.2271  155.5564 C   0  0  0  0  0  0  0  0  0  0  0  0
  155.7103  129.5547  155.9454 C   0  0  0  0  0  0  0  0  0  0  0  0
  154.3805  130.0065  156.0550 C   0  0  0  0  0  0  0  0  0  0  0  0
  149.0020  132.1941  152.8688 H   0  0  0  0  0  0  0  0  0  0  0  0
  151.4798  135.8388  157.6044 H   0  0  0  0  0  0  0  0  0  0  0  0
  149.1656  136.3176  154.5414 H   0  0  0  0  0  0  0  0  0  0  0  0
  151.3713  137.8514  157.1553 H   0  0  0  0  0  0  0  0  0  0  0  0
  152.4616  139.5123  155.6089 H   0  0  0  0  0  0  0  0  0  0  0  0
  150.8797  140.1855  155.2239 H   0  0  0  0  0  0  0  0  0  0  0  0
  154.0050  140.4999  160.3050 H   0  0  0  0  0  0  0  0  0  0  0  0
  153.9881  142.2236  162.0705 H   0  0  0  0  0  0  0  0  0  0  0  0
  152.4603  144.1803  161.9012 H   0  0  0  0  0  0  0  0  0  0  0  0
  150.9416  144.4017  159.9449 H   0  0  0  0  0  0  0  0  0  0  0  0
  150.9357  142.6990  158.1710 H   0  0  0  0  0  0  0  0  0  0  0  0
  148.8172  139.2561  156.2356 H   0  0  0  0  0  0  0  0  0  0  0  0
  147.7326  137.1437  156.2397 H   0  0  0  0  0  0  0  0  0  0  0  0
  152.7655  127.1210  155.1722 H   0  0  0  0  0  0  0  0  0  0  0  0
  155.1110  126.3315  154.9804 H   0  0  0  0  0  0  0  0  0  0  0  0
  156.9941  127.8806  155.4743 H   0  0  0  0  0  0  0  0  0  0  0  0
  156.5279  130.2264  156.1621 H   0  0  0  0  0  0  0  0  0  0  0  0
  154.1857  131.0253  156.3576 H   0  0  0  0  0  0  0  0  0  0  0  0
  150.2608  130.6323  154.0142 H   0  0  0  0  0  0  0  0  0  0  0  0
  1  2  2  0  0  0  0
  2  3  1  0  0  0  0
  2 33  1  0  0  0  0
  3  4  2  0  0  0  0
  4  9  1  0  0  0  0
  4  5  1  0  0  0  0
  5  6  1  0  0  0  0
  5 57  1  0  0  0  0
  6  7  2  0  0  0  0
  6 39  1  0  0  0  0
  7  8  1  0  0  0  0
  8 12  1  0  0  0  0
  8  9  2  0  0  0  0
  9 10  1  0  0  0  0
 10 11  2  0  0  0  0
 11 12  1  0  0  0  0
 11 40  1  0  0  0  0
 12 13  1  0  0  0  0
 13 32  1  0  0  0  0
 13 14  1  0  0  0  0
 13 41  1  0  0  0  0
 14 15  1  0  0  0  0
 15 16  1  0  0  0  0
 15 26  1  0  0  0  0
 15 42  1  0  0  0  0
 16 17  1  0  0  0  0
 16 43  1  0  0  0  0
 16 44  1  0  0  0  0
 17 18  1  0  0  0  0
 18 19  2  0  0  0  0
 18 20  1  0  0  0  0
 20 25  1  0  0  0  0
 20 21  2  0  0  0  0
 21 22  1  0  0  0  0
 21 45  1  0  0  0  0
 22 23  2  0  0  0  0
 22 46  1  0  0  0  0
 23 24  1  0  0  0  0
 23 47  1  0  0  0  0
 24 25  2  0  0  0  0
 24 48  1  0  0  0  0
 25 49  1  0  0  0  0
 26 32  1  0  0  0  0
 26 27  1  0  0  0  0
 26 50  1  0  0  0  0
 27 28  1  0  0  0  0
 28 29  2  0  0  0  0
 28 30  2  0  0  0  0
 28 31  1  0  0  0  0
 31 32  1  0  0  0  0
 32 51  1  0  0  0  0
 33 38  1  0  0  0  0
 33 34  2  0  0  0  0
 34 35  1  0  0  0  0
 34 52  1  0  0  0  0
 35 36  2  0  0  0  0
 35 53  1  0  0  0  0
 36 37  1  0  0  0  0
 36 54  1  0  0  0  0
 37 38  2  0  0  0  0
 37 55  1  0  0  0  0
 38 56  1  0  0  0  0
M  END
> <s_m_source_file>
AV-unprocessed.smi

> <i_m_source_file_index>
1

> <i_lp_mmshare_version>
43012

> <i_f3d_flags>
0

> <s_epik_input>
W2NIXTFbY0hdW2NIXVtjSF1bY0hdYzFDKD1PKVtOSF1jKG5bY0hdbjIpYyhjMjMpbltjSF1uM1tDQEBIXShbQ0BIXShbQ0BIXTQ1KU9TKE81KSg9Tyk9TylPW0NASF00W0NIMl1PQyg9TyljNltjSF1bY0hdW2NIXVtjSF1bY0hdNg==

> <s_epik_cmdline>
J2VwaWtfcHl0aG9uJywgJy1waCcsICc3LjAnLCAnLXRuJywgJzgnLCAnLW1hJywgJzIwMCcsICctbWV0YWxfYmluZGluZycsICctaW1hZScsICc8aW5maWxlLm1hZT4nLCAnLW9tYWUnLCAnPG91dGZpbGUubWFlPic=

> <r_epik_Ionization_Penalty>
0.122545

> <r_epik_Ionization_Penalty_Charging>
0.122545

> <r_epik_Ionization_Penalty_Neutral>
7.8935e-16

> <r_epik_State_Penalty>
2.69178

> <r_epik_Charging_Adjusted_Penalty>
2.81433

> <i_epik_Tot_Q>
0

> <i_epik_Tot_abs_Q>
0

> <r_epik_Metal_State_Penalty>
3.02665

> <b_epik_Metal_Only>
0

> <s_epik_Chemistry_Notes>
This compound has an ester and may undergo hydrolysis at high or low pH. This compound contains an acetal/aminal-like group ( X-CH(R)-Y where X, Y are N, S, or O) that may be acid/base labile, releasing an aldehyde.

> <s_lp_Force_Field>
OPLS_2005

> <r_lp_Energy>
57.7872

> <b_lp_Chiralities_Consistent>
1

> <s_lp_Variant>
AV-unprocessed.smi:1-9

> <Gold.Version>
5.8.1

> <Gold.Id.Protein>
6NUR|6NUR_protein|mol2

> <Gold.PLP.Fitness>
60.6646

> <Gold.PLP.PLP>
-53.3108

> <Gold.PLP.part.hbond>
-4.7849

> <Gold.PLP.part.metal>
0.0000

> <Gold.PLP.part.buried>
-6.8099

> <Gold.PLP.part.nonpolar>
-42.8004

> <Gold.PLP.part.repulsive>
0.4244

> <Gold.PLP.ligand.clash>
0.0000

> <Gold.PLP.ligand.torsion>
0.7098

> <Gold.PLP.Chemscore.Hbond>
2.8722

> <Gold.PLP.Chemscore.CHOScore>
0.0000

> <Gold.PLP.Chemscore.Metal>
0.0000

> <Gold.Chemscore.Hbonds>
donor molecule, donor type, donor heavy atom, donor atom, acceptor molecule, acceptor atom, score
      P1  H  6896  6907       L1    10  0.21
      P1  H  6896  6908       L1    29  0.75
      P1  H  6934  6947       L1    30  0.72
      P1  H  7997  8008       L1    19  1.00
      L1  C     6    39       P1 10747  0.10

> <Gold.PLP.Chemscore.Internal.Correction>
0.1567

> <Gold.Rescore>
     Score         DG    S(hbond)    S(metal)    S(lipo)     H(rot)  DE(clash)    DE(int)     intcor
     18.36     -21.56       2.66        0.00     108.03       2.13       0.18       3.01       ----

> <Gold.Chemscore.Fitness>
18.3647

> <Gold.Chemscore.DG>
-21.5574

> <Gold.Chemscore.ZeroCoef>
-5.4800

> <Gold.Chemscore.Hbond>
2.6643

> <Gold.Chemscore.Metal>
0.0000

> <Gold.Chemscore.Lipo>
108.0334

> <Gold.Chemscore.Internal_Hbond>
0.0000

> <Gold.Chemscore.DEClash>
0.1818

> <Gold.Chemscore.DEInternal>
3.0108

> <Gold.Chemscore.Rot>
2.1333

> <Gold.Chemscore.Internal.Correction>
   9.000000E+99

> <Gold.Chemscore.Hbonds>
donor molecule, donor type, donor heavy atom, donor atom, acceptor molecule, acceptor atom, score
      P1  H  6896  6907       L1    10  0.05
      P1  H  6896  6908       L1    29  0.74
      P1  H  6934  6947       L1    30  0.68
      P1  H  7997  8008       L1    19  0.50

> <Gold.Chemscore.Hbond.Weighted>
-8.8988

> <Gold.Chemscore.Metal.Weighted>
-0.0000

> <Gold.Chemscore.Lipo.Weighted>
-12.6399

> <Gold.Chemscore.Internal_Hbond.Weighted>
0.0000

> <Gold.Chemscore.DEClash.Weighted>
0.1818

> <Gold.Chemscore.DEInternal.Weighted>
3.0108

> <Gold.Chemscore.Rot.Weighted>
5.4614

> <Gold.Chemscore.Internal.Correction.Weighted>
   9.000000E+99

> <Gold.Protein.RotatedTorsions>
[ 6907 6896 6895 6894 ] final -148.39 input  -60.11 | X-H torsion
[ 7974 7965 7964 7962 ] final   77.73 input  175.53 | X-H torsion
[ 8008 7997 7996 7995 ] final  -74.56 input   59.86 | X-H torsion
[ 10167 10162 10161 10158 ] final  178.41 input  -65.29 | X-H torsion
[ 10718 10713 10712 10709 ] final  108.50 input   66.30 | X-H torsion
[ 10763 10752 10751 10750 ] final  167.31 input  -60.55 | X-H torsion
[ 11005 11000 10999 10996 ] final -123.25 input  -57.11 | X-H torsion

> <Gold.Protein.ActiveResidues>
 VAL166  LYS551  ARG553  GLY616  TRP617  ASP618  TYR619  PRO620  LYS621  CYS622 
 ASP623  PHE694  ASN695  SER759  ASP760  ASP761  ALA762  ILE779  LEU786  VAL792 
 PHE793  MET794  SER795  GLU796  ALA797  LYS798  CYS799  TRP800  GLU811  SER814 

> <Gold.Protein.RotatedAtoms>
  151.1691  133.4796  159.2593 H   0  0  0  0  0  0  0  0  0  0  0  0  # atno 6907 bound_to 6896
  151.1374  135.0162  159.8620 H   0  0  0  0  0  0  0  0  0  0  0  0  # atno 6908 bound_to 6896
  152.5461  134.1588  159.8602 H   0  0  0  0  0  0  0  0  0  0  0  0  # atno 6909 bound_to 6896
  145.6863  139.2539  143.1785 H   0  0  0  0  0  0  0  0  0  0  0  0  # atno 7974 bound_to 7965
  154.5342  140.0759  156.8397 H   0  0  0  0  0  0  0  0  0  0  0  0  # atno 8008 bound_to 7997
  155.3313  140.3402  155.4221 H   0  0  0  0  0  0  0  0  0  0  0  0  # atno 8009 bound_to 7997
  156.1811  140.1652  156.8259 H   0  0  0  0  0  0  0  0  0  0  0  0  # atno 8010 bound_to 7997
  139.5293  144.2684  152.0649 H   0  0  0  0  0  0  0  0  0  0  0  0  # atno 10167 bound_to 10162
  157.6583  131.0895  150.6315 H   0  0  0  0  0  0  0  0  0  0  0  0  # atno 10718 bound_to 10713
  154.3519  135.2753  155.2367 H   0  0  0  0  0  0  0  0  0  0  0  0  # atno 10763 bound_to 10752
  154.4593  135.5911  153.6248 H   0  0  0  0  0  0  0  0  0  0  0  0  # atno 10764 bound_to 10752
  152.9849  135.6061  154.3730 H   0  0  0  0  0  0  0  0  0  0  0  0  # atno 10765 bound_to 10752
  140.9933  134.0508  157.3628 H   0  0  0  0  0  0  0  0  0  0  0  0  # atno 11005 bound_to 11000
  146.0921  140.7644  142.9590 LP  0  0  0  0  0  0  0  0  0  0  0  0  # atno 17320 bound_to 7965
  144.7010  140.3653  143.7156 LP  0  0  0  0  0  0  0  0  0  0  0  0  # atno 17321 bound_to 7965
  140.2145  144.4529  150.6370 LP  0  0  0  0  0  0  0  0  0  0  0  0  # atno 17342 bound_to 10162
  140.6459  143.2213  151.6187 LP  0  0  0  0  0  0  0  0  0  0  0  0  # atno 17343 bound_to 10162
  156.6619  130.4515  149.5685 LP  0  0  0  0  0  0  0  0  0  0  0  0  # atno 17370 bound_to 10713
  156.2060  130.6649  151.1219 LP  0  0  0  0  0  0  0  0  0  0  0  0  # atno 17371 bound_to 10713
  139.9002  135.0161  156.7233 LP  0  0  0  0  0  0  0  0  0  0  0  0  # atno 17394 bound_to 11000
  140.7006  133.9310  155.8022 LP  0  0  0  0  0  0  0  0  0  0  0  0  # atno 17395 bound_to 11000

$$$$
