AV-unprocessed.smi:157|AV-procd|sdf|1303|dock4
  -GOLD-   2262018593D 1   1.00000     0.00000
 Structure written by MMmdl.
 35 37  0  0  0  0  0  0  0  0  1 V2000
  149.8974  138.4081  153.2086 O   0  0  0  0  0  0  0  0  0  0  0  0
  149.8373  138.4646  154.6190 C   0  0  0  0  0  0  0  0  0  0  0  0
  148.7972  139.5057  155.0823 C   0  0  1  0  0  0  0  0  0  0  0  0
  148.9391  139.6436  156.4980 O   0  0  0  0  0  0  0  0  0  0  0  0
  149.4285  140.9112  156.8246 C   0  0  1  0  0  0  0  0  0  0  0  0
  150.5473  140.7627  157.8074 N   0  0  0  0  0  0  0  0  0  0  0  0
  151.0975  139.6141  158.2234 C   0  0  0  0  0  0  0  0  0  0  0  0
  152.0798  139.7604  159.0966 N   0  0  0  0  0  0  0  0  0  0  0  0
  152.1855  141.1412  159.2555 C   0  0  0  0  0  0  0  0  0  0  0  0
  151.2488  141.7820  158.4569 C   0  0  0  0  0  0  0  0  0  0  0  0
  150.8893  143.0908  158.1974 N   0  0  0  0  0  0  0  0  0  0  0  0
  151.7359  144.0245  158.4980 C   0  0  0  0  0  0  0  0  0  0  0  0
  152.9594  143.9477  159.1478 N   0  0  0  0  0  0  0  0  0  0  0  0
  153.1562  143.2236  160.3922 C   0  0  0  0  0  0  0  0  0  0  0  0
  153.1961  141.7006  160.2154 C   0  0  2  0  0  0  0  0  0  0  0  0
  154.4721  141.3210  159.7417 O   0  0  0  0  0  0  0  0  0  0  0  0
  149.9403  141.5397  155.5335 C   0  0  0  0  0  0  0  0  0  0  0  0
  148.9811  140.9333  154.5351 C   0  0  1  0  0  0  0  0  0  0  0  0
  149.4874  141.0054  153.2176 O   0  0  0  0  0  0  0  0  0  0  0  0
  147.7928  139.1374  154.8685 H   0  0  0  0  0  0  0  0  0  0  0  0
  148.6546  141.4939  157.3256 H   0  0  0  0  0  0  0  0  0  0  0  0
  153.0724  141.2364  161.1943 H   0  0  0  0  0  0  0  0  0  0  0  0
  148.0291  141.4641  154.5798 H   0  0  0  0  0  0  0  0  0  0  0  0
  149.6644  137.5347  152.9323 H   0  0  0  0  0  0  0  0  0  0  0  0
  149.5492  137.4735  154.9707 H   0  0  0  0  0  0  0  0  0  0  0  0
  150.8255  138.6718  155.0301 H   0  0  0  0  0  0  0  0  0  0  0  0
  150.7695  138.6441  157.8799 H   0  0  0  0  0  0  0  0  0  0  0  0
  151.4923  145.0523  158.2251 H   0  0  0  0  0  0  0  0  0  0  0  0
  153.5909  144.7326  159.0778 H   0  0  0  0  0  0  0  0  0  0  0  0
  154.0574  143.5806  160.8915 H   0  0  0  0  0  0  0  0  0  0  0  0
  152.3234  143.4789  161.0489 H   0  0  0  0  0  0  0  0  0  0  0  0
  155.1230  141.6981  160.3140 H   0  0  0  0  0  0  0  0  0  0  0  0
  149.9076  142.6285  155.5804 H   0  0  0  0  0  0  0  0  0  0  0  0
  150.9656  141.2165  155.3444 H   0  0  0  0  0  0  0  0  0  0  0  0
  149.0588  140.3443  152.6954 H   0  0  0  0  0  0  0  0  0  0  0  0
  1  2  1  0  0  0  0
  1 24  1  0  0  0  0
  2  3  1  0  0  0  0
  2 25  1  0  0  0  0
  2 26  1  0  0  0  0
  3 20  1  0  0  0  0
  3 18  1  0  0  0  0
  3  4  1  0  0  0  0
  4  5  1  0  0  0  0
  5 21  1  0  0  0  0
  5  6  1  0  0  0  0
  5 17  1  0  0  0  0
  6 10  1  0  0  0  0
  6  7  1  0  0  0  0
  7  8  2  0  0  0  0
  7 27  1  0  0  0  0
  8  9  1  0  0  0  0
  9 15  1  0  0  0  0
  9 10  2  0  0  0  0
 10 11  1  0  0  0  0
 11 12  2  0  0  0  0
 12 13  1  0  0  0  0
 12 28  1  0  0  0  0
 13 14  1  0  0  0  0
 13 29  1  0  0  0  0
 14 15  1  0  0  0  0
 14 30  1  0  0  0  0
 14 31  1  0  0  0  0
 15 22  1  0  0  0  0
 15 16  1  0  0  0  0
 16 32  1  0  0  0  0
 17 18  1  0  0  0  0
 17 33  1  0  0  0  0
 17 34  1  0  0  0  0
 18 23  1  0  0  0  0
 18 19  1  0  0  0  0
 19 35  1  0  0  0  0
M  END
> <s_m_source_file>
AV-unprocessed.smi

> <i_m_source_file_index>
157

> <i_lp_mmshare_version>
43012

> <i_f3d_flags>
0

> <s_epik_input>
W09IXVtDSDJdW0NASF0xT1tDQEhdKFtDSDJdW0NAQEhdMVtPSF0pbihbY0hdbjIpYyhjMjMpTj1bQ0hdW05IXVtDSDJdW0NASF0zW09IXQ==

> <s_epik_cmdline>
J2VwaWtfcHl0aG9uJywgJy1waCcsICc3LjAnLCAnLXRuJywgJzgnLCAnLW1hJywgJzIwMCcsICctbWV0YWxfYmluZGluZycsICctaW1hZScsICc8aW5maWxlLm1hZT4nLCAnLW9tYWUnLCAnPG91dGZpbGUubWFlPic=

> <r_lp_tautomer_probability>
1

> <r_epik_Ionization_Penalty>
0.0357149

> <r_epik_Ionization_Penalty_Charging>
0.0355056

> <r_epik_Ionization_Penalty_Neutral>
0.000209255

> <r_epik_State_Penalty>
0.0296046

> <r_epik_Charging_Adjusted_Penalty>
0.0651102

> <i_epik_Tot_Q>
0

> <i_epik_Tot_abs_Q>
0

> <r_epik_Metal_State_Penalty>
3.03559e-05

> <b_epik_Metal_Only>
0

> <s_epik_Chemistry_Notes>
This compound has an imine and may undergo hydrolysis. This compound contains an acetal/aminal-like group ( X-CH(R)-Y where X, Y are N, S, or O) that may be acid/base labile, releasing an aldehyde.

> <s_lp_Force_Field>
OPLS_2005

> <r_lp_Energy>
46.7007

> <b_lp_Chiralities_Consistent>
1

> <s_lp_Variant>
AV-unprocessed.smi:157-13

> <Gold.Version>
5.8.1

> <Gold.Id.Protein>
6NUR|6NUR_protein|mol2

> <Gold.PLP.Fitness>
42.0663

> <Gold.PLP.PLP>
-34.6462

> <Gold.PLP.part.hbond>
-4.5396

> <Gold.PLP.part.metal>
0.0000

> <Gold.PLP.part.buried>
-5.4485

> <Gold.PLP.part.nonpolar>
-24.0912

> <Gold.PLP.part.repulsive>
0.1142

> <Gold.PLP.ligand.clash>
0.0000

> <Gold.PLP.ligand.torsion>
0.1157

> <Gold.PLP.Chemscore.Hbond>
2.5460

> <Gold.PLP.Chemscore.CHOScore>
0.0000

> <Gold.PLP.Chemscore.Metal>
0.0000

> <Gold.Chemscore.Hbonds>
donor molecule, donor type, donor heavy atom, donor atom, acceptor molecule, acceptor atom, score
      L1  H     1    24       P1  7948  1.00
      L1  H    19    35       P1  7957  0.38
      P1  H  7989  7998       L1    19  0.12
      P1  H  8011  8017       L1    19  1.00

> <Gold.PLP.Chemscore.Internal.Correction>
0.0135

> <Gold.Rescore>
     Score         DG    S(hbond)    S(metal)    S(lipo)     H(rot)  DE(clash)    DE(int)     intcor
     10.03     -10.12       2.23        0.00      55.48       3.64       0.07       0.03       ----

> <Gold.Chemscore.Fitness>
10.0279

> <Gold.Chemscore.DG>
-10.1248

> <Gold.Chemscore.ZeroCoef>
-5.4800

> <Gold.Chemscore.Hbond>
2.2342

> <Gold.Chemscore.Metal>
0.0000

> <Gold.Chemscore.Lipo>
55.4828

> <Gold.Chemscore.Internal_Hbond>
0.0000

> <Gold.Chemscore.DEClash>
0.0650

> <Gold.Chemscore.DEInternal>
0.0319

> <Gold.Chemscore.Rot>
3.6362

> <Gold.Chemscore.Internal.Correction>
   9.000000E+99

> <Gold.Chemscore.Hbonds>
donor molecule, donor type, donor heavy atom, donor atom, acceptor molecule, acceptor atom, score
      L1  H     1    24       P1  7948  0.60
      L1  H    19    35       P1  7957  0.38
      P1  H  7989  7998       L1    19  0.06
      P1  H  8011  8017       L1    19  0.82

> <Gold.Chemscore.Hbond.Weighted>
-7.4621

> <Gold.Chemscore.Metal.Weighted>
-0.0000

> <Gold.Chemscore.Lipo.Weighted>
-6.4915

> <Gold.Chemscore.Internal_Hbond.Weighted>
0.0000

> <Gold.Chemscore.DEClash.Weighted>
0.0650

> <Gold.Chemscore.DEInternal.Weighted>
0.0319

> <Gold.Chemscore.Rot.Weighted>
9.3087

> <Gold.Chemscore.Internal.Correction.Weighted>
   9.000000E+99

> <Gold.Protein.RotatedTorsions>
[ 6907 6896 6895 6894 ] final -158.31 input  -60.11 | X-H torsion
[ 7974 7965 7964 7962 ] final  -28.56 input  175.53 | X-H torsion
[ 8008 7997 7996 7995 ] final -111.77 input   59.86 | X-H torsion
[ 10167 10162 10161 10158 ] final -124.79 input  -65.29 | X-H torsion
[ 10718 10713 10712 10709 ] final   -1.56 input   66.30 | X-H torsion
[ 10763 10752 10751 10750 ] final  154.74 input  -60.55 | X-H torsion
[ 11005 11000 10999 10996 ] final   43.58 input  -57.11 | X-H torsion

> <Gold.Protein.ActiveResidues>
 VAL166  LYS551  ARG553  GLY616  TRP617  ASP618  TYR619  PRO620  LYS621  CYS622 
 ASP623  PHE694  ASN695  SER759  ASP760  ASP761  ALA762  ILE779  LEU786  VAL792 
 PHE793  MET794  SER795  GLU796  ALA797  LYS798  CYS799  TRP800  GLU811  SER814 

> <Gold.Protein.RotatedAtoms>
  151.3162  133.4059  159.2650 H   0  0  0  0  0  0  0  0  0  0  0  0  # atno 6907 bound_to 6896
  151.0073  134.9370  159.7998 H   0  0  0  0  0  0  0  0  0  0  0  0  # atno 6908 bound_to 6896
  152.5291  134.3127  159.9172 H   0  0  0  0  0  0  0  0  0  0  0  0  # atno 6909 bound_to 6896
  146.1279  140.5298  142.8706 H   0  0  0  0  0  0  0  0  0  0  0  0  # atno 7974 bound_to 7965
  154.9950  140.0395  157.2336 H   0  0  0  0  0  0  0  0  0  0  0  0  # atno 8008 bound_to 7997
  154.7595  140.2782  155.6203 H   0  0  0  0  0  0  0  0  0  0  0  0  # atno 8009 bound_to 7997
  156.2901  140.2631  156.2369 H   0  0  0  0  0  0  0  0  0  0  0  0  # atno 8010 bound_to 7997
  139.9890  143.5661  152.2349 H   0  0  0  0  0  0  0  0  0  0  0  0  # atno 10167 bound_to 10162
  156.8037  130.5401  149.5718 H   0  0  0  0  0  0  0  0  0  0  0  0  # atno 10718 bound_to 10713
  154.1571  135.2812  155.3119 H   0  0  0  0  0  0  0  0  0  0  0  0  # atno 10763 bound_to 10752
  154.6174  135.5478  153.7541 H   0  0  0  0  0  0  0  0  0  0  0  0  # atno 10764 bound_to 10752
  153.0203  135.6430  154.1714 H   0  0  0  0  0  0  0  0  0  0  0  0  # atno 10765 bound_to 10752
  140.1631  134.4316  155.8304 H   0  0  0  0  0  0  0  0  0  0  0  0  # atno 11005 bound_to 11000
  144.7661  140.5533  143.6702 LP  0  0  0  0  0  0  0  0  0  0  0  0  # atno 17320 bound_to 7965
  145.5324  139.1475  143.3492 LP  0  0  0  0  0  0  0  0  0  0  0  0  # atno 17321 bound_to 7965
  139.6354  144.7649  151.2449 LP  0  0  0  0  0  0  0  0  0  0  0  0  # atno 17342 bound_to 10162
  140.7462  143.6407  150.8337 LP  0  0  0  0  0  0  0  0  0  0  0  0  # atno 17343 bound_to 10162
  156.1085  130.6023  151.0010 LP  0  0  0  0  0  0  0  0  0  0  0  0  # atno 17370 bound_to 10713
  157.6540  131.0892  150.7987 LP  0  0  0  0  0  0  0  0  0  0  0  0  # atno 17371 bound_to 10713
  141.2211  133.6922  156.7630 LP  0  0  0  0  0  0  0  0  0  0  0  0  # atno 17394 bound_to 11000
  140.2465  134.8573  157.3626 LP  0  0  0  0  0  0  0  0  0  0  0  0  # atno 17395 bound_to 11000

$$$$
