AV-unprocessed.smi:1762|AV-procd|sdf|7100|dock6
  -GOLD-   22720 8323D 1   1.00000     0.00000
 Structure written by MMmdl.
 52 53  0  0  0  0  0  0  0  0  1 V2000
  153.4556  141.4721  160.6811 C   0  0  0  0  0  0  0  0  0  0  0  0
  152.2662  141.6738  159.7355 C   0  0  2  0  0  0  0  0  0  0  0  0
  152.4929  141.0179  158.3594 C   0  0  0  0  0  0  0  0  0  0  0  0
  151.3926  141.2694  157.4207 N   0  0  0  0  0  0  0  0  0  0  0  0
  151.5949  140.6148  156.0972 C   0  0  2  0  0  0  0  0  0  0  0  0
  150.3017  140.5509  155.2502 C   0  0  0  0  0  0  0  0  0  0  0  0
  150.3237  140.0756  154.1143 O   0  0  0  0  0  0  0  0  0  0  0  0
  149.1775  140.9995  155.8312 N   0  0  0  0  0  0  0  0  0  0  0  0
  147.8542  140.9700  155.2201 C   0  0  0  0  0  0  0  0  0  0  0  0
  146.8205  141.7082  156.0874 C   0  0  0  0  0  0  0  0  0  0  0  0
  146.0152  142.7167  155.2907 C   0  0  0  0  0  0  0  0  0  0  0  0
  146.2763  142.9239  153.9195 C   0  0  0  0  0  0  0  0  0  0  0  0
  145.5035  143.8744  153.2250 C   0  0  0  0  0  0  0  0  0  0  0  0
  144.5059  144.5792  153.9256 C   0  0  0  0  0  0  0  0  0  0  0  0
  144.3247  144.3006  155.2950 C   0  0  0  0  0  0  0  0  0  0  0  0
  145.0598  143.3906  155.9701 N   0  0  0  0  0  0  0  0  0  0  0  0
  152.2972  139.2162  156.1478 C   0  0  0  0  0  0  0  0  0  0  0  0
  152.7444  138.7053  154.7632 C   0  0  0  0  0  0  0  0  0  0  0  0
  151.4833  138.1324  156.8822 C   0  0  0  0  0  0  0  0  0  0  0  0
  151.1664  142.7239  157.3469 C   0  0  0  0  0  0  0  0  0  0  0  0
  150.9544  143.3683  158.7301 C   0  0  2  0  0  0  0  0  0  0  0  0
  150.8126  144.8922  158.6449 C   0  0  0  0  0  0  0  0  0  0  0  0
  152.0691  143.0710  159.5613 O   0  0  0  0  0  0  0  0  0  0  0  0
  153.6397  140.4126  160.8604 H   0  0  0  0  0  0  0  0  0  0  0  0
  153.2700  141.9446  161.6459 H   0  0  0  0  0  0  0  0  0  0  0  0
  154.3667  141.9056  160.2676 H   0  0  0  0  0  0  0  0  0  0  0  0
  151.3762  141.2458  160.2009 H   0  0  0  0  0  0  0  0  0  0  0  0
  153.4324  141.3745  157.9338 H   0  0  0  0  0  0  0  0  0  0  0  0
  152.6120  139.9510  158.5365 H   0  0  0  0  0  0  0  0  0  0  0  0
  152.2760  141.2595  155.5372 H   0  0  0  0  0  0  0  0  0  0  0  0
  149.2416  141.3697  156.7684 H   0  0  0  0  0  0  0  0  0  0  0  0
  147.9228  141.4400  154.2385 H   0  0  0  0  0  0  0  0  0  0  0  0
  147.5436  139.9377  155.0496 H   0  0  0  0  0  0  0  0  0  0  0  0
  146.1359  140.9951  156.5491 H   0  0  0  0  0  0  0  0  0  0  0  0
  147.3217  142.2237  156.9082 H   0  0  0  0  0  0  0  0  0  0  0  0
  147.0511  142.3692  153.4105 H   0  0  0  0  0  0  0  0  0  0  0  0
  145.6735  144.0599  152.1747 H   0  0  0  0  0  0  0  0  0  0  0  0
  143.8945  145.3159  153.4259 H   0  0  0  0  0  0  0  0  0  0  0  0
  143.5692  144.8226  155.8630 H   0  0  0  0  0  0  0  0  0  0  0  0
  153.2309  139.3341  156.6950 H   0  0  0  0  0  0  0  0  0  0  0  0
  151.8978  138.4387  154.1300 H   0  0  0  0  0  0  0  0  0  0  0  0
  153.3664  137.8151  154.8608 H   0  0  0  0  0  0  0  0  0  0  0  0
  153.3332  139.4575  154.2376 H   0  0  0  0  0  0  0  0  0  0  0  0
  150.5736  137.8696  156.3432 H   0  0  0  0  0  0  0  0  0  0  0  0
  151.1966  138.4553  157.8831 H   0  0  0  0  0  0  0  0  0  0  0  0
  152.0680  137.2190  156.9934 H   0  0  0  0  0  0  0  0  0  0  0  0
  152.0118  143.2013  156.8482 H   0  0  0  0  0  0  0  0  0  0  0  0
  150.2824  142.9594  156.7552 H   0  0  0  0  0  0  0  0  0  0  0  0
  150.0515  142.9597  159.1876 H   0  0  0  0  0  0  0  0  0  0  0  0
  149.9613  145.1733  158.0245 H   0  0  0  0  0  0  0  0  0  0  0  0
  151.7051  145.3480  158.2153 H   0  0  0  0  0  0  0  0  0  0  0  0
  150.6605  145.3254  159.6337 H   0  0  0  0  0  0  0  0  0  0  0  0
  1  2  1  0  0  0  0
  1 24  1  0  0  0  0
  1 25  1  0  0  0  0
  1 26  1  0  0  0  0
  2 23  1  0  0  0  0
  2  3  1  0  0  0  0
  2 27  1  0  0  0  0
  3  4  1  0  0  0  0
  3 28  1  0  0  0  0
  3 29  1  0  0  0  0
  4  5  1  0  0  0  0
  4 20  1  0  0  0  0
  5  6  1  0  0  0  0
  5 17  1  0  0  0  0
  5 30  1  0  0  0  0
  6  7  2  0  0  0  0
  6  8  1  0  0  0  0
  8  9  1  0  0  0  0
  8 31  1  0  0  0  0
  9 10  1  0  0  0  0
  9 32  1  0  0  0  0
  9 33  1  0  0  0  0
 10 11  1  0  0  0  0
 10 34  1  0  0  0  0
 10 35  1  0  0  0  0
 11 16  1  0  0  0  0
 11 12  2  0  0  0  0
 12 13  1  0  0  0  0
 12 36  1  0  0  0  0
 13 14  2  0  0  0  0
 13 37  1  0  0  0  0
 14 15  1  0  0  0  0
 14 38  1  0  0  0  0
 15 16  2  0  0  0  0
 15 39  1  0  0  0  0
 17 18  1  0  0  0  0
 17 19  1  0  0  0  0
 17 40  1  0  0  0  0
 18 41  1  0  0  0  0
 18 42  1  0  0  0  0
 18 43  1  0  0  0  0
 19 44  1  0  0  0  0
 19 45  1  0  0  0  0
 19 46  1  0  0  0  0
 20 21  1  0  0  0  0
 20 47  1  0  0  0  0
 20 48  1  0  0  0  0
 21 22  1  0  0  0  0
 21 23  1  0  0  0  0
 21 49  1  0  0  0  0
 22 50  1  0  0  0  0
 22 51  1  0  0  0  0
 22 52  1  0  0  0  0
M  END
> <s_m_source_file>
AV-unprocessed.smi

> <i_m_source_file_index>
1762

> <i_lp_mmshare_version>
43012

> <i_f3d_flags>
0

> <s_epik_input>
W0NIM11bQ0BASF0xW0NIMl1OKFtDSDJdW0NASF0oTzEpW0NIM10pW0NAQEhdKFtDSF0oW0NIM10pW0NIM10pQyg9TylbTkhdW0NIMl1bQ0gyXWMyW2NIXVtjSF1bY0hdW2NIXW4y

> <s_epik_cmdline>
J2VwaWtfcHl0aG9uJywgJy1waCcsICc3LjAnLCAnLXRuJywgJzgnLCAnLW1hJywgJzIwMCcsICctbWV0YWxfYmluZGluZycsICctaW1hZScsICc8aW5maWxlLm1hZT4nLCAnLW9tYWUnLCAnPG91dGZpbGUubWFlPic=

> <r_epik_Ionization_Penalty>
0.0399736

> <r_epik_Ionization_Penalty_Charging>
0

> <r_epik_Ionization_Penalty_Neutral>
0.0399736

> <r_epik_State_Penalty>
0.0317634

> <r_epik_Charging_Adjusted_Penalty>
0.0317634

> <i_epik_Tot_Q>
0

> <i_epik_Tot_abs_Q>
0

> <r_epik_Metal_State_Penalty>
0.0307795

> <b_epik_Metal_Only>
0

> <s_lp_Force_Field>
OPLS_2005

> <r_lp_Energy>
25.9705

> <b_lp_Chiralities_Consistent>
1

> <s_lp_Variant>
AV-unprocessed.smi:1762-2

> <Gold.Version>
5.8.1

> <Gold.Id.Protein>
6NUR|6NUR_protein|mol2

> <Gold.PLP.Fitness>
46.7384

> <Gold.PLP.PLP>
-44.9664

> <Gold.PLP.part.hbond>
-1.0000

> <Gold.PLP.part.metal>
0.0000

> <Gold.PLP.part.buried>
-7.5068

> <Gold.PLP.part.nonpolar>
-36.6905

> <Gold.PLP.part.repulsive>
0.9392

> <Gold.PLP.ligand.clash>
0.0000

> <Gold.PLP.ligand.torsion>
0.7996

> <Gold.PLP.Chemscore.Hbond>
1.0000

> <Gold.PLP.Chemscore.CHOScore>
0.0000

> <Gold.PLP.Chemscore.Metal>
0.0000

> <Gold.Chemscore.Hbonds>
donor molecule, donor type, donor heavy atom, donor atom, acceptor molecule, acceptor atom, score
      P1  H  7989  7998       L1     7  1.00

> <Gold.PLP.Chemscore.Internal.Correction>
0.3712

> <Gold.Rescore>
     Score         DG    S(hbond)    S(metal)    S(lipo)     H(rot)  DE(clash)    DE(int)     intcor
     16.18     -18.37       0.88        0.00     120.10       1.60       0.06       2.13       ----

> <Gold.Chemscore.Fitness>
16.1811

> <Gold.Chemscore.DG>
-18.3707

> <Gold.Chemscore.ZeroCoef>
-5.4800

> <Gold.Chemscore.Hbond>
0.8781

> <Gold.Chemscore.Metal>
0.0000

> <Gold.Chemscore.Lipo>
120.1019

> <Gold.Chemscore.Internal_Hbond>
0.0000

> <Gold.Chemscore.DEClash>
0.0553

> <Gold.Chemscore.DEInternal>
2.1343

> <Gold.Chemscore.Rot>
1.5993

> <Gold.Chemscore.Internal.Correction>
   9.000000E+99

> <Gold.Chemscore.Hbonds>
donor molecule, donor type, donor heavy atom, donor atom, acceptor molecule, acceptor atom, score
      P1  H  7989  7998       L1     7  0.29

> <Gold.Chemscore.Hbond.Weighted>
-2.9329

> <Gold.Chemscore.Metal.Weighted>
-0.0000

> <Gold.Chemscore.Lipo.Weighted>
-14.0519

> <Gold.Chemscore.Internal_Hbond.Weighted>
0.0000

> <Gold.Chemscore.DEClash.Weighted>
0.0553

> <Gold.Chemscore.DEInternal.Weighted>
2.1343

> <Gold.Chemscore.Rot.Weighted>
4.0941

> <Gold.Chemscore.Internal.Correction.Weighted>
   9.000000E+99

> <Gold.Protein.RotatedTorsions>
[ 6907 6896 6895 6894 ] final   69.38 input  -60.11 | X-H torsion
[ 7974 7965 7964 7962 ] final  -36.00 input  175.53 | X-H torsion
[ 8008 7997 7996 7995 ] final  128.92 input   59.86 | X-H torsion
[ 10167 10162 10161 10158 ] final  -65.70 input  -65.29 | X-H torsion
[ 10718 10713 10712 10709 ] final -124.59 input   66.30 | X-H torsion
[ 10763 10752 10751 10750 ] final  -36.25 input  -60.55 | X-H torsion
[ 11005 11000 10999 10996 ] final  122.11 input  -57.11 | X-H torsion

> <Gold.Protein.ActiveResidues>
 VAL166  LYS551  ARG553  GLY616  TRP617  ASP618  TYR619  PRO620  LYS621  CYS622 
 ASP623  PHE694  ASN695  SER759  ASP760  ASP761  ALA762  ILE779  LEU786  VAL792 
 PHE793  MET794  SER795  GLU796  ALA797  LYS798  CYS799  TRP800  GLU811  SER814 

> <Gold.Protein.RotatedAtoms>
  152.4682  134.5024  159.9728 H   0  0  0  0  0  0  0  0  0  0  0  0  # atno 6907 bound_to 6896
  151.5057  133.3489  159.2884 H   0  0  0  0  0  0  0  0  0  0  0  0  # atno 6908 bound_to 6896
  150.8677  134.8073  159.7193 H   0  0  0  0  0  0  0  0  0  0  0  0  # atno 6909 bound_to 6896
  146.0699  140.6226  142.8957 H   0  0  0  0  0  0  0  0  0  0  0  0  # atno 7974 bound_to 7965
  156.2925  140.2633  156.2514 H   0  0  0  0  0  0  0  0  0  0  0  0  # atno 8008 bound_to 7997
  154.9879  140.0389  157.2325 H   0  0  0  0  0  0  0  0  0  0  0  0  # atno 8009 bound_to 7997
  154.7713  140.2778  155.6140 H   0  0  0  0  0  0  0  0  0  0  0  0  # atno 8010 bound_to 7997
  140.5711  143.2318  151.6537 H   0  0  0  0  0  0  0  0  0  0  0  0  # atno 10167 bound_to 10162
  156.1601  130.6595  151.0037 H   0  0  0  0  0  0  0  0  0  0  0  0  # atno 10718 bound_to 10713
  153.8766  135.6826  153.4770 H   0  0  0  0  0  0  0  0  0  0  0  0  # atno 10763 bound_to 10752
  153.1257  135.4720  154.9266 H   0  0  0  0  0  0  0  0  0  0  0  0  # atno 10764 bound_to 10752
  154.7689  135.3232  154.8181 H   0  0  0  0  0  0  0  0  0  0  0  0  # atno 10765 bound_to 10752
  139.9254  134.9640  156.8060 H   0  0  0  0  0  0  0  0  0  0  0  0  # atno 11005 bound_to 11000
  144.7225  140.4420  143.6997 LP  0  0  0  0  0  0  0  0  0  0  0  0  # atno 17320 bound_to 7965
  145.6410  139.1550  143.2915 LP  0  0  0  0  0  0  0  0  0  0  0  0  # atno 17321 bound_to 7965
  139.5118  144.3498  152.0663 LP  0  0  0  0  0  0  0  0  0  0  0  0  # atno 17342 bound_to 10162
  140.2635  144.4041  150.6177 LP  0  0  0  0  0  0  0  0  0  0  0  0  # atno 17343 bound_to 10162
  157.6725  131.0858  150.7576 LP  0  0  0  0  0  0  0  0  0  0  0  0  # atno 17370 bound_to 10713
  156.7639  130.4807  149.5431 LP  0  0  0  0  0  0  0  0  0  0  0  0  # atno 17371 bound_to 10713
  140.6351  133.9870  155.7680 LP  0  0  0  0  0  0  0  0  0  0  0  0  # atno 17394 bound_to 11000
  141.0808  134.0065  157.3389 LP  0  0  0  0  0  0  0  0  0  0  0  0  # atno 17395 bound_to 11000

$$$$
