AV-unprocessed.smi:1054|AV-procd|sdf|4623|dock5
  -GOLD-   22720 3123D 1   1.00000     0.00000
 Structure written by MMmdl.
 35 36  0  0  0  0  0  0  0  0  1 V2000
  151.1326  142.0235  156.0934 O   0  0  0  0  0  0  0  0  0  0  0  0
  150.6825  141.3275  157.0036 C   0  0  0  0  0  0  0  0  0  0  0  0
  150.5516  141.7178  158.2836 N   0  0  0  0  0  0  0  0  0  0  0  0
  150.8908  142.9707  158.8606 C   0  0  0  0  0  0  0  0  0  0  0  0
  151.8990  143.6891  158.1787 C   0  0  0  0  0  0  0  0  0  0  0  0
  152.3087  144.9438  158.6696 C   0  0  0  0  0  0  0  0  0  0  0  0
  151.6990  145.4489  159.8317 C   0  0  0  0  0  0  0  0  0  0  0  0
  150.7029  144.6707  160.4494 C   0  0  0  0  0  0  0  0  0  0  0  0
  150.3089  143.4675  159.9809 N   0  0  0  0  0  0  0  0  0  0  0  0
  150.2554  140.0632  156.8426 N   0  0  0  0  0  0  0  0  0  0  0  0
  150.2455  139.2488  155.6176 C   0  0  0  0  0  0  0  0  0  0  0  0
  149.2271  139.8272  154.5946 C   0  0  0  0  0  0  0  0  0  0  0  0
  149.7035  141.0102  153.9835 O   0  0  0  0  0  0  0  0  0  0  0  0
  151.6910  139.2600  155.0609 C   0  0  0  0  0  0  0  0  0  0  0  0
  151.9198  138.2024  153.9676 C   0  0  0  0  0  0  0  0  0  0  0  0
  151.6013  136.9118  154.4689 O   0  0  0  0  0  0  0  0  0  0  0  0
  150.2346  136.7929  154.8389 C   0  0  0  0  0  0  0  0  0  0  0  0
  149.9015  137.7783  155.9738 C   0  0  0  0  0  0  0  0  0  0  0  0
  150.1673  141.0371  158.9214 H   0  0  0  0  0  0  0  0  0  0  0  0
  152.3571  143.2860  157.2871 H   0  0  0  0  0  0  0  0  0  0  0  0
  153.0780  145.5077  158.1629 H   0  0  0  0  0  0  0  0  0  0  0  0
  151.9867  146.4069  160.2390 H   0  0  0  0  0  0  0  0  0  0  0  0
  150.2094  145.0227  161.3433 H   0  0  0  0  0  0  0  0  0  0  0  0
  149.9110  139.5964  157.6685 H   0  0  0  0  0  0  0  0  0  0  0  0
  149.0154  139.1098  153.8028 H   0  0  0  0  0  0  0  0  0  0  0  0
  148.2685  140.0429  155.0659 H   0  0  0  0  0  0  0  0  0  0  0  0
  149.7046  140.8838  153.0471 H   0  0  0  0  0  0  0  0  0  0  0  0
  151.9593  140.2474  154.6841 H   0  0  0  0  0  0  0  0  0  0  0  0
  152.3912  139.0546  155.8726 H   0  0  0  0  0  0  0  0  0  0  0  0
  151.3323  138.4183  153.0745 H   0  0  0  0  0  0  0  0  0  0  0  0
  152.9660  138.2068  153.6617 H   0  0  0  0  0  0  0  0  0  0  0  0
  149.5947  136.9555  153.9711 H   0  0  0  0  0  0  0  0  0  0  0  0
  150.0523  135.7710  155.1716 H   0  0  0  0  0  0  0  0  0  0  0  0
  150.4668  137.4770  156.8572 H   0  0  0  0  0  0  0  0  0  0  0  0
  148.8491  137.6762  156.2387 H   0  0  0  0  0  0  0  0  0  0  0  0
  1  2  2  0  0  0  0
  2  3  1  0  0  0  0
  2 10  1  0  0  0  0
  3  4  1  0  0  0  0
  3 19  1  0  0  0  0
  4  9  1  0  0  0  0
  4  5  2  0  0  0  0
  5  6  1  0  0  0  0
  5 20  1  0  0  0  0
  6  7  2  0  0  0  0
  6 21  1  0  0  0  0
  7  8  1  0  0  0  0
  7 22  1  0  0  0  0
  8  9  2  0  0  0  0
  8 23  1  0  0  0  0
 10 11  1  0  0  0  0
 10 24  1  0  0  0  0
 11 18  1  0  0  0  0
 11 12  1  0  0  0  0
 11 14  1  0  0  0  0
 12 13  1  0  0  0  0
 12 25  1  0  0  0  0
 12 26  1  0  0  0  0
 13 27  1  0  0  0  0
 14 15  1  0  0  0  0
 14 28  1  0  0  0  0
 14 29  1  0  0  0  0
 15 16  1  0  0  0  0
 15 30  1  0  0  0  0
 15 31  1  0  0  0  0
 16 17  1  0  0  0  0
 17 18  1  0  0  0  0
 17 32  1  0  0  0  0
 17 33  1  0  0  0  0
 18 34  1  0  0  0  0
 18 35  1  0  0  0  0
M  END
> <s_m_source_file>
AV-unprocessed.smi

> <i_m_source_file_index>
1054

> <i_lp_mmshare_version>
43012

> <i_f3d_flags>
0

> <s_epik_input>
W0NIMl0xW0NIMl1PW0NIMl1bQ0gyXUMxKFtDSDJdW09IXSlbTkhdQyg9TylbTkhdYzJbY0hdW2NIXVtjSF1bY0hdbjI=

> <s_epik_cmdline>
J2VwaWtfcHl0aG9uJywgJy1waCcsICc3LjAnLCAnLXRuJywgJzgnLCAnLW1hJywgJzIwMCcsICctbWV0YWxfYmluZGluZycsICctaW1hZScsICc8aW5maWxlLm1hZT4nLCAnLW9tYWUnLCAnPG91dGZpbGUubWFlPic=

> <r_lp_tautomer_probability>
1

> <r_epik_Ionization_Penalty>
4.33411e-05

> <r_epik_Ionization_Penalty_Charging>
0

> <r_epik_Ionization_Penalty_Neutral>
4.33411e-05

> <r_epik_State_Penalty>
-0

> <r_epik_Charging_Adjusted_Penalty>
0

> <i_epik_Tot_Q>
0

> <i_epik_Tot_abs_Q>
0

> <r_epik_Metal_State_Penalty>
-0

> <b_epik_Metal_Only>
0

> <s_lp_Force_Field>
OPLS_2005

> <r_lp_Energy>
17.545

> <b_lp_Chiralities_Consistent>
1

> <s_lp_Variant>
AV-unprocessed.smi:1054-1

> <Gold.Version>
5.8.1

> <Gold.Id.Protein>
6NUR|6NUR_protein|mol2

> <Gold.PLP.Fitness>
39.9709

> <Gold.PLP.PLP>
-34.7623

> <Gold.PLP.part.hbond>
-4.7576

> <Gold.PLP.part.metal>
0.0000

> <Gold.PLP.part.buried>
-3.5430

> <Gold.PLP.part.nonpolar>
-27.1370

> <Gold.PLP.part.repulsive>
0.4795

> <Gold.PLP.ligand.clash>
0.0000

> <Gold.PLP.ligand.torsion>
0.4007

> <Gold.PLP.Chemscore.Hbond>
2.0000

> <Gold.PLP.Chemscore.CHOScore>
0.0000

> <Gold.PLP.Chemscore.Metal>
0.0000

> <Gold.Chemscore.Hbonds>
donor molecule, donor type, donor heavy atom, donor atom, acceptor molecule, acceptor atom, score
      L1  H    13    27       P1  7957  0.93
      P1  H 10752 10763       L1    16  1.00

> <Gold.PLP.Chemscore.Internal.Correction>
0.0100

> <Gold.Rescore>
     Score         DG    S(hbond)    S(metal)    S(lipo)     H(rot)  DE(clash)    DE(int)     intcor
     14.38     -16.32       1.98        0.00      77.06       1.88       0.21       1.73       ----

> <Gold.Chemscore.Fitness>
14.3773

> <Gold.Chemscore.DG>
-16.3206

> <Gold.Chemscore.ZeroCoef>
-5.4800

> <Gold.Chemscore.Hbond>
1.9848

> <Gold.Chemscore.Metal>
0.0000

> <Gold.Chemscore.Lipo>
77.0612

> <Gold.Chemscore.Internal_Hbond>
0.0000

> <Gold.Chemscore.DEClash>
0.2096

> <Gold.Chemscore.DEInternal>
1.7336

> <Gold.Chemscore.Rot>
1.8769

> <Gold.Chemscore.Internal.Correction>
   9.000000E+99

> <Gold.Chemscore.Hbonds>
donor molecule, donor type, donor heavy atom, donor atom, acceptor molecule, acceptor atom, score
      L1  H    13    27       P1  7957  0.88
      P1  H 10752 10763       L1    16  0.92

> <Gold.Chemscore.Hbond.Weighted>
-6.6292

> <Gold.Chemscore.Metal.Weighted>
-0.0000

> <Gold.Chemscore.Lipo.Weighted>
-9.0162

> <Gold.Chemscore.Internal_Hbond.Weighted>
0.0000

> <Gold.Chemscore.DEClash.Weighted>
0.2096

> <Gold.Chemscore.DEInternal.Weighted>
1.7336

> <Gold.Chemscore.Rot.Weighted>
4.8048

> <Gold.Chemscore.Internal.Correction.Weighted>
   9.000000E+99

> <Gold.Protein.RotatedTorsions>
[ 6907 6896 6895 6894 ] final   90.68 input  -60.11 | X-H torsion
[ 7974 7965 7964 7962 ] final -136.75 input  175.53 | X-H torsion
[ 8008 7997 7996 7995 ] final  -94.85 input   59.86 | X-H torsion
[ 10167 10162 10161 10158 ] final   28.39 input  -65.29 | X-H torsion
[ 10718 10713 10712 10709 ] final   31.94 input   66.30 | X-H torsion
[ 10763 10752 10751 10750 ] final   45.81 input  -60.55 | X-H torsion
[ 11005 11000 10999 10996 ] final -173.11 input  -57.11 | X-H torsion

> <Gold.Protein.ActiveResidues>
 VAL166  LYS551  ARG553  GLY616  TRP617  ASP618  TYR619  PRO620  LYS621  CYS622 
 ASP623  PHE694  ASN695  SER759  ASP760  ASP761  ALA762  ILE779  LEU786  VAL792 
 PHE793  MET794  SER795  GLU796  ALA797  LYS798  CYS799  TRP800  GLU811  SER814 

> <Gold.Protein.RotatedAtoms>
  152.5446  134.1774  159.8621 H   0  0  0  0  0  0  0  0  0  0  0  0  # atno 6907 bound_to 6896
  151.1779  133.4736  159.2601 H   0  0  0  0  0  0  0  0  0  0  0  0  # atno 6908 bound_to 6896
  151.1208  135.0090  159.8593 H   0  0  0  0  0  0  0  0  0  0  0  0  # atno 6909 bound_to 6896
  144.8901  140.6629  143.5151 H   0  0  0  0  0  0  0  0  0  0  0  0  # atno 7974 bound_to 7965
  154.7538  140.0485  157.0916 H   0  0  0  0  0  0  0  0  0  0  0  0  # atno 8008 bound_to 7997
  155.0024  140.3126  155.4843 H   0  0  0  0  0  0  0  0  0  0  0  0  # atno 8009 bound_to 7997
  156.2890  140.2199  156.5134 H   0  0  0  0  0  0  0  0  0  0  0  0  # atno 8010 bound_to 7997
  140.4856  144.0547  150.6279 H   0  0  0  0  0  0  0  0  0  0  0  0  # atno 10167 bound_to 10162
  157.2789  130.7245  149.6545 H   0  0  0  0  0  0  0  0  0  0  0  0  # atno 10718 bound_to 10713
  152.9819  135.6028  154.3497 H   0  0  0  0  0  0  0  0  0  0  0  0  # atno 10763 bound_to 10752
  154.3187  135.2770  155.2532 H   0  0  0  0  0  0  0  0  0  0  0  0  # atno 10764 bound_to 10752
  154.4708  135.5942  153.6376 H   0  0  0  0  0  0  0  0  0  0  0  0  # atno 10765 bound_to 10752
  140.4894  134.5999  157.4949 H   0  0  0  0  0  0  0  0  0  0  0  0  # atno 11005 bound_to 11000
  145.3799  139.1639  143.4286 LP  0  0  0  0  0  0  0  0  0  0  0  0  # atno 17320 bound_to 7965
  146.3048  140.3879  142.8691 LP  0  0  0  0  0  0  0  0  0  0  0  0  # atno 17321 bound_to 7965
  140.3802  143.2807  152.0179 LP  0  0  0  0  0  0  0  0  0  0  0  0  # atno 17342 bound_to 10162
  139.4841  144.6161  151.7343 LP  0  0  0  0  0  0  0  0  0  0  0  0  # atno 17343 bound_to 10162
  155.9664  130.4344  150.5048 LP  0  0  0  0  0  0  0  0  0  0  0  0  # atno 17370 bound_to 10713
  157.2988  131.0641  151.2083 LP  0  0  0  0  0  0  0  0  0  0  0  0  # atno 17371 bound_to 10713
  139.9778  134.7186  155.9916 LP  0  0  0  0  0  0  0  0  0  0  0  0  # atno 17394 bound_to 11000
  141.1491  133.6551  156.3959 LP  0  0  0  0  0  0  0  0  0  0  0  0  # atno 17395 bound_to 11000

$$$$
