#       Name:                AV-unprocessed.smi:705
#       Creating user name   scv26
#       Creation time:       Fri Mar 27 00:43:41 2020


#       File generated by GOLD software.
#

@<TRIPOS>MOLECULE
AV-unprocessed.smi:705
    32    33     1
SMALL
NO_CHARGES


@<TRIPOS>ATOM
      1 ****        -4.6393  -2.5225  -0.7626 N.am           1 S1                 0.0000
      2 ****        -3.9892  -1.4076  -0.4183 C.2            1 S1                 0.0000
      3 ****        -4.5684  -0.3701  -0.1010 O.2            1 S1                 0.0000
      4 ****        -2.4916  -1.4964  -0.4467 C.2            1 S1                 0.0000
      5 ****        -1.6892  -0.3554  -0.1435 C.2            1 S1                 0.0000
      6 ****        -0.4027  -0.8016  -0.2679 C.2            1 S1                 0.0000
      7 ****         0.9076  -0.1040  -0.0790 C.3            1 S1                 0.0000
      8 ****         1.0324   1.1421  -0.9775 C.3            1 S1                 0.0000
      9 ****         2.3755   1.8507  -0.7445 C.3            1 S1                 0.0000
     10 ****         2.5663   2.1870   0.7429 C.3            1 S1                 0.0000
     11 ****         2.4403   0.9690   1.5721 N.4            1 S1                 1.0000
     12 ****         1.1411   0.2827   1.3964 C.3            1 S1                 0.0000
     13 ****        -0.4906  -2.1303  -0.6178 N.pl3          1 S1                 0.0000
     14 ****        -1.7591  -2.5659  -0.7316 N.2            1 S1                 0.0000
     15 ****         0.2951  -2.7431  -0.7854 H              1 S1                 0.0000
     16 ****        -5.6487  -2.5357  -0.7671 H              1 S1                 0.0000
     17 ****        -4.1149  -3.3468  -1.0178 H              1 S1                 0.0000
     18 ****        -2.0096   0.6407   0.1247 H              1 S1                 0.0000
     19 ****         1.7022  -0.7947  -0.3665 H              1 S1                 0.0000
     20 ****         0.9398   0.8600  -2.0269 H              1 S1                 0.0000
     21 ****         0.2167   1.8360  -0.7693 H              1 S1                 0.0000
     22 ****         3.1919   1.2122  -1.0847 H              1 S1                 0.0000
     23 ****         2.4247   2.7611  -1.3428 H              1 S1                 0.0000
     24 ****         3.5477   2.6320   0.9082 H              1 S1                 0.0000
     25 ****         1.8244   2.9192   1.0647 H              1 S1                 0.0000
     26 ****         3.1795   0.3294   1.3183 H              1 S1                 0.0000
     27 ****         0.3432   0.9363   1.7523 H              1 S1                 0.0000
     28 ****         1.1277  -0.6065   2.0275 H              1 S1                 0.0000
     29 ****         2.5479   1.2215   2.5444 H              1 S1                 0.0000
     30 ****        -5.5679  -0.3376  -0.0936 LP             1 S1                 0.0000
     31 ****        -4.0399   0.4410   0.1496 LP             1 S1                 0.0000
     32 ****        -2.0761  -3.4827  -0.9745 LP             1 S1                 0.0000
@<TRIPOS>BOND
    1    1    2 am    
    2    1   16 1     
    3    1   17 1     
    4    2    3 2     
    5    2    4 1     
    6    4   14 2     
    7    4    5 1     
    8    5    6 2     
    9    5   18 1     
   10    6    7 1     
   11    6   13 1     
   12    7   12 1     
   13    7    8 1     
   14    7   19 1     
   15    8    9 1     
   16    8   20 1     
   17    8   21 1     
   18    9   10 1     
   19    9   22 1     
   20    9   23 1     
   21   10   11 1     
   22   10   24 1     
   23   10   25 1     
   24   11   12 1     
   25   11   26 1     
   26   11   29 1     
   27   12   27 1     
   28   12   28 1     
   29   13   15 1     
   30   13   14 1     
   31    3   30 1     
   32    3   31 1     
   33   14   32 1     
@<TRIPOS>SUBSTRUCTURE
      1 S1             1
@<TRIPOS>SET
LONE_PAIRS      STATIC     ATOMS    <user>   **** ""
3 30 31 32
DONOR_HYDROGENS      STATIC     ATOMS    <user>   **** ""
5 16 17 26 29 15
ATOM$BLUE        STATIC     ATOMS    COLORGROUP SYSTEM
3 30 31 32
ATOM$RED        STATIC     ATOMS    COLORGROUP SYSTEM
5 16 17 26 29 15
