#       Name:                AV-unprocessed.smi:294
#       Creating user name   scv26
#       Creation time:       Thu Mar 26 22:13:50 2020


#       File generated by GOLD software.
#

@<TRIPOS>MOLECULE
AV-unprocessed.smi:294
    34    35     1
SMALL
NO_CHARGES


@<TRIPOS>ATOM
      1 ****        -4.9462   2.2842   2.3345 N.1            1 S1                 0.0000
      2 ****        -4.0344   1.6019   2.5398 C.1            1 S1                 0.0000
      3 ****        -2.8893   0.7457   2.7971 C.2            1 S1                 0.0000
      4 ****        -3.0289  -0.4687   3.4042 N.2            1 S1                 0.0000
      5 ****        -1.7566  -0.8472   3.4030 C.2            1 S1                 0.0000
      6 ****        -0.9250   0.0451   2.8547 N.pl3          1 S1                 0.0000
      7 ****         0.5109  -0.0049   2.6541 C.3            1 S1                 0.0000
      8 ****         0.8474  -0.6839   1.3268 C.2            1 S1                 0.0000
      9 ****         0.9632  -1.9080   1.2743 O.2            1 S1                 0.0000
     10 ****         0.9854   0.1206   0.2618 N.am           1 S1                 0.0000
     11 ****         1.2588  -0.3303  -1.0984 C.3            1 S1                 0.0000
     12 ****         1.8810   0.7954  -1.9448 C.3            1 S1                 0.0000
     13 ****         1.8101   0.3940  -3.4235 C.3            1 S1                 0.0000
     14 ****         0.3080  -0.6431  -3.5972 S.o2           1 S1                 0.0000
     15 ****        -0.7672   0.1457  -4.2175 O.2            1 S1                 0.0000
     16 ****         0.6944  -1.9547  -4.1388 O.2            1 S1                 0.0000
     17 ****        -0.0241  -0.7988  -1.8025 C.3            1 S1                 0.0000
     18 ****        -1.6577   1.1099   2.4456 N.2            1 S1                 0.0000
     19 ****        -1.4241  -1.7936   3.8041 H              1 S1                 0.0000
     20 ****         0.9182   1.0073   2.6848 H              1 S1                 0.0000
     21 ****         0.9628  -0.5589   3.4778 H              1 S1                 0.0000
     22 ****         0.8692   1.1144   0.3997 H              1 S1                 0.0000
     23 ****         1.9686  -1.1597  -1.0775 H              1 S1                 0.0000
     24 ****         1.3040   1.7109  -1.8053 H              1 S1                 0.0000
     25 ****         2.9046   1.0150  -1.6392 H              1 S1                 0.0000
     26 ****         1.7585   1.2501  -4.0963 H              1 S1                 0.0000
     27 ****         2.6714  -0.2147  -3.7004 H              1 S1                 0.0000
     28 ****        -0.2954  -1.8257  -1.5569 H              1 S1                 0.0000
     29 ****        -0.8671  -0.1494  -1.5633 H              1 S1                 0.0000
     30 ****        -5.7342   2.8739   2.1571 LP             1 S1                 0.0000
     31 ****        -3.8450  -0.9338   3.7471 LP             1 S1                 0.0000
     32 ****         0.8371  -2.4580   2.0999 LP             1 S1                 0.0000
     33 ****         1.1833  -2.3526   0.4060 LP             1 S1                 0.0000
     34 ****        -1.3527   1.9499   1.9968 LP             1 S1                 0.0000
@<TRIPOS>BOND
    1    1    2 3     
    2    2    3 1     
    3    3   18 2     
    4    3    4 1     
    5    4    5 2     
    6    5    6 1     
    7    5   19 1     
    8    6    7 1     
    9    6   18 1     
   10    7    8 1     
   11    7   20 1     
   12    7   21 1     
   13    8    9 2     
   14    8   10 am    
   15   10   11 1     
   16   10   22 1     
   17   11   17 1     
   18   11   12 1     
   19   11   23 1     
   20   12   13 1     
   21   12   24 1     
   22   12   25 1     
   23   13   14 1     
   24   13   26 1     
   25   13   27 1     
   26   14   15 2     
   27   14   16 2     
   28   14   17 1     
   29   17   28 1     
   30   17   29 1     
   31    1   30 1     
   32    4   31 1     
   33    9   32 1     
   34    9   33 1     
   35   18   34 1     
@<TRIPOS>SUBSTRUCTURE
      1 S1             1
@<TRIPOS>SET
LONE_PAIRS      STATIC     ATOMS    <user>   **** ""
7 30 31 32 33 15 16 34
DONOR_HYDROGENS      STATIC     ATOMS    <user>   **** ""
1 22
ATOM$BLUE        STATIC     ATOMS    COLORGROUP SYSTEM
7 30 31 32 33 15 16 34
ATOM$RED        STATIC     ATOMS    COLORGROUP SYSTEM
1 22
