AV-unprocessed.smi:1623|AV-procd|sdf|6501|dock4
  -GOLD-   22720 7163D 1   1.00000     0.00000
 Structure written by MMmdl.
 42 43  0  0  0  0  0  0  0  0  1 V2000
  147.8980  140.2713  155.6181 C   0  0  0  0  0  0  0  0  0  0  0  0
  148.3215  139.1898  156.5749 C   0  0  0  0  0  0  0  0  0  0  0  0
  149.5509  138.7978  156.4990 N   0  0  0  0  0  0  0  0  0  0  0  0
  150.0428  137.8077  157.3272 N   0  0  0  0  0  0  0  0  0  0  0  0
  151.4569  137.4880  157.1010 C   0  0  0  0  0  0  0  0  0  0  0  0
  152.3596  138.7366  157.2125 C   0  0  2  0  0  0  0  0  0  0  0  0
  153.7241  138.3725  157.2570 O   0  0  0  0  0  0  0  0  0  0  0  0
  152.0609  139.5723  158.4674 C   0  0  0  0  0  0  0  0  0  0  0  0
  153.0507  140.5817  158.6158 O   0  0  0  0  0  0  0  0  0  0  0  0
  153.0792  141.1861  159.9005 C   0  0  0  0  0  0  0  0  0  0  0  0
  152.6332  142.6414  159.8877 C   0  0  0  0  0  0  0  0  0  0  0  0
  152.3904  143.2789  158.6518 C   0  0  0  0  0  0  0  0  0  0  0  0
  151.9741  144.6233  158.6127 C   0  0  0  0  0  0  0  0  0  0  0  0
  151.8008  145.3409  159.8107 C   0  0  0  0  0  0  0  0  0  0  0  0
  152.0466  144.7138  161.0467 C   0  0  0  0  0  0  0  0  0  0  0  0
  152.4642  143.3685  161.0911 C   0  0  0  0  0  0  0  0  0  0  0  0
  152.7609  142.6388  162.6303 Cl  0  0  0  0  0  0  0  0  0  0  0  0
  149.3118  137.1507  158.2718 C   0  0  0  0  0  0  0  0  0  0  0  0
  149.7874  136.2633  158.9817 O   0  0  0  0  0  0  0  0  0  0  0  0
  147.9212  137.6030  158.3559 C   0  0  0  0  0  0  0  0  0  0  0  0
  147.1190  136.9431  159.3347 C   0  0  0  0  0  0  0  0  0  0  0  0
  146.4498  136.4135  160.1170 N   0  0  0  0  0  0  0  0  0  0  0  0
  147.4288  138.5823  157.5569 C   0  0  0  0  0  0  0  0  0  0  0  0
  145.9924  139.0848  157.6064 C   0  0  0  0  0  0  0  0  0  0  0  0
  146.9956  139.9825  155.0791 H   0  0  0  0  0  0  0  0  0  0  0  0
  148.6688  140.4812  154.8747 H   0  0  0  0  0  0  0  0  0  0  0  0
  147.6917  141.1989  156.1521 H   0  0  0  0  0  0  0  0  0  0  0  0
  151.7581  136.7648  157.8617 H   0  0  0  0  0  0  0  0  0  0  0  0
  151.6144  136.9719  156.1520 H   0  0  0  0  0  0  0  0  0  0  0  0
  152.2202  139.3778  156.3411 H   0  0  0  0  0  0  0  0  0  0  0  0
  153.8793  137.8945  158.0575 H   0  0  0  0  0  0  0  0  0  0  0  0
  151.0632  140.0122  158.4227 H   0  0  0  0  0  0  0  0  0  0  0  0
  152.0778  138.9094  159.3333 H   0  0  0  0  0  0  0  0  0  0  0  0
  152.4026  140.6307  160.5503 H   0  0  0  0  0  0  0  0  0  0  0  0
  154.0736  141.0858  160.3384 H   0  0  0  0  0  0  0  0  0  0  0  0
  152.5187  142.7369  157.7265 H   0  0  0  0  0  0  0  0  0  0  0  0
  151.7879  145.1037  157.6634 H   0  0  0  0  0  0  0  0  0  0  0  0
  151.4816  146.3723  159.7820 H   0  0  0  0  0  0  0  0  0  0  0  0
  151.9149  145.2684  161.9642 H   0  0  0  0  0  0  0  0  0  0  0  0
  145.4537  138.7033  158.4733 H   0  0  0  0  0  0  0  0  0  0  0  0
  145.4509  138.7709  156.7137 H   0  0  0  0  0  0  0  0  0  0  0  0
  145.9618  140.1733  157.6633 H   0  0  0  0  0  0  0  0  0  0  0  0
  1  2  1  0  0  0  0
  1 25  1  0  0  0  0
  1 26  1  0  0  0  0
  1 27  1  0  0  0  0
  2 23  1  0  0  0  0
  2  3  2  0  0  0  0
  3  4  1  0  0  0  0
  4  5  1  0  0  0  0
  4 18  1  0  0  0  0
  5  6  1  0  0  0  0
  5 28  1  0  0  0  0
  5 29  1  0  0  0  0
  6  7  1  0  0  0  0
  6  8  1  0  0  0  0
  6 30  1  0  0  0  0
  7 31  1  0  0  0  0
  8  9  1  0  0  0  0
  8 32  1  0  0  0  0
  8 33  1  0  0  0  0
  9 10  1  0  0  0  0
 10 11  1  0  0  0  0
 10 34  1  0  0  0  0
 10 35  1  0  0  0  0
 11 16  1  0  0  0  0
 11 12  2  0  0  0  0
 12 13  1  0  0  0  0
 12 36  1  0  0  0  0
 13 14  2  0  0  0  0
 13 37  1  0  0  0  0
 14 15  1  0  0  0  0
 14 38  1  0  0  0  0
 15 16  2  0  0  0  0
 15 39  1  0  0  0  0
 16 17  1  0  0  0  0
 18 19  2  0  0  0  0
 18 20  1  0  0  0  0
 20 21  1  0  0  0  0
 20 23  2  0  0  0  0
 21 22  3  0  0  0  0
 23 24  1  0  0  0  0
 24 40  1  0  0  0  0
 24 41  1  0  0  0  0
 24 42  1  0  0  0  0
M  END
> <s_m_source_file>
AV-unprocessed.smi

> <i_m_source_file_index>
1623

> <i_lp_mmshare_version>
43012

> <i_f3d_flags>
0

> <s_epik_input>
TiNDYyhjMVtDSDNdKWMoPU8pbihuYzFbQ0gzXSlbQ0gyXVtDQEhdKFtPSF0pW0NIMl1PW0NIMl1jMltjSF1bY0hdW2NIXVtjSF1jMkNs

> <s_epik_cmdline>
J2VwaWtfcHl0aG9uJywgJy1waCcsICc3LjAnLCAnLXRuJywgJzgnLCAnLW1hJywgJzIwMCcsICctbWV0YWxfYmluZGluZycsICctaW1hZScsICc8aW5maWxlLm1hZT4nLCAnLW9tYWUnLCAnPG91dGZpbGUubWFlPic=

> <r_lp_tautomer_probability>
1

> <r_epik_Ionization_Penalty>
6.50533e-08

> <r_epik_Ionization_Penalty_Charging>
2.19172e-10

> <r_epik_Ionization_Penalty_Neutral>
6.48342e-08

> <r_epik_State_Penalty>
-0

> <r_epik_Charging_Adjusted_Penalty>
2.19172e-10

> <i_epik_Tot_Q>
0

> <i_epik_Tot_abs_Q>
0

> <r_epik_Metal_State_Penalty>
-0

> <b_epik_Metal_Only>
0

> <s_lp_Force_Field>
OPLS_2005

> <r_lp_Energy>
31.4415

> <b_lp_Chiralities_Consistent>
1

> <s_lp_Variant>
AV-unprocessed.smi:1623-1

> <Gold.Version>
5.8.1

> <Gold.Id.Protein>
6NUR|6NUR_protein|mol2

> <Gold.PLP.Fitness>
47.4228

> <Gold.PLP.PLP>
-42.7729

> <Gold.PLP.part.hbond>
-2.9111

> <Gold.PLP.part.metal>
0.0000

> <Gold.PLP.part.buried>
-4.2496

> <Gold.PLP.part.nonpolar>
-36.1471

> <Gold.PLP.part.repulsive>
0.0000

> <Gold.PLP.ligand.clash>
0.0000

> <Gold.PLP.ligand.torsion>
0.6088

> <Gold.PLP.Chemscore.Hbond>
1.8960

> <Gold.PLP.Chemscore.CHOScore>
0.0000

> <Gold.PLP.Chemscore.Metal>
0.0000

> <Gold.Chemscore.Hbonds>
donor molecule, donor type, donor heavy atom, donor atom, acceptor molecule, acceptor atom, score
      P1  H  6896  6907       L1    19  1.00
      P1  H  7997  8008       L1     7  0.88

> <Gold.PLP.Chemscore.Internal.Correction>
0.1795

> <Gold.Rescore>
     Score         DG    S(hbond)    S(metal)    S(lipo)     H(rot)  DE(clash)    DE(int)     intcor
     17.71     -18.33       1.78        0.00     113.22       2.48       0.06       0.56       ----

> <Gold.Chemscore.Fitness>
17.7111

> <Gold.Chemscore.DG>
-18.3280

> <Gold.Chemscore.ZeroCoef>
-5.4800

> <Gold.Chemscore.Hbond>
1.7795

> <Gold.Chemscore.Metal>
0.0000

> <Gold.Chemscore.Lipo>
113.2232

> <Gold.Chemscore.Internal_Hbond>
0.0000

> <Gold.Chemscore.DEClash>
0.0588

> <Gold.Chemscore.DEInternal>
0.5580

> <Gold.Chemscore.Rot>
2.4777

> <Gold.Chemscore.Internal.Correction>
   9.000000E+99

> <Gold.Chemscore.Hbonds>
donor molecule, donor type, donor heavy atom, donor atom, acceptor molecule, acceptor atom, score
      P1  H  6896  6907       L1    19  1.00
      P1  H  7997  8008       L1     7  0.34

> <Gold.Chemscore.Hbond.Weighted>
-5.9437

> <Gold.Chemscore.Metal.Weighted>
-0.0000

> <Gold.Chemscore.Lipo.Weighted>
-13.2471

> <Gold.Chemscore.Internal_Hbond.Weighted>
0.0000

> <Gold.Chemscore.DEClash.Weighted>
0.0588

> <Gold.Chemscore.DEInternal.Weighted>
0.5580

> <Gold.Chemscore.Rot.Weighted>
6.3428

> <Gold.Chemscore.Internal.Correction.Weighted>
   9.000000E+99

> <Gold.Protein.RotatedTorsions>
[ 6907 6896 6895 6894 ] final  -41.56 input  -60.11 | X-H torsion
[ 7974 7965 7964 7962 ] final   67.51 input  175.53 | X-H torsion
[ 8008 7997 7996 7995 ] final  -83.49 input   59.86 | X-H torsion
[ 10167 10162 10161 10158 ] final   79.59 input  -65.29 | X-H torsion
[ 10718 10713 10712 10709 ] final -162.32 input   66.30 | X-H torsion
[ 10763 10752 10751 10750 ] final -166.43 input  -60.55 | X-H torsion
[ 11005 11000 10999 10996 ] final  126.84 input  -57.11 | X-H torsion

> <Gold.Protein.ActiveResidues>
 VAL166  LYS551  ARG553  GLY616  TRP617  ASP618  TYR619  PRO620  LYS621  CYS622 
 ASP623  PHE694  ASN695  SER759  ASP760  ASP761  ALA762  ILE779  LEU786  VAL792 
 PHE793  MET794  SER795  GLU796  ALA797  LYS798  CYS799  TRP800  GLU811  SER814 

> <Gold.Protein.RotatedAtoms>
  150.9653  134.9035  159.7755 H   0  0  0  0  0  0  0  0  0  0  0  0  # atno 6907 bound_to 6896
  152.5171  134.3616  159.9296 H   0  0  0  0  0  0  0  0  0  0  0  0  # atno 6908 bound_to 6896
  151.3626  133.3843  159.2726 H   0  0  0  0  0  0  0  0  0  0  0  0  # atno 6909 bound_to 6896
  145.8138  139.3047  143.1084 H   0  0  0  0  0  0  0  0  0  0  0  0  # atno 7974 bound_to 7965
  154.6197  140.0618  156.9599 H   0  0  0  0  0  0  0  0  0  0  0  0  # atno 8008 bound_to 7997
  155.1838  140.3301  155.4352 H   0  0  0  0  0  0  0  0  0  0  0  0  # atno 8009 bound_to 7997
  156.2424  140.1893  156.6932 H   0  0  0  0  0  0  0  0  0  0  0  0  # atno 8010 bound_to 7997
  139.9587  144.5976  150.8093 H   0  0  0  0  0  0  0  0  0  0  0  0  # atno 10167 bound_to 10162
  156.6087  130.8841  151.2931 H   0  0  0  0  0  0  0  0  0  0  0  0  # atno 10718 bound_to 10713
  154.6834  135.2958  154.9582 H   0  0  0  0  0  0  0  0  0  0  0  0  # atno 10763 bound_to 10752
  154.0569  135.6637  153.4811 H   0  0  0  0  0  0  0  0  0  0  0  0  # atno 10764 bound_to 10752
  153.0562  135.5143  154.7888 H   0  0  0  0  0  0  0  0  0  0  0  0  # atno 10765 bound_to 10752
  139.9477  134.9627  156.8767 H   0  0  0  0  0  0  0  0  0  0  0  0  # atno 11005 bound_to 11000
  145.9749  140.8730  143.0144 LP  0  0  0  0  0  0  0  0  0  0  0  0  # atno 17320 bound_to 7965
  144.6754  140.1998  143.7388 LP  0  0  0  0  0  0  0  0  0  0  0  0  # atno 17321 bound_to 7965
  140.7560  143.3057  151.2967 LP  0  0  0  0  0  0  0  0  0  0  0  0  # atno 17342 bound_to 10162
  139.6571  144.0256  152.2667 LP  0  0  0  0  0  0  0  0  0  0  0  0  # atno 17343 bound_to 10162
  157.7260  130.9623  150.1638 LP  0  0  0  0  0  0  0  0  0  0  0  0  # atno 17370 bound_to 10713
  156.2408  130.3691  149.8339 LP  0  0  0  0  0  0  0  0  0  0  0  0  # atno 17371 bound_to 10713
  140.5795  134.0366  155.7459 LP  0  0  0  0  0  0  0  0  0  0  0  0  # atno 17394 bound_to 11000
  141.1132  133.9583  157.2872 LP  0  0  0  0  0  0  0  0  0  0  0  0  # atno 17395 bound_to 11000

$$$$
