#       Name:                AV-unprocessed.smi:3116
#       Creating user name   scv26
#       Creation time:       Fri Mar 27 17:26:17 2020


#       File generated by GOLD software.
#

@<TRIPOS>MOLECULE
AV-unprocessed.smi:3116
    37    37     1
SMALL
NO_CHARGES


@<TRIPOS>ATOM
      1 ****        -3.6608   1.1989   0.2580 C.3            1 S1                 0.0000
      2 ****        -2.1487   1.3962   0.0628 C.3            1 S1                 0.0000
      3 ****        -1.4535   0.1133   0.2898 N.3            1 S1                 0.0000
      4 ****         0.0063   0.1003   0.1584 C.3            1 S1                 0.0000
      5 ****         0.6327   0.8033   1.3825 C.3            1 S1                 0.0000
      6 ****         0.4511  -1.3803   0.0046 C.3            1 S1                 0.0000
      7 ****        -0.0082  -1.9954  -1.3326 C.3            1 S1                 0.0000
      8 ****         1.8913  -1.5468   0.1633 N.pl3          1 S1                 0.0000
      9 ****         2.5655  -2.2273   1.1564 C.2            1 S1                 0.0000
     10 ****         3.9014  -2.1077   0.9010 C.2            1 S1                 0.0000
     11 ****         3.9492  -1.3260  -0.2866 C.2            1 S1                 0.0000
     12 ****         2.7469  -0.9903  -0.7248 N.2            1 S1                 0.0000
     13 ****        -1.8643   2.0168  -1.3150 C.2            1 S1                 0.0000
     14 ****        -1.1641   3.1536  -1.3377 N.am           1 S1                 0.0000
     15 ****        -2.2528   1.4673  -2.3441 O.2            1 S1                 0.0000
     16 ****        -4.2058   2.1316   0.1074 H              1 S1                 0.0000
     17 ****        -3.8820   0.8536   1.2684 H              1 S1                 0.0000
     18 ****        -4.0642   0.4616  -0.4377 H              1 S1                 0.0000
     19 ****        -1.8250   2.1026   0.8279 H              1 S1                 0.0000
     20 ****        -1.7223  -0.3099   1.1662 H              1 S1                 0.0000
     21 ****         0.3219   0.6298  -0.7404 H              1 S1                 0.0000
     22 ****         1.7203   0.8304   1.3191 H              1 S1                 0.0000
     23 ****         0.3686   0.2949   2.3103 H              1 S1                 0.0000
     24 ****         0.3091   1.8402   1.4661 H              1 S1                 0.0000
     25 ****        -0.0120  -1.9580   0.8066 H              1 S1                 0.0000
     26 ****        -1.0948  -1.9972  -1.4195 H              1 S1                 0.0000
     27 ****         0.3256  -3.0294  -1.4225 H              1 S1                 0.0000
     28 ****         0.3882  -1.4426  -2.1849 H              1 S1                 0.0000
     29 ****         2.0440  -2.7335   1.9553 H              1 S1                 0.0000
     30 ****         4.7194  -2.5165   1.4751 H              1 S1                 0.0000
     31 ****         4.8158  -0.9943  -0.8390 H              1 S1                 0.0000
     32 ****        -0.9559   3.5999  -2.2189 H              1 S1                 0.0000
     33 ****        -0.8485   3.5641  -0.4710 H              1 S1                 0.0000
     34 ****        -1.7743  -0.4327  -0.4841 LP             1 S1                 0.0000
     35 ****         2.5208  -0.4462  -1.5328 LP             1 S1                 0.0000
     36 ****        -2.7599   0.6071  -2.2907 LP             1 S1                 0.0000
     37 ****        -2.0617   1.8807  -3.2344 LP             1 S1                 0.0000
@<TRIPOS>BOND
    1    1    2 1     
    2    1   16 1     
    3    1   17 1     
    4    1   18 1     
    5    2    3 1     
    6    2   13 1     
    7    2   19 1     
    8    3    4 1     
    9    3   20 1     
   10    4    5 1     
   11    4    6 1     
   12    4   21 1     
   13    5   22 1     
   14    5   23 1     
   15    5   24 1     
   16    6    7 1     
   17    6    8 1     
   18    6   25 1     
   19    7   26 1     
   20    7   27 1     
   21    7   28 1     
   22    8   12 1     
   23    8    9 1     
   24    9   10 2     
   25    9   29 1     
   26   10   11 1     
   27   10   30 1     
   28   11   12 2     
   29   11   31 1     
   30   13   14 am    
   31   13   15 2     
   32   14   32 1     
   33   14   33 1     
   34    3   34 1     
   35   12   35 1     
   36   15   36 1     
   37   15   37 1     
@<TRIPOS>SUBSTRUCTURE
      1 S1             1
@<TRIPOS>SET
LONE_PAIRS      STATIC     ATOMS    <user>   **** ""
4 34 35 36 37
DONOR_HYDROGENS      STATIC     ATOMS    <user>   **** ""
3 20 32 33
ATOM$BLUE        STATIC     ATOMS    COLORGROUP SYSTEM
4 34 35 36 37
ATOM$RED        STATIC     ATOMS    COLORGROUP SYSTEM
3 20 32 33
