#       Name:                AV-unprocessed.smi:2251
#       Creating user name   scv26
#       Creation time:       Fri Mar 27 12:30:15 2020


#       File generated by GOLD software.
#

@<TRIPOS>MOLECULE
AV-unprocessed.smi:2251
    49    50     1
SMALL
NO_CHARGES


@<TRIPOS>ATOM
      1 ****        -3.4634   4.7341  -2.6378 C.3            1 S1                 0.0000
      2 ****        -2.9825   3.3880  -2.1075 C.2            1 S1                 0.0000
      3 ****        -2.5660   2.5300  -2.8855 O.2            1 S1                 0.0000
      4 ****        -3.0431   3.2164  -0.7777 N.am           1 S1                 0.0000
      5 ****        -2.6159   2.0138  -0.0678 C.3            1 S1                 0.0000
      6 ****        -1.0995   1.9682   0.1516 C.2            1 S1                 0.0000
      7 ****        -0.4626   3.0028   0.3528 O.2            1 S1                 0.0000
      8 ****        -0.5355   0.7529   0.1343 N.am           1 S1                 0.0000
      9 ****         0.8903   0.5018   0.3205 C.3            1 S1                 0.0000
     10 ****         1.2274  -1.0169   0.3515 C.3            1 S1                 0.0000
     11 ****         0.4014  -1.6804   1.4776 C.ar           1 S1                 0.0000
     12 ****         0.6166  -1.2972   2.8260 C.ar           1 S1                 0.0000
     13 ****        -0.1387  -1.8861   3.8593 C.ar           1 S1                 0.0000
     14 ****        -1.0717  -2.8139   3.5637 N.pl3          1 S1                 1.0000
     15 ****        -1.3245  -3.2125   2.3001 C.ar           1 S1                 0.0000
     16 ****        -0.5996  -2.6564   1.2265 C.ar           1 S1                 0.0000
     17 ****         0.9368  -1.6631  -1.0402 C.3            1 S1                 0.0000
     18 ****         1.8661  -1.1830  -2.1696 C.3            1 S1                 0.0000
     19 ****         3.3385  -1.4089  -1.8082 C.3            1 S1                 0.0000
     20 ****         3.6813  -0.7458  -0.4696 C.3            1 S1                 0.0000
     21 ****         2.7410  -1.2202   0.6543 C.3            1 S1                 0.0000
     22 ****        -4.4669   4.9538  -2.2721 H              1 S1                 0.0000
     23 ****        -3.4904   4.7336  -3.7280 H              1 S1                 0.0000
     24 ****        -2.7936   5.5307  -2.3128 H              1 S1                 0.0000
     25 ****        -3.3926   3.9787  -0.2151 H              1 S1                 0.0000
     26 ****        -3.1063   1.9968   0.9055 H              1 S1                 0.0000
     27 ****        -2.9509   1.1231  -0.6030 H              1 S1                 0.0000
     28 ****        -1.1276  -0.0467  -0.0369 H              1 S1                 0.0000
     29 ****         1.4358   1.0188  -0.4681 H              1 S1                 0.0000
     30 ****         1.2046   0.9734   1.2529 H              1 S1                 0.0000
     31 ****         1.3529  -0.5488   3.0785 H              1 S1                 0.0000
     32 ****        -0.0267  -1.6414   4.9055 H              1 S1                 0.0000
     33 ****        -2.0973  -3.9585   2.1843 H              1 S1                 0.0000
     34 ****        -0.8359  -2.9946   0.2298 H              1 S1                 0.0000
     35 ****         1.0623  -2.7445  -0.9683 H              1 S1                 0.0000
     36 ****        -0.0982  -1.4947  -1.3399 H              1 S1                 0.0000
     37 ****         1.6309  -1.7208  -3.0886 H              1 S1                 0.0000
     38 ****         1.6916  -0.1297  -2.3877 H              1 S1                 0.0000
     39 ****         3.5403  -2.4792  -1.7477 H              1 S1                 0.0000
     40 ****         3.9820  -1.0164  -2.5962 H              1 S1                 0.0000
     41 ****         4.7137  -0.9745  -0.2034 H              1 S1                 0.0000
     42 ****         3.6317   0.3384  -0.5712 H              1 S1                 0.0000
     43 ****         3.0254  -0.7121   1.5756 H              1 S1                 0.0000
     44 ****         2.9287  -2.2808   0.8290 H              1 S1                 0.0000
     45 ****        -1.6090  -3.2286   4.3258 H              1 S1                 0.0000
     46 ****        -2.5425   2.7150  -3.8680 LP             1 S1                 0.0000
     47 ****        -2.2512   1.6479  -2.5352 LP             1 S1                 0.0000
     48 ****        -0.9345   3.8842   0.3742 LP             1 S1                 0.0000
     49 ****         0.5264   2.9615   0.4947 LP             1 S1                 0.0000
@<TRIPOS>BOND
    1    1    2 1     
    2    1   22 1     
    3    1   23 1     
    4    1   24 1     
    5    2    3 2     
    6    2    4 am    
    7    4    5 1     
    8    4   25 1     
    9    5    6 1     
   10    5   26 1     
   11    5   27 1     
   12    6    7 2     
   13    6    8 am    
   14    8    9 1     
   15    8   28 1     
   16    9   10 1     
   17    9   29 1     
   18    9   30 1     
   19   10   21 1     
   20   10   11 1     
   21   10   17 1     
   22   11   16 ar    
   23   11   12 ar    
   24   12   13 ar    
   25   12   31 1     
   26   13   14 ar    
   27   13   32 1     
   28   14   15 ar    
   29   14   45 1     
   30   15   16 ar    
   31   15   33 1     
   32   16   34 1     
   33   17   18 1     
   34   17   35 1     
   35   17   36 1     
   36   18   19 1     
   37   18   37 1     
   38   18   38 1     
   39   19   20 1     
   40   19   39 1     
   41   19   40 1     
   42   20   21 1     
   43   20   41 1     
   44   20   42 1     
   45   21   43 1     
   46   21   44 1     
   47    3   46 1     
   48    3   47 1     
   49    7   48 1     
   50    7   49 1     
@<TRIPOS>SUBSTRUCTURE
      1 S1             1
@<TRIPOS>SET
LONE_PAIRS      STATIC     ATOMS    <user>   **** ""
4 46 47 48 49
DONOR_HYDROGENS      STATIC     ATOMS    <user>   **** ""
3 25 28 45
ATOM$BLUE        STATIC     ATOMS    COLORGROUP SYSTEM
4 46 47 48 49
ATOM$RED        STATIC     ATOMS    COLORGROUP SYSTEM
3 25 28 45
