AV-unprocessed.smi:148|AV-procd|sdf|1204|dock5
  -GOLD-   2262018373D 1   1.00000     0.00000
 Structure written by MMmdl.
 63 67  0  0  0  0  0  0  0  0  1 V2000
  152.3576  138.5058  154.7400 O   0  0  0  0  0  0  0  0  0  0  0  0
  151.0099  138.6558  155.1365 C   0  0  0  0  0  0  0  0  0  0  0  0
  150.9005  139.1050  156.6147 C   0  0  2  0  0  0  0  0  0  0  0  0
  149.4455  139.0647  157.1452 C   0  0  0  0  0  0  0  0  0  0  0  0
  149.1554  137.8686  157.9162 N   0  0  0  0  0  0  0  0  0  0  0  0
  150.0719  136.9573  158.3905 C   0  0  0  0  0  0  0  0  0  0  0  0
  149.5661  135.9467  159.0433 N   0  0  0  0  0  0  0  0  0  0  0  0
  148.1980  136.1842  159.0197 C   0  0  0  0  0  0  0  0  0  0  0  0
  147.0662  135.4799  159.5074 C   0  0  0  0  0  0  0  0  0  0  0  0
  147.1812  134.2953  160.1491 N   0  0  0  0  0  0  0  0  0  0  0  0
  147.8581  133.3049  159.3084 C   0  0  0  0  0  0  0  0  0  0  0  0
  147.6917  131.8903  159.8719 C   0  0  0  0  0  0  0  0  0  0  0  0
  148.1951  131.8441  161.3155 C   0  0  0  0  0  0  0  0  0  0  0  0
  147.4677  132.9011  162.1567 C   0  0  0  0  0  0  0  0  0  0  0  0
  147.5986  134.3316  161.5680 C   0  0  2  0  0  0  0  0  0  0  0  0
  146.8234  135.3902  162.4309 C   0  0  2  0  0  0  0  0  0  0  0  0
  145.2849  135.3621  162.2362 C   0  0  0  0  0  0  0  0  0  0  0  0
  144.7803  136.8093  162.1923 C   0  0  0  0  0  0  0  0  0  0  0  0
  145.9580  137.6587  162.6473 C   0  0  0  0  0  0  0  0  0  0  0  0
  147.1744  136.8719  162.1668 C   0  0  1  0  0  0  0  0  0  0  0  0
  148.3211  137.3015  162.8737 O   0  0  0  0  0  0  0  0  0  0  0  0
  145.8376  136.0235  159.2990 N   0  0  0  0  0  0  0  0  0  0  0  0
  145.7248  137.1807  158.6398 C   0  0  0  0  0  0  0  0  0  0  0  0
  146.6889  137.9389  158.1126 N   0  0  0  0  0  0  0  0  0  0  0  0
  147.9218  137.3959  158.3277 C   0  0  0  0  0  0  0  0  0  0  0  0
  151.5595  140.4851  156.8647 C   0  0  2  0  0  0  0  0  0  0  0  0
  151.7198  140.8638  158.3265 C   0  0  0  0  0  0  0  0  0  0  0  0
  151.9287  142.3709  158.2440 C   0  0  0  0  0  0  0  0  0  0  0  0
  151.1339  142.8026  157.1461 O   0  0  0  0  0  0  0  0  0  0  0  0
  150.7504  141.6830  156.3528 C   0  0  0  0  0  0  0  0  0  0  0  0
  152.3832  138.3682  153.8054 H   0  0  0  0  0  0  0  0  0  0  0  0
  150.5278  139.3718  154.4711 H   0  0  0  0  0  0  0  0  0  0  0  0
  150.4930  137.7096  154.9789 H   0  0  0  0  0  0  0  0  0  0  0  0
  151.4653  138.3736  157.1947 H   0  0  0  0  0  0  0  0  0  0  0  0
  149.2459  139.9240  157.7857 H   0  0  0  0  0  0  0  0  0  0  0  0
  148.7386  139.1281  156.3172 H   0  0  0  0  0  0  0  0  0  0  0  0
  151.1345  137.0621  158.2255 H   0  0  0  0  0  0  0  0  0  0  0  0
  147.4575  133.3396  158.2937 H   0  0  0  0  0  0  0  0  0  0  0  0
  148.9196  133.5480  159.2407 H   0  0  0  0  0  0  0  0  0  0  0  0
  146.6410  131.5996  159.8354 H   0  0  0  0  0  0  0  0  0  0  0  0
  148.2374  131.1735  159.2581 H   0  0  0  0  0  0  0  0  0  0  0  0
  148.0367  130.8516  161.7382 H   0  0  0  0  0  0  0  0  0  0  0  0
  149.2701  132.0281  161.3403 H   0  0  0  0  0  0  0  0  0  0  0  0
  146.4131  132.6324  162.2326 H   0  0  0  0  0  0  0  0  0  0  0  0
  147.8761  132.8571  163.1655 H   0  0  0  0  0  0  0  0  0  0  0  0
  148.6587  134.5887  161.5890 H   0  0  0  0  0  0  0  0  0  0  0  0
  147.0308  135.2004  163.4857 H   0  0  0  0  0  0  0  0  0  0  0  0
  145.0022  134.8549  161.3134 H   0  0  0  0  0  0  0  0  0  0  0  0
  144.8049  134.8290  163.0563 H   0  0  0  0  0  0  0  0  0  0  0  0
  144.5138  137.0732  161.1680 H   0  0  0  0  0  0  0  0  0  0  0  0
  143.8965  136.9622  162.8123 H   0  0  0  0  0  0  0  0  0  0  0  0
  145.9251  138.6731  162.2483 H   0  0  0  0  0  0  0  0  0  0  0  0
  145.9566  137.7263  163.7365 H   0  0  0  0  0  0  0  0  0  0  0  0
  147.3111  137.0452  161.0985 H   0  0  0  0  0  0  0  0  0  0  0  0
  148.0899  137.4082  163.7838 H   0  0  0  0  0  0  0  0  0  0  0  0
  144.7177  137.5488  158.5111 H   0  0  0  0  0  0  0  0  0  0  0  0
  152.5439  140.5108  156.3941 H   0  0  0  0  0  0  0  0  0  0  0  0
  150.8074  140.6418  158.8819 H   0  0  0  0  0  0  0  0  0  0  0  0
  152.5514  140.3556  158.8151 H   0  0  0  0  0  0  0  0  0  0  0  0
  151.6530  142.8837  159.1656 H   0  0  0  0  0  0  0  0  0  0  0  0
  152.9735  142.5981  158.0280 H   0  0  0  0  0  0  0  0  0  0  0  0
  150.9234  141.8787  155.2944 H   0  0  0  0  0  0  0  0  0  0  0  0
  149.6810  141.5192  156.4939 H   0  0  0  0  0  0  0  0  0  0  0  0
  1  2  1  0  0  0  0
  1 31  1  0  0  0  0
  2  3  1  0  0  0  0
  2 32  1  0  0  0  0
  2 33  1  0  0  0  0
  3  4  1  0  0  0  0
  3 26  1  0  0  0  0
  3 34  1  0  0  0  0
  4  5  1  0  0  0  0
  4 35  1  0  0  0  0
  4 36  1  0  0  0  0
  5 25  1  0  0  0  0
  5  6  1  0  0  0  0
  6  7  2  0  0  0  0
  6 37  1  0  0  0  0
  7  8  1  0  0  0  0
  8 25  2  0  0  0  0
  8  9  1  0  0  0  0
  9 10  1  0  0  0  0
  9 22  2  0  0  0  0
 10 15  1  0  0  0  0
 10 11  1  0  0  0  0
 11 12  1  0  0  0  0
 11 38  1  0  0  0  0
 11 39  1  0  0  0  0
 12 13  1  0  0  0  0
 12 40  1  0  0  0  0
 12 41  1  0  0  0  0
 13 14  1  0  0  0  0
 13 42  1  0  0  0  0
 13 43  1  0  0  0  0
 14 15  1  0  0  0  0
 14 44  1  0  0  0  0
 14 45  1  0  0  0  0
 15 16  1  0  0  0  0
 15 46  1  0  0  0  0
 16 20  1  0  0  0  0
 16 17  1  0  0  0  0
 16 47  1  0  0  0  0
 17 18  1  0  0  0  0
 17 48  1  0  0  0  0
 17 49  1  0  0  0  0
 18 19  1  0  0  0  0
 18 50  1  0  0  0  0
 18 51  1  0  0  0  0
 19 20  1  0  0  0  0
 19 52  1  0  0  0  0
 19 53  1  0  0  0  0
 20 21  1  0  0  0  0
 20 54  1  0  0  0  0
 21 55  1  0  0  0  0
 22 23  1  0  0  0  0
 23 24  2  0  0  0  0
 23 56  1  0  0  0  0
 24 25  1  0  0  0  0
 26 30  1  0  0  0  0
 26 27  1  0  0  0  0
 26 57  1  0  0  0  0
 27 28  1  0  0  0  0
 27 58  1  0  0  0  0
 27 59  1  0  0  0  0
 28 29  1  0  0  0  0
 28 60  1  0  0  0  0
 28 61  1  0  0  0  0
 29 30  1  0  0  0  0
 30 62  1  0  0  0  0
 30 63  1  0  0  0  0
M  END
> <s_m_source_file>
AV-unprocessed.smi

> <i_m_source_file_index>
148

> <i_lp_mmshare_version>
43012

> <i_f3d_flags>
0

> <s_epik_input>
W0NIMl0xT1tDSDJdW0NIMl1bQ0BIXTFbQ0BIXShbQ0gyXVtPSF0pW0NIMl1uKFtjSF1uMiljKGMyMyluW2NIXW5jM040W0NIMl1bQ0gyXVtDSDJdW0NIMl1bQ0BIXTRbQ0BASF01W0NIMl1bQ0gyXVtDSDJdW0NASF01W09IXQ==

> <s_epik_cmdline>
J2VwaWtfcHl0aG9uJywgJy1waCcsICc3LjAnLCAnLXRuJywgJzgnLCAnLW1hJywgJzIwMCcsICctbWV0YWxfYmluZGluZycsICctaW1hZScsICc8aW5maWxlLm1hZT4nLCAnLW9tYWUnLCAnPG91dGZpbGUubWFlPic=

> <r_lp_tautomer_probability>
1

> <r_epik_Ionization_Penalty>
0.00556303

> <r_epik_Ionization_Penalty_Charging>
0

> <r_epik_Ionization_Penalty_Neutral>
0.00556303

> <r_epik_State_Penalty>
0.00401767

> <r_epik_Charging_Adjusted_Penalty>
0.00401767

> <i_epik_Tot_Q>
0

> <i_epik_Tot_abs_Q>
0

> <r_epik_Metal_State_Penalty>
-0

> <b_epik_Metal_Only>
0

> <s_lp_Force_Field>
OPLS_2005

> <r_lp_Energy>
68.5956

> <b_lp_Chiralities_Consistent>
1

> <s_lp_Variant>
AV-unprocessed.smi:148-3

> <Gold.Version>
5.8.1

> <Gold.Id.Protein>
6NUR|6NUR_protein|mol2

> <Gold.PLP.Fitness>
52.8074

> <Gold.PLP.PLP>
-47.1364

> <Gold.PLP.part.hbond>
-3.4454

> <Gold.PLP.part.metal>
0.0000

> <Gold.PLP.part.buried>
-8.8769

> <Gold.PLP.part.nonpolar>
-35.8309

> <Gold.PLP.part.repulsive>
0.0887

> <Gold.PLP.ligand.clash>
0.0000

> <Gold.PLP.ligand.torsion>
1.3132

> <Gold.PLP.Chemscore.Hbond>
2.5616

> <Gold.PLP.Chemscore.CHOScore>
0.0000

> <Gold.PLP.Chemscore.Metal>
0.0000

> <Gold.Chemscore.Hbonds>
donor molecule, donor type, donor heavy atom, donor atom, acceptor molecule, acceptor atom, score
      P1  H  6896  6907       L1     7  1.00
      P1  H  6931  6943       L1    21  0.65

> <Gold.PLP.Chemscore.Internal.Correction>
0.6127

> <Gold.Rescore>
     Score         DG    S(hbond)    S(metal)    S(lipo)     H(rot)  DE(clash)    DE(int)     intcor
     15.45     -18.25       2.53        0.00     109.67       3.32       0.00       2.80       ----

> <Gold.Chemscore.Fitness>
15.4531

> <Gold.Chemscore.DG>
-18.2540

> <Gold.Chemscore.ZeroCoef>
-5.4800

> <Gold.Chemscore.Hbond>
2.5277

> <Gold.Chemscore.Metal>
0.0000

> <Gold.Chemscore.Lipo>
109.6726

> <Gold.Chemscore.Internal_Hbond>
0.0000

> <Gold.Chemscore.DEClash>
0.0000

> <Gold.Chemscore.DEInternal>
2.8009

> <Gold.Chemscore.Rot>
3.3203

> <Gold.Chemscore.Internal.Correction>
   9.000000E+99

> <Gold.Chemscore.Hbonds>
donor molecule, donor type, donor heavy atom, donor atom, acceptor molecule, acceptor atom, score
      P1  H  6896  6907       L1     7  0.91
      P1  H  6931  6943       L1    21  0.34

> <Gold.Chemscore.Hbond.Weighted>
-8.4424

> <Gold.Chemscore.Metal.Weighted>
-0.0000

> <Gold.Chemscore.Lipo.Weighted>
-12.8317

> <Gold.Chemscore.Internal_Hbond.Weighted>
0.0000

> <Gold.Chemscore.DEClash.Weighted>
0.0000

> <Gold.Chemscore.DEInternal.Weighted>
2.8009

> <Gold.Chemscore.Rot.Weighted>
8.5000

> <Gold.Chemscore.Internal.Correction.Weighted>
   9.000000E+99

> <Gold.Protein.RotatedTorsions>
[ 6907 6896 6895 6894 ] final  -57.61 input  -60.11 | X-H torsion
[ 7974 7965 7964 7962 ] final   50.76 input  175.53 | X-H torsion
[ 8008 7997 7996 7995 ] final   73.67 input   59.86 | X-H torsion
[ 10167 10162 10161 10158 ] final -140.06 input  -65.29 | X-H torsion
[ 10718 10713 10712 10709 ] final  -11.83 input   66.30 | X-H torsion
[ 10763 10752 10751 10750 ] final   58.71 input  -60.55 | X-H torsion
[ 11005 11000 10999 10996 ] final   19.12 input  -57.11 | X-H torsion

> <Gold.Protein.ActiveResidues>
 VAL166  LYS551  ARG553  GLY616  TRP617  ASP618  TYR619  PRO620  LYS621  CYS622 
 ASP623  PHE694  ASN695  SER759  ASP760  ASP761  ALA762  ILE779  LEU786  VAL792 
 PHE793  MET794  SER795  GLU796  ALA797  LYS798  CYS799  TRP800  GLU811  SER814 

> <Gold.Protein.RotatedAtoms>
  150.8072  134.7204  159.6654 H   0  0  0  0  0  0  0  0  0  0  0  0  # atno 6907 bound_to 6896
  152.4192  134.5983  160.0003 H   0  0  0  0  0  0  0  0  0  0  0  0  # atno 6908 bound_to 6896
  151.6204  133.3302  159.3123 H   0  0  0  0  0  0  0  0  0  0  0  0  # atno 6909 bound_to 6896
  145.9980  139.4408  143.0033 H   0  0  0  0  0  0  0  0  0  0  0  0  # atno 7974 bound_to 7965
  155.7871  140.3480  155.5329 H   0  0  0  0  0  0  0  0  0  0  0  0  # atno 8008 bound_to 7997
  155.8671  140.0980  157.1595 H   0  0  0  0  0  0  0  0  0  0  0  0  # atno 8009 bound_to 7997
  154.4015  140.1347  156.4020 H   0  0  0  0  0  0  0  0  0  0  0  0  # atno 8010 bound_to 7997
  139.8318  143.7437  152.2666 H   0  0  0  0  0  0  0  0  0  0  0  0  # atno 10167 bound_to 10162
  156.6534  130.4961  149.6054 H   0  0  0  0  0  0  0  0  0  0  0  0  # atno 10718 bound_to 10713
  152.9877  135.5597  154.5596 H   0  0  0  0  0  0  0  0  0  0  0  0  # atno 10763 bound_to 10752
  154.5018  135.2797  155.1417 H   0  0  0  0  0  0  0  0  0  0  0  0  # atno 10764 bound_to 10752
  154.2844  135.6338  153.5413 H   0  0  0  0  0  0  0  0  0  0  0  0  # atno 10765 bound_to 10752
  140.4173  134.1556  155.7670 H   0  0  0  0  0  0  0  0  0  0  0  0  # atno 11005 bound_to 11000
  145.7531  140.9965  143.1240 LP  0  0  0  0  0  0  0  0  0  0  0  0  # atno 17320 bound_to 7965
  144.6910  139.9238  143.7469 LP  0  0  0  0  0  0  0  0  0  0  0  0  # atno 17321 bound_to 7965
  139.7647  144.7496  151.0312 LP  0  0  0  0  0  0  0  0  0  0  0  0  # atno 17342 bound_to 10162
  140.7806  143.4712  151.0144 LP  0  0  0  0  0  0  0  0  0  0  0  0  # atno 17343 bound_to 10162
  156.2067  130.6653  151.1226 LP  0  0  0  0  0  0  0  0  0  0  0  0  # atno 17370 bound_to 10713
  157.7133  131.0723  150.6419 LP  0  0  0  0  0  0  0  0  0  0  0  0  # atno 17371 bound_to 10713
  141.1798  133.8438  157.1298 LP  0  0  0  0  0  0  0  0  0  0  0  0  # atno 17394 bound_to 11000
  140.0225  134.9939  157.0620 LP  0  0  0  0  0  0  0  0  0  0  0  0  # atno 17395 bound_to 11000

$$$$
