AV-unprocessed.smi:41|AV-procd|sdf|386|dock3
  -GOLD-   2262016243D 1   1.00000     0.00000
 Structure written by MMmdl.
 26 27  0  0  0  0  0  0  0  0  1 V2000
  151.5552  139.2144  155.2206 N   0  0  0  0  0  0  0  0  0  0  0  0
  151.6066  140.1568  156.1731 C   0  0  0  0  0  0  0  0  0  0  0  0
  152.4448  140.0052  157.1799 N   0  0  0  0  0  0  0  0  0  0  0  0
  152.5679  140.9122  158.1999 C   0  0  0  0  0  0  0  0  0  0  0  0
  153.3526  140.7050  159.1246 O   0  0  0  0  0  0  0  0  0  0  0  0
  151.7666  142.0807  158.1387 N   0  0  0  0  0  0  0  0  0  0  0  0
  151.7881  143.0582  159.2239 C   0  0  1  0  0  0  0  0  0  0  0  0
  152.4700  144.3959  158.8598 C   0  0  0  0  0  0  0  0  0  0  0  0
  151.7706  145.6441  159.9545 S   0  0  0  0  0  0  0  0  0  0  0  0
  150.5381  144.4417  160.5073 C   0  0  1  0  0  0  0  0  0  0  0  0
  149.1288  145.0337  160.6730 C   0  0  0  0  0  0  0  0  0  0  0  0
  148.2120  144.0688  161.1489 O   0  0  0  0  0  0  0  0  0  0  0  0
  150.4842  143.3354  159.6232 O   0  0  0  0  0  0  0  0  0  0  0  0
  150.8583  142.2303  157.0977 C   0  0  0  0  0  0  0  0  0  0  0  0
  150.7512  141.3192  156.1071 C   0  0  0  0  0  0  0  0  0  0  0  0
  149.8731  141.4868  155.1031 F   0  0  0  0  0  0  0  0  0  0  0  0
  152.2955  142.6382  160.0941 H   0  0  0  0  0  0  0  0  0  0  0  0
  150.8724  144.0607  161.4737 H   0  0  0  0  0  0  0  0  0  0  0  0
  150.9127  139.3156  154.4480 H   0  0  0  0  0  0  0  0  0  0  0  0
  152.1571  138.4058  155.2786 H   0  0  0  0  0  0  0  0  0  0  0  0
  153.5504  144.3133  158.9786 H   0  0  0  0  0  0  0  0  0  0  0  0
  152.2604  144.6967  157.8356 H   0  0  0  0  0  0  0  0  0  0  0  0
  149.1460  145.8898  161.3481 H   0  0  0  0  0  0  0  0  0  0  0  0
  148.7646  145.3933  159.7102 H   0  0  0  0  0  0  0  0  0  0  0  0
  147.4534  144.0715  160.5856 H   0  0  0  0  0  0  0  0  0  0  0  0
  150.1988  143.0848  157.0652 H   0  0  0  0  0  0  0  0  0  0  0  0
  1  2  1  0  0  0  0
  1 19  1  0  0  0  0
  1 20  1  0  0  0  0
  2 15  1  0  0  0  0
  2  3  2  0  0  0  0
  3  4  1  0  0  0  0
  4  5  2  0  0  0  0
  4  6  1  0  0  0  0
  6  7  1  0  0  0  0
  6 14  1  0  0  0  0
  7 17  1  0  0  0  0
  7 13  1  0  0  0  0
  7  8  1  0  0  0  0
  8  9  1  0  0  0  0
  8 21  1  0  0  0  0
  8 22  1  0  0  0  0
  9 10  1  0  0  0  0
 10 18  1  0  0  0  0
 10 11  1  0  0  0  0
 10 13  1  0  0  0  0
 11 12  1  0  0  0  0
 11 23  1  0  0  0  0
 11 24  1  0  0  0  0
 12 25  1  0  0  0  0
 14 15  2  0  0  0  0
 14 26  1  0  0  0  0
 15 16  1  0  0  0  0
M  END
> <s_m_source_file>
AV-unprocessed.smi

> <i_m_source_file_index>
41

> <i_lp_mmshare_version>
43012

> <i_f3d_flags>
0

> <s_epik_input>
W05IMl1jMW5jKD1PKW4oW2NIXWMxRilbQ0BASF0yW0NIMl1TW0NAQEhdKE8yKVtDSDJdW09IXQ==

> <s_epik_cmdline>
J2VwaWtfcHl0aG9uJywgJy1waCcsICc3LjAnLCAnLXRuJywgJzgnLCAnLW1hJywgJzIwMCcsICctbWV0YWxfYmluZGluZycsICctaW1hZScsICc8aW5maWxlLm1hZT4nLCAnLW9tYWUnLCAnPG91dGZpbGUubWFlPic=

> <r_lp_tautomer_probability>
1

> <r_epik_Ionization_Penalty>
0.000101883

> <r_epik_Ionization_Penalty_Charging>
1.48607e-08

> <r_epik_Ionization_Penalty_Neutral>
0.000101868

> <r_epik_State_Penalty>
-0

> <r_epik_Charging_Adjusted_Penalty>
1.48607e-08

> <i_epik_Tot_Q>
0

> <i_epik_Tot_abs_Q>
0

> <r_epik_Metal_State_Penalty>
-0

> <b_epik_Metal_Only>
0

> <s_epik_Chemistry_Notes>
This compound contains an acetal/aminal-like group ( X-CH(R)-Y where X, Y are N, S, or O) that may be acid/base labile, releasing an aldehyde.

> <s_lp_Force_Field>
OPLS_2005

> <r_lp_Energy>
14.0891

> <b_lp_Chiralities_Consistent>
1

> <s_lp_Variant>
AV-unprocessed.smi:41-4

> <Gold.Version>
5.8.1

> <Gold.Id.Protein>
6NUR|6NUR_protein|mol2

> <Gold.PLP.Fitness>
41.9064

> <Gold.PLP.PLP>
-34.3541

> <Gold.PLP.part.hbond>
-3.0415

> <Gold.PLP.part.metal>
0.0000

> <Gold.PLP.part.buried>
-4.8017

> <Gold.PLP.part.nonpolar>
-27.0802

> <Gold.PLP.part.repulsive>
0.2150

> <Gold.PLP.ligand.clash>
0.0000

> <Gold.PLP.ligand.torsion>
0.2970

> <Gold.PLP.Chemscore.Hbond>
1.7000

> <Gold.PLP.Chemscore.CHOScore>
1.0000

> <Gold.PLP.Chemscore.Metal>
0.0000

> <Gold.Chemscore.Hbonds>
donor molecule, donor type, donor heavy atom, donor atom, acceptor molecule, acceptor atom, score
      P1  H  6933  6944       L1    12  1.00
      P1  H  7997  8010       L1     3  0.70
      L1  C    14    26       P1  8028  1.00

> <Gold.PLP.Chemscore.Internal.Correction>
0.0464

> <Gold.Rescore>
     Score         DG    S(hbond)    S(metal)    S(lipo)     H(rot)  DE(clash)    DE(int)     intcor
     11.42     -12.05       1.96        0.00      48.20       2.19       0.18       0.45       ----

> <Gold.Chemscore.Fitness>
11.4202

> <Gold.Chemscore.DG>
-12.0469

> <Gold.Chemscore.ZeroCoef>
-5.4800

> <Gold.Chemscore.Hbond>
1.9586

> <Gold.Chemscore.Metal>
0.0000

> <Gold.Chemscore.Lipo>
48.1962

> <Gold.Chemscore.Internal_Hbond>
0.0000

> <Gold.Chemscore.DEClash>
0.1775

> <Gold.Chemscore.DEInternal>
0.4493

> <Gold.Chemscore.Rot>
2.1929

> <Gold.Chemscore.Internal.Correction>
   9.000000E+99

> <Gold.Chemscore.Hbonds>
donor molecule, donor type, donor heavy atom, donor atom, acceptor molecule, acceptor atom, score
      P1  H  6933  6944       L1    12  0.49
      P1  H  7997  8010       L1     3  0.06

> <Gold.Chemscore.Hbond.Weighted>
-6.5417

> <Gold.Chemscore.Metal.Weighted>
-0.0000

> <Gold.Chemscore.Lipo.Weighted>
-5.6390

> <Gold.Chemscore.Internal_Hbond.Weighted>
0.0000

> <Gold.Chemscore.DEClash.Weighted>
0.1775

> <Gold.Chemscore.DEInternal.Weighted>
0.4493

> <Gold.Chemscore.Rot.Weighted>
5.6137

> <Gold.Chemscore.Internal.Correction.Weighted>
   9.000000E+99

> <Gold.Protein.RotatedTorsions>
[ 6907 6896 6895 6894 ] final -154.75 input  -60.11 | X-H torsion
[ 7974 7965 7964 7962 ] final -143.18 input  175.53 | X-H torsion
[ 8008 7997 7996 7995 ] final   57.28 input   59.86 | X-H torsion
[ 10167 10162 10161 10158 ] final  -70.30 input  -65.29 | X-H torsion
[ 10718 10713 10712 10709 ] final  140.09 input   66.30 | X-H torsion
[ 10763 10752 10751 10750 ] final -106.23 input  -60.55 | X-H torsion
[ 11005 11000 10999 10996 ] final   61.82 input  -57.11 | X-H torsion

> <Gold.Protein.ActiveResidues>
 VAL166  LYS551  ARG553  GLY616  TRP617  ASP618  TYR619  PRO620  LYS621  CYS622 
 ASP623  PHE694  ASN695  SER759  ASP760  ASP761  ALA762  ILE779  LEU786  VAL792 
 PHE793  MET794  SER795  GLU796  ALA797  LYS798  CYS799  TRP800  GLU811  SER814 

> <Gold.Protein.RotatedAtoms>
  151.2621  133.4296  159.2616 H   0  0  0  0  0  0  0  0  0  0  0  0  # atno 6907 bound_to 6896
  151.0521  134.9680  159.8227 H   0  0  0  0  0  0  0  0  0  0  0  0  # atno 6908 bound_to 6896
  152.5384  134.2575  159.8975 H   0  0  0  0  0  0  0  0  0  0  0  0  # atno 6909 bound_to 6896
  144.8388  140.5866  143.5466 H   0  0  0  0  0  0  0  0  0  0  0  0  # atno 7974 bound_to 7965
  155.5312  140.3482  155.4427 H   0  0  0  0  0  0  0  0  0  0  0  0  # atno 8008 bound_to 7997
  156.0717  140.1364  156.9847 H   0  0  0  0  0  0  0  0  0  0  0  0  # atno 8009 bound_to 7997
  154.4531  140.0964  156.6654 H   0  0  0  0  0  0  0  0  0  0  0  0  # atno 8010 bound_to 7997
  140.5363  143.2318  151.7171 H   0  0  0  0  0  0  0  0  0  0  0  0  # atno 10167 bound_to 10162
  157.4071  131.1023  151.0492 H   0  0  0  0  0  0  0  0  0  0  0  0  # atno 10718 bound_to 10713
  154.7998  135.4720  154.0249 H   0  0  0  0  0  0  0  0  0  0  0  0  # atno 10763 bound_to 10752
  153.1763  135.6833  153.8545 H   0  0  0  0  0  0  0  0  0  0  0  0  # atno 10764 bound_to 10752
  153.8111  135.3217  155.3378 H   0  0  0  0  0  0  0  0  0  0  0  0  # atno 10765 bound_to 10752
  140.0134  134.6261  155.9746 H   0  0  0  0  0  0  0  0  0  0  0  0  # atno 11005 bound_to 11000
  145.4738  139.1501  143.3800 LP  0  0  0  0  0  0  0  0  0  0  0  0  # atno 17320 bound_to 7965
  146.2683  140.4872  142.8825 LP  0  0  0  0  0  0  0  0  0  0  0  0  # atno 17321 bound_to 7965
  139.4972  144.4037  152.0154 LP  0  0  0  0  0  0  0  0  0  0  0  0  # atno 17342 bound_to 10162
  140.3143  144.3502  150.6025 LP  0  0  0  0  0  0  0  0  0  0  0  0  # atno 17343 bound_to 10162
  157.1470  130.6168  149.5571 LP  0  0  0  0  0  0  0  0  0  0  0  0  # atno 17370 bound_to 10713
  155.9840  130.4862  150.6959 LP  0  0  0  0  0  0  0  0  0  0  0  0  # atno 17371 bound_to 10713
  141.1726  133.6538  156.4710 LP  0  0  0  0  0  0  0  0  0  0  0  0  # atno 17394 bound_to 11000
  140.4513  134.6926  157.5041 LP  0  0  0  0  0  0  0  0  0  0  0  0  # atno 17395 bound_to 11000

$$$$
