AV-unprocessed.smi:2303|AV-procd|sdf|9243|dock2
  -GOLD-   2272012463D 1   1.00000     0.00000
 Structure written by MMmdl.
 32 33  0  0  0  0  0  0  0  0  2 V2000
  156.0487  139.7897  163.3490 C   0  0  0  0  0  0  0  0  0  0  0  0
  155.9628  139.0854  161.9857 C   0  0  0  0  0  0  0  0  0  0  0  0
  157.3388  139.0164  161.2996 C   0  0  0  0  0  0  0  0  0  0  0  0
  154.9003  139.7340  161.0946 C   0  0  0  0  0  0  0  0  0  0  0  0
  154.2570  140.8818  161.5358 C   0  0  0  0  0  0  0  0  0  0  0  0
  153.2460  141.4483  160.6463 C   0  0  0  0  0  0  0  0  0  0  0  0
  152.4848  142.6381  161.0289 C   0  0  0  0  0  0  0  0  0  0  0  0
  151.7600  142.6863  162.0239 O   0  0  0  0  0  0  0  0  0  0  0  0
  152.6188  143.7136  160.2203 N   0  0  0  0  0  0  0  0  0  0  0  0
  151.9341  144.9948  160.3292 C   0  0  0  0  0  0  0  0  0  0  0  0
  152.1023  145.6169  158.9548 C   0  0  0  0  0  0  0  0  0  0  0  0
  152.2716  144.3967  158.0638 C   0  0  0  0  0  0  0  0  0  0  0  0
  153.0152  143.5108  158.8820 O   0  0  0  0  0  0  0  0  0  0  0  0
  152.9411  140.8275  159.4833 C   0  0  0  0  0  0  0  0  0  0  0  0
  153.6573  139.6181  159.0790 C   0  0  0  0  0  0  0  0  0  0  0  0
  153.3690  139.0864  158.0089 O   0  0  0  0  0  0  0  0  0  0  0  0
  154.6226  139.1287  159.9071 N   0  5  0  0  0  0  0  0  0  0  0  0
  155.0790  139.7939  163.8477 H   0  0  0  0  0  0  0  0  0  0  0  0
  156.3729  140.8256  163.2436 H   0  0  0  0  0  0  0  0  0  0  0  0
  156.7563  139.2859  164.0076 H   0  0  0  0  0  0  0  0  0  0  0  0
  155.6652  138.0545  162.1830 H   0  0  0  0  0  0  0  0  0  0  0  0
  157.2711  138.5062  160.3383 H   0  0  0  0  0  0  0  0  0  0  0  0
  158.0537  138.4687  161.9137 H   0  0  0  0  0  0  0  0  0  0  0  0
  157.7518  140.0099  161.1219 H   0  0  0  0  0  0  0  0  0  0  0  0
  154.4872  141.3277  162.4924 H   0  0  0  0  0  0  0  0  0  0  0  0
  150.8782  144.8337  160.5533 H   0  0  0  0  0  0  0  0  0  0  0  0
  152.3644  145.6143  161.1164 H   0  0  0  0  0  0  0  0  0  0  0  0
  151.2627  146.2478  158.6621 H   0  0  0  0  0  0  0  0  0  0  0  0
  153.0100  146.2211  158.9292 H   0  0  0  0  0  0  0  0  0  0  0  0
  151.3046  143.9484  157.8312 H   0  0  0  0  0  0  0  0  0  0  0  0
  152.7881  144.6167  157.1293 H   0  0  0  0  0  0  0  0  0  0  0  0
  152.1735  141.2209  158.8313 H   0  0  0  0  0  0  0  0  0  0  0  0
  1  2  1  0  0  0  0
  1 18  1  0  0  0  0
  1 19  1  0  0  0  0
  1 20  1  0  0  0  0
  2  3  1  0  0  0  0
  2 21  1  0  0  0  0
  2  4  1  0  0  0  0
  3 22  1  0  0  0  0
  3 23  1  0  0  0  0
  3 24  1  0  0  0  0
  4 17  1  0  0  0  0
  4  5  2  0  0  0  0
  5 25  1  0  0  0  0
  5  6  1  0  0  0  0
  6  7  1  0  0  0  0
  6 14  2  0  0  0  0
  7  8  2  0  0  0  0
  7  9  1  0  0  0  0
  9 13  1  0  0  0  0
  9 10  1  0  0  0  0
 10 11  1  0  0  0  0
 10 26  1  0  0  0  0
 10 27  1  0  0  0  0
 11 12  1  0  0  0  0
 11 28  1  0  0  0  0
 11 29  1  0  0  0  0
 12 13  1  0  0  0  0
 12 30  1  0  0  0  0
 12 31  1  0  0  0  0
 14 15  1  0  0  0  0
 14 32  1  0  0  0  0
 15 16  2  0  0  0  0
 15 17  1  0  0  0  0
M  CHG  1  17  -1
M  END
> <s_m_source_file>
AV-unprocessed.smi

> <i_m_source_file_index>
2303

> <i_lp_mmshare_version>
43012

> <i_f3d_flags>
0

> <s_epik_input>
W0NIM11bQ0hdKFtDSDNdKWMxW2NIXWMoW2NIXWMobjEpW09IXSlDKD1PKU4yW0NIMl1bQ0gyXVtDSDJdTzI=

> <s_epik_cmdline>
J2VwaWtfcHl0aG9uJywgJy1waCcsICc3LjAnLCAnLXRuJywgJzgnLCAnLW1hJywgJzIwMCcsICctbWV0YWxfYmluZGluZycsICctaW1hZScsICc8aW5maWxlLm1hZT4nLCAnLW9tYWUnLCAnPG91dGZpbGUubWFlPic=

> <r_lp_tautomer_probability>
1

> <r_epik_Ionization_Penalty>
5.39588

> <r_epik_Ionization_Penalty_Charging>
0.166011

> <r_epik_Ionization_Penalty_Neutral>
5.22987

> <r_epik_State_Penalty>
5.22978

> <r_epik_Charging_Adjusted_Penalty>
5.39579

> <i_epik_Tot_Q>
-1

> <i_epik_Tot_abs_Q>
1

> <r_epik_Metal_State_Penalty>
1.21816

> <b_epik_Metal_Only>
1

> <s_epik_Chemistry_Notes>
This compound has a N-S or N-O group and may undergo hydrolysis at high or low pH.

> <s_lp_Force_Field>
OPLS_2005

> <r_lp_Energy>
27.9757

> <b_lp_Chiralities_Consistent>
1

> <s_lp_Variant>
AV-unprocessed.smi:2303-2

> <Gold.Version>
5.8.1

> <Gold.Id.Protein>
6NUR|6NUR_protein|mol2

> <Gold.PLP.Fitness>
41.0448

> <Gold.PLP.PLP>
-36.8972

> <Gold.PLP.part.hbond>
-2.0000

> <Gold.PLP.part.metal>
0.0000

> <Gold.PLP.part.buried>
-2.9748

> <Gold.PLP.part.nonpolar>
-32.4866

> <Gold.PLP.part.repulsive>
1.3995

> <Gold.PLP.ligand.clash>
0.0000

> <Gold.PLP.ligand.torsion>
1.3386

> <Gold.PLP.Chemscore.Hbond>
1.8640

> <Gold.PLP.Chemscore.CHOScore>
0.0000

> <Gold.PLP.Chemscore.Metal>
0.0000

> <Gold.Chemscore.Hbonds>
donor molecule, donor type, donor heavy atom, donor atom, acceptor molecule, acceptor atom, score
      P1  H  6933  6945       L1     8  0.86
      P1  H  7997  8010       L1    16  0.50

> <Gold.PLP.Chemscore.Internal.Correction>
1.2327

> <Gold.Rescore>
     Score         DG    S(hbond)    S(metal)    S(lipo)     H(rot)  DE(clash)    DE(int)     intcor
     15.79     -19.46       1.85        0.00      88.53       1.00       0.88       2.79       ----

> <Gold.Chemscore.Fitness>
15.7887

> <Gold.Chemscore.DG>
-19.4635

> <Gold.Chemscore.ZeroCoef>
-5.4800

> <Gold.Chemscore.Hbond>
1.8519

> <Gold.Chemscore.Metal>
0.0000

> <Gold.Chemscore.Lipo>
88.5313

> <Gold.Chemscore.Internal_Hbond>
0.0000

> <Gold.Chemscore.DEClash>
0.8808

> <Gold.Chemscore.DEInternal>
2.7940

> <Gold.Chemscore.Rot>
1.0000

> <Gold.Chemscore.Internal.Correction>
   9.000000E+99

> <Gold.Chemscore.Hbonds>
donor molecule, donor type, donor heavy atom, donor atom, acceptor molecule, acceptor atom, score
      P1  H  6933  6945       L1     8  0.84
      P1  H  7997  8010       L1    16  0.02

> <Gold.Chemscore.Hbond.Weighted>
-6.1854

> <Gold.Chemscore.Metal.Weighted>
-0.0000

> <Gold.Chemscore.Lipo.Weighted>
-10.3582

> <Gold.Chemscore.Internal_Hbond.Weighted>
0.0000

> <Gold.Chemscore.DEClash.Weighted>
0.8808

> <Gold.Chemscore.DEInternal.Weighted>
2.7940

> <Gold.Chemscore.Rot.Weighted>
2.5600

> <Gold.Chemscore.Internal.Correction.Weighted>
   9.000000E+99

> <Gold.Protein.RotatedTorsions>
[ 6907 6896 6895 6894 ] final   45.09 input  -60.11 | X-H torsion
[ 7974 7965 7964 7962 ] final   -5.02 input  175.53 | X-H torsion
[ 8008 7997 7996 7995 ] final   19.10 input   59.86 | X-H torsion
[ 10167 10162 10161 10158 ] final -163.68 input  -65.29 | X-H torsion
[ 10718 10713 10712 10709 ] final   41.35 input   66.30 | X-H torsion
[ 10763 10752 10751 10750 ] final   72.35 input  -60.55 | X-H torsion
[ 11005 11000 10999 10996 ] final  153.88 input  -57.11 | X-H torsion

> <Gold.Protein.ActiveResidues>
 VAL166  LYS551  ARG553  GLY616  TRP617  ASP618  TYR619  PRO620  LYS621  CYS622 
 ASP623  PHE694  ASN695  SER759  ASP760  ASP761  ALA762  ILE779  LEU786  VAL792 
 PHE793  MET794  SER795  GLU796  ALA797  LYS798  CYS799  TRP800  GLU811  SER814 

> <Gold.Protein.RotatedAtoms>
  152.2404  134.8234  160.0460 H   0  0  0  0  0  0  0  0  0  0  0  0  # atno 6907 bound_to 6896
  151.8951  133.3520  159.3819 H   0  0  0  0  0  0  0  0  0  0  0  0  # atno 6908 bound_to 6896
  150.7052  134.4811  159.5515 H   0  0  0  0  0  0  0  0  0  0  0  0  # atno 6909 bound_to 6896
  146.2361  140.1958  142.8333 H   0  0  0  0  0  0  0  0  0  0  0  0  # atno 7974 bound_to 7965
  154.9157  140.3020  155.5242 H   0  0  0  0  0  0  0  0  0  0  0  0  # atno 8008 bound_to 7997
  156.3012  140.2381  156.4138 H   0  0  0  0  0  0  0  0  0  0  0  0  # atno 8009 bound_to 7997
  154.8380  140.0415  157.1511 H   0  0  0  0  0  0  0  0  0  0  0  0  # atno 8010 bound_to 7997
  139.6303  144.0452  152.2010 H   0  0  0  0  0  0  0  0  0  0  0  0  # atno 10167 bound_to 10162
  157.3926  130.7815  149.7282 H   0  0  0  0  0  0  0  0  0  0  0  0  # atno 10718 bound_to 10713
  153.0453  135.5103  154.7731 H   0  0  0  0  0  0  0  0  0  0  0  0  # atno 10763 bound_to 10752
  154.6635  135.2942  154.9838 H   0  0  0  0  0  0  0  0  0  0  0  0  # atno 10764 bound_to 10752
  154.0680  135.6681  153.4873 H   0  0  0  0  0  0  0  0  0  0  0  0  # atno 10765 bound_to 10752
  140.1438  134.8721  157.2366 H   0  0  0  0  0  0  0  0  0  0  0  0  # atno 11005 bound_to 11000
  144.9822  140.8469  143.5390 LP  0  0  0  0  0  0  0  0  0  0  0  0  # atno 17320 bound_to 7965
  145.1952  139.2280  143.5221 LP  0  0  0  0  0  0  0  0  0  0  0  0  # atno 17321 bound_to 7965
  140.0116  144.6220  150.7643 LP  0  0  0  0  0  0  0  0  0  0  0  0  # atno 17342 bound_to 10162
  140.7435  143.2847  151.3496 LP  0  0  0  0  0  0  0  0  0  0  0  0  # atno 17343 bound_to 10162
  155.9802  130.4032  150.3541 LP  0  0  0  0  0  0  0  0  0  0  0  0  # atno 17370 bound_to 10713
  157.1659  131.0357  151.2818 LP  0  0  0  0  0  0  0  0  0  0  0  0  # atno 17371 bound_to 10713
  140.2689  134.3484  155.7380 LP  0  0  0  0  0  0  0  0  0  0  0  0  # atno 17394 bound_to 11000
  141.2190  133.7411  156.9192 LP  0  0  0  0  0  0  0  0  0  0  0  0  # atno 17395 bound_to 11000

$$$$
