AV-unprocessed.smi:3348|AV-procd|sdf|12923|dock6
  -GOLD-   2272019343D 1   1.00000     0.00000
 Structure written by MMmdl.
 46 47  0  0  0  0  0  0  0  0  1 V2000
  150.1696  138.6021  154.0220 C   0  0  0  0  0  0  0  0  0  0  0  0
  150.0410  138.0003  155.4284 C   0  0  2  0  0  0  0  0  0  0  0  0
  149.3517  139.0151  156.3775 C   0  0  0  0  0  0  0  0  0  0  0  0
  148.1981  139.6961  155.8128 N   0  0  0  0  0  0  0  0  0  0  0  0
  148.1152  140.9968  155.3600 C   0  0  0  0  0  0  0  0  0  0  0  0
  146.8466  141.1870  154.8931 C   0  0  0  0  0  0  0  0  0  0  0  0
  146.2244  139.9218  155.0831 C   0  0  0  0  0  0  0  0  0  0  0  0
  147.0387  139.0284  155.6215 N   0  0  0  0  0  0  0  0  0  0  0  0
  151.3765  137.5995  155.8886 N   0  0  0  0  0  0  0  0  0  0  0  0
  152.3057  138.6880  156.1863 C   0  0  0  0  0  0  0  0  0  0  0  0
  152.1414  139.1765  157.6351 C   0  0  0  0  0  0  0  0  0  0  0  0
  152.9554  140.3092  157.9192 O   0  0  0  0  0  0  0  0  0  0  0  0
  152.3518  141.3059  158.7377 C   0  0  2  0  0  0  0  0  0  0  0  0
  151.3225  142.0535  157.8703 C   0  0  0  0  0  0  0  0  0  0  0  0
  150.6794  143.2137  158.6421 C   0  0  0  0  0  0  0  0  0  0  0  0
  151.7515  144.1795  159.1683 C   0  0  0  0  0  0  0  0  0  0  0  0
  152.7927  143.4425  160.0259 C   0  0  0  0  0  0  0  0  0  0  0  0
  153.4404  142.2683  159.2628 C   0  0  1  0  0  0  0  0  0  0  0  0
  154.4657  141.5432  160.1495 C   0  0  0  0  0  0  0  0  0  0  0  0
  149.1923  138.8636  153.6152 H   0  0  0  0  0  0  0  0  0  0  0  0
  150.6296  137.8945  153.3313 H   0  0  0  0  0  0  0  0  0  0  0  0
  150.7793  139.5066  154.0296 H   0  0  0  0  0  0  0  0  0  0  0  0
  149.4141  137.1134  155.3283 H   0  0  0  0  0  0  0  0  0  0  0  0
  149.0524  138.5227  157.3038 H   0  0  0  0  0  0  0  0  0  0  0  0
  150.0620  139.7919  156.6635 H   0  0  0  0  0  0  0  0  0  0  0  0
  148.9553  141.6733  155.4123 H   0  0  0  0  0  0  0  0  0  0  0  0
  146.4291  142.0902  154.4737 H   0  0  0  0  0  0  0  0  0  0  0  0
  145.2137  139.6262  154.8431 H   0  0  0  0  0  0  0  0  0  0  0  0
  151.2886  137.0018  156.7042 H   0  0  0  0  0  0  0  0  0  0  0  0
  153.3358  138.3932  156.0076 H   0  0  0  0  0  0  0  0  0  0  0  0
  152.1059  139.5231  155.5141 H   0  0  0  0  0  0  0  0  0  0  0  0
  151.0975  139.4224  157.8343 H   0  0  0  0  0  0  0  0  0  0  0  0
  152.4036  138.3777  158.3295 H   0  0  0  0  0  0  0  0  0  0  0  0
  151.8388  140.8664  159.5955 H   0  0  0  0  0  0  0  0  0  0  0  0
  151.8098  142.4403  156.9742 H   0  0  0  0  0  0  0  0  0  0  0  0
  150.5516  141.3654  157.5244 H   0  0  0  0  0  0  0  0  0  0  0  0
  149.9802  143.7469  157.9977 H   0  0  0  0  0  0  0  0  0  0  0  0
  150.0958  142.8203  159.4753 H   0  0  0  0  0  0  0  0  0  0  0  0
  152.2490  144.6661  158.3284 H   0  0  0  0  0  0  0  0  0  0  0  0
  151.2829  144.9725  159.7518 H   0  0  0  0  0  0  0  0  0  0  0  0
  153.5606  144.1461  160.3495 H   0  0  0  0  0  0  0  0  0  0  0  0
  152.3145  143.0716  160.9336 H   0  0  0  0  0  0  0  0  0  0  0  0
  153.9749  142.6790  158.4049 H   0  0  0  0  0  0  0  0  0  0  0  0
  153.9882  141.0894  161.0185 H   0  0  0  0  0  0  0  0  0  0  0  0
  155.2296  142.2322  160.5110 H   0  0  0  0  0  0  0  0  0  0  0  0
  154.9759  140.7520  159.5997 H   0  0  0  0  0  0  0  0  0  0  0  0
  1  2  1  0  0  0  0
  1 20  1  0  0  0  0
  1 21  1  0  0  0  0
  1 22  1  0  0  0  0
  2  3  1  0  0  0  0
  2  9  1  0  0  0  0
  2 23  1  0  0  0  0
  3  4  1  0  0  0  0
  3 24  1  0  0  0  0
  3 25  1  0  0  0  0
  4  8  1  0  0  0  0
  4  5  1  0  0  0  0
  5  6  2  0  0  0  0
  5 26  1  0  0  0  0
  6  7  1  0  0  0  0
  6 27  1  0  0  0  0
  7  8  2  0  0  0  0
  7 28  1  0  0  0  0
  9 10  1  0  0  0  0
  9 29  1  0  0  0  0
 10 11  1  0  0  0  0
 10 30  1  0  0  0  0
 10 31  1  0  0  0  0
 11 12  1  0  0  0  0
 11 32  1  0  0  0  0
 11 33  1  0  0  0  0
 12 13  1  0  0  0  0
 13 18  1  0  0  0  0
 13 14  1  0  0  0  0
 13 34  1  0  0  0  0
 14 15  1  0  0  0  0
 14 35  1  0  0  0  0
 14 36  1  0  0  0  0
 15 16  1  0  0  0  0
 15 37  1  0  0  0  0
 15 38  1  0  0  0  0
 16 17  1  0  0  0  0
 16 39  1  0  0  0  0
 16 40  1  0  0  0  0
 17 18  1  0  0  0  0
 17 41  1  0  0  0  0
 17 42  1  0  0  0  0
 18 19  1  0  0  0  0
 18 43  1  0  0  0  0
 19 44  1  0  0  0  0
 19 45  1  0  0  0  0
 19 46  1  0  0  0  0
M  END
> <s_m_source_file>
AV-unprocessed.smi

> <i_m_source_file_index>
3348

> <i_lp_mmshare_version>
43012

> <i_f3d_flags>
0

> <s_epik_input>
bjFbY0hdW2NIXVtjSF1uMVtDSDJdW0NAQEhdKFtDSDNdKVtOSF1bQ0gyXVtDSDJdT1tDQEBIXTJbQ0gyXVtDSDJdW0NIMl1bQ0gyXVtDQEhdMltDSDNd

> <s_epik_cmdline>
J2VwaWtfcHl0aG9uJywgJy1waCcsICc3LjAnLCAnLXRuJywgJzgnLCAnLW1hJywgJzIwMCcsICctbWV0YWxfYmluZGluZycsICctaW1hZScsICc8aW5maWxlLm1hZT4nLCAnLW9tYWUnLCAnPG91dGZpbGUubWFlPic=

> <r_lp_tautomer_probability>
1

> <r_epik_Ionization_Penalty>
2.46945

> <r_epik_Ionization_Penalty_Charging>
0

> <r_epik_Ionization_Penalty_Neutral>
2.46945

> <r_epik_State_Penalty>
2.6322

> <r_epik_Charging_Adjusted_Penalty>
2.6322

> <i_epik_Tot_Q>
0

> <i_epik_Tot_abs_Q>
0

> <r_epik_Metal_State_Penalty>
2.63217

> <b_epik_Metal_Only>
0

> <s_lp_Force_Field>
OPLS_2005

> <r_lp_Energy>
18.2161

> <b_lp_Chiralities_Consistent>
1

> <s_lp_Variant>
AV-unprocessed.smi:3348-9

> <Gold.Version>
5.8.1

> <Gold.Id.Protein>
6NUR|6NUR_protein|mol2

> <Gold.PLP.Fitness>
41.2890

> <Gold.PLP.PLP>
-36.8990

> <Gold.PLP.part.hbond>
-1.0000

> <Gold.PLP.part.metal>
0.0000

> <Gold.PLP.part.buried>
-4.8550

> <Gold.PLP.part.nonpolar>
-30.8936

> <Gold.PLP.part.repulsive>
0.0919

> <Gold.PLP.ligand.clash>
0.0000

> <Gold.PLP.ligand.torsion>
0.8585

> <Gold.PLP.Chemscore.Hbond>
0.9920

> <Gold.PLP.Chemscore.CHOScore>
0.9836

> <Gold.PLP.Chemscore.Metal>
0.0000

> <Gold.Chemscore.Hbonds>
donor molecule, donor type, donor heavy atom, donor atom, acceptor molecule, acceptor atom, score
      P1  H  7997  8008       L1    12  0.91

> <Gold.PLP.Chemscore.Internal.Correction>
0.1802

> <Gold.Rescore>
     Score         DG    S(hbond)    S(metal)    S(lipo)     H(rot)  DE(clash)    DE(int)     intcor
     17.14     -17.80       0.94        0.00     116.14       1.72       0.02       0.63       ----

> <Gold.Chemscore.Fitness>
17.1421

> <Gold.Chemscore.DG>
-17.7980

> <Gold.Chemscore.ZeroCoef>
-5.4800

> <Gold.Chemscore.Hbond>
0.9409

> <Gold.Chemscore.Metal>
0.0000

> <Gold.Chemscore.Lipo>
116.1380

> <Gold.Chemscore.Internal_Hbond>
0.0000

> <Gold.Chemscore.DEClash>
0.0240

> <Gold.Chemscore.DEInternal>
0.6319

> <Gold.Chemscore.Rot>
1.7237

> <Gold.Chemscore.Internal.Correction>
   9.000000E+99

> <Gold.Chemscore.Hbonds>
donor molecule, donor type, donor heavy atom, donor atom, acceptor molecule, acceptor atom, score
      P1  H  7997  8008       L1    12  0.49

> <Gold.Chemscore.Hbond.Weighted>
-3.1424

> <Gold.Chemscore.Metal.Weighted>
-0.0000

> <Gold.Chemscore.Lipo.Weighted>
-13.5881

> <Gold.Chemscore.Internal_Hbond.Weighted>
0.0000

> <Gold.Chemscore.DEClash.Weighted>
0.0240

> <Gold.Chemscore.DEInternal.Weighted>
0.6319

> <Gold.Chemscore.Rot.Weighted>
4.4126

> <Gold.Chemscore.Internal.Correction.Weighted>
   9.000000E+99

> <Gold.Protein.RotatedTorsions>
[ 6907 6896 6895 6894 ] final  -56.66 input  -60.11 | X-H torsion
[ 7974 7965 7964 7962 ] final  110.18 input  175.53 | X-H torsion
[ 8008 7997 7996 7995 ] final  -81.04 input   59.86 | X-H torsion
[ 10167 10162 10161 10158 ] final  152.15 input  -65.29 | X-H torsion
[ 10718 10713 10712 10709 ] final   95.36 input   66.30 | X-H torsion
[ 10763 10752 10751 10750 ] final   76.11 input  -60.55 | X-H torsion
[ 11005 11000 10999 10996 ] final  -42.43 input  -57.11 | X-H torsion

> <Gold.Protein.ActiveResidues>
 VAL166  LYS551  ARG553  GLY616  TRP617  ASP618  TYR619  PRO620  LYS621  CYS622 
 ASP623  PHE694  ASN695  SER759  ASP760  ASP761  ALA762  ILE779  LEU786  VAL792 
 PHE793  MET794  SER795  GLU796  ALA797  LYS798  CYS799  TRP800  GLU811  SER814 

> <Gold.Protein.RotatedAtoms>
  150.8149  134.7325  159.6720 H   0  0  0  0  0  0  0  0  0  0  0  0  # atno 6907 bound_to 6896
  152.4268  134.5850  159.9968 H   0  0  0  0  0  0  0  0  0  0  0  0  # atno 6908 bound_to 6896
  151.6049  133.3315  159.3091 H   0  0  0  0  0  0  0  0  0  0  0  0  # atno 6909 bound_to 6896
  145.2583  139.2712  143.4030 H   0  0  0  0  0  0  0  0  0  0  0  0  # atno 7974 bound_to 7965
  154.5944  140.0654  156.9283 H   0  0  0  0  0  0  0  0  0  0  0  0  # atno 8008 bound_to 7997
  155.2240  140.3332  155.4293 H   0  0  0  0  0  0  0  0  0  0  0  0  # atno 8009 bound_to 7997
  156.2277  140.1827  156.7306 H   0  0  0  0  0  0  0  0  0  0  0  0  # atno 8010 bound_to 7997
  139.4835  144.5381  151.7610 H   0  0  0  0  0  0  0  0  0  0  0  0  # atno 10167 bound_to 10162
  157.6939  131.0543  150.4328 H   0  0  0  0  0  0  0  0  0  0  0  0  # atno 10718 bound_to 10713
  153.0702  135.4963  154.8288 H   0  0  0  0  0  0  0  0  0  0  0  0  # atno 10763 bound_to 10752
  154.7012  135.3002  154.9341 H   0  0  0  0  0  0  0  0  0  0  0  0  # atno 10764 bound_to 10752
  154.0064  135.6760  153.4815 H   0  0  0  0  0  0  0  0  0  0  0  0  # atno 10765 bound_to 10752
  141.0315  133.6818  156.2594 H   0  0  0  0  0  0  0  0  0  0  0  0  # atno 11005 bound_to 11000
  146.3282  140.2993  142.8620 LP  0  0  0  0  0  0  0  0  0  0  0  0  # atno 17320 bound_to 7965
  144.9441  140.8109  143.5612 LP  0  0  0  0  0  0  0  0  0  0  0  0  # atno 17321 bound_to 7965
  140.4917  144.1300  150.5951 LP  0  0  0  0  0  0  0  0  0  0  0  0  # atno 17342 bound_to 10162
  140.4163  143.2632  151.9770 LP  0  0  0  0  0  0  0  0  0  0  0  0  # atno 17343 bound_to 10162
  156.4693  130.4049  149.6528 LP  0  0  0  0  0  0  0  0  0  0  0  0  # atno 17370 bound_to 10713
  156.3614  130.7483  151.2456 LP  0  0  0  0  0  0  0  0  0  0  0  0  # atno 17371 bound_to 10713
  140.6398  134.5178  157.5568 LP  0  0  0  0  0  0  0  0  0  0  0  0  # atno 17394 bound_to 11000
  139.9211  134.8147  156.1209 LP  0  0  0  0  0  0  0  0  0  0  0  0  # atno 17395 bound_to 11000

$$$$
