#       Name:                AV-unprocessed.smi:2108
#       Creating user name   scv26
#       Creation time:       Fri Mar 27 11:34:36 2020


#       File generated by GOLD software.
#

@<TRIPOS>MOLECULE
AV-unprocessed.smi:2108
    39    40     1
SMALL
NO_CHARGES


@<TRIPOS>ATOM
      1 ****        -0.5982   2.6370   1.1203 O.2            1 S1                 0.0000
      2 ****        -0.7821   1.8065  -0.0812 S.o2           1 S1                 0.0000
      3 ****        -0.4929   2.4184  -1.3887 O.2            1 S1                 0.0000
      4 ****        -0.1788   0.3123   0.0924 N.pl3          1 S1                -1.0000
      5 ****         1.2619   0.1388   0.1468 C.3            1 S1                 0.0000
      6 ****         1.6061  -1.3648   0.2111 C.3            1 S1                 0.0000
      7 ****         3.1017  -1.6621   0.2539 C.ar           1 S1                 0.0000
      8 ****         3.7664  -1.8365   1.4896 C.ar           1 S1                 0.0000
      9 ****         5.1461  -2.1177   1.4804 C.ar           1 S1                 0.0000
     10 ****         5.8098  -2.2204   0.2430 C.ar           1 S1                 0.0000
     11 ****         5.0603  -2.0371  -0.9357 C.ar           1 S1                 0.0000
     12 ****         3.7375  -1.7678  -0.9388 N.ar           1 S1                 0.0000
     13 ****        -2.4620   1.3665  -0.1236 N.3            1 S1                 0.0000
     14 ****        -2.9249   0.5296  -1.2494 C.3            1 S1                 0.0000
     15 ****        -4.3602   0.0312  -1.0181 C.3            1 S1                 0.0000
     16 ****        -5.2238   1.1279  -0.7623 O.3            1 S1                 0.0000
     17 ****        -4.8442   1.8175   0.4182 C.3            1 S1                 0.0000
     18 ****        -3.4329   2.4059   0.2592 C.3            1 S1                 0.0000
     19 ****         1.7488   0.5772  -0.7249 H              1 S1                 0.0000
     20 ****         1.6913   0.6406   1.0147 H              1 S1                 0.0000
     21 ****         1.1384  -1.8127   1.0892 H              1 S1                 0.0000
     22 ****         1.1768  -1.8776  -0.6513 H              1 S1                 0.0000
     23 ****         3.2304  -1.7514   2.4237 H              1 S1                 0.0000
     24 ****         5.6857  -2.2528   2.4060 H              1 S1                 0.0000
     25 ****         6.8672  -2.4355   0.1980 H              1 S1                 0.0000
     26 ****         5.5359  -2.1107  -1.9023 H              1 S1                 0.0000
     27 ****        -2.8781   1.1181  -2.1664 H              1 S1                 0.0000
     28 ****        -2.2632  -0.3247  -1.3883 H              1 S1                 0.0000
     29 ****        -4.7174  -0.4991  -1.9010 H              1 S1                 0.0000
     30 ****        -4.3946  -0.6772  -0.1888 H              1 S1                 0.0000
     31 ****        -5.5618   2.6161   0.6062 H              1 S1                 0.0000
     32 ****        -4.8887   1.1448   1.2763 H              1 S1                 0.0000
     33 ****        -3.1284   2.8729   1.1955 H              1 S1                 0.0000
     34 ****        -3.4326   3.1852  -0.5038 H              1 S1                 0.0000
     35 ****        -0.7887  -0.4772   0.1609 LP             1 S1                 0.0000
     36 ****         3.2398  -1.6494  -1.7980 LP             1 S1                 0.0000
     37 ****        -2.4532   0.7319   0.6492 LP             1 S1                 0.0000
     38 ****        -6.1584   0.7888  -0.6553 LP             1 S1                 0.0000
     39 ****        -5.1852   1.7605  -1.5359 LP             1 S1                 0.0000
@<TRIPOS>BOND
    1    1    2 2     
    2    2    3 2     
    3    2    4 1     
    4    2   13 1     
    5    4    5 1     
    6    5    6 1     
    7    5   19 1     
    8    5   20 1     
    9    6    7 1     
   10    6   21 1     
   11    6   22 1     
   12    7   12 ar    
   13    7    8 ar    
   14    8    9 ar    
   15    8   23 1     
   16    9   10 ar    
   17    9   24 1     
   18   10   11 ar    
   19   10   25 1     
   20   11   12 ar    
   21   11   26 1     
   22   13   18 1     
   23   13   14 1     
   24   14   15 1     
   25   14   27 1     
   26   14   28 1     
   27   15   16 1     
   28   15   29 1     
   29   15   30 1     
   30   16   17 1     
   31   17   18 1     
   32   17   31 1     
   33   17   32 1     
   34   18   33 1     
   35   18   34 1     
   36    4   35 1     
   37   12   36 1     
   38   13   37 1     
   39   16   38 1     
   40   16   39 1     
@<TRIPOS>SUBSTRUCTURE
      1 S1             1
@<TRIPOS>SET
LONE_PAIRS      STATIC     ATOMS    <user>   **** ""
7 1 3 35 36 37 38 39
ATOM$BLUE        STATIC     ATOMS    COLORGROUP SYSTEM
7 1 3 35 36 37 38 39
