AV-unprocessed.smi:1820|AV-procd|sdf|7385|dock2
  -GOLD-   22720 9 53D 1   1.00000     0.00000
 Structure written by MMmdl.
 35 36  0  0  0  0  0  0  0  0  2 V2000
  145.3316  138.1808  153.8939 O   0  0  0  0  0  0  0  0  0  0  0  0
  146.3342  137.7524  153.3228 C   0  0  0  0  0  0  0  0  0  0  0  0
  146.3703  136.5867  152.6628 N   0  0  0  0  0  0  0  0  0  0  0  0
  145.2346  135.6856  152.4852 C   0  0  0  0  0  0  0  0  0  0  0  0
  145.1468  135.0964  151.0535 C   0  0  0  0  0  0  0  0  0  0  0  0
  145.1664  136.1667  150.1289 O   0  0  0  0  0  0  0  0  0  0  0  0
  146.2239  134.0513  150.7210 C   0  0  0  0  0  0  0  0  0  0  0  0
  145.6965  132.7419  151.3159 C   0  0  0  0  0  0  0  0  0  0  0  0
  144.1656  132.8753  151.3416 C   0  0  0  0  0  0  0  0  0  0  0  0
  143.8486  134.2991  150.8621 C   0  0  0  0  0  0  0  0  0  0  0  0
  147.5291  138.3671  153.2872 N   0  0  0  0  0  0  0  0  0  0  0  0
  147.8995  139.6197  153.8484 C   0  0  0  0  0  0  0  0  0  0  0  0
  149.1952  139.7292  154.4007 C   0  0  0  0  0  0  0  0  0  0  0  0
  149.6129  140.9545  154.9587 C   0  0  0  0  0  0  0  0  0  0  0  0
  148.7784  142.0158  154.9515 N   0  3  0  0  0  0  0  0  0  0  0  0
  147.5378  141.9651  154.4211 C   0  0  0  0  0  0  0  0  0  0  0  0
  147.0644  140.7663  153.8496 C   0  0  0  0  0  0  0  0  0  0  0  0
  147.2381  136.3105  152.2274 H   0  0  0  0  0  0  0  0  0  0  0  0
  145.3721  134.8789  153.2057 H   0  0  0  0  0  0  0  0  0  0  0  0
  144.2969  136.1699  152.7641 H   0  0  0  0  0  0  0  0  0  0  0  0
  144.5119  136.7981  150.3855 H   0  0  0  0  0  0  0  0  0  0  0  0
  146.2975  133.9345  149.6385 H   0  0  0  0  0  0  0  0  0  0  0  0
  147.2218  134.3054  151.0778 H   0  0  0  0  0  0  0  0  0  0  0  0
  146.0259  131.8758  150.7410 H   0  0  0  0  0  0  0  0  0  0  0  0
  146.0707  132.6199  152.3332 H   0  0  0  0  0  0  0  0  0  0  0  0
  143.6840  132.1315  150.7058 H   0  0  0  0  0  0  0  0  0  0  0  0
  143.7963  132.7232  152.3565 H   0  0  0  0  0  0  0  0  0  0  0  0
  142.9966  134.7380  151.3828 H   0  0  0  0  0  0  0  0  0  0  0  0
  143.5891  134.2568  149.8026 H   0  0  0  0  0  0  0  0  0  0  0  0
  148.2773  137.8505  152.8487 H   0  0  0  0  0  0  0  0  0  0  0  0
  149.8646  138.8810  154.4043 H   0  0  0  0  0  0  0  0  0  0  0  0
  150.5833  141.1164  155.4049 H   0  0  0  0  0  0  0  0  0  0  0  0
  146.9657  142.8802  154.4644 H   0  0  0  0  0  0  0  0  0  0  0  0
  146.0767  140.7556  153.4148 H   0  0  0  0  0  0  0  0  0  0  0  0
  149.1001  142.8941  155.3594 H   0  0  0  0  0  0  0  0  0  0  0  0
  1  2  2  0  0  0  0
  2  3  1  0  0  0  0
  2 11  1  0  0  0  0
  3  4  1  0  0  0  0
  3 18  1  0  0  0  0
  4  5  1  0  0  0  0
  4 19  1  0  0  0  0
  4 20  1  0  0  0  0
  5 10  1  0  0  0  0
  5  6  1  0  0  0  0
  5  7  1  0  0  0  0
  6 21  1  0  0  0  0
  7  8  1  0  0  0  0
  7 22  1  0  0  0  0
  7 23  1  0  0  0  0
  8  9  1  0  0  0  0
  8 24  1  0  0  0  0
  8 25  1  0  0  0  0
  9 10  1  0  0  0  0
  9 26  1  0  0  0  0
  9 27  1  0  0  0  0
 10 28  1  0  0  0  0
 10 29  1  0  0  0  0
 11 12  1  0  0  0  0
 11 30  1  0  0  0  0
 12 17  1  0  0  0  0
 12 13  2  0  0  0  0
 13 14  1  0  0  0  0
 13 31  1  0  0  0  0
 14 15  2  0  0  0  0
 14 32  1  0  0  0  0
 15 16  1  0  0  0  0
 15 35  1  0  0  0  0
 16 17  2  0  0  0  0
 16 33  1  0  0  0  0
 17 34  1  0  0  0  0
M  CHG  1  15   1
M  END
> <s_m_source_file>
AV-unprocessed.smi

> <i_m_source_file_index>
1820

> <i_lp_mmshare_version>
43012

> <i_f3d_flags>
0

> <s_epik_input>
W2NIXTFbY0hdbltjSF1bY0hdYzFbTkhdQyg9TylbTkhdW0NIMl1DMihbT0hdKVtDSDJdW0NIMl1bQ0gyXVtDSDJdMg==

> <s_epik_cmdline>
J2VwaWtfcHl0aG9uJywgJy1waCcsICc3LjAnLCAnLXRuJywgJzgnLCAnLW1hJywgJzIwMCcsICctbWV0YWxfYmluZGluZycsICctaW1hZScsICc8aW5maWxlLm1hZT4nLCAnLW9tYWUnLCAnPG91dGZpbGUubWFlPic=

> <r_epik_Ionization_Penalty>
0.972463

> <r_epik_Ionization_Penalty_Charging>
0.972441

> <r_epik_Ionization_Penalty_Neutral>
2.25054e-05

> <r_epik_State_Penalty>
1.01855

> <r_epik_Charging_Adjusted_Penalty>
1.99099

> <i_epik_Tot_Q>
1

> <i_epik_Tot_abs_Q>
1

> <r_epik_Metal_State_Penalty>
1.12508

> <b_epik_Metal_Only>
0

> <s_lp_Force_Field>
OPLS_2005

> <r_lp_Energy>
34.043

> <b_lp_Chiralities_Consistent>
1

> <s_lp_Variant>
AV-unprocessed.smi:1820-2

> <Gold.Version>
5.8.1

> <Gold.Id.Protein>
6NUR|6NUR_protein|mol2

> <Gold.PLP.Fitness>
45.4747

> <Gold.PLP.PLP>
-31.4957

> <Gold.PLP.part.hbond>
-5.0418

> <Gold.PLP.part.metal>
0.0000

> <Gold.PLP.part.buried>
-3.8911

> <Gold.PLP.part.nonpolar>
-24.2716

> <Gold.PLP.part.repulsive>
1.6484

> <Gold.PLP.ligand.clash>
0.0000

> <Gold.PLP.ligand.torsion>
0.4663

> <Gold.PLP.Chemscore.Hbond>
4.9672

> <Gold.PLP.Chemscore.CHOScore>
0.0000

> <Gold.PLP.Chemscore.Metal>
0.0000

> <Gold.Chemscore.Hbonds>
donor molecule, donor type, donor heavy atom, donor atom, acceptor molecule, acceptor atom, score
      L1  H     3    18       P1  7948  1.00
      L1  H     6    21       P1 10171  0.75
      L1  H    11    30       P1  7948  1.00
      L1  H    15    35       P1  8028  1.98

> <Gold.PLP.Chemscore.Internal.Correction>
0.0100

> <Gold.Rescore>
     Score         DG    S(hbond)    S(metal)    S(lipo)     H(rot)  DE(clash)    DE(int)     intcor
     21.16     -21.77       3.79        0.00      70.01       1.79       0.11       0.51       ----

> <Gold.Chemscore.Fitness>
21.1560

> <Gold.Chemscore.DG>
-21.7697

> <Gold.Chemscore.ZeroCoef>
-5.4800

> <Gold.Chemscore.Hbond>
3.7936

> <Gold.Chemscore.Metal>
0.0000

> <Gold.Chemscore.Lipo>
70.0054

> <Gold.Chemscore.Internal_Hbond>
0.0000

> <Gold.Chemscore.DEClash>
0.1068

> <Gold.Chemscore.DEInternal>
0.5069

> <Gold.Chemscore.Rot>
1.7858

> <Gold.Chemscore.Internal.Correction>
   9.000000E+99

> <Gold.Chemscore.Hbonds>
donor molecule, donor type, donor heavy atom, donor atom, acceptor molecule, acceptor atom, score
      L1  H     3    18       P1  7948  1.00
      L1  H     6    21       P1 10171  0.74
      L1  H    11    30       P1  7948  0.93
      L1  H    15    35       P1  8028  0.94

> <Gold.Chemscore.Hbond.Weighted>
-12.6708

> <Gold.Chemscore.Metal.Weighted>
-0.0000

> <Gold.Chemscore.Lipo.Weighted>
-8.1906

> <Gold.Chemscore.Internal_Hbond.Weighted>
0.0000

> <Gold.Chemscore.DEClash.Weighted>
0.1068

> <Gold.Chemscore.DEInternal.Weighted>
0.5069

> <Gold.Chemscore.Rot.Weighted>
4.5717

> <Gold.Chemscore.Internal.Correction.Weighted>
   9.000000E+99

> <Gold.Protein.RotatedTorsions>
[ 6907 6896 6895 6894 ] final   61.99 input  -60.11 | X-H torsion
[ 7974 7965 7964 7962 ] final  159.96 input  175.53 | X-H torsion
[ 8008 7997 7996 7995 ] final   69.11 input   59.86 | X-H torsion
[ 10167 10162 10161 10158 ] final  -12.08 input  -65.29 | X-H torsion
[ 10718 10713 10712 10709 ] final -155.72 input   66.30 | X-H torsion
[ 10763 10752 10751 10750 ] final   11.26 input  -60.55 | X-H torsion
[ 11005 11000 10999 10996 ] final  158.29 input  -57.11 | X-H torsion

> <Gold.Protein.ActiveResidues>
 VAL166  LYS551  ARG553  GLY616  TRP617  ASP618  TYR619  PRO620  LYS621  CYS622 
 ASP623  PHE694  ASN695  SER759  ASP760  ASP761  ALA762  ILE779  LEU786  VAL792 
 PHE793  MET794  SER795  GLU796  ALA797  LYS798  CYS799  TRP800  GLU811  SER814 

> <Gold.Protein.RotatedAtoms>
  152.4135  134.6083  160.0018 H   0  0  0  0  0  0  0  0  0  0  0  0  # atno 6907 bound_to 6896
  151.6254  133.3330  159.3105 H   0  0  0  0  0  0  0  0  0  0  0  0  # atno 6908 bound_to 6896
  150.8024  134.7167  159.6679 H   0  0  0  0  0  0  0  0  0  0  0  0  # atno 6909 bound_to 6896
  144.7762  139.7690  143.6278 H   0  0  0  0  0  0  0  0  0  0  0  0  # atno 7974 bound_to 7965
  155.7186  140.3493  155.5005 H   0  0  0  0  0  0  0  0  0  0  0  0  # atno 8008 bound_to 7997
  155.9291  140.1081  157.1168 H   0  0  0  0  0  0  0  0  0  0  0  0  # atno 8009 bound_to 7997
  154.4082  140.1235  156.4765 H   0  0  0  0  0  0  0  0  0  0  0  0  # atno 8010 bound_to 7997
  140.7153  143.5571  150.9237 H   0  0  0  0  0  0  0  0  0  0  0  0  # atno 10167 bound_to 10162
  156.5167  130.8459  151.2667 H   0  0  0  0  0  0  0  0  0  0  0  0  # atno 10718 bound_to 10713
  153.1945  135.6847  153.8310 H   0  0  0  0  0  0  0  0  0  0  0  0  # atno 10763 bound_to 10752
  153.7597  135.3211  155.3336 H   0  0  0  0  0  0  0  0  0  0  0  0  # atno 10764 bound_to 10752
  154.8136  135.4700  154.0683 H   0  0  0  0  0  0  0  0  0  0  0  0  # atno 10765 bound_to 10752
  140.1851  134.8448  157.2848 H   0  0  0  0  0  0  0  0  0  0  0  0  # atno 11005 bound_to 11000
  146.1943  139.5200  142.9785 LP  0  0  0  0  0  0  0  0  0  0  0  0  # atno 17320 bound_to 7965
  145.6179  141.0328  143.1931 LP  0  0  0  0  0  0  0  0  0  0  0  0  # atno 17321 bound_to 7965
  139.9296  143.6509  152.3079 LP  0  0  0  0  0  0  0  0  0  0  0  0  # atno 17342 bound_to 10162
  139.6955  144.7642  151.1364 LP  0  0  0  0  0  0  0  0  0  0  0  0  # atno 17343 bound_to 10162
  157.7443  130.9931  150.2660 LP  0  0  0  0  0  0  0  0  0  0  0  0  # atno 17370 bound_to 10713
  156.3188  130.3783  149.7594 LP  0  0  0  0  0  0  0  0  0  0  0  0  # atno 17371 bound_to 10713
  140.2223  134.4008  155.7560 LP  0  0  0  0  0  0  0  0  0  0  0  0  # atno 17394 bound_to 11000
  141.2224  133.7172  156.8510 LP  0  0  0  0  0  0  0  0  0  0  0  0  # atno 17395 bound_to 11000

$$$$
