AV-unprocessed.smi:3018|AV-procd|sdf|11484|dock10
  -GOLD-   2272016423D 1   1.00000     0.00000
 Structure written by MMmdl.
 44 45  0  0  0  0  0  0  0  0  2 V2000
  148.9166  141.1744  154.8221 C   0  0  0  0  0  0  0  0  0  0  0  0
  150.0942  140.3972  155.4233 C   0  0  0  0  0  0  0  0  0  0  0  0
  150.4066  140.8175  156.8715 C   0  0  1  0  0  0  0  0  0  0  0  0
  150.5115  142.2399  156.9039 O   0  0  0  0  0  0  0  0  0  0  0  0
  151.5467  142.7807  157.7208 C   0  0  0  0  0  0  0  0  0  0  0  0
  151.3996  142.1632  159.1221 C   0  0  0  0  0  0  0  0  0  0  0  0
  152.4196  142.7570  160.1074 C   0  0  0  0  0  0  0  0  0  0  0  0
  152.3033  144.2882  160.1718 C   0  0  0  0  0  0  0  0  0  0  0  0
  152.4425  144.9146  158.7752 C   0  0  0  0  0  0  0  0  0  0  0  0
  151.4239  144.3166  157.7909 C   0  0  0  0  0  0  0  0  0  0  0  0
  149.2991  140.3589  157.8321 C   0  0  0  0  0  0  0  0  0  0  0  0
  148.6251  141.1899  158.4408 O   0  0  0  0  0  0  0  0  0  0  0  0
  149.1299  139.0328  157.9541 N   0  0  0  0  0  0  0  0  0  0  0  0
  148.0987  138.3763  158.7542 C   0  0  0  0  0  0  0  0  0  0  0  0
  148.6842  137.2702  159.6552 C   0  0  0  0  0  0  0  0  0  0  0  0
  147.7400  136.8533  160.7534 C   0  0  0  0  0  0  0  0  0  0  0  0
  147.3744  135.6550  161.0211 N   0  0  0  0  0  0  0  0  0  0  0  0
  146.5318  135.8204  162.0535 N   0  0  0  0  0  0  0  0  0  0  0  0
  146.4072  137.1058  162.3915 C   0  0  0  0  0  0  0  0  0  0  0  0
  145.6910  137.5007  163.3090 O   0  0  0  0  0  0  0  0  0  0  0  0
  147.1939  137.8058  161.5548 N   0  5  0  0  0  0  0  0  0  0  0  0
  146.0803  135.0222  162.4752 H   0  0  0  0  0  0  0  0  0  0  0  0
  148.7313  140.8633  153.7938 H   0  0  0  0  0  0  0  0  0  0  0  0
  149.1154  142.2464  154.8144 H   0  0  0  0  0  0  0  0  0  0  0  0
  148.0012  141.0068  155.3903 H   0  0  0  0  0  0  0  0  0  0  0  0
  149.8798  139.3282  155.3813 H   0  0  0  0  0  0  0  0  0  0  0  0
  150.9731  140.5576  154.7965 H   0  0  0  0  0  0  0  0  0  0  0  0
  151.3519  140.3584  157.1645 H   0  0  0  0  0  0  0  0  0  0  0  0
  152.5309  142.5113  157.3356 H   0  0  0  0  0  0  0  0  0  0  0  0
  150.3894  142.3358  159.4960 H   0  0  0  0  0  0  0  0  0  0  0  0
  151.5270  141.0816  159.0648 H   0  0  0  0  0  0  0  0  0  0  0  0
  152.2697  142.3310  161.0997 H   0  0  0  0  0  0  0  0  0  0  0  0
  153.4288  142.4792  159.7999 H   0  0  0  0  0  0  0  0  0  0  0  0
  151.3388  144.5632  160.6005 H   0  0  0  0  0  0  0  0  0  0  0  0
  153.0651  144.6923  160.8390 H   0  0  0  0  0  0  0  0  0  0  0  0
  152.3088  145.9948  158.8380 H   0  0  0  0  0  0  0  0  0  0  0  0
  153.4530  144.7488  158.3996 H   0  0  0  0  0  0  0  0  0  0  0  0
  151.5725  144.7600  156.8067 H   0  0  0  0  0  0  0  0  0  0  0  0
  150.4143  144.5883  158.1019 H   0  0  0  0  0  0  0  0  0  0  0  0
  149.7369  138.4309  157.4173 H   0  0  0  0  0  0  0  0  0  0  0  0
  147.6437  139.1421  159.3824 H   0  0  0  0  0  0  0  0  0  0  0  0
  147.2922  137.9811  158.1335 H   0  0  0  0  0  0  0  0  0  0  0  0
  148.9532  136.4034  159.0502 H   0  0  0  0  0  0  0  0  0  0  0  0
  149.6171  137.6255  160.0949 H   0  0  0  0  0  0  0  0  0  0  0  0
  1  2  1  0  0  0  0
  1 23  1  0  0  0  0
  1 24  1  0  0  0  0
  1 25  1  0  0  0  0
  2  3  1  0  0  0  0
  2 26  1  0  0  0  0
  2 27  1  0  0  0  0
  3  4  1  0  0  0  0
  3 11  1  0  0  0  0
  3 28  1  0  0  0  0
  4  5  1  0  0  0  0
  5 10  1  0  0  0  0
  5  6  1  0  0  0  0
  5 29  1  0  0  0  0
  6  7  1  0  0  0  0
  6 30  1  0  0  0  0
  6 31  1  0  0  0  0
  7  8  1  0  0  0  0
  7 32  1  0  0  0  0
  7 33  1  0  0  0  0
  8  9  1  0  0  0  0
  8 34  1  0  0  0  0
  8 35  1  0  0  0  0
  9 10  1  0  0  0  0
  9 36  1  0  0  0  0
  9 37  1  0  0  0  0
 10 38  1  0  0  0  0
 10 39  1  0  0  0  0
 11 12  2  0  0  0  0
 11 13  1  0  0  0  0
 13 14  1  0  0  0  0
 13 40  1  0  0  0  0
 14 15  1  0  0  0  0
 14 41  1  0  0  0  0
 14 42  1  0  0  0  0
 15 16  1  0  0  0  0
 15 43  1  0  0  0  0
 15 44  1  0  0  0  0
 16 21  1  0  0  0  0
 16 17  2  0  0  0  0
 17 18  1  0  0  0  0
 18 22  1  0  0  0  0
 18 19  1  0  0  0  0
 19 20  2  0  0  0  0
 19 21  1  0  0  0  0
M  CHG  1  21  -1
M  END
> <s_m_source_file>
AV-unprocessed.smi

> <i_m_source_file_index>
3018

> <i_lp_mmshare_version>
43012

> <i_f3d_flags>
0

> <s_epik_input>
W0NIMl0xW0NIMl1bQ0gyXVtDSDJdW0NIMl1bQ0hdMU9bQ0BASF0oW0NIMl1bQ0gzXSlDKD1PKVtOSF1bQ0gyXVtDSDJdYzJuW25IXWMoPU8pW25IXTI=

> <s_epik_cmdline>
J2VwaWtfcHl0aG9uJywgJy1waCcsICc3LjAnLCAnLXRuJywgJzgnLCAnLW1hJywgJzIwMCcsICctbWV0YWxfYmluZGluZycsICctaW1hZScsICc8aW5maWxlLm1hZT4nLCAnLW9tYWUnLCAnPG91dGZpbGUubWFlPic=

> <r_lp_tautomer_probability>
1

> <r_epik_Ionization_Penalty>
13.7173

> <r_epik_Ionization_Penalty_Charging>
13.7173

> <r_epik_Ionization_Penalty_Neutral>
5.37575e-06

> <r_epik_State_Penalty>
4.05785

> <r_epik_Charging_Adjusted_Penalty>
17.7751

> <i_epik_Tot_Q>
-1

> <i_epik_Tot_abs_Q>
1

> <r_epik_Metal_State_Penalty>
0.460256

> <b_epik_Metal_Only>
1

> <s_lp_Force_Field>
OPLS_2005

> <r_lp_Energy>
25.1559

> <b_lp_Chiralities_Consistent>
1

> <s_lp_Variant>
AV-unprocessed.smi:3018-6

> <Gold.Version>
5.8.1

> <Gold.Id.Protein>
6NUR|6NUR_protein|mol2

> <Gold.PLP.Fitness>
48.0338

> <Gold.PLP.PLP>
-38.4982

> <Gold.PLP.part.hbond>
-2.5898

> <Gold.PLP.part.metal>
0.0000

> <Gold.PLP.part.buried>
-5.1458

> <Gold.PLP.part.nonpolar>
-32.6041

> <Gold.PLP.part.repulsive>
0.2438

> <Gold.PLP.ligand.clash>
0.0000

> <Gold.PLP.ligand.torsion>
0.8316

> <Gold.PLP.Chemscore.Hbond>
3.6800

> <Gold.PLP.Chemscore.CHOScore>
0.0000

> <Gold.PLP.Chemscore.Metal>
0.0000

> <Gold.Chemscore.Hbonds>
donor molecule, donor type, donor heavy atom, donor atom, acceptor molecule, acceptor atom, score
      P1  H  6931  6943       L1    21  0.27
      P1  H  6934  6947       L1    21  0.95

> <Gold.PLP.Chemscore.Internal.Correction>
0.1588

> <Gold.Rescore>
     Score         DG    S(hbond)    S(metal)    S(lipo)     H(rot)  DE(clash)    DE(int)     intcor
     13.72     -14.72       1.67        0.00      96.41       2.98       0.24       0.76       ----

> <Gold.Chemscore.Fitness>
13.7189

> <Gold.Chemscore.DG>
-14.7181

> <Gold.Chemscore.ZeroCoef>
-5.4800

> <Gold.Chemscore.Hbond>
1.6706

> <Gold.Chemscore.Metal>
0.0000

> <Gold.Chemscore.Lipo>
96.4078

> <Gold.Chemscore.Internal_Hbond>
0.0000

> <Gold.Chemscore.DEClash>
0.2355

> <Gold.Chemscore.DEInternal>
0.7637

> <Gold.Chemscore.Rot>
2.9772

> <Gold.Chemscore.Internal.Correction>
   9.000000E+99

> <Gold.Chemscore.Hbonds>
donor molecule, donor type, donor heavy atom, donor atom, acceptor molecule, acceptor atom, score
      P1  H  6934  6947       L1    21  0.38

> <Gold.Chemscore.Hbond.Weighted>
-5.5800

> <Gold.Chemscore.Metal.Weighted>
-0.0000

> <Gold.Chemscore.Lipo.Weighted>
-11.2797

> <Gold.Chemscore.Internal_Hbond.Weighted>
0.0000

> <Gold.Chemscore.DEClash.Weighted>
0.2355

> <Gold.Chemscore.DEInternal.Weighted>
0.7637

> <Gold.Chemscore.Rot.Weighted>
7.6216

> <Gold.Chemscore.Internal.Correction.Weighted>
   9.000000E+99

> <Gold.Protein.RotatedTorsions>
[ 6907 6896 6895 6894 ] final  -41.71 input  -60.11 | X-H torsion
[ 7974 7965 7964 7962 ] final   -8.42 input  175.53 | X-H torsion
[ 8008 7997 7996 7995 ] final -122.59 input   59.86 | X-H torsion
[ 10167 10162 10161 10158 ] final -140.18 input  -65.29 | X-H torsion
[ 10718 10713 10712 10709 ] final  143.82 input   66.30 | X-H torsion
[ 10763 10752 10751 10750 ] final  107.29 input  -60.55 | X-H torsion
[ 11005 11000 10999 10996 ] final  122.52 input  -57.11 | X-H torsion

> <Gold.Protein.ActiveResidues>
 VAL166  LYS551  ARG553  GLY616  TRP617  ASP618  TYR619  PRO620  LYS621  CYS622 
 ASP623  PHE694  ASN695  SER759  ASP760  ASP761  ALA762  ILE779  LEU786  VAL792 
 PHE793  MET794  SER795  GLU796  ALA797  LYS798  CYS799  TRP800  GLU811  SER814 

> <Gold.Protein.RotatedAtoms>
  150.9636  134.9020  159.7744 H   0  0  0  0  0  0  0  0  0  0  0  0  # atno 6907 bound_to 6896
  152.5165  134.3639  159.9304 H   0  0  0  0  0  0  0  0  0  0  0  0  # atno 6908 bound_to 6896
  151.3650  133.3835  159.2728 H   0  0  0  0  0  0  0  0  0  0  0  0  # atno 6909 bound_to 6896
  146.2281  140.2465  142.8345 H   0  0  0  0  0  0  0  0  0  0  0  0  # atno 7974 bound_to 7965
  155.1667  140.0407  157.2854 H   0  0  0  0  0  0  0  0  0  0  0  0  # atno 8008 bound_to 7997
  154.6298  140.2521  155.7420 H   0  0  0  0  0  0  0  0  0  0  0  0  # atno 8009 bound_to 7997
  156.2478  140.2877  156.0644 H   0  0  0  0  0  0  0  0  0  0  0  0  # atno 8010 bound_to 7997
  139.8307  143.7451  152.2666 H   0  0  0  0  0  0  0  0  0  0  0  0  # atno 10167 bound_to 10162
  157.3645  131.0970  151.0885 H   0  0  0  0  0  0  0  0  0  0  0  0  # atno 10718 bound_to 10713
  153.4047  135.3849  155.2011 H   0  0  0  0  0  0  0  0  0  0  0  0  # atno 10763 bound_to 10752
  154.8732  135.3780  154.4575 H   0  0  0  0  0  0  0  0  0  0  0  0  # atno 10764 bound_to 10752
  153.5076  135.7087  153.5860 H   0  0  0  0  0  0  0  0  0  0  0  0  # atno 10765 bound_to 10752
  139.9272  134.9641  156.8121 H   0  0  0  0  0  0  0  0  0  0  0  0  # atno 11005 bound_to 11000
  144.9444  140.8113  143.5610 LP  0  0  0  0  0  0  0  0  0  0  0  0  # atno 17320 bound_to 7965
  145.2420  139.2068  143.4988 LP  0  0  0  0  0  0  0  0  0  0  0  0  # atno 17321 bound_to 7965
  139.7657  144.7492  151.0298 LP  0  0  0  0  0  0  0  0  0  0  0  0  # atno 17342 bound_to 10162
  140.7807  143.4700  151.0159 LP  0  0  0  0  0  0  0  0  0  0  0  0  # atno 17343 bound_to 10162
  157.2013  130.6396  149.5739 LP  0  0  0  0  0  0  0  0  0  0  0  0  # atno 17370 bound_to 10713
  155.9743  130.4690  150.6379 LP  0  0  0  0  0  0  0  0  0  0  0  0  # atno 17371 bound_to 10713
  140.6304  133.9911  155.7659 LP  0  0  0  0  0  0  0  0  0  0  0  0  # atno 17394 bound_to 11000
  141.0837  134.0023  157.3346 LP  0  0  0  0  0  0  0  0  0  0  0  0  # atno 17395 bound_to 11000

$$$$
