AV-unprocessed.smi:2387|AV-procd|sdf|9469|dock5
  -GOLD-   2272013 93D 1   1.00000     0.00000
 Structure written by MMmdl.
 47 49  0  0  0  0  0  0  0  0  1 V2000
  146.2292  132.9666  151.6716 C   0  0  0  0  0  0  0  0  0  0  0  0
  146.1068  134.3988  152.1485 C   0  0  0  0  0  0  0  0  0  0  0  0
  146.4567  134.7558  153.4669 C   0  0  0  0  0  0  0  0  0  0  0  0
  146.3214  136.1017  153.8587 C   0  0  0  0  0  0  0  0  0  0  0  0
  145.8329  137.0417  152.9193 C   0  0  0  0  0  0  0  0  0  0  0  0
  145.6680  138.4281  153.1844 N   0  0  0  0  0  0  0  0  0  0  0  0
  146.4627  139.2448  153.8966 C   0  0  0  0  0  0  0  0  0  0  0  0
  147.4939  138.9061  154.4765 O   0  0  0  0  0  0  0  0  0  0  0  0
  145.9782  140.4991  153.9087 N   0  0  0  0  0  0  0  0  0  0  0  0
  146.5353  141.6745  154.6028 C   0  0  0  0  0  0  0  0  0  0  0  0
  148.0838  141.6278  154.7264 C   0  0  0  0  0  0  0  0  0  0  0  0
  148.7756  141.5065  153.7143 O   0  0  0  0  0  0  0  0  0  0  0  0
  148.6237  141.6999  155.9553 N   0  0  0  0  0  0  0  0  0  0  0  0
  150.0487  141.6510  156.2535 C   0  0  0  0  0  0  0  0  0  0  0  0
  150.3882  141.5080  157.7249 C   0  0  0  0  0  0  0  0  0  0  0  0
  151.8085  141.2600  158.1749 C   0  0  0  0  0  0  0  0  0  0  0  0
  150.7764  140.1642  158.2948 C   0  0  0  0  0  0  0  0  0  0  0  0
  146.1240  142.9505  153.8135 C   0  0  0  0  0  0  0  0  0  0  0  0
  145.1902  143.7681  154.7114 C   0  0  0  0  0  0  0  0  0  0  0  0
  145.5561  143.3534  156.1290 C   0  0  0  0  0  0  0  0  0  0  0  0
  145.8655  141.8641  155.9946 C   0  0  0  0  0  0  0  0  0  0  0  0
  145.5269  136.5769  151.6230 C   0  0  0  0  0  0  0  0  0  0  0  0
  145.6531  135.2887  151.2397 N   0  0  0  0  0  0  0  0  0  0  0  0
  146.6426  132.3241  152.4495 H   0  0  0  0  0  0  0  0  0  0  0  0
  146.8837  132.9102  150.8012 H   0  0  0  0  0  0  0  0  0  0  0  0
  145.2505  132.5757  151.3920 H   0  0  0  0  0  0  0  0  0  0  0  0
  146.8250  134.0182  154.1647 H   0  0  0  0  0  0  0  0  0  0  0  0
  146.6064  136.3839  154.8602 H   0  0  0  0  0  0  0  0  0  0  0  0
  144.8122  138.8347  152.8360 H   0  0  0  0  0  0  0  0  0  0  0  0
  145.1237  140.6627  153.3971 H   0  0  0  0  0  0  0  0  0  0  0  0
  147.9969  141.7984  156.7404 H   0  0  0  0  0  0  0  0  0  0  0  0
  150.5085  140.8266  155.7063 H   0  0  0  0  0  0  0  0  0  0  0  0
  150.5047  142.5635  155.8677 H   0  0  0  0  0  0  0  0  0  0  0  0
  149.7798  142.1309  158.3782 H   0  0  0  0  0  0  0  0  0  0  0  0
  152.5721  141.1488  157.4076 H   0  0  0  0  0  0  0  0  0  0  0  0
  152.1359  141.7464  159.0917 H   0  0  0  0  0  0  0  0  0  0  0  0
  150.4165  139.9189  159.2921 H   0  0  0  0  0  0  0  0  0  0  0  0
  150.8547  139.3242  157.6075 H   0  0  0  0  0  0  0  0  0  0  0  0
  146.9903  143.5651  153.5608 H   0  0  0  0  0  0  0  0  0  0  0  0
  145.6364  142.7210  152.8648 H   0  0  0  0  0  0  0  0  0  0  0  0
  145.2865  144.8422  154.5506 H   0  0  0  0  0  0  0  0  0  0  0  0
  144.1542  143.4936  154.5085 H   0  0  0  0  0  0  0  0  0  0  0  0
  146.4455  143.8925  156.4573 H   0  0  0  0  0  0  0  0  0  0  0  0
  144.7587  143.5542  156.8450 H   0  0  0  0  0  0  0  0  0  0  0  0
  144.9233  141.3159  156.0467 H   0  0  0  0  0  0  0  0  0  0  0  0
  146.4761  141.5037  156.8243 H   0  0  0  0  0  0  0  0  0  0  0  0
  145.1640  137.2590  150.8679 H   0  0  0  0  0  0  0  0  0  0  0  0
  1  2  1  0  0  0  0
  1 24  1  0  0  0  0
  1 25  1  0  0  0  0
  1 26  1  0  0  0  0
  2 23  1  0  0  0  0
  2  3  2  0  0  0  0
  3  4  1  0  0  0  0
  3 27  1  0  0  0  0
  4  5  2  0  0  0  0
  4 28  1  0  0  0  0
  5  6  1  0  0  0  0
  5 22  1  0  0  0  0
  6  7  1  0  0  0  0
  6 29  1  0  0  0  0
  7  8  2  0  0  0  0
  7  9  1  0  0  0  0
  9 10  1  0  0  0  0
  9 30  1  0  0  0  0
 10 21  1  0  0  0  0
 10 11  1  0  0  0  0
 10 18  1  0  0  0  0
 11 12  2  0  0  0  0
 11 13  1  0  0  0  0
 13 14  1  0  0  0  0
 13 31  1  0  0  0  0
 14 15  1  0  0  0  0
 14 32  1  0  0  0  0
 14 33  1  0  0  0  0
 15 17  1  0  0  0  0
 15 16  1  0  0  0  0
 15 34  1  0  0  0  0
 16 17  1  0  0  0  0
 16 35  1  0  0  0  0
 16 36  1  0  0  0  0
 17 37  1  0  0  0  0
 17 38  1  0  0  0  0
 18 19  1  0  0  0  0
 18 39  1  0  0  0  0
 18 40  1  0  0  0  0
 19 20  1  0  0  0  0
 19 41  1  0  0  0  0
 19 42  1  0  0  0  0
 20 21  1  0  0  0  0
 20 43  1  0  0  0  0
 20 44  1  0  0  0  0
 21 45  1  0  0  0  0
 21 46  1  0  0  0  0
 22 23  2  0  0  0  0
 22 47  1  0  0  0  0
M  END
> <s_m_source_file>
AV-unprocessed.smi

> <i_m_source_file_index>
2387

> <i_lp_mmshare_version>
43012

> <i_f3d_flags>
0

> <s_epik_input>
W0NIM11jMVtjSF1bY0hdYyhbY0hdbjEpW05IXUMoPU8pW05IXUMyKFtDSDJdW0NIMl1bQ0gyXVtDSDJdMilDKD1PKVtOSF1bQ0gyXVtDSF0zW0NIMl1bQ0gyXTM=

> <s_epik_cmdline>
J2VwaWtfcHl0aG9uJywgJy1waCcsICc3LjAnLCAnLXRuJywgJzgnLCAnLW1hJywgJzIwMCcsICctbWV0YWxfYmluZGluZycsICctaW1hZScsICc8aW5maWxlLm1hZT4nLCAnLW9tYWUnLCAnPG91dGZpbGUubWFlPic=

> <r_epik_Ionization_Penalty>
0.0173464

> <r_epik_Ionization_Penalty_Charging>
0

> <r_epik_Ionization_Penalty_Neutral>
0.0173464

> <r_epik_State_Penalty>
0.0137159

> <r_epik_Charging_Adjusted_Penalty>
0.0137159

> <i_epik_Tot_Q>
0

> <i_epik_Tot_abs_Q>
0

> <r_epik_Metal_State_Penalty>
0.0133255

> <b_epik_Metal_Only>
0

> <s_lp_Force_Field>
OPLS_2005

> <r_lp_Energy>
29.6161

> <b_lp_Chiralities_Consistent>
1

> <s_lp_Variant>
AV-unprocessed.smi:2387-1

> <Gold.Version>
5.8.1

> <Gold.Id.Protein>
6NUR|6NUR_protein|mol2

> <Gold.PLP.Fitness>
44.2031

> <Gold.PLP.PLP>
-34.8577

> <Gold.PLP.part.hbond>
-4.0656

> <Gold.PLP.part.metal>
0.0000

> <Gold.PLP.part.buried>
-6.2841

> <Gold.PLP.part.nonpolar>
-25.6588

> <Gold.PLP.part.repulsive>
1.1450

> <Gold.PLP.ligand.clash>
0.0000

> <Gold.PLP.ligand.torsion>
1.2426

> <Gold.PLP.Chemscore.Hbond>
2.7360

> <Gold.PLP.Chemscore.CHOScore>
1.0000

> <Gold.PLP.Chemscore.Metal>
0.0000

> <Gold.Chemscore.Hbonds>
donor molecule, donor type, donor heavy atom, donor atom, acceptor molecule, acceptor atom, score
      L1  H     6    29       P1 10175  1.00
      L1  H     9    30       P1 10175  1.00
      P1  H  8011  8017       L1    12  0.74
      L1  C    22    47       P1 10171  1.00

> <Gold.PLP.Chemscore.Internal.Correction>
0.6227

> <Gold.Rescore>
     Score         DG    S(hbond)    S(metal)    S(lipo)     H(rot)  DE(clash)    DE(int)     intcor
     15.38     -17.99       2.58        0.00      68.27       1.59       0.04       2.58       ----

> <Gold.Chemscore.Fitness>
15.3826

> <Gold.Chemscore.DG>
-17.9927

> <Gold.Chemscore.ZeroCoef>
-5.4800

> <Gold.Chemscore.Hbond>
2.5766

> <Gold.Chemscore.Metal>
0.0000

> <Gold.Chemscore.Lipo>
68.2701

> <Gold.Chemscore.Internal_Hbond>
0.0000

> <Gold.Chemscore.DEClash>
0.0351

> <Gold.Chemscore.DEInternal>
2.5750

> <Gold.Chemscore.Rot>
1.5941

> <Gold.Chemscore.Internal.Correction>
   9.000000E+99

> <Gold.Chemscore.Hbonds>
donor molecule, donor type, donor heavy atom, donor atom, acceptor molecule, acceptor atom, score
      L1  H     6    29       P1 10175  0.91
      L1  H     9    30       P1 10175  0.93
      P1  H  8011  8017       L1    12  0.73

> <Gold.Chemscore.Hbond.Weighted>
-8.6060

> <Gold.Chemscore.Metal.Weighted>
-0.0000

> <Gold.Chemscore.Lipo.Weighted>
-7.9876

> <Gold.Chemscore.Internal_Hbond.Weighted>
0.0000

> <Gold.Chemscore.DEClash.Weighted>
0.0351

> <Gold.Chemscore.DEInternal.Weighted>
2.5750

> <Gold.Chemscore.Rot.Weighted>
4.0809

> <Gold.Chemscore.Internal.Correction.Weighted>
   9.000000E+99

> <Gold.Protein.RotatedTorsions>
[ 6907 6896 6895 6894 ] final   60.04 input  -60.11 | X-H torsion
[ 7974 7965 7964 7962 ] final  108.00 input  175.53 | X-H torsion
[ 8008 7997 7996 7995 ] final  -62.45 input   59.86 | X-H torsion
[ 10167 10162 10161 10158 ] final  108.44 input  -65.29 | X-H torsion
[ 10718 10713 10712 10709 ] final   30.19 input   66.30 | X-H torsion
[ 10763 10752 10751 10750 ] final -150.66 input  -60.55 | X-H torsion
[ 11005 11000 10999 10996 ] final -123.28 input  -57.11 | X-H torsion

> <Gold.Protein.ActiveResidues>
 VAL166  LYS551  ARG553  GLY616  TRP617  ASP618  TYR619  PRO620  LYS621  CYS622 
 ASP623  PHE694  ASN695  SER759  ASP760  ASP761  ALA762  ILE779  LEU786  VAL792 
 PHE793  MET794  SER795  GLU796  ALA797  LYS798  CYS799  TRP800  GLU811  SER814 

> <Gold.Protein.RotatedAtoms>
  152.3968  134.6353  160.0085 H   0  0  0  0  0  0  0  0  0  0  0  0  # atno 6907 bound_to 6896
  151.6570  133.3313  159.3173 H   0  0  0  0  0  0  0  0  0  0  0  0  # atno 6908 bound_to 6896
  150.7874  134.6913  159.6543 H   0  0  0  0  0  0  0  0  0  0  0  0  # atno 6909 bound_to 6896
  145.2863  139.2615  143.3889 H   0  0  0  0  0  0  0  0  0  0  0  0  # atno 7974 bound_to 7965
  154.4500  140.0996  156.6589 H   0  0  0  0  0  0  0  0  0  0  0  0  # atno 8008 bound_to 7997
  155.5315  140.3481  155.4409 H   0  0  0  0  0  0  0  0  0  0  0  0  # atno 8009 bound_to 7997
  156.0661  140.1338  156.9873 H   0  0  0  0  0  0  0  0  0  0  0  0  # atno 8010 bound_to 7997
  139.6846  144.7115  151.1455 H   0  0  0  0  0  0  0  0  0  0  0  0  # atno 10167 bound_to 10162
  157.2564  130.7140  149.6431 H   0  0  0  0  0  0  0  0  0  0  0  0  # atno 10718 bound_to 10713
  154.8105  135.3279  154.7317 H   0  0  0  0  0  0  0  0  0  0  0  0  # atno 10763 bound_to 10752
  153.7967  135.6906  153.4867 H   0  0  0  0  0  0  0  0  0  0  0  0  # atno 10764 bound_to 10752
  153.1881  135.4561  155.0060 H   0  0  0  0  0  0  0  0  0  0  0  0  # atno 10765 bound_to 10752
  140.9931  134.0510  157.3630 H   0  0  0  0  0  0  0  0  0  0  0  0  # atno 11005 bound_to 11000
  146.3200  140.3343  142.8643 LP  0  0  0  0  0  0  0  0  0  0  0  0  # atno 17320 bound_to 7965
  144.9210  140.7868  143.5748 LP  0  0  0  0  0  0  0  0  0  0  0  0  # atno 17321 bound_to 7965
  140.7663  143.5648  150.9059 LP  0  0  0  0  0  0  0  0  0  0  0  0  # atno 17342 bound_to 10162
  139.9322  143.6479  152.3073 LP  0  0  0  0  0  0  0  0  0  0  0  0  # atno 17343 bound_to 10162
  155.9665  130.4411  150.5328 LP  0  0  0  0  0  0  0  0  0  0  0  0  # atno 17370 bound_to 10713
  157.3223  131.0684  151.1923 LP  0  0  0  0  0  0  0  0  0  0  0  0  # atno 17371 bound_to 10713
  139.9002  135.0161  156.7229 LP  0  0  0  0  0  0  0  0  0  0  0  0  # atno 17394 bound_to 11000
  140.7009  133.9307  155.8023 LP  0  0  0  0  0  0  0  0  0  0  0  0  # atno 17395 bound_to 11000

$$$$
