AV-unprocessed.smi:2420|AV-procd|sdf|9554|dock1
  -GOLD-   2272013183D 1   1.00000     0.00000
 Structure written by MMmdl.
 33 34  0  0  0  0  0  0  0  0  1 V2000
  152.9676  142.5194  160.8333 C   0  0  0  0  0  0  0  0  0  0  0  0
  153.3499  143.1576  159.4899 C   0  0  0  0  0  0  0  0  0  0  0  0
  152.1709  143.7670  158.7373 C   0  0  0  0  0  0  0  0  0  0  0  0
  150.9986  142.7842  158.6637 C   0  0  0  0  0  0  0  0  0  0  0  0
  150.1972  142.7959  157.4421 N   0  0  0  0  0  0  0  0  0  0  0  0
  149.8203  141.7107  156.7506 C   0  0  0  0  0  0  0  0  0  0  0  0
  150.1019  140.5581  157.0796 O   0  0  0  0  0  0  0  0  0  0  0  0
  149.0779  142.0439  155.6821 N   0  0  0  0  0  0  0  0  0  0  0  0
  148.4833  141.1543  154.7508 C   0  0  0  0  0  0  0  0  0  0  0  0
  148.9945  139.8432  154.6585 C   0  0  0  0  0  0  0  0  0  0  0  0
  148.3962  138.9465  153.7508 C   0  0  0  0  0  0  0  0  0  0  0  0
  147.3430  139.2715  152.9714 N   0  0  0  0  0  0  0  0  0  0  0  0
  146.8393  140.5197  153.0811 C   0  0  0  0  0  0  0  0  0  0  0  0
  147.3611  141.4943  153.9560 C   0  0  0  0  0  0  0  0  0  0  0  0
  146.7678  142.7095  154.0403 F   0  0  0  0  0  0  0  0  0  0  0  0
  151.9166  145.2565  158.8886 C   0  0  0  0  0  0  0  0  0  0  0  0
  152.4439  144.7127  157.5842 C   0  0  0  0  0  0  0  0  0  0  0  0
  153.8317  142.0332  161.2863 H   0  0  0  0  0  0  0  0  0  0  0  0
  152.1931  141.7629  160.7046 H   0  0  0  0  0  0  0  0  0  0  0  0
  152.6020  143.2588  161.5449 H   0  0  0  0  0  0  0  0  0  0  0  0
  154.1146  143.9206  159.6413 H   0  0  0  0  0  0  0  0  0  0  0  0
  153.8092  142.3921  158.8636 H   0  0  0  0  0  0  0  0  0  0  0  0
  151.3893  141.7718  158.7581 H   0  0  0  0  0  0  0  0  0  0  0  0
  150.3553  142.9360  159.5321 H   0  0  0  0  0  0  0  0  0  0  0  0
  149.9105  143.7010  157.0990 H   0  0  0  0  0  0  0  0  0  0  0  0
  148.8135  143.0142  155.5987 H   0  0  0  0  0  0  0  0  0  0  0  0
  149.8349  139.5300  155.2605 H   0  0  0  0  0  0  0  0  0  0  0  0
  148.7727  137.9393  153.6505 H   0  0  0  0  0  0  0  0  0  0  0  0
  145.9840  140.7453  152.4614 H   0  0  0  0  0  0  0  0  0  0  0  0
  150.8910  145.6169  158.8992 H   0  0  0  0  0  0  0  0  0  0  0  0
  152.6070  145.8314  159.5024 H   0  0  0  0  0  0  0  0  0  0  0  0
  153.4826  144.9248  157.3388 H   0  0  0  0  0  0  0  0  0  0  0  0
  151.7636  144.6988  156.7352 H   0  0  0  0  0  0  0  0  0  0  0  0
  1  2  1  0  0  0  0
  1 18  1  0  0  0  0
  1 19  1  0  0  0  0
  1 20  1  0  0  0  0
  2  3  1  0  0  0  0
  2 21  1  0  0  0  0
  2 22  1  0  0  0  0
  3 17  1  0  0  0  0
  3  4  1  0  0  0  0
  3 16  1  0  0  0  0
  4  5  1  0  0  0  0
  4 23  1  0  0  0  0
  4 24  1  0  0  0  0
  5  6  1  0  0  0  0
  5 25  1  0  0  0  0
  6  7  2  0  0  0  0
  6  8  1  0  0  0  0
  8  9  1  0  0  0  0
  8 26  1  0  0  0  0
  9 14  1  0  0  0  0
  9 10  2  0  0  0  0
 10 11  1  0  0  0  0
 10 27  1  0  0  0  0
 11 12  2  0  0  0  0
 11 28  1  0  0  0  0
 12 13  1  0  0  0  0
 13 14  2  0  0  0  0
 13 29  1  0  0  0  0
 14 15  1  0  0  0  0
 16 17  1  0  0  0  0
 16 30  1  0  0  0  0
 16 31  1  0  0  0  0
 17 32  1  0  0  0  0
 17 33  1  0  0  0  0
M  END
> <s_m_source_file>
AV-unprocessed.smi

> <i_m_source_file_index>
2420

> <i_lp_mmshare_version>
43012

> <i_f3d_flags>
0

> <s_epik_input>
W0NIM11bQ0gyXUMxKFtDSDJdW0NIMl0xKVtDSDJdW05IXUMoPU8pW05IXWMyW2NIXVtjSF1uW2NIXWMyRg==

> <s_epik_cmdline>
J2VwaWtfcHl0aG9uJywgJy1waCcsICc3LjAnLCAnLXRuJywgJzgnLCAnLW1hJywgJzIwMCcsICctbWV0YWxfYmluZGluZycsICctaW1hZScsICc8aW5maWxlLm1hZT4nLCAnLW9tYWUnLCAnPG91dGZpbGUubWFlPic=

> <r_epik_Ionization_Penalty>
0.00332283

> <r_epik_Ionization_Penalty_Charging>
0

> <r_epik_Ionization_Penalty_Neutral>
0.00332283

> <r_epik_State_Penalty>
0.00231995

> <r_epik_Charging_Adjusted_Penalty>
0.00231995

> <i_epik_Tot_Q>
0

> <i_epik_Tot_abs_Q>
0

> <r_epik_Metal_State_Penalty>
-0

> <b_epik_Metal_Only>
0

> <s_lp_Force_Field>
OPLS_2005

> <r_lp_Energy>
25.9136

> <b_lp_Chiralities_Consistent>
1

> <s_lp_Variant>
AV-unprocessed.smi:2420-1

> <Gold.Version>
5.8.1

> <Gold.Id.Protein>
6NUR|6NUR_protein|mol2

> <Gold.PLP.Fitness>
51.2016

> <Gold.PLP.PLP>
-40.3864

> <Gold.PLP.part.hbond>
-2.0000

> <Gold.PLP.part.metal>
0.0000

> <Gold.PLP.part.buried>
-4.6203

> <Gold.PLP.part.nonpolar>
-35.6901

> <Gold.PLP.part.repulsive>
1.5068

> <Gold.PLP.ligand.clash>
0.0000

> <Gold.PLP.ligand.torsion>
1.1586

> <Gold.PLP.Chemscore.Hbond>
1.9357

> <Gold.PLP.Chemscore.CHOScore>
1.9995

> <Gold.PLP.Chemscore.Metal>
0.0000

> <Gold.Chemscore.Hbonds>
donor molecule, donor type, donor heavy atom, donor atom, acceptor molecule, acceptor atom, score
      L1  H     5    25       P1  8028  0.94
      L1  H     8    26       P1  8028  1.00
      L1  C    11    28       P1  7948  1.00
      L1  C    13    29       P1 10175  0.97

> <Gold.PLP.Chemscore.Internal.Correction>
1.3266

> <Gold.Rescore>
     Score         DG    S(hbond)    S(metal)    S(lipo)     H(rot)  DE(clash)    DE(int)     intcor
     17.49     -20.92       1.90        0.00     108.40       1.41       0.93       2.49       ----

> <Gold.Chemscore.Fitness>
17.4929

> <Gold.Chemscore.DG>
-20.9166

> <Gold.Chemscore.ZeroCoef>
-5.4800

> <Gold.Chemscore.Hbond>
1.9049

> <Gold.Chemscore.Metal>
0.0000

> <Gold.Chemscore.Lipo>
108.4004

> <Gold.Chemscore.Internal_Hbond>
0.0000

> <Gold.Chemscore.DEClash>
0.9328

> <Gold.Chemscore.DEInternal>
2.4909

> <Gold.Chemscore.Rot>
1.4096

> <Gold.Chemscore.Internal.Correction>
   9.000000E+99

> <Gold.Chemscore.Hbonds>
donor molecule, donor type, donor heavy atom, donor atom, acceptor molecule, acceptor atom, score
      L1  H     5    25       P1  8028  0.81
      L1  H     8    26       P1  8028  1.00

> <Gold.Chemscore.Hbond.Weighted>
-6.3622

> <Gold.Chemscore.Metal.Weighted>
-0.0000

> <Gold.Chemscore.Lipo.Weighted>
-12.6829

> <Gold.Chemscore.Internal_Hbond.Weighted>
0.0000

> <Gold.Chemscore.DEClash.Weighted>
0.9328

> <Gold.Chemscore.DEInternal.Weighted>
2.4909

> <Gold.Chemscore.Rot.Weighted>
3.6085

> <Gold.Chemscore.Internal.Correction.Weighted>
   9.000000E+99

> <Gold.Protein.RotatedTorsions>
[ 6907 6896 6895 6894 ] final  134.44 input  -60.11 | X-H torsion
[ 7974 7965 7964 7962 ] final  -54.05 input  175.53 | X-H torsion
[ 8008 7997 7996 7995 ] final  135.77 input   59.86 | X-H torsion
[ 10167 10162 10161 10158 ] final  131.65 input  -65.29 | X-H torsion
[ 10718 10713 10712 10709 ] final  -59.96 input   66.30 | X-H torsion
[ 10763 10752 10751 10750 ] final  -44.73 input  -60.55 | X-H torsion
[ 11005 11000 10999 10996 ] final  -45.66 input  -57.11 | X-H torsion

> <Gold.Protein.ActiveResidues>
 VAL166  LYS551  ARG553  GLY616  TRP617  ASP618  TYR619  PRO620  LYS621  CYS622 
 ASP623  PHE694  ASN695  SER759  ASP760  ASP761  ALA762  ILE779  LEU786  VAL792 
 PHE793  MET794  SER795  GLU796  ALA797  LYS798  CYS799  TRP800  GLU811  SER814 

> <Gold.Protein.RotatedAtoms>
  152.3113  133.5755  159.5682 H   0  0  0  0  0  0  0  0  0  0  0  0  # atno 6907 bound_to 6896
  150.7324  134.0148  159.3690 H   0  0  0  0  0  0  0  0  0  0  0  0  # atno 6908 bound_to 6896
  151.8041  135.0701  160.0455 H   0  0  0  0  0  0  0  0  0  0  0  0  # atno 6909 bound_to 6896
  145.8899  140.8079  142.9797 H   0  0  0  0  0  0  0  0  0  0  0  0  # atno 7974 bound_to 7965
  156.3003  140.2462  156.3636 H   0  0  0  0  0  0  0  0  0  0  0  0  # atno 8008 bound_to 7997
  154.8854  140.0411  157.1826 H   0  0  0  0  0  0  0  0  0  0  0  0  # atno 8009 bound_to 7997
  154.8653  140.2927  155.5518 H   0  0  0  0  0  0  0  0  0  0  0  0  # atno 8010 bound_to 7997
  139.5374  144.6697  151.4738 H   0  0  0  0  0  0  0  0  0  0  0  0  # atno 10167 bound_to 10162
  156.1024  130.4184  150.0788 H   0  0  0  0  0  0  0  0  0  0  0  0  # atno 10718 bound_to 10713
  154.0168  135.6674  153.4769 H   0  0  0  0  0  0  0  0  0  0  0  0  # atno 10763 bound_to 10752
  153.0597  135.5035  154.8060 H   0  0  0  0  0  0  0  0  0  0  0  0  # atno 10764 bound_to 10752
  154.6962  135.3070  154.9373 H   0  0  0  0  0  0  0  0  0  0  0  0  # atno 10765 bound_to 10752
  141.0529  133.6736  156.3044 H   0  0  0  0  0  0  0  0  0  0  0  0  # atno 11005 bound_to 11000
  144.6730  140.1513  143.7429 LP  0  0  0  0  0  0  0  0  0  0  0  0  # atno 17320 bound_to 7965
  145.8921  139.2382  143.1543 LP  0  0  0  0  0  0  0  0  0  0  0  0  # atno 17321 bound_to 7965
  140.6588  143.8542  150.6865 LP  0  0  0  0  0  0  0  0  0  0  0  0  # atno 17342 bound_to 10162
  140.1930  143.4021  152.1849 LP  0  0  0  0  0  0  0  0  0  0  0  0  # atno 17343 bound_to 10162
  156.8772  130.9544  151.3603 LP  0  0  0  0  0  0  0  0  0  0  0  0  # atno 17370 bound_to 10713
  157.6196  130.8645  149.9087 LP  0  0  0  0  0  0  0  0  0  0  0  0  # atno 17371 bound_to 10713
  140.6020  134.5545  157.5519 LP  0  0  0  0  0  0  0  0  0  0  0  0  # atno 17394 bound_to 11000
  139.9366  134.7865  156.0788 LP  0  0  0  0  0  0  0  0  0  0  0  0  # atno 17395 bound_to 11000

$$$$
