AV-unprocessed.smi:1876|AV-procd|sdf|7620|dock2
  -GOLD-   22720 9343D 1   1.00000     0.00000
 Structure written by MMmdl.
 31 32  0  0  0  0  0  0  0  0  1 V2000
  148.6507  124.1405  151.0067 C   0  0  0  0  0  0  0  0  0  0  0  0
  148.2314  125.5163  151.3971 C   0  0  0  0  0  0  0  0  0  0  0  0
  148.2674  126.7199  150.7506 C   0  0  0  0  0  0  0  0  0  0  0  0
  147.7126  127.6132  151.7055 C   0  0  0  0  0  0  0  0  0  0  0  0
  147.5705  128.9945  151.4149 N   0  0  0  0  0  0  0  0  0  0  0  0
  146.6563  129.8457  151.9113 C   0  0  0  0  0  0  0  0  0  0  0  0
  145.7824  129.5499  152.7269 O   0  0  0  0  0  0  0  0  0  0  0  0
  146.8123  131.0793  151.4062 N   0  0  0  0  0  0  0  0  0  0  0  0
  146.0066  132.2494  151.7591 C   0  0  2  0  0  0  0  0  0  0  0  0
  145.0778  132.5615  150.5695 C   0  0  0  0  0  0  0  0  0  0  0  0
  144.3052  133.8592  150.8207 C   0  0  0  0  0  0  0  0  0  0  0  0
  145.2779  135.0373  150.9761 C   0  0  0  0  0  0  0  0  0  0  0  0
  146.4738  134.7024  151.7496 N   0  0  0  0  0  0  0  0  0  0  0  0
  146.9114  133.4686  152.0617 C   0  0  0  0  0  0  0  0  0  0  0  0
  147.9942  133.3121  152.6242 O   0  0  0  0  0  0  0  0  0  0  0  0
  147.3668  127.0087  152.8321 N   0  0  0  0  0  0  0  0  0  0  0  0
  147.6975  125.6621  152.6401 O   0  0  0  0  0  0  0  0  0  0  0  0
  149.0811  124.1331  150.0051 H   0  0  0  0  0  0  0  0  0  0  0  0
  147.7991  123.4601  151.0135 H   0  0  0  0  0  0  0  0  0  0  0  0
  149.3990  123.7541  151.6989 H   0  0  0  0  0  0  0  0  0  0  0  0
  148.6336  126.9248  149.7555 H   0  0  0  0  0  0  0  0  0  0  0  0
  148.2366  129.3749  150.7593 H   0  0  0  0  0  0  0  0  0  0  0  0
  147.5599  131.2295  150.7450 H   0  0  0  0  0  0  0  0  0  0  0  0
  145.4011  132.0461  152.6440 H   0  0  0  0  0  0  0  0  0  0  0  0
  145.6509  132.6481  149.6444 H   0  0  0  0  0  0  0  0  0  0  0  0
  144.3752  131.7402  150.4229 H   0  0  0  0  0  0  0  0  0  0  0  0
  143.6049  134.0542  150.0081 H   0  0  0  0  0  0  0  0  0  0  0  0
  143.7077  133.7537  151.7271 H   0  0  0  0  0  0  0  0  0  0  0  0
  145.6090  135.3667  149.9907 H   0  0  0  0  0  0  0  0  0  0  0  0
  144.7744  135.8878  151.4365 H   0  0  0  0  0  0  0  0  0  0  0  0
  147.0688  135.4768  152.0066 H   0  0  0  0  0  0  0  0  0  0  0  0
  1  2  1  0  0  0  0
  1 18  1  0  0  0  0
  1 19  1  0  0  0  0
  1 20  1  0  0  0  0
  2 17  1  0  0  0  0
  2  3  2  0  0  0  0
  3  4  1  0  0  0  0
  3 21  1  0  0  0  0
  4  5  1  0  0  0  0
  4 16  2  0  0  0  0
  5  6  1  0  0  0  0
  5 22  1  0  0  0  0
  6  7  2  0  0  0  0
  6  8  1  0  0  0  0
  8  9  1  0  0  0  0
  8 23  1  0  0  0  0
  9 14  1  0  0  0  0
  9 10  1  0  0  0  0
  9 24  1  0  0  0  0
 10 11  1  0  0  0  0
 10 25  1  0  0  0  0
 10 26  1  0  0  0  0
 11 12  1  0  0  0  0
 11 27  1  0  0  0  0
 11 28  1  0  0  0  0
 12 13  1  0  0  0  0
 12 29  1  0  0  0  0
 12 30  1  0  0  0  0
 13 14  1  0  0  0  0
 13 31  1  0  0  0  0
 14 15  2  0  0  0  0
 16 17  1  0  0  0  0
M  END
> <s_m_source_file>
AV-unprocessed.smi

> <i_m_source_file_index>
1876

> <i_lp_mmshare_version>
43012

> <i_f3d_flags>
0

> <s_epik_input>
W0NIM11jMVtjSF1jKG5vMSlbTkhdQyg9TylbTkhdW0NAQEhdMltDSDJdW0NIMl1bQ0gyXVtOSF1DMj1P

> <s_epik_cmdline>
J2VwaWtfcHl0aG9uJywgJy1waCcsICc3LjAnLCAnLXRuJywgJzgnLCAnLW1hJywgJzIwMCcsICctbWV0YWxfYmluZGluZycsICctaW1hZScsICc8aW5maWxlLm1hZT4nLCAnLW9tYWUnLCAnPG91dGZpbGUubWFlPic=

> <r_lp_tautomer_probability>
1

> <r_epik_Ionization_Penalty>
2.33177e-05

> <r_epik_Ionization_Penalty_Charging>
0

> <r_epik_Ionization_Penalty_Neutral>
2.33177e-05

> <r_epik_State_Penalty>
-0

> <r_epik_Charging_Adjusted_Penalty>
0

> <i_epik_Tot_Q>
0

> <i_epik_Tot_abs_Q>
0

> <r_epik_Metal_State_Penalty>
-0

> <b_epik_Metal_Only>
0

> <s_lp_Force_Field>
OPLS_2005

> <r_lp_Energy>
8.43972

> <b_lp_Chiralities_Consistent>
1

> <s_lp_Variant>
AV-unprocessed.smi:1876-1

> <Gold.Version>
5.8.1

> <Gold.Id.Protein>
6NUR|6NUR_protein|mol2

> <Gold.PLP.Fitness>
39.3182

> <Gold.PLP.PLP>
-31.7703

> <Gold.PLP.part.hbond>
-3.7562

> <Gold.PLP.part.metal>
0.0000

> <Gold.PLP.part.buried>
-5.1947

> <Gold.PLP.part.nonpolar>
-23.4374

> <Gold.PLP.part.repulsive>
0.8662

> <Gold.PLP.ligand.clash>
0.0000

> <Gold.PLP.ligand.torsion>
0.3062

> <Gold.PLP.Chemscore.Hbond>
2.7200

> <Gold.PLP.Chemscore.CHOScore>
0.0000

> <Gold.PLP.Chemscore.Metal>
0.0000

> <Gold.Chemscore.Hbonds>
donor molecule, donor type, donor heavy atom, donor atom, acceptor molecule, acceptor atom, score
      L1  H     5    22       P1 10747  0.88
      L1  H     8    23       P1 10747  0.96
      L1  H    13    31       P1  7948  0.86

> <Gold.PLP.Chemscore.Internal.Correction>
0.0003

> <Gold.Rescore>
     Score         DG    S(hbond)    S(metal)    S(lipo)     H(rot)  DE(clash)    DE(int)     intcor
     13.88     -15.28       2.15        0.00      44.21       1.00       0.34       1.06       ----

> <Gold.Chemscore.Fitness>
13.8810

> <Gold.Chemscore.DG>
-15.2802

> <Gold.Chemscore.ZeroCoef>
-5.4800

> <Gold.Chemscore.Hbond>
2.1520

> <Gold.Chemscore.Metal>
0.0000

> <Gold.Chemscore.Lipo>
44.2099

> <Gold.Chemscore.Internal_Hbond>
0.0000

> <Gold.Chemscore.DEClash>
0.3420

> <Gold.Chemscore.DEInternal>
1.0571

> <Gold.Chemscore.Rot>
1.0000

> <Gold.Chemscore.Internal.Correction>
   9.000000E+99

> <Gold.Chemscore.Hbonds>
donor molecule, donor type, donor heavy atom, donor atom, acceptor molecule, acceptor atom, score
      L1  H     5    22       P1 10747  0.22
      L1  H     8    23       P1 10747  0.86
      L1  H    13    31       P1  7948  0.82

> <Gold.Chemscore.Hbond.Weighted>
-7.1876

> <Gold.Chemscore.Metal.Weighted>
-0.0000

> <Gold.Chemscore.Lipo.Weighted>
-5.1726

> <Gold.Chemscore.Internal_Hbond.Weighted>
0.0000

> <Gold.Chemscore.DEClash.Weighted>
0.3420

> <Gold.Chemscore.DEInternal.Weighted>
1.0571

> <Gold.Chemscore.Rot.Weighted>
2.5600

> <Gold.Chemscore.Internal.Correction.Weighted>
   9.000000E+99

> <Gold.Protein.RotatedTorsions>
[ 6907 6896 6895 6894 ] final  155.77 input  -60.11 | X-H torsion
[ 7974 7965 7964 7962 ] final  129.64 input  175.53 | X-H torsion
[ 8008 7997 7996 7995 ] final  152.39 input   59.86 | X-H torsion
[ 10167 10162 10161 10158 ] final  -35.13 input  -65.29 | X-H torsion
[ 10718 10713 10712 10709 ] final  -24.60 input   66.30 | X-H torsion
[ 10763 10752 10751 10750 ] final   75.64 input  -60.55 | X-H torsion
[ 11005 11000 10999 10996 ] final  136.75 input  -57.11 | X-H torsion

> <Gold.Protein.ActiveResidues>
 VAL166  LYS551  ARG553  GLY616  TRP617  ASP618  TYR619  PRO620  LYS621  CYS622 
 ASP623  PHE694  ASN695  SER759  ASP760  ASP761  ALA762  ILE779  LEU786  VAL792 
 PHE793  MET794  SER795  GLU796  ALA797  LYS798  CYS799  TRP800  GLU811  SER814 

> <Gold.Protein.RotatedAtoms>
  152.0394  133.3971  159.4330 H   0  0  0  0  0  0  0  0  0  0  0  0  # atno 6907 bound_to 6896
  150.6876  134.3431  159.4886 H   0  0  0  0  0  0  0  0  0  0  0  0  # atno 6908 bound_to 6896
  152.1228  134.9192  160.0613 H   0  0  0  0  0  0  0  0  0  0  0  0  # atno 6909 bound_to 6896
  145.0265  139.4084  143.5171 H   0  0  0  0  0  0  0  0  0  0  0  0  # atno 7974 bound_to 7965
  156.2631  140.2022  156.6326 H   0  0  0  0  0  0  0  0  0  0  0  0  # atno 8008 bound_to 7997
  154.6671  140.0554  157.0150 H   0  0  0  0  0  0  0  0  0  0  0  0  # atno 8009 bound_to 7997
  155.1191  140.3223  155.4504 H   0  0  0  0  0  0  0  0  0  0  0  0  # atno 8010 bound_to 7997
  140.7171  143.3498  151.2179 H   0  0  0  0  0  0  0  0  0  0  0  0  # atno 10167 bound_to 10162
  156.4754  130.4533  149.6843 H   0  0  0  0  0  0  0  0  0  0  0  0  # atno 10718 bound_to 10713
  153.0669  135.4981  154.8219 H   0  0  0  0  0  0  0  0  0  0  0  0  # atno 10763 bound_to 10752
  154.6966  135.2994  154.9405 H   0  0  0  0  0  0  0  0  0  0  0  0  # atno 10764 bound_to 10752
  154.0142  135.6750  153.4820 H   0  0  0  0  0  0  0  0  0  0  0  0  # atno 10765 bound_to 10752
  140.0067  134.9456  157.0190 H   0  0  0  0  0  0  0  0  0  0  0  0  # atno 11005 bound_to 11000
  146.3493  139.9792  142.8697 LP  0  0  0  0  0  0  0  0  0  0  0  0  # atno 17320 bound_to 7965
  145.1826  140.9774  143.4257 LP  0  0  0  0  0  0  0  0  0  0  0  0  # atno 17321 bound_to 7965
  139.7027  143.9507  152.2912 LP  0  0  0  0  0  0  0  0  0  0  0  0  # atno 17342 bound_to 10162
  139.9205  144.6802  150.8466 LP  0  0  0  0  0  0  0  0  0  0  0  0  # atno 17343 bound_to 10162
  156.3575  130.7464  151.2432 LP  0  0  0  0  0  0  0  0  0  0  0  0  # atno 17370 bound_to 10713
  157.7488  131.0359  150.4387 LP  0  0  0  0  0  0  0  0  0  0  0  0  # atno 17371 bound_to 10713
  140.4628  134.1466  155.7193 LP  0  0  0  0  0  0  0  0  0  0  0  0  # atno 17394 bound_to 11000
  141.1682  133.8661  157.1652 LP  0  0  0  0  0  0  0  0  0  0  0  0  # atno 17395 bound_to 11000

$$$$
