AV-unprocessed.smi:246|AV-procd|sdf|1880|dock6
  -GOLD-   2262020523D 1   1.00000     0.00000
 Structure written by MMmdl.
 57 60  0  0  0  0  0  0  0  0  1 V2000
  153.0427  143.0756  161.2262 C   0  0  0  0  0  0  0  0  0  0  0  0
  153.4396  142.0127  160.1926 C   0  0  0  0  0  0  0  0  0  0  0  0
  152.3746  141.7197  159.2991 O   0  0  0  0  0  0  0  0  0  0  0  0
  152.7586  140.9741  158.1528 C   0  0  0  0  0  0  0  0  0  0  0  0
  151.8358  141.3500  156.9902 C   0  0  0  0  0  0  0  0  0  0  0  0
  150.5426  140.8161  157.2325 O   0  0  0  0  0  0  0  0  0  0  0  0
  149.5576  141.2688  156.3148 C   0  0  1  0  0  0  0  0  0  0  0  0
  149.8164  140.8019  154.8838 C   0  0  0  0  0  0  0  0  0  0  0  0
  148.4196  140.8326  154.2687 C   0  0  0  0  0  0  0  0  0  0  0  0
  147.4905  140.5217  155.3523 N   0  0  0  0  0  0  0  0  0  0  0  0
  146.7815  139.3750  155.2425 C   0  0  0  0  0  0  0  0  0  0  0  0
  146.4147  138.6857  156.3558 N   0  0  0  0  0  0  0  0  0  0  0  0
  145.6955  137.5650  156.2409 C   0  0  0  0  0  0  0  0  0  0  0  0
  145.2475  136.9703  155.1328 N   0  0  0  0  0  0  0  0  0  0  0  0
  145.6121  137.6636  154.0159 C   0  0  0  0  0  0  0  0  0  0  0  0
  146.3672  138.8690  153.9827 C   0  0  0  0  0  0  0  0  0  0  0  0
  146.5380  139.2897  152.6702 N   0  0  0  0  0  0  0  0  0  0  0  0
  145.9249  138.3784  151.9644 C   0  0  0  0  0  0  0  0  0  0  0  0
  145.3561  137.3558  152.6910 N   0  0  0  0  0  0  0  0  0  0  0  0
  144.6173  136.2219  152.1636 C   0  0  0  0  0  0  0  0  0  0  0  0
  145.3182  135.5138  150.9811 C   0  0  2  0  0  0  0  0  0  0  0  0
  144.6750  135.9949  149.8180 O   0  0  0  0  0  0  0  0  0  0  0  0
  145.1983  133.9717  150.9636 C   0  0  2  0  0  0  0  0  0  0  0  0
  145.9528  133.2484  149.8419 C   0  0  0  0  0  0  0  0  0  0  0  0
  145.1380  131.9899  149.5826 C   0  0  0  0  0  0  0  0  0  0  0  0
  143.8501  132.2168  150.3716 C   0  0  0  0  0  0  0  0  0  0  0  0
  143.8591  133.6055  150.6611 O   0  0  0  0  0  0  0  0  0  0  0  0
  148.1953  140.6418  156.6264 C   0  0  0  0  0  0  0  0  0  0  0  0
  149.4638  142.3561  156.3442 H   0  0  0  0  0  0  0  0  0  0  0  0
  153.8381  143.2147  161.9585 H   0  0  0  0  0  0  0  0  0  0  0  0
  152.1430  142.7788  161.7655 H   0  0  0  0  0  0  0  0  0  0  0  0
  152.8543  144.0437  160.7630 H   0  0  0  0  0  0  0  0  0  0  0  0
  154.3367  142.3092  159.6473 H   0  0  0  0  0  0  0  0  0  0  0  0
  153.6884  141.0898  160.7169 H   0  0  0  0  0  0  0  0  0  0  0  0
  153.7994  141.1530  157.8824 H   0  0  0  0  0  0  0  0  0  0  0  0
  152.6528  139.9096  158.3667 H   0  0  0  0  0  0  0  0  0  0  0  0
  151.7637  142.4360  156.9162 H   0  0  0  0  0  0  0  0  0  0  0  0
  152.2528  140.9852  156.0510 H   0  0  0  0  0  0  0  0  0  0  0  0
  150.5283  141.4281  154.3456 H   0  0  0  0  0  0  0  0  0  0  0  0
  150.1950  139.7788  154.8872 H   0  0  0  0  0  0  0  0  0  0  0  0
  148.1911  141.8370  153.9110 H   0  0  0  0  0  0  0  0  0  0  0  0
  148.3385  140.1611  153.4129 H   0  0  0  0  0  0  0  0  0  0  0  0
  145.4433  137.0749  157.1697 H   0  0  0  0  0  0  0  0  0  0  0  0
  145.8769  138.4236  150.8860 H   0  0  0  0  0  0  0  0  0  0  0  0
  144.4237  135.5128  152.9693 H   0  0  0  0  0  0  0  0  0  0  0  0
  143.6439  136.5990  151.8460 H   0  0  0  0  0  0  0  0  0  0  0  0
  146.3666  135.8104  150.9365 H   0  0  0  0  0  0  0  0  0  0  0  0
  145.2224  135.8049  149.0714 H   0  0  0  0  0  0  0  0  0  0  0  0
  145.4825  133.5491  151.9297 H   0  0  0  0  0  0  0  0  0  0  0  0
  145.9668  133.8575  148.9374 H   0  0  0  0  0  0  0  0  0  0  0  0
  146.9829  133.0194  150.1126 H   0  0  0  0  0  0  0  0  0  0  0  0
  144.9356  131.8793  148.5166 H   0  0  0  0  0  0  0  0  0  0  0  0
  145.6532  131.0910  149.9227 H   0  0  0  0  0  0  0  0  0  0  0  0
  142.9578  131.9311  149.8144 H   0  0  0  0  0  0  0  0  0  0  0  0
  143.8661  131.6532  151.3057 H   0  0  0  0  0  0  0  0  0  0  0  0
  148.3333  139.6587  157.0813 H   0  0  0  0  0  0  0  0  0  0  0  0
  147.6278  141.2518  157.3295 H   0  0  0  0  0  0  0  0  0  0  0  0
  1  2  1  0  0  0  0
  1 30  1  0  0  0  0
  1 31  1  0  0  0  0
  1 32  1  0  0  0  0
  2  3  1  0  0  0  0
  2 33  1  0  0  0  0
  2 34  1  0  0  0  0
  3  4  1  0  0  0  0
  4  5  1  0  0  0  0
  4 35  1  0  0  0  0
  4 36  1  0  0  0  0
  5  6  1  0  0  0  0
  5 37  1  0  0  0  0
  5 38  1  0  0  0  0
  6  7  1  0  0  0  0
  7 29  1  0  0  0  0
  7 28  1  0  0  0  0
  7  8  1  0  0  0  0
  8  9  1  0  0  0  0
  8 39  1  0  0  0  0
  8 40  1  0  0  0  0
  9 10  1  0  0  0  0
  9 41  1  0  0  0  0
  9 42  1  0  0  0  0
 10 11  1  0  0  0  0
 10 28  1  0  0  0  0
 11 16  1  0  0  0  0
 11 12  2  0  0  0  0
 12 13  1  0  0  0  0
 13 14  2  0  0  0  0
 13 43  1  0  0  0  0
 14 15  1  0  0  0  0
 15 19  1  0  0  0  0
 15 16  2  0  0  0  0
 16 17  1  0  0  0  0
 17 18  2  0  0  0  0
 18 19  1  0  0  0  0
 18 44  1  0  0  0  0
 19 20  1  0  0  0  0
 20 21  1  0  0  0  0
 20 45  1  0  0  0  0
 20 46  1  0  0  0  0
 21 22  1  0  0  0  0
 21 23  1  0  0  0  0
 21 47  1  0  0  0  0
 22 48  1  0  0  0  0
 23 27  1  0  0  0  0
 23 24  1  0  0  0  0
 23 49  1  0  0  0  0
 24 25  1  0  0  0  0
 24 50  1  0  0  0  0
 24 51  1  0  0  0  0
 25 26  1  0  0  0  0
 25 52  1  0  0  0  0
 25 53  1  0  0  0  0
 26 27  1  0  0  0  0
 26 54  1  0  0  0  0
 26 55  1  0  0  0  0
 28 56  1  0  0  0  0
 28 57  1  0  0  0  0
M  END
> <s_m_source_file>
AV-unprocessed.smi

> <i_m_source_file_index>
246

> <i_lp_mmshare_version>
43012

> <i_f3d_flags>
0

> <s_epik_input>
W0NIM11bQ0gyXU9bQ0gyXVtDSDJdT1tDQEhdMVtDSDJdW0NIMl1OKFtDSDJdMSljKG5bY0hdbjIpYyhjMjMpbltjSF1uM1tDSDJdW0NASF0oW09IXSlbQ0BASF00W0NIMl1bQ0gyXVtDSDJdTzQ=

> <s_epik_cmdline>
J2VwaWtfcHl0aG9uJywgJy1waCcsICc3LjAnLCAnLXRuJywgJzgnLCAnLW1hJywgJzIwMCcsICctbWV0YWxfYmluZGluZycsICctaW1hZScsICc8aW5maWxlLm1hZT4nLCAnLW9tYWUnLCAnPG91dGZpbGUubWFlPic=

> <r_lp_tautomer_probability>
1

> <r_epik_Ionization_Penalty>
0.0024631

> <r_epik_Ionization_Penalty_Charging>
0

> <r_epik_Ionization_Penalty_Neutral>
0.0024631

> <r_epik_State_Penalty>
0.00162428

> <r_epik_Charging_Adjusted_Penalty>
0.00162428

> <i_epik_Tot_Q>
0

> <i_epik_Tot_abs_Q>
0

> <r_epik_Metal_State_Penalty>
-0

> <b_epik_Metal_Only>
0

> <s_lp_Force_Field>
OPLS_2005

> <r_lp_Energy>
54.9549

> <b_lp_Chiralities_Consistent>
1

> <s_lp_Variant>
AV-unprocessed.smi:246-1

> <Gold.Version>
5.8.1

> <Gold.Id.Protein>
6NUR|6NUR_protein|mol2

> <Gold.PLP.Fitness>
47.2400

> <Gold.PLP.PLP>
-46.0457

> <Gold.PLP.part.hbond>
-2.0135

> <Gold.PLP.part.metal>
0.0000

> <Gold.PLP.part.buried>
-6.9200

> <Gold.PLP.part.nonpolar>
-38.7588

> <Gold.PLP.part.repulsive>
0.6379

> <Gold.PLP.ligand.clash>
0.0000

> <Gold.PLP.ligand.torsion>
1.7233

> <Gold.PLP.Chemscore.Hbond>
1.0000

> <Gold.PLP.Chemscore.CHOScore>
0.3404

> <Gold.PLP.Chemscore.Metal>
0.0000

> <Gold.Chemscore.Hbonds>
donor molecule, donor type, donor heavy atom, donor atom, acceptor molecule, acceptor atom, score
      L1  H    22    48       P1  7921  1.00
      L1  C    18    44       P1 10171  0.83

> <Gold.PLP.Chemscore.Internal.Correction>
0.6197

> <Gold.Rescore>
     Score         DG    S(hbond)    S(metal)    S(lipo)     H(rot)  DE(clash)    DE(int)     intcor
     10.04     -12.97       0.99        0.00     109.43       3.37       0.05       2.87       ----

> <Gold.Chemscore.Fitness>
10.0439

> <Gold.Chemscore.DG>
-12.9653

> <Gold.Chemscore.ZeroCoef>
-5.4800

> <Gold.Chemscore.Hbond>
0.9937

> <Gold.Chemscore.Metal>
0.0000

> <Gold.Chemscore.Lipo>
109.4306

> <Gold.Chemscore.Internal_Hbond>
0.0000

> <Gold.Chemscore.DEClash>
0.0516

> <Gold.Chemscore.DEInternal>
2.8698

> <Gold.Chemscore.Rot>
3.3739

> <Gold.Chemscore.Internal.Correction>
   9.000000E+99

> <Gold.Chemscore.Hbonds>
donor molecule, donor type, donor heavy atom, donor atom, acceptor molecule, acceptor atom, score
      L1  H    22    48       P1  7921  0.99

> <Gold.Chemscore.Hbond.Weighted>
-3.3190

> <Gold.Chemscore.Metal.Weighted>
-0.0000

> <Gold.Chemscore.Lipo.Weighted>
-12.8034

> <Gold.Chemscore.Internal_Hbond.Weighted>
0.0000

> <Gold.Chemscore.DEClash.Weighted>
0.0516

> <Gold.Chemscore.DEInternal.Weighted>
2.8698

> <Gold.Chemscore.Rot.Weighted>
8.6371

> <Gold.Chemscore.Internal.Correction.Weighted>
   9.000000E+99

> <Gold.Protein.RotatedTorsions>
[ 6907 6896 6895 6894 ] final  -93.87 input  -60.11 | X-H torsion
[ 7974 7965 7964 7962 ] final -130.84 input  175.53 | X-H torsion
[ 8008 7997 7996 7995 ] final   41.31 input   59.86 | X-H torsion
[ 10167 10162 10161 10158 ] final   73.00 input  -65.29 | X-H torsion
[ 10718 10713 10712 10709 ] final  -97.02 input   66.30 | X-H torsion
[ 10763 10752 10751 10750 ] final  153.60 input  -60.55 | X-H torsion
[ 11005 11000 10999 10996 ] final  108.84 input  -57.11 | X-H torsion

> <Gold.Protein.ActiveResidues>
 VAL166  LYS551  ARG553  GLY616  TRP617  ASP618  TYR619  PRO620  LYS621  CYS622 
 ASP623  PHE694  ASN695  SER759  ASP760  ASP761  ALA762  ILE779  LEU786  VAL792 
 PHE793  MET794  SER795  GLU796  ALA797  LYS798  CYS799  TRP800  GLU811  SER814 

> <Gold.Protein.RotatedAtoms>
  150.6930  134.1901  159.4281 H   0  0  0  0  0  0  0  0  0  0  0  0  # atno 6907 bound_to 6896
  151.9872  134.9996  160.0569 H   0  0  0  0  0  0  0  0  0  0  0  0  # atno 6908 bound_to 6896
  152.1701  133.4603  159.4941 H   0  0  0  0  0  0  0  0  0  0  0  0  # atno 6909 bound_to 6896
  144.9436  140.7266  143.4831 H   0  0  0  0  0  0  0  0  0  0  0  0  # atno 7974 bound_to 7965
  155.2675  140.3363  155.4268 H   0  0  0  0  0  0  0  0  0  0  0  0  # atno 8008 bound_to 7997
  156.2148  140.1784  156.7657 H   0  0  0  0  0  0  0  0  0  0  0  0  # atno 8009 bound_to 7997
  154.5737  140.0665  156.8987 H   0  0  0  0  0  0  0  0  0  0  0  0  # atno 8010 bound_to 7997
  140.0292  144.5479  150.7520 H   0  0  0  0  0  0  0  0  0  0  0  0  # atno 10167 bound_to 10162
  156.0074  130.5176  150.6312 H   0  0  0  0  0  0  0  0  0  0  0  0  # atno 10718 bound_to 10713
  154.1389  135.2822  155.3166 H   0  0  0  0  0  0  0  0  0  0  0  0  # atno 10763 bound_to 10752
  154.6301  135.5438  153.7675 H   0  0  0  0  0  0  0  0  0  0  0  0  # atno 10764 bound_to 10752
  153.0257  135.6460  154.1536 H   0  0  0  0  0  0  0  0  0  0  0  0  # atno 10765 bound_to 10752
  139.8851  134.9442  156.6034 H   0  0  0  0  0  0  0  0  0  0  0  0  # atno 11005 bound_to 11000
  145.2953  139.1869  143.4718 LP  0  0  0  0  0  0  0  0  0  0  0  0  # atno 17320 bound_to 7965
  146.3295  140.2936  142.8616 LP  0  0  0  0  0  0  0  0  0  0  0  0  # atno 17321 bound_to 7965
  140.7309  143.2688  151.3954 LP  0  0  0  0  0  0  0  0  0  0  0  0  # atno 17342 bound_to 10162
  139.6087  144.1143  152.2276 LP  0  0  0  0  0  0  0  0  0  0  0  0  # atno 17343 bound_to 10162
  157.4110  131.0823  151.1221 LP  0  0  0  0  0  0  0  0  0  0  0  0  # atno 17370 bound_to 10713
  157.1852  130.6327  149.5685 LP  0  0  0  0  0  0  0  0  0  0  0  0  # atno 17371 bound_to 10713
  140.7866  133.8616  155.8612 LP  0  0  0  0  0  0  0  0  0  0  0  0  # atno 17394 bound_to 11000
  140.9713  134.1527  157.4573 LP  0  0  0  0  0  0  0  0  0  0  0  0  # atno 17395 bound_to 11000

$$$$
