#       Name:                AV-unprocessed.smi:203
#       Creating user name   scv26
#       Creation time:       Thu Mar 26 19:48:52 2020


#       File generated by GOLD software.
#

@<TRIPOS>MOLECULE
AV-unprocessed.smi:203
    67    71     1
SMALL
NO_CHARGES


@<TRIPOS>ATOM
      1 ****        -3.7779   2.3687  -3.1468 O.2            1 S1                 0.0000
      2 ****        -3.1100   1.4861  -2.6133 C.2            1 S1                 0.0000
      3 ****        -2.3058   1.6963  -1.3422 C.3            1 S1                 0.0000
      4 ****        -1.8422   0.2746  -0.9653 C.3            1 S1                 0.0000
      5 ****        -2.4850  -0.2940   0.3409 C.3            1 S1                 0.0000
      6 ****        -4.0302  -0.4030   0.2561 C.3            1 S1                 0.0000
      7 ****        -4.6279  -0.9811   1.5461 C.3            1 S1                 0.0000
      8 ****        -4.1874  -0.1405   2.7499 C.3            1 S1                 0.0000
      9 ****        -2.6565  -0.0486   2.8073 C.3            1 S1                 0.0000
     10 ****        -2.1087   0.4603   1.5509 N.3            1 S1                 0.0000
     11 ****        -0.7955   0.7484   1.6838 C.ar           1 S1                 0.0000
     12 ****        -0.4511   2.0582   1.7379 N.ar           1 S1                 0.0000
     13 ****         0.8377   2.4054   1.8033 C.ar           1 S1                 0.0000
     14 ****         1.9152   1.6173   1.8169 N.ar           1 S1                 0.0000
     15 ****         1.5665   0.2990   1.7772 C.ar           1 S1                 0.0000
     16 ****         0.2446  -0.2217   1.7237 C.ar           1 S1                 0.0000
     17 ****         0.2806  -1.6110   1.6945 N.2            1 S1                 0.0000
     18 ****         1.5542  -1.8952   1.6995 C.2            1 S1                 0.0000
     19 ****         2.3958  -0.8069   1.7251 N.pl3          1 S1                 0.0000
     20 ****         3.8448  -0.8292   1.6635 C.3            1 S1                 0.0000
     21 ****         4.3725  -1.0406   0.2268 C.3            1 S1                 0.0000
     22 ****         5.7811  -0.9346   0.2754 O.3            1 S1                 0.0000
     23 ****         3.8192  -0.0380  -0.8135 C.3            1 S1                 0.0000
     24 ****         4.4441  -0.1425  -2.2069 C.3            1 S1                 0.0000
     25 ****         3.3757   0.4276  -3.1290 C.3            1 S1                 0.0000
     26 ****         2.1130   0.4498  -2.2652 C.3            1 S1                 0.0000
     27 ****         2.4559  -0.3044  -1.1139 O.3            1 S1                 0.0000
     28 ****        -2.1286  -0.5852  -2.2151 C.3            1 S1                 0.0000
     29 ****        -2.9821   0.2356  -3.0515 N.am           1 S1                 0.0000
     30 ****        -1.4538   2.3419  -1.5575 H              1 S1                 0.0000
     31 ****        -2.9042   2.1761  -0.5677 H              1 S1                 0.0000
     32 ****        -0.7579   0.2877  -0.8513 H              1 S1                 0.0000
     33 ****        -2.1042  -1.3076   0.4710 H              1 S1                 0.0000
     34 ****        -4.4698   0.5783   0.0762 H              1 S1                 0.0000
     35 ****        -4.3317  -1.0291  -0.5827 H              1 S1                 0.0000
     36 ****        -5.7160  -1.0037   1.4806 H              1 S1                 0.0000
     37 ****        -4.2995  -2.0132   1.6750 H              1 S1                 0.0000
     38 ****        -4.6127   0.8612   2.6753 H              1 S1                 0.0000
     39 ****        -4.5710  -0.5750   3.6733 H              1 S1                 0.0000
     40 ****        -2.3614   0.6013   3.6327 H              1 S1                 0.0000
     41 ****        -2.2364  -1.0343   3.0130 H              1 S1                 0.0000
     42 ****         1.0342   3.4669   1.8376 H              1 S1                 0.0000
     43 ****         1.9177  -2.9116   1.6567 H              1 S1                 0.0000
     44 ****         4.2200   0.1110   2.0702 H              1 S1                 0.0000
     45 ****         4.2053  -1.6195   2.3231 H              1 S1                 0.0000
     46 ****         4.1328  -2.0539  -0.0982 H              1 S1                 0.0000
     47 ****         6.1107  -1.5806   0.8812 H              1 S1                 0.0000
     48 ****         3.9137   0.9847  -0.4430 H              1 S1                 0.0000
     49 ****         5.3933   0.3887  -2.2819 H              1 S1                 0.0000
     50 ****         4.6238  -1.1880  -2.4611 H              1 S1                 0.0000
     51 ****         3.6292   1.4333  -3.4654 H              1 S1                 0.0000
     52 ****         3.2497  -0.2008  -4.0113 H              1 S1                 0.0000
     53 ****         1.8653   1.4690  -1.9650 H              1 S1                 0.0000
     54 ****         1.2471   0.0234  -2.7716 H              1 S1                 0.0000
     55 ****        -1.2074  -0.7975  -2.7589 H              1 S1                 0.0000
     56 ****        -2.5991  -1.5409  -1.9842 H              1 S1                 0.0000
     57 ****        -3.4320  -0.1196  -3.8830 H              1 S1                 0.0000
     58 ****        -4.2859   2.1733  -3.9857 LP             1 S1                 0.0000
     59 ****        -3.8134   3.2825  -2.7421 LP             1 S1                 0.0000
     60 ****        -2.5685   1.3289   1.3665 LP             1 S1                 0.0000
     61 ****        -1.1600   2.7634   1.7289 LP             1 S1                 0.0000
     62 ****         2.8574   1.9507   1.8517 LP             1 S1                 0.0000
     63 ****        -0.4914  -2.2462   1.6743 LP             1 S1                 0.0000
     64 ****         6.0398  -0.0195   0.5847 LP             1 S1                 0.0000
     65 ****         6.1631  -1.0994  -0.6339 LP             1 S1                 0.0000
     66 ****         1.8782  -0.0328  -0.3442 LP             1 S1                 0.0000
     67 ****         2.3316  -1.2797  -1.2961 LP             1 S1                 0.0000
@<TRIPOS>BOND
    1    1    2 2     
    2    2   29 am    
    3    2    3 1     
    4    3    4 1     
    5    3   30 1     
    6    3   31 1     
    7    4    5 1     
    8    4   28 1     
    9    4   32 1     
   10    5   10 1     
   11    5    6 1     
   12    5   33 1     
   13    6    7 1     
   14    6   34 1     
   15    6   35 1     
   16    7    8 1     
   17    7   36 1     
   18    7   37 1     
   19    8    9 1     
   20    8   38 1     
   21    8   39 1     
   22    9   10 1     
   23    9   40 1     
   24    9   41 1     
   25   10   11 1     
   26   11   16 ar    
   27   11   12 ar    
   28   12   13 ar    
   29   13   14 ar    
   30   13   42 1     
   31   14   15 ar    
   32   15   19 1     
   33   15   16 ar    
   34   16   17 1     
   35   17   18 2     
   36   18   19 1     
   37   18   43 1     
   38   19   20 1     
   39   20   21 1     
   40   20   44 1     
   41   20   45 1     
   42   21   22 1     
   43   21   23 1     
   44   21   46 1     
   45   22   47 1     
   46   23   27 1     
   47   23   24 1     
   48   23   48 1     
   49   24   25 1     
   50   24   49 1     
   51   24   50 1     
   52   25   26 1     
   53   25   51 1     
   54   25   52 1     
   55   26   27 1     
   56   26   53 1     
   57   26   54 1     
   58   28   29 1     
   59   28   55 1     
   60   28   56 1     
   61   29   57 1     
   62    1   58 1     
   63    1   59 1     
   64   10   60 1     
   65   12   61 1     
   66   14   62 1     
   67   17   63 1     
   68   22   64 1     
   69   22   65 1     
   70   27   66 1     
   71   27   67 1     
@<TRIPOS>SUBSTRUCTURE
      1 S1             1
@<TRIPOS>SET
LONE_PAIRS      STATIC     ATOMS    <user>   **** ""
10 58 59 60 61 62 63 64 65 66 67
DONOR_HYDROGENS      STATIC     ATOMS    <user>   **** ""
2 47 57
ATOM$BLUE        STATIC     ATOMS    COLORGROUP SYSTEM
10 58 59 60 61 62 63 64 65 66 67
ATOM$RED        STATIC     ATOMS    COLORGROUP SYSTEM
2 47 57
