AV-unprocessed.smi:1087|AV-procd|sdf|4726|dock8
  -GOLD-   22720 3253D 1   1.00000     0.00000
 Structure written by MMmdl.
 47 48  0  0  0  0  0  0  0  0  2 V2000
  144.5968  131.9576  150.3222 C   0  0  0  0  0  0  0  0  0  0  0  0
  145.4250  133.0048  149.8473 O   0  0  0  0  0  0  0  0  0  0  0  0
  146.5814  133.1895  150.6466 C   0  0  0  0  0  0  0  0  0  0  0  0
  146.1838  133.9313  151.9319 C   0  0  0  0  0  0  0  0  0  0  0  0
  147.3339  134.1359  152.8490 N   0  3  2  0  0  0  0  0  0  0  0  0
  148.0537  132.8687  153.1359 C   0  0  0  0  0  0  0  0  0  0  0  0
  149.3188  133.1279  153.9716 C   0  0  0  0  0  0  0  0  0  0  0  0
  149.0001  133.8567  155.2940 C   0  0  2  0  0  0  0  0  0  0  0  0
  148.2784  132.9882  156.3526 C   0  0  0  0  0  0  0  0  0  0  0  0
  147.3499  133.7659  157.1673 N   0  0  0  0  0  0  0  0  0  0  0  0
  147.5254  134.0819  158.4596 C   0  0  0  0  0  0  0  0  0  0  0  0
  148.4939  133.7086  159.1225 O   0  0  0  0  0  0  0  0  0  0  0  0
  146.4353  134.9517  159.0990 C   0  0  0  0  0  0  0  0  0  0  0  0
  146.7467  135.3112  160.4917 N   0  0  0  0  0  0  0  0  0  0  0  0
  146.7298  134.2837  161.4497 C   0  0  0  0  0  0  0  0  0  0  0  0
  147.0112  134.5374  162.7359 C   0  0  0  0  0  0  0  0  0  0  0  0
  147.3315  135.9307  163.0717 C   0  0  0  0  0  0  0  0  0  0  0  0
  147.3520  136.8690  162.2001 N   0  0  0  0  0  0  0  0  0  0  0  0
  147.0588  136.5997  160.8499 C   0  0  0  0  0  0  0  0  0  0  0  0
  147.0819  137.4958  160.0057 O   0  0  0  0  0  0  0  0  0  0  0  0
  148.2131  135.1392  154.9650 C   0  0  0  0  0  0  0  0  0  0  0  0
  146.9711  134.8574  154.0981 C   0  0  0  0  0  0  0  0  0  0  0  0
  143.7258  131.8578  149.6745 H   0  0  0  0  0  0  0  0  0  0  0  0
  144.2426  132.1627  151.3333 H   0  0  0  0  0  0  0  0  0  0  0  0
  145.1268  131.0043  150.3228 H   0  0  0  0  0  0  0  0  0  0  0  0
  147.0577  132.2335  150.8642 H   0  0  0  0  0  0  0  0  0  0  0  0
  147.3086  133.7885  150.0963 H   0  0  0  0  0  0  0  0  0  0  0  0
  145.7302  134.8942  151.6927 H   0  0  0  0  0  0  0  0  0  0  0  0
  145.4111  133.3457  152.4324 H   0  0  0  0  0  0  0  0  0  0  0  0
  147.3866  132.1747  153.6485 H   0  0  0  0  0  0  0  0  0  0  0  0
  148.3427  132.3914  152.1990 H   0  0  0  0  0  0  0  0  0  0  0  0
  149.8492  132.1937  154.1528 H   0  0  0  0  0  0  0  0  0  0  0  0
  150.0045  133.7413  153.3856 H   0  0  0  0  0  0  0  0  0  0  0  0
  149.9499  134.1618  155.7357 H   0  0  0  0  0  0  0  0  0  0  0  0
  147.6961  132.2153  155.8500 H   0  0  0  0  0  0  0  0  0  0  0  0
  148.9927  132.4566  156.9820 H   0  0  0  0  0  0  0  0  0  0  0  0
  146.5197  134.1105  156.7068 H   0  0  0  0  0  0  0  0  0  0  0  0
  146.2830  135.8569  158.5079 H   0  0  0  0  0  0  0  0  0  0  0  0
  145.4911  134.4084  159.0420 H   0  0  0  0  0  0  0  0  0  0  0  0
  146.4861  133.2998  161.0762 H   0  0  0  0  0  0  0  0  0  0  0  0
  147.0200  133.7954  163.5204 H   0  0  0  0  0  0  0  0  0  0  0  0
  147.5552  136.1181  164.1251 H   0  0  0  0  0  0  0  0  0  0  0  0
  147.9203  135.6495  155.8833 H   0  0  0  0  0  0  0  0  0  0  0  0
  148.8656  135.8319  154.4315 H   0  0  0  0  0  0  0  0  0  0  0  0
  146.4933  135.8065  153.8587 H   0  0  0  0  0  0  0  0  0  0  0  0
  146.2382  134.2751  154.6580 H   0  0  0  0  0  0  0  0  0  0  0  0
  147.9905  134.7202  152.3508 H   0  0  0  0  0  0  0  0  0  0  0  0
  1  2  1  0  0  0  0
  1 23  1  0  0  0  0
  1 24  1  0  0  0  0
  1 25  1  0  0  0  0
  2  3  1  0  0  0  0
  3  4  1  0  0  0  0
  3 26  1  0  0  0  0
  3 27  1  0  0  0  0
  4  5  1  0  0  0  0
  4 28  1  0  0  0  0
  4 29  1  0  0  0  0
  5 22  1  0  0  0  0
  5  6  1  0  0  0  0
  5 47  1  0  0  0  0
  6  7  1  0  0  0  0
  6 30  1  0  0  0  0
  6 31  1  0  0  0  0
  7  8  1  0  0  0  0
  7 32  1  0  0  0  0
  7 33  1  0  0  0  0
  8  9  1  0  0  0  0
  8 21  1  0  0  0  0
  8 34  1  0  0  0  0
  9 10  1  0  0  0  0
  9 35  1  0  0  0  0
  9 36  1  0  0  0  0
 10 11  1  0  0  0  0
 10 37  1  0  0  0  0
 11 12  2  0  0  0  0
 11 13  1  0  0  0  0
 13 14  1  0  0  0  0
 13 38  1  0  0  0  0
 13 39  1  0  0  0  0
 14 19  1  0  0  0  0
 14 15  1  0  0  0  0
 15 16  2  0  0  0  0
 15 40  1  0  0  0  0
 16 17  1  0  0  0  0
 16 41  1  0  0  0  0
 17 18  2  0  0  0  0
 17 42  1  0  0  0  0
 18 19  1  0  0  0  0
 19 20  2  0  0  0  0
 21 22  1  0  0  0  0
 21 43  1  0  0  0  0
 21 44  1  0  0  0  0
 22 45  1  0  0  0  0
 22 46  1  0  0  0  0
M  CHG  1   5   1
M  END
> <s_m_source_file>
AV-unprocessed.smi

> <i_m_source_file_index>
1087

> <i_lp_mmshare_version>
43012

> <i_f3d_flags>
0

> <s_epik_input>
W0NIM11PW0NIMl1bQ0gyXU4xW0NIMl1bQ0gyXVtDSF0oW0NIMl1bQ0gyXTEpW0NIMl1bTkhdQyg9TylbQ0gyXW4yW2NIXVtjSF1bY0hdbmMyPU8=

> <s_epik_cmdline>
J2VwaWtfcHl0aG9uJywgJy1waCcsICc3LjAnLCAnLXRuJywgJzgnLCAnLW1hJywgJzIwMCcsICctbWV0YWxfYmluZGluZycsICctaW1hZScsICc8aW5maWxlLm1hZT4nLCAnLW9tYWUnLCAnPG91dGZpbGUubWFlPic=

> <r_lp_tautomer_probability>
1

> <r_epik_Ionization_Penalty>
0.00982698

> <r_epik_Ionization_Penalty_Charging>
0.00982062

> <r_epik_Ionization_Penalty_Neutral>
6.35787e-06

> <r_epik_State_Penalty>
0.00747828

> <r_epik_Charging_Adjusted_Penalty>
0.0172989

> <i_epik_Tot_Q>
1

> <i_epik_Tot_abs_Q>
1

> <r_epik_Metal_State_Penalty>
0.00747829

> <b_epik_Metal_Only>
0

> <s_lp_Force_Field>
OPLS_2005

> <r_lp_Energy>
23.2089

> <b_lp_Chiralities_Consistent>
1

> <s_lp_Variant>
AV-unprocessed.smi:1087-2

> <Gold.Version>
5.8.1

> <Gold.Id.Protein>
6NUR|6NUR_protein|mol2

> <Gold.PLP.Fitness>
50.6746

> <Gold.PLP.PLP>
-37.5383

> <Gold.PLP.part.hbond>
-4.1568

> <Gold.PLP.part.metal>
0.0000

> <Gold.PLP.part.buried>
-4.9884

> <Gold.PLP.part.nonpolar>
-29.3150

> <Gold.PLP.part.repulsive>
0.7161

> <Gold.PLP.ligand.clash>
0.5369

> <Gold.PLP.ligand.torsion>
0.7020

> <Gold.PLP.Chemscore.Hbond>
4.9760

> <Gold.PLP.Chemscore.CHOScore>
0.0000

> <Gold.PLP.Chemscore.Metal>
0.0000

> <Gold.Chemscore.Hbonds>
donor molecule, donor type, donor heavy atom, donor atom, acceptor molecule, acceptor atom, score
      L1  H     5    47       P1  7948  2.00
      P1  H  6896  6907       L1    12  0.57
      P1  H  6931  6943       L1    18  0.58
      P1  H  6934  6947       L1    20  1.00

> <Gold.PLP.Chemscore.Internal.Correction>
0.1491

> <Gold.Rescore>
     Score         DG    S(hbond)    S(metal)    S(lipo)     H(rot)  DE(clash)    DE(int)     intcor
     16.16     -18.12       2.99        0.00      76.27       2.45       0.06       1.90       ----

> <Gold.Chemscore.Fitness>
16.1614

> <Gold.Chemscore.DG>
-18.1204

> <Gold.Chemscore.ZeroCoef>
-5.4800

> <Gold.Chemscore.Hbond>
2.9870

> <Gold.Chemscore.Metal>
0.0000

> <Gold.Chemscore.Lipo>
76.2738

> <Gold.Chemscore.Internal_Hbond>
0.0000

> <Gold.Chemscore.DEClash>
0.0609

> <Gold.Chemscore.DEInternal>
1.8981

> <Gold.Chemscore.Rot>
2.4454

> <Gold.Chemscore.Internal.Correction>
   9.000000E+99

> <Gold.Chemscore.Hbonds>
donor molecule, donor type, donor heavy atom, donor atom, acceptor molecule, acceptor atom, score
      L1  H     5    47       P1  7948  0.55
      P1  H  6896  6907       L1    12  0.55
      P1  H  6931  6943       L1    18  0.12
      P1  H  6934  6947       L1    20  0.58

> <Gold.Chemscore.Hbond.Weighted>
-9.9766

> <Gold.Chemscore.Metal.Weighted>
-0.0000

> <Gold.Chemscore.Lipo.Weighted>
-8.9240

> <Gold.Chemscore.Internal_Hbond.Weighted>
0.0000

> <Gold.Chemscore.DEClash.Weighted>
0.0609

> <Gold.Chemscore.DEInternal.Weighted>
1.8981

> <Gold.Chemscore.Rot.Weighted>
6.2603

> <Gold.Chemscore.Internal.Correction.Weighted>
   9.000000E+99

> <Gold.Protein.RotatedTorsions>
[ 6907 6896 6895 6894 ] final -104.07 input  -60.11 | X-H torsion
[ 7974 7965 7964 7962 ] final  129.70 input  175.53 | X-H torsion
[ 8008 7997 7996 7995 ] final   29.12 input   59.86 | X-H torsion
[ 10167 10162 10161 10158 ] final  115.55 input  -65.29 | X-H torsion
[ 10718 10713 10712 10709 ] final -117.14 input   66.30 | X-H torsion
[ 10763 10752 10751 10750 ] final -151.87 input  -60.55 | X-H torsion
[ 11005 11000 10999 10996 ] final   37.15 input  -57.11 | X-H torsion

> <Gold.Protein.ActiveResidues>
 VAL166  LYS551  ARG553  GLY616  TRP617  ASP618  TYR619  PRO620  LYS621  CYS622 
 ASP623  PHE694  ASN695  SER759  ASP760  ASP761  ALA762  ILE779  LEU786  VAL792 
 PHE793  MET794  SER795  GLU796  ALA797  LYS798  CYS799  TRP800  GLU811  SER814 

> <Gold.Protein.RotatedAtoms>
  150.7269  134.0334  159.3740 H   0  0  0  0  0  0  0  0  0  0  0  0  # atno 6907 bound_to 6896
  151.8304  135.0621  160.0445 H   0  0  0  0  0  0  0  0  0  0  0  0  # atno 6908 bound_to 6896
  152.2937  133.5551  159.5610 H   0  0  0  0  0  0  0  0  0  0  0  0  # atno 6909 bound_to 6896
  145.0259  139.4090  143.5174 H   0  0  0  0  0  0  0  0  0  0  0  0  # atno 7974 bound_to 7965
  155.0695  140.3198  155.4635 H   0  0  0  0  0  0  0  0  0  0  0  0  # atno 8008 bound_to 7997
  156.2794  140.2114  156.5767 H   0  0  0  0  0  0  0  0  0  0  0  0  # atno 8009 bound_to 7997
  154.7066  140.0502  157.0498 H   0  0  0  0  0  0  0  0  0  0  0  0  # atno 8010 bound_to 7997
  139.6309  144.7114  151.2434 H   0  0  0  0  0  0  0  0  0  0  0  0  # atno 10167 bound_to 10162
  156.1013  130.6174  150.9126 H   0  0  0  0  0  0  0  0  0  0  0  0  # atno 10718 bound_to 10713
  154.8030  135.3249  154.7502 H   0  0  0  0  0  0  0  0  0  0  0  0  # atno 10763 bound_to 10752
  153.8166  135.6891  153.4837 H   0  0  0  0  0  0  0  0  0  0  0  0  # atno 10764 bound_to 10752
  153.1758  135.4605  154.9907 H   0  0  0  0  0  0  0  0  0  0  0  0  # atno 10765 bound_to 10752
  140.2254  134.3591  155.7986 H   0  0  0  0  0  0  0  0  0  0  0  0  # atno 11005 bound_to 11000
  146.3492  139.9782  142.8698 LP  0  0  0  0  0  0  0  0  0  0  0  0  # atno 17320 bound_to 7965
  145.1834  140.9778  143.4253 LP  0  0  0  0  0  0  0  0  0  0  0  0  # atno 17321 bound_to 7965
  140.7438  143.6482  150.8273 LP  0  0  0  0  0  0  0  0  0  0  0  0  # atno 17342 bound_to 10162
  140.0106  143.5646  152.2840 LP  0  0  0  0  0  0  0  0  0  0  0  0  # atno 17343 bound_to 10162
  157.6183  131.0931  150.8669 LP  0  0  0  0  0  0  0  0  0  0  0  0  # atno 17370 bound_to 10713
  156.8796  130.5175  149.5291 LP  0  0  0  0  0  0  0  0  0  0  0  0  # atno 17371 bound_to 10713
  141.2221  133.7216  156.8644 LP  0  0  0  0  0  0  0  0  0  0  0  0  # atno 17394 bound_to 11000
  140.1806  134.9036  157.2943 LP  0  0  0  0  0  0  0  0  0  0  0  0  # atno 17395 bound_to 11000

$$$$
