#       Name:                AV-unprocessed.smi:328
#       Creating user name   scv26
#       Creation time:       Thu Mar 26 22:25:56 2020


#       File generated by GOLD software.
#

@<TRIPOS>MOLECULE
AV-unprocessed.smi:328
    30    31     1
SMALL
NO_CHARGES


@<TRIPOS>ATOM
      1 ****        -3.1869   2.6326   1.5258 O.co2          1 S1                 0.0000
      2 ****        -3.4760   1.5251   2.0300 C.2            1 S1                 0.0000
      3 ****        -3.9059   1.3448   3.1910 O.co2          1 S1                -1.0000
      4 ****        -3.2950   0.2843   1.1522 C.3            1 S1                 0.0000
      5 ****        -1.8434  -0.1040   1.1751 C.2            1 S1                 0.0000
      6 ****        -1.1507  -0.6511   2.2287 C.2            1 S1                 0.0000
      7 ****         0.5177  -0.9535   1.8303 S.3            1 S1                 0.0000
      8 ****         0.2081  -0.3318   0.2106 C.2            1 S1                 0.0000
      9 ****         1.2093  -0.2569  -0.8033 N.am           1 S1                 0.0000
     10 ****         2.5862  -0.6527  -0.5338 C.3            1 S1                 0.0000
     11 ****         3.3049  -0.4050  -1.8567 C.3            1 S1                 0.0000
     12 ****         2.2373   0.0874  -2.6949 N.am           1 S1                 0.0000
     13 ****         1.0561   0.1616  -2.0772 C.2            1 S1                 0.0000
     14 ****         0.0212   0.5494  -2.6171 O.2            1 S1                 0.0000
     15 ****        -1.0577   0.0627   0.0290 N.2            1 S1                 0.0000
     16 ****        -3.9195  -0.5283   1.5253 H              1 S1                 0.0000
     17 ****        -3.6336   0.5043   0.1387 H              1 S1                 0.0000
     18 ****        -1.5227  -0.8832   3.2156 H              1 S1                 0.0000
     19 ****         3.0110  -0.0494   0.2697 H              1 S1                 0.0000
     20 ****         2.6353  -1.7037  -0.2454 H              1 S1                 0.0000
     21 ****         4.0935   0.3421  -1.7618 H              1 S1                 0.0000
     22 ****         3.7287  -1.3202  -2.2716 H              1 S1                 0.0000
     23 ****         2.3823   0.3465  -3.6600 H              1 S1                 0.0000
     24 ****        -3.2941   3.4695   2.0625 LP             1 S1                 0.0000
     25 ****        -2.8486   2.6811   0.5860 LP             1 S1                 0.0000
     26 ****        -4.0442   2.1259   3.7999 LP             1 S1                 0.0000
     27 ****        -4.1112   0.4195   3.5101 LP             1 S1                 0.0000
     28 ****        -0.8331   0.5778  -2.0982 LP             1 S1                 0.0000
     29 ****         0.0341   0.8362  -3.5750 LP             1 S1                 0.0000
     30 ****        -1.4043   0.4358  -0.8316 LP             1 S1                 0.0000
@<TRIPOS>BOND
    1    1    2 ar    
    2    2    3 ar    
    3    2    4 1     
    4    4    5 1     
    5    4   16 1     
    6    4   17 1     
    7    5   15 1     
    8    5    6 2     
    9    6    7 1     
   10    6   18 1     
   11    7    8 1     
   12    8    9 1     
   13    8   15 2     
   14    9   13 am    
   15    9   10 1     
   16   10   11 1     
   17   10   19 1     
   18   10   20 1     
   19   11   12 1     
   20   11   21 1     
   21   11   22 1     
   22   12   13 am    
   23   12   23 1     
   24   13   14 2     
   25    1   24 1     
   26    1   25 1     
   27    3   26 1     
   28    3   27 1     
   29   14   28 1     
   30   14   29 1     
   31   15   30 1     
@<TRIPOS>SUBSTRUCTURE
      1 S1             1
@<TRIPOS>SET
LONE_PAIRS      STATIC     ATOMS    <user>   **** ""
7 24 25 26 27 28 29 30
DONOR_HYDROGENS      STATIC     ATOMS    <user>   **** ""
1 23
ATOM$BLUE        STATIC     ATOMS    COLORGROUP SYSTEM
7 24 25 26 27 28 29 30
ATOM$RED        STATIC     ATOMS    COLORGROUP SYSTEM
1 23
