AV-unprocessed.smi:1809|AV-procd|sdf|7322|dock5
  -GOLD-   22720 8573D 1   1.00000     0.00000
 Structure written by MMmdl.
 39 41  0  0  0  0  0  0  0  0  3 V2000
  151.6403  142.1905  158.0662 C   0  0  0  0  0  0  0  0  0  0  0  0
  151.4890  140.9724  157.2210 C   0  0  0  0  0  0  0  0  0  0  0  0
  152.3843  139.9817  157.2134 N   0  0  0  0  0  0  0  0  0  0  0  0
  152.0245  138.9586  156.3481 N   0  0  0  0  0  0  0  0  0  0  0  0
  150.8708  139.1939  155.7069 C   0  0  0  0  0  0  0  0  0  0  0  0
  150.3446  138.3245  154.8284 N   0  5  0  0  0  0  0  0  0  0  0  0
  150.6862  137.0180  154.8839 C   0  0  0  0  0  0  0  0  0  0  0  0
  151.7793  136.5594  155.2240 O   0  0  0  0  0  0  0  0  0  0  0  0
  149.6993  136.1885  154.5236 N   0  0  0  0  0  0  0  0  0  0  0  0
  149.7939  134.7359  154.5111 C   0  0  0  0  0  0  0  0  0  0  0  0
  148.4412  134.0965  154.8789 C   0  0  1  0  0  0  0  0  0  0  0  0
  147.2351  134.9701  154.4579 C   0  0  0  0  0  0  0  0  0  0  0  0
  147.0641  134.8767  152.9959 N   0  3  2  0  0  0  0  0  0  0  0  0
  145.9732  135.6451  152.3724 C   0  0  0  0  0  0  0  0  0  0  0  0
  145.6730  134.9070  151.0527 C   0  0  0  0  0  0  0  0  0  0  0  0
  146.5227  133.6238  151.0888 C   0  0  0  0  0  0  0  0  0  0  0  0
  146.8846  133.4887  152.5647 C   0  0  1  0  0  0  0  0  0  0  0  0
  148.1386  132.6848  152.9280 C   0  0  0  0  0  0  0  0  0  0  0  0
  148.3161  132.7686  154.3446 O   0  0  0  0  0  0  0  0  0  0  0  0
  150.1197  140.7264  156.1505 S   0  0  0  0  0  0  0  0  0  0  0  0
  152.3079  142.9011  157.5789 H   0  0  0  0  0  0  0  0  0  0  0  0
  152.0559  141.9271  159.0392 H   0  0  0  0  0  0  0  0  0  0  0  0
  150.6718  142.6669  158.2192 H   0  0  0  0  0  0  0  0  0  0  0  0
  148.8174  136.5987  154.2523 H   0  0  0  0  0  0  0  0  0  0  0  0
  150.0959  134.4131  153.5136 H   0  0  0  0  0  0  0  0  0  0  0  0
  150.5805  134.4142  155.1946 H   0  0  0  0  0  0  0  0  0  0  0  0
  148.4157  133.9968  155.9646 H   0  0  0  0  0  0  0  0  0  0  0  0
  146.3281  134.6216  154.9540 H   0  0  0  0  0  0  0  0  0  0  0  0
  147.3842  136.0094  154.7531 H   0  0  0  0  0  0  0  0  0  0  0  0
  145.0930  135.6333  153.0172 H   0  0  0  0  0  0  0  0  0  0  0  0
  146.2667  136.6834  152.2156 H   0  0  0  0  0  0  0  0  0  0  0  0
  144.6106  134.6684  150.9885 H   0  0  0  0  0  0  0  0  0  0  0  0
  145.9255  135.5157  150.1838 H   0  0  0  0  0  0  0  0  0  0  0  0
  145.9915  132.7526  150.7039 H   0  0  0  0  0  0  0  0  0  0  0  0
  147.4248  133.7599  150.4903 H   0  0  0  0  0  0  0  0  0  0  0  0
  146.0256  133.0674  153.0918 H   0  0  0  0  0  0  0  0  0  0  0  0
  148.0138  131.6387  152.6480 H   0  0  0  0  0  0  0  0  0  0  0  0
  149.0194  133.0525  152.4011 H   0  0  0  0  0  0  0  0  0  0  0  0
  147.9223  135.1986  152.5711 H   0  0  0  0  0  0  0  0  0  0  0  0
  1  2  1  0  0  0  0
  1 21  1  0  0  0  0
  1 22  1  0  0  0  0
  1 23  1  0  0  0  0
  2 20  1  0  0  0  0
  2  3  2  0  0  0  0
  3  4  1  0  0  0  0
  4  5  2  0  0  0  0
  5  6  1  0  0  0  0
  5 20  1  0  0  0  0
  6  7  1  0  0  0  0
  7  8  2  0  0  0  0
  7  9  1  0  0  0  0
  9 10  1  0  0  0  0
  9 24  1  0  0  0  0
 10 11  1  0  0  0  0
 10 25  1  0  0  0  0
 10 26  1  0  0  0  0
 11 19  1  0  0  0  0
 11 12  1  0  0  0  0
 11 27  1  0  0  0  0
 12 13  1  0  0  0  0
 12 28  1  0  0  0  0
 12 29  1  0  0  0  0
 13 17  1  0  0  0  0
 13 14  1  0  0  0  0
 13 39  1  0  0  0  0
 14 15  1  0  0  0  0
 14 30  1  0  0  0  0
 14 31  1  0  0  0  0
 15 16  1  0  0  0  0
 15 32  1  0  0  0  0
 15 33  1  0  0  0  0
 16 17  1  0  0  0  0
 16 34  1  0  0  0  0
 16 35  1  0  0  0  0
 17 18  1  0  0  0  0
 17 36  1  0  0  0  0
 18 19  1  0  0  0  0
 18 37  1  0  0  0  0
 18 38  1  0  0  0  0
M  CHG  1   6  -1
M  CHG  1  13   1
M  END
> <s_m_source_file>
AV-unprocessed.smi

> <i_m_source_file_index>
1809

> <i_lp_mmshare_version>
43012

> <i_f3d_flags>
0

> <s_epik_input>
W0NIM11jMW5uYyhzMSlbTkhdQyg9TylbTkhdW0NIMl1bQ0BIXShbQ0gyXTIpT1tDSDJdW0NAQEhdKE4yMylbQ0gyXVtDSDJdW0NIMl0z

> <s_epik_cmdline>
J2VwaWtfcHl0aG9uJywgJy1waCcsICc3LjAnLCAnLXRuJywgJzgnLCAnLW1hJywgJzIwMCcsICctbWV0YWxfYmluZGluZycsICctaW1hZScsICc8aW5maWxlLm1hZT4nLCAnLW9tYWUnLCAnPG91dGZpbGUubWFlPic=

> <r_lp_tautomer_probability>
1

> <r_epik_Ionization_Penalty>
3.2601

> <r_epik_Ionization_Penalty_Charging>
3.1406

> <r_epik_Ionization_Penalty_Neutral>
0.119497

> <r_epik_State_Penalty>
3.08894

> <r_epik_Charging_Adjusted_Penalty>
6.22954

> <i_epik_Tot_Q>
0

> <i_epik_Tot_abs_Q>
2

> <r_epik_Metal_State_Penalty>
0.510807

> <b_epik_Metal_Only>
1

> <s_lp_Force_Field>
OPLS_2005

> <r_lp_Energy>
31.1034

> <b_lp_Chiralities_Consistent>
1

> <s_lp_Variant>
AV-unprocessed.smi:1809-14

> <Gold.Version>
5.8.1

> <Gold.Id.Protein>
6NUR|6NUR_protein|mol2

> <Gold.PLP.Fitness>
38.7787

> <Gold.PLP.PLP>
-28.4832

> <Gold.PLP.part.hbond>
-4.2165

> <Gold.PLP.part.metal>
0.0000

> <Gold.PLP.part.buried>
-1.8195

> <Gold.PLP.part.nonpolar>
-21.8690

> <Gold.PLP.part.repulsive>
0.3765

> <Gold.PLP.ligand.clash>
0.0072

> <Gold.PLP.ligand.torsion>
0.8426

> <Gold.PLP.Chemscore.Hbond>
3.9920

> <Gold.PLP.Chemscore.CHOScore>
0.0000

> <Gold.PLP.Chemscore.Metal>
0.0000

> <Gold.Chemscore.Hbonds>
donor molecule, donor type, donor heavy atom, donor atom, acceptor molecule, acceptor atom, score
      L1  H    13    39       P1  7948  2.00
      P1  H  7997  8010       L1     3  0.82
      P1  H 10752 10765       L1     8  1.00

> <Gold.PLP.Chemscore.Internal.Correction>
0.0120

> <Gold.Rescore>
     Score         DG    S(hbond)    S(metal)    S(lipo)     H(rot)  DE(clash)    DE(int)     intcor
     14.79     -17.28       2.58        0.00      56.11       1.32       0.05       2.44       ----

> <Gold.Chemscore.Fitness>
14.7889

> <Gold.Chemscore.DG>
-17.2809

> <Gold.Chemscore.ZeroCoef>
-5.4800

> <Gold.Chemscore.Hbond>
2.5830

> <Gold.Chemscore.Metal>
0.0000

> <Gold.Chemscore.Lipo>
56.1077

> <Gold.Chemscore.Internal_Hbond>
0.0000

> <Gold.Chemscore.DEClash>
0.0538

> <Gold.Chemscore.DEInternal>
2.4382

> <Gold.Chemscore.Rot>
1.3246

> <Gold.Chemscore.Internal.Correction>
   9.000000E+99

> <Gold.Chemscore.Hbonds>
donor molecule, donor type, donor heavy atom, donor atom, acceptor molecule, acceptor atom, score
      L1  H    13    39       P1  7948  0.96
      P1  H  7997  8010       L1     3  0.18
      P1  H 10752 10765       L1     8  0.96

> <Gold.Chemscore.Hbond.Weighted>
-8.6273

> <Gold.Chemscore.Metal.Weighted>
-0.0000

> <Gold.Chemscore.Lipo.Weighted>
-6.5646

> <Gold.Chemscore.Internal_Hbond.Weighted>
0.0000

> <Gold.Chemscore.DEClash.Weighted>
0.0538

> <Gold.Chemscore.DEInternal.Weighted>
2.4382

> <Gold.Chemscore.Rot.Weighted>
3.3910

> <Gold.Chemscore.Internal.Correction.Weighted>
   9.000000E+99

> <Gold.Protein.RotatedTorsions>
[ 6907 6896 6895 6894 ] final  -40.16 input  -60.11 | X-H torsion
[ 7974 7965 7964 7962 ] final -124.84 input  175.53 | X-H torsion
[ 8008 7997 7996 7995 ] final   52.55 input   59.86 | X-H torsion
[ 10167 10162 10161 10158 ] final  -49.55 input  -65.29 | X-H torsion
[ 10718 10713 10712 10709 ] final  173.09 input   66.30 | X-H torsion
[ 10763 10752 10751 10750 ] final  169.23 input  -60.55 | X-H torsion
[ 11005 11000 10999 10996 ] final  136.44 input  -57.11 | X-H torsion

> <Gold.Protein.ActiveResidues>
 VAL166  LYS551  ARG553  GLY616  TRP617  ASP618  TYR619  PRO620  LYS621  CYS622 
 ASP623  PHE694  ASN695  SER759  ASP760  ASP761  ALA762  ILE779  LEU786  VAL792 
 PHE793  MET794  SER795  GLU796  ALA797  LYS798  CYS799  TRP800  GLU811  SER814 

> <Gold.Protein.RotatedAtoms>
  150.9817  134.9171  159.7847 H   0  0  0  0  0  0  0  0  0  0  0  0  # atno 6907 bound_to 6896
  152.5224  134.3401  159.9224 H   0  0  0  0  0  0  0  0  0  0  0  0  # atno 6908 bound_to 6896
  151.3408  133.3922  159.2705 H   0  0  0  0  0  0  0  0  0  0  0  0  # atno 6909 bound_to 6896
  145.0038  140.7844  143.4480 H   0  0  0  0  0  0  0  0  0  0  0  0  # atno 7974 bound_to 7965
  155.4536  140.3459  155.4304 H   0  0  0  0  0  0  0  0  0  0  0  0  # atno 8008 bound_to 7997
  156.1205  140.1486  156.9241 H   0  0  0  0  0  0  0  0  0  0  0  0  # atno 8009 bound_to 7997
  154.4820  140.0867  156.7378 H   0  0  0  0  0  0  0  0  0  0  0  0  # atno 8010 bound_to 7997
  140.6680  143.2693  151.4231 H   0  0  0  0  0  0  0  0  0  0  0  0  # atno 10167 bound_to 10162
  156.9693  131.0085  151.2909 H   0  0  0  0  0  0  0  0  0  0  0  0  # atno 10718 bound_to 10713
  154.3802  135.2753  155.2216 H   0  0  0  0  0  0  0  0  0  0  0  0  # atno 10763 bound_to 10752
  154.4326  135.5973  153.6082 H   0  0  0  0  0  0  0  0  0  0  0  0  # atno 10764 bound_to 10752
  152.9835  135.5999  154.4043 H   0  0  0  0  0  0  0  0  0  0  0  0  # atno 10765 bound_to 10752
  140.0046  134.9464  157.0147 H   0  0  0  0  0  0  0  0  0  0  0  0  # atno 11005 bound_to 11000
  145.2116  139.2202  143.5140 LP  0  0  0  0  0  0  0  0  0  0  0  0  # atno 17320 bound_to 7965
  146.3457  140.1956  142.8589 LP  0  0  0  0  0  0  0  0  0  0  0  0  # atno 17321 bound_to 7965
  139.5936  144.1445  152.2117 LP  0  0  0  0  0  0  0  0  0  0  0  0  # atno 17342 bound_to 10162
  140.0808  144.5702  150.7124 LP  0  0  0  0  0  0  0  0  0  0  0  0  # atno 17343 bound_to 10162
  157.5603  130.8241  149.8258 LP  0  0  0  0  0  0  0  0  0  0  0  0  # atno 17370 bound_to 10713
  156.0289  130.3770  150.1743 LP  0  0  0  0  0  0  0  0  0  0  0  0  # atno 17371 bound_to 10713
  140.4665  134.1431  155.7197 LP  0  0  0  0  0  0  0  0  0  0  0  0  # atno 17394 bound_to 11000
  141.1667  133.8688  157.1692 LP  0  0  0  0  0  0  0  0  0  0  0  0  # atno 17395 bound_to 11000

$$$$
