AV-unprocessed.smi:1645|AV-procd|sdf|6604|dock1
  -GOLD-   22720 7303D 1   1.00000     0.00000
 Structure written by MMmdl.
 55 58  0  0  0  0  0  0  0  0  2 V2000
  145.4983  137.8479  154.1643 O   0  0  0  0  0  0  0  0  0  0  0  0
  146.3641  137.5108  153.3581 C   0  0  0  0  0  0  0  0  0  0  0  0
  147.6661  137.8408  153.4153 N   0  0  0  0  0  0  0  0  0  0  0  0
  148.3653  138.6081  154.3887 C   0  0  0  0  0  0  0  0  0  0  0  0
  147.8969  138.8918  155.6937 C   0  0  0  0  0  0  0  0  0  0  0  0
  148.6997  139.6647  156.5541 C   0  0  0  0  0  0  0  0  0  0  0  0
  149.9507  140.1386  156.0962 C   0  0  0  0  0  0  0  0  0  0  0  0
  150.7662  140.9147  156.9471 N   0  0  0  0  0  0  0  0  0  0  0  0
  151.4261  140.1784  158.0268 C   0  0  0  0  0  0  0  0  0  0  0  0
  152.5944  140.9880  158.6150 C   0  0  0  0  0  0  0  0  0  0  0  0
  152.1337  142.3875  159.0496 C   0  0  0  0  0  0  0  0  0  0  0  0
  151.4514  143.1059  157.8756 C   0  0  0  0  0  0  0  0  0  0  0  0
  150.3034  142.2591  157.2996 C   0  0  0  0  0  0  0  0  0  0  0  0
  150.3995  139.8626  154.8478 N   0  0  0  0  0  0  0  0  0  0  0  0
  149.6264  139.1226  154.0263 C   0  0  0  0  0  0  0  0  0  0  0  0
  146.1043  136.7531  152.2832 N   0  0  0  0  0  0  0  0  0  0  0  0
  144.7898  136.2110  151.9490 C   0  0  2  0  0  0  0  0  0  0  0  0
  144.0144  135.7105  153.1608 C   0  0  0  0  0  0  0  0  0  0  0  0
  142.9501  134.8000  152.5388 C   0  0  0  0  0  0  0  0  0  0  0  0
  143.5021  134.3094  151.2515 N   0  3  2  0  0  0  0  0  0  0  0  0
  143.5164  132.8273  151.1239 C   0  0  0  0  0  0  0  0  0  0  0  0
  144.4463  132.3830  149.9852 C   0  0  0  0  0  0  0  0  0  0  0  0
  145.9041  132.8027  150.2531 C   0  0  0  0  0  0  0  0  0  0  0  0
  146.0041  134.0158  151.1982 C   0  0  0  0  0  0  0  0  0  0  0  0
  144.8100  134.9849  151.0160 C   0  0  2  0  0  0  0  0  0  0  0  0
  148.2410  137.4842  152.6660 H   0  0  0  0  0  0  0  0  0  0  0  0
  146.9488  138.5376  156.0634 H   0  0  0  0  0  0  0  0  0  0  0  0
  148.3558  139.8726  157.5563 H   0  0  0  0  0  0  0  0  0  0  0  0
  150.6901  139.9719  158.8050 H   0  0  0  0  0  0  0  0  0  0  0  0
  151.7988  139.2125  157.6881 H   0  0  0  0  0  0  0  0  0  0  0  0
  153.0271  140.4563  159.4627 H   0  0  0  0  0  0  0  0  0  0  0  0
  153.3852  141.0791  157.8693 H   0  0  0  0  0  0  0  0  0  0  0  0
  151.4372  142.3031  159.8848 H   0  0  0  0  0  0  0  0  0  0  0  0
  152.9834  142.9701  159.4066 H   0  0  0  0  0  0  0  0  0  0  0  0
  151.0738  144.0765  158.1978 H   0  0  0  0  0  0  0  0  0  0  0  0
  152.1856  143.3036  157.0934 H   0  0  0  0  0  0  0  0  0  0  0  0
  149.8975  142.7605  156.4203 H   0  0  0  0  0  0  0  0  0  0  0  0
  149.4955  142.1799  158.0285 H   0  0  0  0  0  0  0  0  0  0  0  0
  150.0321  138.9345  153.0428 H   0  0  0  0  0  0  0  0  0  0  0  0
  146.8682  136.5211  151.6649 H   0  0  0  0  0  0  0  0  0  0  0  0
  144.1961  136.9982  151.4792 H   0  0  0  0  0  0  0  0  0  0  0  0
  144.6657  135.1259  153.8120 H   0  0  0  0  0  0  0  0  0  0  0  0
  143.5839  136.5185  153.7534 H   0  0  0  0  0  0  0  0  0  0  0  0
  142.6651  133.9962  153.2193 H   0  0  0  0  0  0  0  0  0  0  0  0
  142.0488  135.3732  152.3190 H   0  0  0  0  0  0  0  0  0  0  0  0
  143.8529  132.3719  152.0571 H   0  0  0  0  0  0  0  0  0  0  0  0
  142.4991  132.4762  150.9495 H   0  0  0  0  0  0  0  0  0  0  0  0
  144.3894  131.3036  149.8419 H   0  0  0  0  0  0  0  0  0  0  0  0
  144.1027  132.8320  149.0520 H   0  0  0  0  0  0  0  0  0  0  0  0
  146.4610  131.9708  150.6858 H   0  0  0  0  0  0  0  0  0  0  0  0
  146.3879  133.0285  149.3020 H   0  0  0  0  0  0  0  0  0  0  0  0
  146.0313  133.6671  152.2316 H   0  0  0  0  0  0  0  0  0  0  0  0
  146.9540  134.5211  151.0245 H   0  0  0  0  0  0  0  0  0  0  0  0
  144.8266  135.3325  149.9818 H   0  0  0  0  0  0  0  0  0  0  0  0
  142.8845  134.6547  150.5305 H   0  0  0  0  0  0  0  0  0  0  0  0
  1  2  2  0  0  0  0
  2  3  1  0  0  0  0
  2 16  1  0  0  0  0
  3  4  1  0  0  0  0
  3 26  1  0  0  0  0
  4 15  1  0  0  0  0
  4  5  2  0  0  0  0
  5  6  1  0  0  0  0
  5 27  1  0  0  0  0
  6  7  2  0  0  0  0
  6 28  1  0  0  0  0
  7  8  1  0  0  0  0
  7 14  1  0  0  0  0
  8 13  1  0  0  0  0
  8  9  1  0  0  0  0
  9 10  1  0  0  0  0
  9 29  1  0  0  0  0
  9 30  1  0  0  0  0
 10 11  1  0  0  0  0
 10 31  1  0  0  0  0
 10 32  1  0  0  0  0
 11 12  1  0  0  0  0
 11 33  1  0  0  0  0
 11 34  1  0  0  0  0
 12 13  1  0  0  0  0
 12 35  1  0  0  0  0
 12 36  1  0  0  0  0
 13 37  1  0  0  0  0
 13 38  1  0  0  0  0
 14 15  2  0  0  0  0
 15 39  1  0  0  0  0
 16 17  1  0  0  0  0
 16 40  1  0  0  0  0
 17 25  1  0  0  0  0
 17 18  1  0  0  0  0
 17 41  1  0  0  0  0
 18 19  1  0  0  0  0
 18 42  1  0  0  0  0
 18 43  1  0  0  0  0
 19 20  1  0  0  0  0
 19 44  1  0  0  0  0
 19 45  1  0  0  0  0
 20 25  1  0  0  0  0
 20 21  1  0  0  0  0
 20 55  1  0  0  0  0
 21 22  1  0  0  0  0
 21 46  1  0  0  0  0
 21 47  1  0  0  0  0
 22 23  1  0  0  0  0
 22 48  1  0  0  0  0
 22 49  1  0  0  0  0
 23 24  1  0  0  0  0
 23 50  1  0  0  0  0
 23 51  1  0  0  0  0
 24 25  1  0  0  0  0
 24 52  1  0  0  0  0
 24 53  1  0  0  0  0
 25 54  1  0  0  0  0
M  CHG  1  20   1
M  END
> <s_m_source_file>
AV-unprocessed.smi

> <i_m_source_file_index>
1645

> <i_lp_mmshare_version>
43012

> <i_f3d_flags>
0

> <s_epik_input>
W0NIMl0xW0NIMl1bQ0gyXVtDSDJdW0NASF0oTjEyKVtDQEBIXShbQ0gyXVtDSDJdMilbTkhdQyg9TylbTkhdYzNbY0hdW2NIXWMobltjSF0zKU40W0NIMl1bQ0gyXVtDSDJdW0NIMl1bQ0gyXTQ=

> <s_epik_cmdline>
J2VwaWtfcHl0aG9uJywgJy1waCcsICc3LjAnLCAnLXRuJywgJzgnLCAnLW1hJywgJzIwMCcsICctbWV0YWxfYmluZGluZycsICctaW1hZScsICc8aW5maWxlLm1hZT4nLCAnLW9tYWUnLCAnPG91dGZpbGUubWFlPic=

> <r_lp_tautomer_probability>
1

> <r_epik_Ionization_Penalty>
0.0808019

> <r_epik_Ionization_Penalty_Charging>
0.000974069

> <r_epik_Ionization_Penalty_Neutral>
0.0798278

> <r_epik_State_Penalty>
0.0653665

> <r_epik_Charging_Adjusted_Penalty>
0.0663406

> <i_epik_Tot_Q>
1

> <i_epik_Tot_abs_Q>
1

> <r_epik_Metal_State_Penalty>
0.0585673

> <b_epik_Metal_Only>
0

> <s_lp_Force_Field>
OPLS_2005

> <r_lp_Energy>
57.3455

> <b_lp_Chiralities_Consistent>
1

> <s_lp_Variant>
AV-unprocessed.smi:1645-5

> <Gold.Version>
5.8.1

> <Gold.Id.Protein>
6NUR|6NUR_protein|mol2

> <Gold.PLP.Fitness>
53.9092

> <Gold.PLP.PLP>
-39.4259

> <Gold.PLP.part.hbond>
-3.9884

> <Gold.PLP.part.metal>
0.0000

> <Gold.PLP.part.buried>
-5.3143

> <Gold.PLP.part.nonpolar>
-31.5143

> <Gold.PLP.part.repulsive>
0.2800

> <Gold.PLP.ligand.clash>
0.0000

> <Gold.PLP.ligand.torsion>
0.5879

> <Gold.PLP.Chemscore.Hbond>
4.0887

> <Gold.PLP.Chemscore.CHOScore>
0.9846

> <Gold.PLP.Chemscore.Metal>
0.0000

> <Gold.Chemscore.Hbonds>
donor molecule, donor type, donor heavy atom, donor atom, acceptor molecule, acceptor atom, score
      L1  H     3    26       P1  7948  1.00
      L1  H    16    40       P1  7948  0.65
      L1  H    20    55       P1 10186  1.45
      P1  H  7989  7998       L1    14  0.86
      L1  C    15    39       P1  7957  0.98

> <Gold.PLP.Chemscore.Internal.Correction>
0.4394

> <Gold.Rescore>
     Score         DG    S(hbond)    S(metal)    S(lipo)     H(rot)  DE(clash)    DE(int)     intcor
     19.80     -23.50       2.50        0.00     108.33       1.17       0.83       2.87       ----

> <Gold.Chemscore.Fitness>
19.8021

> <Gold.Chemscore.DG>
-23.5023

> <Gold.Chemscore.ZeroCoef>
-5.4800

> <Gold.Chemscore.Hbond>
2.5002

> <Gold.Chemscore.Metal>
0.0000

> <Gold.Chemscore.Lipo>
108.3324

> <Gold.Chemscore.Internal_Hbond>
0.0000

> <Gold.Chemscore.DEClash>
0.8318

> <Gold.Chemscore.DEInternal>
2.8684

> <Gold.Chemscore.Rot>
1.1731

> <Gold.Chemscore.Internal.Correction>
   9.000000E+99

> <Gold.Chemscore.Hbonds>
donor molecule, donor type, donor heavy atom, donor atom, acceptor molecule, acceptor atom, score
      L1  H     3    26       P1  7948  0.96
      L1  H    16    40       P1  7948  0.64
      L1  H    20    55       P1 10186  0.24
      P1  H  7989  7998       L1    14  0.29

> <Gold.Chemscore.Hbond.Weighted>
-8.3506

> <Gold.Chemscore.Metal.Weighted>
-0.0000

> <Gold.Chemscore.Lipo.Weighted>
-12.6749

> <Gold.Chemscore.Internal_Hbond.Weighted>
0.0000

> <Gold.Chemscore.DEClash.Weighted>
0.8318

> <Gold.Chemscore.DEInternal.Weighted>
2.8684

> <Gold.Chemscore.Rot.Weighted>
3.0032

> <Gold.Chemscore.Internal.Correction.Weighted>
   9.000000E+99

> <Gold.Protein.RotatedTorsions>
[ 6907 6896 6895 6894 ] final -140.42 input  -60.11 | X-H torsion
[ 7974 7965 7964 7962 ] final  141.50 input  175.53 | X-H torsion
[ 8008 7997 7996 7995 ] final  175.25 input   59.86 | X-H torsion
[ 10167 10162 10161 10158 ] final  -22.63 input  -65.29 | X-H torsion
[ 10718 10713 10712 10709 ] final  162.29 input   66.30 | X-H torsion
[ 10763 10752 10751 10750 ] final -145.64 input  -60.55 | X-H torsion
[ 11005 11000 10999 10996 ] final  -64.54 input  -57.11 | X-H torsion

> <Gold.Protein.ActiveResidues>
 VAL166  LYS551  ARG553  GLY616  TRP617  ASP618  TYR619  PRO620  LYS621  CYS622 
 ASP623  PHE694  ASN695  SER759  ASP760  ASP761  ALA762  ILE779  LEU786  VAL792 
 PHE793  MET794  SER795  GLU796  ALA797  LYS798  CYS799  TRP800  GLU811  SER814 

> <Gold.Protein.RotatedAtoms>
  151.0605  133.5548  159.2634 H   0  0  0  0  0  0  0  0  0  0  0  0  # atno 6907 bound_to 6896
  151.2526  135.0626  159.9077 H   0  0  0  0  0  0  0  0  0  0  0  0  # atno 6908 bound_to 6896
  152.5397  134.0363  159.8101 H   0  0  0  0  0  0  0  0  0  0  0  0  # atno 6909 bound_to 6896
  144.9091  139.5318  143.5717 H   0  0  0  0  0  0  0  0  0  0  0  0  # atno 7974 bound_to 7965
  156.0889  140.1413  156.9617 H   0  0  0  0  0  0  0  0  0  0  0  0  # atno 8008 bound_to 7997
  154.4630  140.0936  156.6992 H   0  0  0  0  0  0  0  0  0  0  0  0  # atno 8009 bound_to 7997
  155.4952  140.3449  155.4364 H   0  0  0  0  0  0  0  0  0  0  0  0  # atno 8010 bound_to 7997
  140.7286  143.4517  151.0507 H   0  0  0  0  0  0  0  0  0  0  0  0  # atno 10167 bound_to 10162
  157.1246  131.0501  151.2399 H   0  0  0  0  0  0  0  0  0  0  0  0  # atno 10718 bound_to 10713
  154.8374  135.3408  154.6536 H   0  0  0  0  0  0  0  0  0  0  0  0  # atno 10763 bound_to 10752
  153.7149  135.6961  153.5032 H   0  0  0  0  0  0  0  0  0  0  0  0  # atno 10764 bound_to 10752
  153.2424  135.4380  155.0665 H   0  0  0  0  0  0  0  0  0  0  0  0  # atno 10765 bound_to 10752
  141.1428  133.6667  156.5848 H   0  0  0  0  0  0  0  0  0  0  0  0  # atno 11005 bound_to 11000
  146.3149  139.7882  142.8991 LP  0  0  0  0  0  0  0  0  0  0  0  0  # atno 17320 bound_to 7965
  145.3485  141.0302  143.3352 LP  0  0  0  0  0  0  0  0  0  0  0  0  # atno 17321 bound_to 7965
  139.8194  143.7841  152.3176 LP  0  0  0  0  0  0  0  0  0  0  0  0  # atno 17342 bound_to 10162
  139.7918  144.7407  150.9944 LP  0  0  0  0  0  0  0  0  0  0  0  0  # atno 17343 bound_to 10162
  157.4446  130.7563  149.7098 LP  0  0  0  0  0  0  0  0  0  0  0  0  # atno 17370 bound_to 10713
  155.9821  130.4013  150.3436 LP  0  0  0  0  0  0  0  0  0  0  0  0  # atno 17371 bound_to 10713
  140.3809  134.7524  157.4660 LP  0  0  0  0  0  0  0  0  0  0  0  0  # atno 17394 bound_to 11000
  140.0638  134.5958  155.8718 LP  0  0  0  0  0  0  0  0  0  0  0  0  # atno 17395 bound_to 11000

$$$$
