AV-unprocessed.smi:1997|AV-procd|sdf|8088|dock9
  -GOLD-   2272010303D 1   1.00000     0.00000
 Structure written by MMmdl.
 36 38  0  0  0  0  0  0  0  0  2 V2000
  147.6390  134.5716  156.4602 O   0  0  0  0  0  0  0  0  0  0  0  0
  147.5925  135.7936  156.2999 C   0  0  0  0  0  0  0  0  0  0  0  0
  148.1167  136.7304  157.1228 N   0  5  0  0  0  0  0  0  0  0  0  0
  147.9437  136.6307  158.4510 C   0  0  0  0  0  0  0  0  0  0  0  0
  147.9212  137.7025  159.2558 N   0  0  0  0  0  0  0  0  0  0  0  0
  147.7235  137.3774  160.5900 N   0  0  0  0  0  0  0  0  0  0  0  0
  147.5924  136.0615  160.7737 C   0  0  0  0  0  0  0  0  0  0  0  0
  147.3721  135.4594  162.1211 C   0  0  0  0  0  0  0  0  0  0  0  0
  147.3168  133.9593  162.2978 C   0  0  0  0  0  0  0  0  0  0  0  0
  146.0674  134.7825  162.4811 C   0  0  0  0  0  0  0  0  0  0  0  0
  147.6956  135.1070  159.3029 S   0  0  0  0  0  0  0  0  0  0  0  0
  146.9737  136.3052  155.2247 N   0  0  0  0  0  0  0  0  0  0  0  0
  146.2957  135.5475  154.1703 C   0  0  2  0  0  0  0  0  0  0  0  0
  145.7615  136.5571  153.1230 C   0  0  0  0  0  0  0  0  0  0  0  0
  144.6835  136.0323  152.1479 C   0  0  0  0  0  0  0  0  0  0  0  0
  144.9612  134.6380  151.5496 C   0  0  0  0  0  0  0  0  0  0  0  0
  145.0804  133.4608  152.5524 C   0  0  0  0  0  0  0  0  0  0  0  0
  144.6133  133.7577  153.9065 N   0  0  0  0  0  0  0  0  0  0  0  0
  145.1311  134.6932  154.7208 C   0  0  0  0  0  0  0  0  0  0  0  0
  144.6759  134.8827  155.8482 O   0  0  0  0  0  0  0  0  0  0  0  0
  147.8706  136.0459  162.8902 H   0  0  0  0  0  0  0  0  0  0  0  0
  147.3853  133.3429  161.4036 H   0  0  0  0  0  0  0  0  0  0  0  0
  147.7811  133.5424  163.1889 H   0  0  0  0  0  0  0  0  0  0  0  0
  145.6966  134.9152  163.4953 H   0  0  0  0  0  0  0  0  0  0  0  0
  145.3010  134.6998  161.7129 H   0  0  0  0  0  0  0  0  0  0  0  0
  146.9577  137.3108  155.1400 H   0  0  0  0  0  0  0  0  0  0  0  0
  147.0312  134.8951  153.6979 H   0  0  0  0  0  0  0  0  0  0  0  0
  145.3542  137.4345  153.6283 H   0  0  0  0  0  0  0  0  0  0  0  0
  146.6100  136.9227  152.5432 H   0  0  0  0  0  0  0  0  0  0  0  0
  143.7137  136.0207  152.6475 H   0  0  0  0  0  0  0  0  0  0  0  0
  144.5711  136.7512  151.3358 H   0  0  0  0  0  0  0  0  0  0  0  0
  144.1531  134.4108  150.8535 H   0  0  0  0  0  0  0  0  0  0  0  0
  145.8640  134.6791  150.9394 H   0  0  0  0  0  0  0  0  0  0  0  0
  144.5150  132.6066  152.1792 H   0  0  0  0  0  0  0  0  0  0  0  0
  146.1151  133.1197  152.6061 H   0  0  0  0  0  0  0  0  0  0  0  0
  143.8443  133.2051  154.2565 H   0  0  0  0  0  0  0  0  0  0  0  0
  1  2  2  0  0  0  0
  2  3  1  0  0  0  0
  2 12  1  0  0  0  0
  3  4  1  0  0  0  0
  4 11  1  0  0  0  0
  4  5  2  0  0  0  0
  5  6  1  0  0  0  0
  6  7  2  0  0  0  0
  7  8  1  0  0  0  0
  7 11  1  0  0  0  0
  8 10  1  0  0  0  0
  8  9  1  0  0  0  0
  8 21  1  0  0  0  0
  9 10  1  0  0  0  0
  9 22  1  0  0  0  0
  9 23  1  0  0  0  0
 10 24  1  0  0  0  0
 10 25  1  0  0  0  0
 12 13  1  0  0  0  0
 12 26  1  0  0  0  0
 13 19  1  0  0  0  0
 13 14  1  0  0  0  0
 13 27  1  0  0  0  0
 14 15  1  0  0  0  0
 14 28  1  0  0  0  0
 14 29  1  0  0  0  0
 15 16  1  0  0  0  0
 15 30  1  0  0  0  0
 15 31  1  0  0  0  0
 16 17  1  0  0  0  0
 16 32  1  0  0  0  0
 16 33  1  0  0  0  0
 17 18  1  0  0  0  0
 17 34  1  0  0  0  0
 17 35  1  0  0  0  0
 18 19  1  0  0  0  0
 18 36  1  0  0  0  0
 19 20  2  0  0  0  0
M  CHG  1   3  -1
M  END
> <s_m_source_file>
AV-unprocessed.smi

> <i_m_source_file_index>
1997

> <i_lp_mmshare_version>
43012

> <i_f3d_flags>
0

> <s_epik_input>
W0NIMl0xW0NIMl1bQ0hdMWMoczIpbm5jMltOSF1DKD1PKVtOSF1bQ0BASF0zW0NIMl1bQ0gyXVtDSDJdW0NIMl1bTkhdQzM9Tw==

> <s_epik_cmdline>
J2VwaWtfcHl0aG9uJywgJy1waCcsICc3LjAnLCAnLXRuJywgJzgnLCAnLW1hJywgJzIwMCcsICctbWV0YWxfYmluZGluZycsICctaW1hZScsICc8aW5maWxlLm1hZT4nLCAnLW9tYWUnLCAnPG91dGZpbGUubWFlPic=

> <r_lp_tautomer_probability>
1

> <r_epik_Ionization_Penalty>
4.47229

> <r_epik_Ionization_Penalty_Charging>
4.32584

> <r_epik_Ionization_Penalty_Neutral>
0.146443

> <r_epik_State_Penalty>
4.32544

> <r_epik_Charging_Adjusted_Penalty>
8.65129

> <i_epik_Tot_Q>
-1

> <i_epik_Tot_abs_Q>
1

> <r_epik_Metal_State_Penalty>
0.738743

> <b_epik_Metal_Only>
1

> <s_lp_Force_Field>
OPLS_2005

> <r_lp_Energy>
12.6103

> <b_lp_Chiralities_Consistent>
1

> <s_lp_Variant>
AV-unprocessed.smi:1997-3

> <Gold.Version>
5.8.1

> <Gold.Id.Protein>
6NUR|6NUR_protein|mol2

> <Gold.PLP.Fitness>
31.4938

> <Gold.PLP.PLP>
-25.9520

> <Gold.PLP.part.hbond>
-3.7143

> <Gold.PLP.part.metal>
0.0000

> <Gold.PLP.part.buried>
-3.8809

> <Gold.PLP.part.nonpolar>
-18.4623

> <Gold.PLP.part.repulsive>
0.0558

> <Gold.PLP.ligand.clash>
0.0000

> <Gold.PLP.ligand.torsion>
0.6046

> <Gold.PLP.Chemscore.Hbond>
2.2064

> <Gold.PLP.Chemscore.CHOScore>
0.0000

> <Gold.PLP.Chemscore.Metal>
0.0000

> <Gold.Chemscore.Hbonds>
donor molecule, donor type, donor heavy atom, donor atom, acceptor molecule, acceptor atom, score
      L1  H    18    36       P1 10957  1.00
      P1  H  6931  6943       L1     6  0.66
      P1  H  6934  6947       L1     6  0.44

> <Gold.PLP.Chemscore.Internal.Correction>
0.1317

> <Gold.Rescore>
     Score         DG    S(hbond)    S(metal)    S(lipo)     H(rot)  DE(clash)    DE(int)     intcor
     12.51     -14.35       1.76        0.00      53.58       1.27       0.01       1.83       ----

> <Gold.Chemscore.Fitness>
12.5132

> <Gold.Chemscore.DG>
-14.3525

> <Gold.Chemscore.ZeroCoef>
-5.4800

> <Gold.Chemscore.Hbond>
1.7557

> <Gold.Chemscore.Metal>
0.0000

> <Gold.Chemscore.Lipo>
53.5840

> <Gold.Chemscore.Internal_Hbond>
0.0000

> <Gold.Chemscore.DEClash>
0.0058

> <Gold.Chemscore.DEInternal>
1.8334

> <Gold.Chemscore.Rot>
1.2738

> <Gold.Chemscore.Internal.Correction>
   9.000000E+99

> <Gold.Chemscore.Hbonds>
donor molecule, donor type, donor heavy atom, donor atom, acceptor molecule, acceptor atom, score
      L1  H    18    36       P1 10957  0.99
      P1  H  6931  6943       L1     6  0.51
      P1  H  6934  6947       L1     6  0.02

> <Gold.Chemscore.Hbond.Weighted>
-5.8641

> <Gold.Chemscore.Metal.Weighted>
-0.0000

> <Gold.Chemscore.Lipo.Weighted>
-6.2693

> <Gold.Chemscore.Internal_Hbond.Weighted>
0.0000

> <Gold.Chemscore.DEClash.Weighted>
0.0058

> <Gold.Chemscore.DEInternal.Weighted>
1.8334

> <Gold.Chemscore.Rot.Weighted>
3.2610

> <Gold.Chemscore.Internal.Correction.Weighted>
   9.000000E+99

> <Gold.Protein.RotatedTorsions>
[ 6907 6896 6895 6894 ] final   36.42 input  -60.11 | X-H torsion
[ 7974 7965 7964 7962 ] final  164.55 input  175.53 | X-H torsion
[ 8008 7997 7996 7995 ] final  124.93 input   59.86 | X-H torsion
[ 10167 10162 10161 10158 ] final    4.21 input  -65.29 | X-H torsion
[ 10718 10713 10712 10709 ] final   80.28 input   66.30 | X-H torsion
[ 10763 10752 10751 10750 ] final -139.58 input  -60.55 | X-H torsion
[ 11005 11000 10999 10996 ] final   -5.27 input  -57.11 | X-H torsion

> <Gold.Protein.ActiveResidues>
 VAL166  LYS551  ARG553  GLY616  TRP617  ASP618  TYR619  PRO620  LYS621  CYS622 
 ASP623  PHE694  ASN695  SER759  ASP760  ASP761  ALA762  ILE779  LEU786  VAL792 
 PHE793  MET794  SER795  GLU796  ALA797  LYS798  CYS799  TRP800  GLU811  SER814 

> <Gold.Protein.RotatedAtoms>
  152.1295  134.9145  160.0559 H   0  0  0  0  0  0  0  0  0  0  0  0  # atno 6907 bound_to 6896
  152.0255  133.3911  159.4284 H   0  0  0  0  0  0  0  0  0  0  0  0  # atno 6908 bound_to 6896
  150.6855  134.3500  159.4948 H   0  0  0  0  0  0  0  0  0  0  0  0  # atno 6909 bound_to 6896
  144.7540  139.8342  143.6356 H   0  0  0  0  0  0  0  0  0  0  0  0  # atno 7974 bound_to 7965
  156.2818  140.2728  156.1868 H   0  0  0  0  0  0  0  0  0  0  0  0  # atno 8008 bound_to 7997
  155.0500  140.0386  157.2558 H   0  0  0  0  0  0  0  0  0  0  0  0  # atno 8009 bound_to 7997
  154.7203  140.2686  155.6553 H   0  0  0  0  0  0  0  0  0  0  0  0  # atno 8010 bound_to 7997
  140.6547  143.7458  150.7633 H   0  0  0  0  0  0  0  0  0  0  0  0  # atno 10167 bound_to 10162
  157.6801  130.9952  150.2056 H   0  0  0  0  0  0  0  0  0  0  0  0  # atno 10718 bound_to 10713
  154.8605  135.3578  154.5569 H   0  0  0  0  0  0  0  0  0  0  0  0  # atno 10763 bound_to 10752
  153.6185  135.7007  153.5324 H   0  0  0  0  0  0  0  0  0  0  0  0  # atno 10764 bound_to 10752
  153.3149  135.4168  155.1327 H   0  0  0  0  0  0  0  0  0  0  0  0  # atno 10765 bound_to 10752
  140.6893  133.9085  155.8607 H   0  0  0  0  0  0  0  0  0  0  0  0  # atno 11005 bound_to 11000
  146.1528  139.4616  143.0038 LP  0  0  0  0  0  0  0  0  0  0  0  0  # atno 17320 bound_to 7965
  145.6843  141.0182  143.1590 LP  0  0  0  0  0  0  0  0  0  0  0  0  # atno 17321 bound_to 7965
  140.1116  143.4694  152.2367 LP  0  0  0  0  0  0  0  0  0  0  0  0  # atno 17342 bound_to 10162
  139.5767  144.7491  151.3746 LP  0  0  0  0  0  0  0  0  0  0  0  0  # atno 17343 bound_to 10162
  156.2738  130.3725  149.8004 LP  0  0  0  0  0  0  0  0  0  0  0  0  # atno 17370 bound_to 10713
  156.5713  130.8426  151.3357 LP  0  0  0  0  0  0  0  0  0  0  0  0  # atno 17371 bound_to 10713
  141.0254  134.0831  157.4074 LP  0  0  0  0  0  0  0  0  0  0  0  0  # atno 17394 bound_to 11000
  139.8928  135.0127  156.6865 LP  0  0  0  0  0  0  0  0  0  0  0  0  # atno 17395 bound_to 11000

$$$$
