AV-unprocessed.smi:2027|AV-procd|sdf|8217|dock6
  -GOLD-   2272010483D 1   1.00000     0.00000
 Structure written by MMmdl.
 51 53  0  0  0  0  0  0  0  0  3 V2000
  152.5028  142.5594  161.2518 C   0  0  0  0  0  0  0  0  0  0  0  0
  152.2489  141.8777  159.9182 C   0  0  0  0  0  0  0  0  0  0  0  0
  151.2755  142.4283  159.0540 C   0  0  0  0  0  0  0  0  0  0  0  0
  151.0675  141.7837  157.8404 C   0  0  0  0  0  0  0  0  0  0  0  0
  150.1996  142.0745  156.7856 N   0  3  0  0  0  0  0  0  0  0  0  0
  150.3589  141.1509  155.7974 C   0  0  0  0  0  0  0  0  0  0  0  0
  151.3082  140.2674  156.2114 N   0  0  0  0  0  0  0  0  0  0  0  0
  151.8663  139.0910  155.5333 C   0  0  0  0  0  0  0  0  0  0  0  0
  150.7991  138.0500  155.1370 C   0  0  2  0  0  0  0  0  0  0  0  0
  151.4379  137.0603  154.3567 O   0  0  0  0  0  0  0  0  0  0  0  0
  149.6258  138.6396  154.3275 C   0  0  0  0  0  0  0  0  0  0  0  0
  148.4364  137.7468  154.3566 N   0  3  1  0  0  0  0  0  0  0  0  0
  148.2549  137.0832  155.6685 C   0  0  0  0  0  0  0  0  0  0  0  0
  147.1888  138.3985  153.8855 C   0  0  0  0  0  0  0  0  0  0  0  0
  147.0725  139.8022  154.4175 C   0  0  0  0  0  0  0  0  0  0  0  0
  147.4135  141.0193  153.7608 C   0  0  0  0  0  0  0  0  0  0  0  0
  147.1698  142.0882  154.4999 N   0  0  0  0  0  0  0  0  0  0  0  0
  146.6788  141.5944  155.6543 N   0  0  0  0  0  0  0  0  0  0  0  0
  146.2965  142.5034  156.7134 C   0  0  0  0  0  0  0  0  0  0  0  0
  146.6133  140.2181  155.6357 C   0  0  0  0  0  0  0  0  0  0  0  0
  151.7866  140.6291  157.4753 C   0  0  0  0  0  0  0  0  0  0  0  0
  152.7518  140.0756  158.3129 C   0  0  0  0  0  0  0  0  0  0  0  0
  152.9782  140.7169  159.5516 C   0  0  0  0  0  0  0  0  0  0  0  0
  154.0259  140.1369  160.4866 C   0  0  0  0  0  0  0  0  0  0  0  0
  151.8485  143.4204  161.3913 H   0  0  0  0  0  0  0  0  0  0  0  0
  153.5331  142.9109  161.3110 H   0  0  0  0  0  0  0  0  0  0  0  0
  152.3237  141.8691  162.0762 H   0  0  0  0  0  0  0  0  0  0  0  0
  150.7201  143.3145  159.3248 H   0  0  0  0  0  0  0  0  0  0  0  0
  149.8276  141.1249  154.8568 H   0  0  0  0  0  0  0  0  0  0  0  0
  152.3937  139.4477  154.6473 H   0  0  0  0  0  0  0  0  0  0  0  0
  152.6207  138.6491  156.1862 H   0  0  0  0  0  0  0  0  0  0  0  0
  150.4224  137.5671  156.0379 H   0  0  0  0  0  0  0  0  0  0  0  0
  150.9811  136.9794  153.5326 H   0  0  0  0  0  0  0  0  0  0  0  0
  149.3386  139.6208  154.7068 H   0  0  0  0  0  0  0  0  0  0  0  0
  149.9661  138.8092  153.3059 H   0  0  0  0  0  0  0  0  0  0  0  0
  148.0037  137.8099  156.4421 H   0  0  0  0  0  0  0  0  0  0  0  0
  149.1590  136.5579  155.9758 H   0  0  0  0  0  0  0  0  0  0  0  0
  147.4519  136.3470  155.6201 H   0  0  0  0  0  0  0  0  0  0  0  0
  147.1875  138.4224  152.7950 H   0  0  0  0  0  0  0  0  0  0  0  0
  146.3325  137.7869  154.1733 H   0  0  0  0  0  0  0  0  0  0  0  0
  147.8198  141.1566  152.7694 H   0  0  0  0  0  0  0  0  0  0  0  0
  145.9954  141.9423  157.5985 H   0  0  0  0  0  0  0  0  0  0  0  0
  145.4608  143.1217  156.3842 H   0  0  0  0  0  0  0  0  0  0  0  0
  147.1384  143.1465  156.9718 H   0  0  0  0  0  0  0  0  0  0  0  0
  146.2409  139.6548  156.4786 H   0  0  0  0  0  0  0  0  0  0  0  0
  153.3106  139.1950  158.0320 H   0  0  0  0  0  0  0  0  0  0  0  0
  154.4878  139.2440  160.0643 H   0  0  0  0  0  0  0  0  0  0  0  0
  153.5783  139.8590  161.4411 H   0  0  0  0  0  0  0  0  0  0  0  0
  154.8164  140.8639  160.6730 H   0  0  0  0  0  0  0  0  0  0  0  0
  148.6239  137.0111  153.6895 H   0  0  0  0  0  0  0  0  0  0  0  0
  149.5513  142.8505  156.7378 H   0  0  0  0  0  0  0  0  0  0  0  0
  1  2  1  0  0  0  0
  1 25  1  0  0  0  0
  1 26  1  0  0  0  0
  1 27  1  0  0  0  0
  2 23  1  0  0  0  0
  2  3  2  0  0  0  0
  3  4  1  0  0  0  0
  3 28  1  0  0  0  0
  4 21  2  0  0  0  0
  4  5  1  0  0  0  0
  5  6  2  0  0  0  0
  5 51  1  0  0  0  0
  6  7  1  0  0  0  0
  6 29  1  0  0  0  0
  7  8  1  0  0  0  0
  7 21  1  0  0  0  0
  8  9  1  0  0  0  0
  8 30  1  0  0  0  0
  8 31  1  0  0  0  0
  9 10  1  0  0  0  0
  9 11  1  0  0  0  0
  9 32  1  0  0  0  0
 10 33  1  0  0  0  0
 11 12  1  0  0  0  0
 11 34  1  0  0  0  0
 11 35  1  0  0  0  0
 12 13  1  0  0  0  0
 12 14  1  0  0  0  0
 12 50  1  0  0  0  0
 13 36  1  0  0  0  0
 13 37  1  0  0  0  0
 13 38  1  0  0  0  0
 14 15  1  0  0  0  0
 14 39  1  0  0  0  0
 14 40  1  0  0  0  0
 15 20  2  0  0  0  0
 15 16  1  0  0  0  0
 16 17  2  0  0  0  0
 16 41  1  0  0  0  0
 17 18  1  0  0  0  0
 18 19  1  0  0  0  0
 18 20  1  0  0  0  0
 19 42  1  0  0  0  0
 19 43  1  0  0  0  0
 19 44  1  0  0  0  0
 20 45  1  0  0  0  0
 21 22  1  0  0  0  0
 22 23  2  0  0  0  0
 22 46  1  0  0  0  0
 23 24  1  0  0  0  0
 24 47  1  0  0  0  0
 24 48  1  0  0  0  0
 24 49  1  0  0  0  0
M  CHG  1   5   1
M  CHG  1  12   1
M  END
> <s_m_source_file>
AV-unprocessed.smi

> <i_m_source_file_index>
2027

> <i_lp_mmshare_version>
43012

> <i_f3d_flags>
0

> <s_epik_input>
W0NIM11jKFtjSF0xKWMoW0NIM10pW2NIXWMoYzEyKW4oW2NIXW4yKVtDSDJdW0NASF0oW09IXSlbQ0gyXU4oW0NIM10pW0NIMl1jM1tjSF1ubihbQ0gzXSlbY0hdMw==

> <s_epik_cmdline>
J2VwaWtfcHl0aG9uJywgJy1waCcsICc3LjAnLCAnLXRuJywgJzgnLCAnLW1hJywgJzIwMCcsICctbWV0YWxfYmluZGluZycsICctaW1hZScsICc8aW5maWxlLm1hZT4nLCAnLW9tYWUnLCAnPG91dGZpbGUubWFlPic=

> <r_lp_tautomer_probability>
1

> <r_epik_Ionization_Penalty>
1.77469

> <r_epik_Ionization_Penalty_Charging>
1.77463

> <r_epik_Ionization_Penalty_Neutral>
6.41153e-05

> <r_epik_State_Penalty>
1.85225

> <r_epik_Charging_Adjusted_Penalty>
3.62688

> <i_epik_Tot_Q>
2

> <i_epik_Tot_abs_Q>
2

> <r_epik_Metal_State_Penalty>
1.92669

> <b_epik_Metal_Only>
0

> <s_lp_Force_Field>
OPLS_2005

> <r_lp_Energy>
21.1473

> <b_lp_Chiralities_Consistent>
1

> <s_lp_Variant>
AV-unprocessed.smi:2027-9

> <Gold.Version>
5.8.1

> <Gold.Id.Protein>
6NUR|6NUR_protein|mol2

> <Gold.PLP.Fitness>
62.3129

> <Gold.PLP.PLP>
-44.4018

> <Gold.PLP.part.hbond>
-4.0000

> <Gold.PLP.part.metal>
0.0000

> <Gold.PLP.part.buried>
-4.3828

> <Gold.PLP.part.nonpolar>
-34.9561

> <Gold.PLP.part.repulsive>
0.2233

> <Gold.PLP.ligand.clash>
0.0000

> <Gold.PLP.ligand.torsion>
0.9392

> <Gold.PLP.Chemscore.Hbond>
5.5470

> <Gold.PLP.Chemscore.CHOScore>
1.0000

> <Gold.PLP.Chemscore.Metal>
0.0000

> <Gold.Chemscore.Hbonds>
donor molecule, donor type, donor heavy atom, donor atom, acceptor molecule, acceptor atom, score
      L1  H     5    51       P1  8028  0.84
      L1  H    10    33       P1  7949  0.32
      L1  H    12    50       P1  7948  2.00
      P1  H 10752 10763       L1    10  0.91
      L1  C    16    41       P1  7957  0.74

> <Gold.PLP.Chemscore.Internal.Correction>
0.1485

> <Gold.Rescore>
     Score         DG    S(hbond)    S(metal)    S(lipo)     H(rot)  DE(clash)    DE(int)     intcor
     18.19     -19.64       2.46        0.00     107.17       2.58       0.59       0.85       ----

> <Gold.Chemscore.Fitness>
18.1862

> <Gold.Chemscore.DG>
-19.6351

> <Gold.Chemscore.ZeroCoef>
-5.4800

> <Gold.Chemscore.Hbond>
2.4642

> <Gold.Chemscore.Metal>
0.0000

> <Gold.Chemscore.Lipo>
107.1662

> <Gold.Chemscore.Internal_Hbond>
0.0000

> <Gold.Chemscore.DEClash>
0.5947

> <Gold.Chemscore.DEInternal>
0.8542

> <Gold.Chemscore.Rot>
2.5836

> <Gold.Chemscore.Internal.Correction>
   9.000000E+99

> <Gold.Chemscore.Hbonds>
donor molecule, donor type, donor heavy atom, donor atom, acceptor molecule, acceptor atom, score
      L1  H     5    51       P1  8028  0.40
      L1  H    10    33       P1  7949  0.10
      L1  H    12    50       P1  7948  0.94
      P1  H 10752 10763       L1    10  0.34

> <Gold.Chemscore.Hbond.Weighted>
-8.2306

> <Gold.Chemscore.Metal.Weighted>
-0.0000

> <Gold.Chemscore.Lipo.Weighted>
-12.5384

> <Gold.Chemscore.Internal_Hbond.Weighted>
0.0000

> <Gold.Chemscore.DEClash.Weighted>
0.5947

> <Gold.Chemscore.DEInternal.Weighted>
0.8542

> <Gold.Chemscore.Rot.Weighted>
6.6139

> <Gold.Chemscore.Internal.Correction.Weighted>
   9.000000E+99

> <Gold.Protein.RotatedTorsions>
[ 6907 6896 6895 6894 ] final   52.02 input  -60.11 | X-H torsion
[ 7974 7965 7964 7962 ] final  -58.20 input  175.53 | X-H torsion
[ 8008 7997 7996 7995 ] final -148.98 input   59.86 | X-H torsion
[ 10167 10162 10161 10158 ] final   73.56 input  -65.29 | X-H torsion
[ 10718 10713 10712 10709 ] final  -86.48 input   66.30 | X-H torsion
[ 10763 10752 10751 10750 ] final   33.83 input  -60.55 | X-H torsion
[ 11005 11000 10999 10996 ] final  140.35 input  -57.11 | X-H torsion

> <Gold.Protein.ActiveResidues>
 VAL166  LYS551  ARG553  GLY616  TRP617  ASP618  TYR619  PRO620  LYS621  CYS622 
 ASP623  PHE694  ASN695  SER759  ASP760  ASP761  ALA762  ILE779  LEU786  VAL792 
 PHE793  MET794  SER795  GLU796  ALA797  LYS798  CYS799  TRP800  GLU811  SER814 

> <Gold.Protein.RotatedAtoms>
  152.3188  134.7406  160.0318 H   0  0  0  0  0  0  0  0  0  0  0  0  # atno 6907 bound_to 6896
  151.7862  133.3349  159.3494 H   0  0  0  0  0  0  0  0  0  0  0  0  # atno 6908 bound_to 6896
  150.7359  134.5816  159.5986 H   0  0  0  0  0  0  0  0  0  0  0  0  # atno 6909 bound_to 6896
  145.8421  140.8410  143.0029 H   0  0  0  0  0  0  0  0  0  0  0  0  # atno 7974 bound_to 7965
  155.6003  140.0661  157.2734 H   0  0  0  0  0  0  0  0  0  0  0  0  # atno 8008 bound_to 7997
  154.4280  140.1819  156.1214 H   0  0  0  0  0  0  0  0  0  0  0  0  # atno 8009 bound_to 7997
  156.0164  140.3321  155.6997 H   0  0  0  0  0  0  0  0  0  0  0  0  # atno 8010 bound_to 7997
  140.0232  144.5524  150.7565 H   0  0  0  0  0  0  0  0  0  0  0  0  # atno 10167 bound_to 10162
  155.9989  130.4766  150.4721 H   0  0  0  0  0  0  0  0  0  0  0  0  # atno 10718 bound_to 10713
  153.0193  135.6376  154.1572 H   0  0  0  0  0  0  0  0  0  0  0  0  # atno 10763 bound_to 10752
  154.1308  135.2840  155.3187 H   0  0  0  0  0  0  0  0  0  0  0  0  # atno 10764 bound_to 10752
  154.6195  135.5529  153.7622 H   0  0  0  0  0  0  0  0  0  0  0  0  # atno 10765 bound_to 10752
  140.0321  134.9347  157.0682 H   0  0  0  0  0  0  0  0  0  0  0  0  # atno 11005 bound_to 11000
  144.6733  140.0828  143.7468 LP  0  0  0  0  0  0  0  0  0  0  0  0  # atno 17320 bound_to 7965
  145.9453  139.2696  143.1244 LP  0  0  0  0  0  0  0  0  0  0  0  0  # atno 17321 bound_to 7965
  140.7334  143.2716  151.3870 LP  0  0  0  0  0  0  0  0  0  0  0  0  # atno 17342 bound_to 10162
  139.6126  144.1068  152.2314 LP  0  0  0  0  0  0  0  0  0  0  0  0  # atno 17343 bound_to 10162
  157.2735  131.0592  151.2244 LP  0  0  0  0  0  0  0  0  0  0  0  0  # atno 17370 bound_to 10713
  157.3316  130.6988  149.6328 LP  0  0  0  0  0  0  0  0  0  0  0  0  # atno 17371 bound_to 10713
  140.4209  134.1882  155.7164 LP  0  0  0  0  0  0  0  0  0  0  0  0  # atno 17394 bound_to 11000
  141.1836  133.8360  157.1167 LP  0  0  0  0  0  0  0  0  0  0  0  0  # atno 17395 bound_to 11000

$$$$
