AV-unprocessed.smi:3339|AV-procd|sdf|12878|dock2
  -GOLD-   2272019283D 1   1.00000     0.00000
 Structure written by MMmdl.
 39 40  0  0  0  0  0  0  0  0  1 V2000
  146.9839  142.2566  154.4203 C   0  0  0  0  0  0  0  0  0  0  0  0
  147.8432  141.3411  153.5407 C   0  0  0  0  0  0  0  0  0  0  0  0
  147.2011  139.9535  153.3791 C   0  0  0  0  0  0  0  0  0  0  0  0
  149.1146  141.2364  154.1684 O   0  0  0  0  0  0  0  0  0  0  0  0
  149.0999  140.6010  155.4389 C   0  0  0  0  0  0  0  0  0  0  0  0
  150.5270  140.5936  156.0076 C   0  0  1  0  0  0  0  0  0  0  0  0
  151.3890  140.1776  154.9676 O   0  0  0  0  0  0  0  0  0  0  0  0
  150.9732  141.9894  156.4901 C   0  0  0  0  0  0  0  0  0  0  0  0
  151.6885  141.9170  157.7629 N   0  0  0  0  0  0  0  0  0  0  0  0
  152.4333  140.8777  158.2096 C   0  0  0  0  0  0  0  0  0  0  0  0
  152.6259  139.8187  157.6123 O   0  0  0  0  0  0  0  0  0  0  0  0
  152.9342  141.2117  159.4218 N   0  0  0  0  0  0  0  0  0  0  0  0
  153.7985  140.3985  160.2686 C   0  0  0  0  0  0  0  0  0  0  0  0
  152.5099  142.5042  159.7543 C   0  0  0  0  0  0  0  0  0  0  0  0
  152.7672  143.2964  160.8863 C   0  0  0  0  0  0  0  0  0  0  0  0
  152.1839  144.5849  160.9186 C   0  0  0  0  0  0  0  0  0  0  0  0
  151.3766  145.0442  159.8456 C   0  0  0  0  0  0  0  0  0  0  0  0
  151.1355  144.2257  158.7172 C   0  0  0  0  0  0  0  0  0  0  0  0
  151.7253  142.9495  158.7115 C   0  0  0  0  0  0  0  0  0  0  0  0
  145.9905  142.3947  153.9927 H   0  0  0  0  0  0  0  0  0  0  0  0
  147.4413  143.2413  154.5207 H   0  0  0  0  0  0  0  0  0  0  0  0
  146.8630  141.8428  155.4221 H   0  0  0  0  0  0  0  0  0  0  0  0
  147.9466  141.8137  152.5625 H   0  0  0  0  0  0  0  0  0  0  0  0
  146.1980  140.0353  152.9597 H   0  0  0  0  0  0  0  0  0  0  0  0
  147.1190  139.4438  154.3395 H   0  0  0  0  0  0  0  0  0  0  0  0
  147.7775  139.3149  152.7108 H   0  0  0  0  0  0  0  0  0  0  0  0
  148.4374  141.1426  156.1147 H   0  0  0  0  0  0  0  0  0  0  0  0
  148.7202  139.5814  155.3537 H   0  0  0  0  0  0  0  0  0  0  0  0
  150.5805  139.8650  156.8178 H   0  0  0  0  0  0  0  0  0  0  0  0
  151.2007  139.2741  154.7655 H   0  0  0  0  0  0  0  0  0  0  0  0
  151.5696  142.4990  155.7324 H   0  0  0  0  0  0  0  0  0  0  0  0
  150.0982  142.6234  156.6425 H   0  0  0  0  0  0  0  0  0  0  0  0
  153.4096  140.3653  161.2868 H   0  0  0  0  0  0  0  0  0  0  0  0
  154.8018  140.8243  160.2985 H   0  0  0  0  0  0  0  0  0  0  0  0
  153.8757  139.3718  159.9075 H   0  0  0  0  0  0  0  0  0  0  0  0
  153.3846  142.9399  161.6975 H   0  0  0  0  0  0  0  0  0  0  0  0
  152.3562  145.2271  161.7697 H   0  0  0  0  0  0  0  0  0  0  0  0
  150.9416  146.0319  159.8897 H   0  0  0  0  0  0  0  0  0  0  0  0
  150.5252  144.5728  157.8969 H   0  0  0  0  0  0  0  0  0  0  0  0
  1  2  1  0  0  0  0
  1 20  1  0  0  0  0
  1 21  1  0  0  0  0
  1 22  1  0  0  0  0
  2  3  1  0  0  0  0
  2  4  1  0  0  0  0
  2 23  1  0  0  0  0
  3 24  1  0  0  0  0
  3 25  1  0  0  0  0
  3 26  1  0  0  0  0
  4  5  1  0  0  0  0
  5  6  1  0  0  0  0
  5 27  1  0  0  0  0
  5 28  1  0  0  0  0
  6  7  1  0  0  0  0
  6  8  1  0  0  0  0
  6 29  1  0  0  0  0
  7 30  1  0  0  0  0
  8  9  1  0  0  0  0
  8 31  1  0  0  0  0
  8 32  1  0  0  0  0
  9 19  1  0  0  0  0
  9 10  1  0  0  0  0
 10 11  2  0  0  0  0
 10 12  1  0  0  0  0
 12 13  1  0  0  0  0
 12 14  1  0  0  0  0
 13 33  1  0  0  0  0
 13 34  1  0  0  0  0
 13 35  1  0  0  0  0
 14 19  2  0  0  0  0
 14 15  1  0  0  0  0
 15 16  2  0  0  0  0
 15 36  1  0  0  0  0
 16 17  1  0  0  0  0
 16 37  1  0  0  0  0
 17 18  2  0  0  0  0
 17 38  1  0  0  0  0
 18 19  1  0  0  0  0
 18 39  1  0  0  0  0
M  END
> <s_m_source_file>
AV-unprocessed.smi

> <i_m_source_file_index>
3339

> <i_lp_mmshare_version>
43012

> <i_f3d_flags>
0

> <s_epik_input>
W0NIM11bQ0hdKFtDSDNdKU9bQ0gyXVtDQEhdKFtPSF0pW0NIMl1uKGMoPU8pbjFbQ0gzXSljKGMxMilbY0hdW2NIXVtjSF1bY0hdMg==

> <s_epik_cmdline>
J2VwaWtfcHl0aG9uJywgJy1waCcsICc3LjAnLCAnLXRuJywgJzgnLCAnLW1hJywgJzIwMCcsICctbWV0YWxfYmluZGluZycsICctaW1hZScsICc8aW5maWxlLm1hZT4nLCAnLW9tYWUnLCAnPG91dGZpbGUubWFlPic=

> <r_lp_tautomer_probability>
1

> <r_epik_Ionization_Penalty>
3.68683e-07

> <r_epik_Ionization_Penalty_Charging>
2.29158e-09

> <r_epik_Ionization_Penalty_Neutral>
3.66391e-07

> <r_epik_State_Penalty>
-0

> <r_epik_Charging_Adjusted_Penalty>
2.29158e-09

> <i_epik_Tot_Q>
0

> <i_epik_Tot_abs_Q>
0

> <r_epik_Metal_State_Penalty>
-0

> <b_epik_Metal_Only>
0

> <s_lp_Force_Field>
OPLS_2005

> <r_lp_Energy>
39.8614

> <b_lp_Chiralities_Consistent>
1

> <s_lp_Variant>
AV-unprocessed.smi:3339-2

> <Gold.Version>
5.8.1

> <Gold.Id.Protein>
6NUR|6NUR_protein|mol2

> <Gold.PLP.Fitness>
50.7518

> <Gold.PLP.PLP>
-46.7799

> <Gold.PLP.part.hbond>
-3.4433

> <Gold.PLP.part.metal>
0.0000

> <Gold.PLP.part.buried>
-5.6832

> <Gold.PLP.part.nonpolar>
-36.6228

> <Gold.PLP.part.repulsive>
0.1650

> <Gold.PLP.ligand.clash>
0.0000

> <Gold.PLP.ligand.torsion>
1.0838

> <Gold.PLP.Chemscore.Hbond>
2.0367

> <Gold.PLP.Chemscore.CHOScore>
0.0000

> <Gold.PLP.Chemscore.Metal>
0.0000

> <Gold.Chemscore.Hbonds>
donor molecule, donor type, donor heavy atom, donor atom, acceptor molecule, acceptor atom, score
      P1  H  7989  7998       L1     7  1.00
      P1  H  7997  8010       L1    11  1.00
      P1  H  8011  8017       L1     4  0.04

> <Gold.PLP.Chemscore.Internal.Correction>
0.0296

> <Gold.Rescore>
     Score         DG    S(hbond)    S(metal)    S(lipo)     H(rot)  DE(clash)    DE(int)     intcor
     16.12     -19.76       1.87        0.00     115.22       2.13       0.17       3.46       ----

> <Gold.Chemscore.Fitness>
16.1244

> <Gold.Chemscore.DG>
-19.7595

> <Gold.Chemscore.ZeroCoef>
-5.4800

> <Gold.Chemscore.Hbond>
1.8730

> <Gold.Chemscore.Metal>
0.0000

> <Gold.Chemscore.Lipo>
115.2153

> <Gold.Chemscore.Internal_Hbond>
0.0000

> <Gold.Chemscore.DEClash>
0.1703

> <Gold.Chemscore.DEInternal>
3.4649

> <Gold.Chemscore.Rot>
2.1314

> <Gold.Chemscore.Internal.Correction>
   9.000000E+99

> <Gold.Chemscore.Hbonds>
donor molecule, donor type, donor heavy atom, donor atom, acceptor molecule, acceptor atom, score
      P1  H  7989  7998       L1     7  0.44
      P1  H  7997  8010       L1    11  0.43

> <Gold.Chemscore.Hbond.Weighted>
-6.2557

> <Gold.Chemscore.Metal.Weighted>
-0.0000

> <Gold.Chemscore.Lipo.Weighted>
-13.4802

> <Gold.Chemscore.Internal_Hbond.Weighted>
0.0000

> <Gold.Chemscore.DEClash.Weighted>
0.1703

> <Gold.Chemscore.DEInternal.Weighted>
3.4649

> <Gold.Chemscore.Rot.Weighted>
5.4564

> <Gold.Chemscore.Internal.Correction.Weighted>
   9.000000E+99

> <Gold.Protein.RotatedTorsions>
[ 6907 6896 6895 6894 ] final  148.42 input  -60.11 | X-H torsion
[ 7974 7965 7964 7962 ] final -168.83 input  175.53 | X-H torsion
[ 8008 7997 7996 7995 ] final   54.03 input   59.86 | X-H torsion
[ 10167 10162 10161 10158 ] final  175.69 input  -65.29 | X-H torsion
[ 10718 10713 10712 10709 ] final  173.87 input   66.30 | X-H torsion
[ 10763 10752 10751 10750 ] final   23.81 input  -60.55 | X-H torsion
[ 11005 11000 10999 10996 ] final   48.01 input  -57.11 | X-H torsion

> <Gold.Protein.ActiveResidues>
 VAL166  LYS551  ARG553  GLY616  TRP617  ASP618  TYR619  PRO620  LYS621  CYS622 
 ASP623  PHE694  ASN695  SER759  ASP760  ASP761  ALA762  ILE779  LEU786  VAL792 
 PHE793  MET794  SER795  GLU796  ALA797  LYS798  CYS799  TRP800  GLU811  SER814 

> <Gold.Protein.RotatedAtoms>
  152.1417  133.4468  159.4769 H   0  0  0  0  0  0  0  0  0  0  0  0  # atno 6907 bound_to 6896
  150.6887  134.2297  159.4438 H   0  0  0  0  0  0  0  0  0  0  0  0  # atno 6908 bound_to 6896
  152.0188  134.9834  160.0620 H   0  0  0  0  0  0  0  0  0  0  0  0  # atno 6909 bound_to 6896
  144.7196  140.2311  143.6304 H   0  0  0  0  0  0  0  0  0  0  0  0  # atno 7974 bound_to 7965
  155.4780  140.3467  155.4335 H   0  0  0  0  0  0  0  0  0  0  0  0  # atno 8008 bound_to 7997
  156.1058  140.1447  156.9435 H   0  0  0  0  0  0  0  0  0  0  0  0  # atno 8009 bound_to 7997
  154.4723  140.0896  156.7154 H   0  0  0  0  0  0  0  0  0  0  0  0  # atno 8010 bound_to 7997
  139.5186  144.3002  152.0386 H   0  0  0  0  0  0  0  0  0  0  0  0  # atno 10167 bound_to 10162
  156.9579  131.0051  151.2934 H   0  0  0  0  0  0  0  0  0  0  0  0  # atno 10718 bound_to 10713
  153.0811  135.6619  154.0044 H   0  0  0  0  0  0  0  0  0  0  0  0  # atno 10763 bound_to 10752
  153.9666  135.2969  155.3431 H   0  0  0  0  0  0  0  0  0  0  0  0  # atno 10764 bound_to 10752
  154.7210  135.5164  153.8883 H   0  0  0  0  0  0  0  0  0  0  0  0  # atno 10765 bound_to 10752
  140.1228  134.4807  155.8583 H   0  0  0  0  0  0  0  0  0  0  0  0  # atno 11005 bound_to 11000
  145.8409  139.2129  143.1828 LP  0  0  0  0  0  0  0  0  0  0  0  0  # atno 17320 bound_to 7965
  146.0347  140.8224  142.9858 LP  0  0  0  0  0  0  0  0  0  0  0  0  # atno 17321 bound_to 7965
  140.2450  144.4230  150.6245 LP  0  0  0  0  0  0  0  0  0  0  0  0  # atno 17342 bound_to 10162
  140.6265  143.2182  151.6587 LP  0  0  0  0  0  0  0  0  0  0  0  0  # atno 17343 bound_to 10162
  157.5678  130.8289  149.8350 LP  0  0  0  0  0  0  0  0  0  0  0  0  # atno 17370 bound_to 10713
  156.0335  130.3758  150.1624 LP  0  0  0  0  0  0  0  0  0  0  0  0  # atno 17371 bound_to 10713
  141.2155  133.6767  156.6922 LP  0  0  0  0  0  0  0  0  0  0  0  0  # atno 17394 bound_to 11000
  140.2942  134.8216  157.4043 LP  0  0  0  0  0  0  0  0  0  0  0  0  # atno 17395 bound_to 11000

$$$$
