AV-unprocessed.smi:1795|AV-procd|sdf|7238|dock7
  -GOLD-   22720 8483D 1   1.00000     0.00000
 Structure written by MMmdl.
 47 48  0  0  0  0  0  0  0  0  1 V2000
  152.2916  144.1989  160.0398 C   0  0  0  0  0  0  0  0  0  0  0  0
  152.1738  142.6717  160.0794 C   0  0  1  0  0  0  0  0  0  0  0  0
  151.6165  142.0971  158.7633 C   0  0  0  0  0  0  0  0  0  0  0  0
  151.5617  140.6310  158.7551 N   0  0  0  0  0  0  0  0  0  0  0  0
  151.0460  140.0925  157.4745 C   0  0  2  0  0  0  0  0  0  0  0  0
  149.7987  140.8564  156.9612 C   0  0  0  0  0  0  0  0  0  0  0  0
  150.7108  138.5732  157.5319 C   0  0  0  0  0  0  0  0  0  0  0  0
  149.4412  138.2843  158.1933 N   0  0  0  0  0  0  0  0  0  0  0  0
  149.2031  137.2140  158.9664 C   0  0  0  0  0  0  0  0  0  0  0  0
  150.0486  136.3471  159.1941 O   0  0  0  0  0  0  0  0  0  0  0  0
  147.7864  137.1072  159.5489 C   0  0  0  0  0  0  0  0  0  0  0  0
  147.6434  136.0302  160.5430 N   0  0  0  0  0  0  0  0  0  0  0  0
  147.8164  134.7085  160.0855 C   0  0  0  0  0  0  0  0  0  0  0  0
  147.7143  133.6530  160.9086 C   0  0  0  0  0  0  0  0  0  0  0  0
  147.4170  133.8988  162.2998 C   0  0  0  0  0  0  0  0  0  0  0  0
  147.2528  135.1592  162.7487 C   0  0  0  0  0  0  0  0  0  0  0  0
  147.3670  136.3163  161.8530 C   0  0  0  0  0  0  0  0  0  0  0  0
  147.2235  137.4712  162.2554 O   0  0  0  0  0  0  0  0  0  0  0  0
  152.9019  140.1297  159.0805 C   0  0  0  0  0  0  0  0  0  0  0  0
  153.4614  140.7114  160.3928 C   0  0  1  0  0  0  0  0  0  0  0  0
  154.8934  140.2406  160.6691 C   0  0  0  0  0  0  0  0  0  0  0  0
  153.4680  142.1308  160.3111 O   0  0  0  0  0  0  0  0  0  0  0  0
  151.3185  144.6633  159.8776 H   0  0  0  0  0  0  0  0  0  0  0  0
  152.9559  144.5232  159.2383 H   0  0  0  0  0  0  0  0  0  0  0  0
  152.6903  144.5835  160.9788 H   0  0  0  0  0  0  0  0  0  0  0  0
  151.5183  142.3932  160.9065 H   0  0  0  0  0  0  0  0  0  0  0  0
  150.6212  142.5169  158.6286 H   0  0  0  0  0  0  0  0  0  0  0  0
  152.2241  142.4470  157.9271 H   0  0  0  0  0  0  0  0  0  0  0  0
  151.8269  140.2216  156.7238 H   0  0  0  0  0  0  0  0  0  0  0  0
  149.3892  140.4209  156.0505 H   0  0  0  0  0  0  0  0  0  0  0  0
  150.0241  141.8901  156.7032 H   0  0  0  0  0  0  0  0  0  0  0  0
  149.0042  140.8598  157.7079 H   0  0  0  0  0  0  0  0  0  0  0  0
  150.6511  138.1262  156.5407 H   0  0  0  0  0  0  0  0  0  0  0  0
  151.5002  138.0391  158.0617 H   0  0  0  0  0  0  0  0  0  0  0  0
  148.6920  138.9466  158.0521 H   0  0  0  0  0  0  0  0  0  0  0  0
  147.5038  138.0653  159.9894 H   0  0  0  0  0  0  0  0  0  0  0  0
  147.0904  136.9575  158.7226 H   0  0  0  0  0  0  0  0  0  0  0  0
  148.0436  134.6112  159.0337 H   0  0  0  0  0  0  0  0  0  0  0  0
  147.8550  132.6472  160.5412 H   0  0  0  0  0  0  0  0  0  0  0  0
  147.3272  133.0683  162.9844 H   0  0  0  0  0  0  0  0  0  0  0  0
  147.0320  135.3236  163.7932 H   0  0  0  0  0  0  0  0  0  0  0  0
  152.8887  139.0485  159.1996 H   0  0  0  0  0  0  0  0  0  0  0  0
  153.5873  140.3512  158.2607 H   0  0  0  0  0  0  0  0  0  0  0  0
  152.8265  140.4068  161.2267 H   0  0  0  0  0  0  0  0  0  0  0  0
  154.9403  139.1547  160.7547 H   0  0  0  0  0  0  0  0  0  0  0  0
  155.2694  140.6640  161.6009 H   0  0  0  0  0  0  0  0  0  0  0  0
  155.5697  140.5430  159.8690 H   0  0  0  0  0  0  0  0  0  0  0  0
  1  2  1  0  0  0  0
  1 23  1  0  0  0  0
  1 24  1  0  0  0  0
  1 25  1  0  0  0  0
  2 22  1  0  0  0  0
  2  3  1  0  0  0  0
  2 26  1  0  0  0  0
  3  4  1  0  0  0  0
  3 27  1  0  0  0  0
  3 28  1  0  0  0  0
  4  5  1  0  0  0  0
  4 19  1  0  0  0  0
  5  6  1  0  0  0  0
  5  7  1  0  0  0  0
  5 29  1  0  0  0  0
  6 30  1  0  0  0  0
  6 31  1  0  0  0  0
  6 32  1  0  0  0  0
  7  8  1  0  0  0  0
  7 33  1  0  0  0  0
  7 34  1  0  0  0  0
  8  9  1  0  0  0  0
  8 35  1  0  0  0  0
  9 10  2  0  0  0  0
  9 11  1  0  0  0  0
 11 12  1  0  0  0  0
 11 36  1  0  0  0  0
 11 37  1  0  0  0  0
 12 17  1  0  0  0  0
 12 13  1  0  0  0  0
 13 14  2  0  0  0  0
 13 38  1  0  0  0  0
 14 15  1  0  0  0  0
 14 39  1  0  0  0  0
 15 16  2  0  0  0  0
 15 40  1  0  0  0  0
 16 17  1  0  0  0  0
 16 41  1  0  0  0  0
 17 18  2  0  0  0  0
 19 20  1  0  0  0  0
 19 42  1  0  0  0  0
 19 43  1  0  0  0  0
 20 21  1  0  0  0  0
 20 22  1  0  0  0  0
 20 44  1  0  0  0  0
 21 45  1  0  0  0  0
 21 46  1  0  0  0  0
 21 47  1  0  0  0  0
M  END
> <s_m_source_file>
AV-unprocessed.smi

> <i_m_source_file_index>
1795

> <i_lp_mmshare_version>
43012

> <i_f3d_flags>
0

> <s_epik_input>
W0NIM11bQ0BASF0xW0NIMl1OKFtDSDJdW0NASF0oTzEpW0NIM10pW0NASF0oW0NIM10pW0NIMl1bTkhdQyg9TylbQ0gyXW4yW2NIXVtjSF1bY0hdW2NIXWMyPU8=

> <s_epik_cmdline>
J2VwaWtfcHl0aG9uJywgJy1waCcsICc3LjAnLCAnLXRuJywgJzgnLCAnLW1hJywgJzIwMCcsICctbWV0YWxfYmluZGluZycsICctaW1hZScsICc8aW5maWxlLm1hZT4nLCAnLW9tYWUnLCAnPG91dGZpbGUubWFlPic=

> <r_lp_tautomer_probability>
1

> <r_epik_Ionization_Penalty>
0.237383

> <r_epik_Ionization_Penalty_Charging>
3.58805e-07

> <r_epik_Ionization_Penalty_Neutral>
0.237382

> <r_epik_State_Penalty>
0.228245

> <r_epik_Charging_Adjusted_Penalty>
0.228245

> <i_epik_Tot_Q>
0

> <i_epik_Tot_abs_Q>
0

> <r_epik_Metal_State_Penalty>
0.228221

> <b_epik_Metal_Only>
0

> <s_lp_Force_Field>
OPLS_2005

> <r_lp_Energy>
36.5545

> <b_lp_Chiralities_Consistent>
1

> <s_lp_Variant>
AV-unprocessed.smi:1795-2

> <Gold.Version>
5.8.1

> <Gold.Id.Protein>
6NUR|6NUR_protein|mol2

> <Gold.PLP.Fitness>
50.1931

> <Gold.PLP.PLP>
-44.4851

> <Gold.PLP.part.hbond>
-3.0000

> <Gold.PLP.part.metal>
0.0000

> <Gold.PLP.part.buried>
-5.8884

> <Gold.PLP.part.nonpolar>
-35.4119

> <Gold.PLP.part.repulsive>
0.1307

> <Gold.PLP.ligand.clash>
0.0000

> <Gold.PLP.ligand.torsion>
0.5419

> <Gold.PLP.Chemscore.Hbond>
2.2480

> <Gold.PLP.Chemscore.CHOScore>
0.0000

> <Gold.PLP.Chemscore.Metal>
0.0000

> <Gold.Chemscore.Hbonds>
donor molecule, donor type, donor heavy atom, donor atom, acceptor molecule, acceptor atom, score
      P1  H  6896  6907       L1    10  1.00
      P1  H  6931  6943       L1    18  0.69
      P1  H  6934  6947       L1    18  0.59

> <Gold.PLP.Chemscore.Internal.Correction>
0.0478

> <Gold.Rescore>
     Score         DG    S(hbond)    S(metal)    S(lipo)     H(rot)  DE(clash)    DE(int)     intcor
     19.62     -20.39       2.66        0.00      91.27       1.83       0.00       0.76       ----

> <Gold.Chemscore.Fitness>
19.6231

> <Gold.Chemscore.DG>
-20.3870

> <Gold.Chemscore.ZeroCoef>
-5.4800

> <Gold.Chemscore.Hbond>
2.6649

> <Gold.Chemscore.Metal>
0.0000

> <Gold.Chemscore.Lipo>
91.2703

> <Gold.Chemscore.Internal_Hbond>
0.0000

> <Gold.Chemscore.DEClash>
0.0038

> <Gold.Chemscore.DEInternal>
0.7601

> <Gold.Chemscore.Rot>
1.8251

> <Gold.Chemscore.Internal.Correction>
   9.000000E+99

> <Gold.Chemscore.Hbonds>
donor molecule, donor type, donor heavy atom, donor atom, acceptor molecule, acceptor atom, score
      P1  H  6896  6907       L1    10  0.98
      P1  H  6931  6943       L1    18  0.26
      P1  H  6934  6947       L1    18  0.54

> <Gold.Chemscore.Hbond.Weighted>
-8.9007

> <Gold.Chemscore.Metal.Weighted>
-0.0000

> <Gold.Chemscore.Lipo.Weighted>
-10.6786

> <Gold.Chemscore.Internal_Hbond.Weighted>
0.0000

> <Gold.Chemscore.DEClash.Weighted>
0.0038

> <Gold.Chemscore.DEInternal.Weighted>
0.7601

> <Gold.Chemscore.Rot.Weighted>
4.6724

> <Gold.Chemscore.Internal.Correction.Weighted>
   9.000000E+99

> <Gold.Protein.RotatedTorsions>
[ 6907 6896 6895 6894 ] final  -59.01 input  -60.11 | X-H torsion
[ 7974 7965 7964 7962 ] final   -8.73 input  175.53 | X-H torsion
[ 8008 7997 7996 7995 ] final  137.53 input   59.86 | X-H torsion
[ 10167 10162 10161 10158 ] final  -93.00 input  -65.29 | X-H torsion
[ 10718 10713 10712 10709 ] final   34.85 input   66.30 | X-H torsion
[ 10763 10752 10751 10750 ] final  176.93 input  -60.55 | X-H torsion
[ 11005 11000 10999 10996 ] final   31.99 input  -57.11 | X-H torsion

> <Gold.Protein.ActiveResidues>
 VAL166  LYS551  ARG553  GLY616  TRP617  ASP618  TYR619  PRO620  LYS621  CYS622 
 ASP623  PHE694  ASN695  SER759  ASP760  ASP761  ALA762  ILE779  LEU786  VAL792 
 PHE793  MET794  SER795  GLU796  ALA797  LYS798  CYS799  TRP800  GLU811  SER814 

> <Gold.Protein.RotatedAtoms>
  150.7963  134.7025  159.6557 H   0  0  0  0  0  0  0  0  0  0  0  0  # atno 6907 bound_to 6896
  152.4076  134.6177  160.0052 H   0  0  0  0  0  0  0  0  0  0  0  0  # atno 6908 bound_to 6896
  151.6430  133.3288  159.3170 H   0  0  0  0  0  0  0  0  0  0  0  0  # atno 6909 bound_to 6896
  146.2272  140.2511  142.8347 H   0  0  0  0  0  0  0  0  0  0  0  0  # atno 7974 bound_to 7965
  156.3001  140.2417  156.3925 H   0  0  0  0  0  0  0  0  0  0  0  0  # atno 8008 bound_to 7997
  154.8601  140.0420  157.1679 H   0  0  0  0  0  0  0  0  0  0  0  0  # atno 8009 bound_to 7997
  154.8906  140.2962  155.5377 H   0  0  0  0  0  0  0  0  0  0  0  0  # atno 8010 bound_to 7997
  140.3291  143.3005  151.9961 H   0  0  0  0  0  0  0  0  0  0  0  0  # atno 10167 bound_to 10162
  157.3155  130.7421  149.6751 H   0  0  0  0  0  0  0  0  0  0  0  0  # atno 10718 bound_to 10713
  154.4877  135.2777  155.1521 H   0  0  0  0  0  0  0  0  0  0  0  0  # atno 10763 bound_to 10752
  154.3205  135.6210  153.5509 H   0  0  0  0  0  0  0  0  0  0  0  0  # atno 10764 bound_to 10752
  152.9883  135.5741  154.5292 H   0  0  0  0  0  0  0  0  0  0  0  0  # atno 10765 bound_to 10752
  140.2782  134.3004  155.7808 H   0  0  0  0  0  0  0  0  0  0  0  0  # atno 11005 bound_to 11000
  144.9411  140.8079  143.5630 LP  0  0  0  0  0  0  0  0  0  0  0  0  # atno 17320 bound_to 7965
  145.2463  139.2051  143.4966 LP  0  0  0  0  0  0  0  0  0  0  0  0  # atno 17321 bound_to 7965
  139.4859  144.6249  151.7183 LP  0  0  0  0  0  0  0  0  0  0  0  0  # atno 17342 bound_to 10162
  140.5413  144.0574  150.6089 LP  0  0  0  0  0  0  0  0  0  0  0  0  # atno 17343 bound_to 10162
  155.9681  130.4238  150.4582 LP  0  0  0  0  0  0  0  0  0  0  0  0  # atno 17370 bound_to 10713
  157.2588  131.0562  151.2333 LP  0  0  0  0  0  0  0  0  0  0  0  0  # atno 17371 bound_to 10713
  141.2167  133.7508  156.9439 LP  0  0  0  0  0  0  0  0  0  0  0  0  # atno 17394 bound_to 11000
  140.1309  134.9357  157.2335 LP  0  0  0  0  0  0  0  0  0  0  0  0  # atno 17395 bound_to 11000

$$$$
