#       Name:                AV-unprocessed.smi:3140
#       Creating user name   scv26
#       Creation time:       Fri Mar 27 17:35:58 2020


#       File generated by GOLD software.
#

@<TRIPOS>MOLECULE
AV-unprocessed.smi:3140
    41    42     1
SMALL
NO_CHARGES


@<TRIPOS>ATOM
      1 ****        -2.5794  -1.3543  -2.8842 C.3            1 S1                 0.0000
      2 ****        -2.0433  -1.0145  -1.4870 C.3            1 S1                 0.0000
      3 ****        -2.5621  -2.0267  -0.4423 C.3            1 S1                 0.0000
      4 ****        -2.1634  -1.6962   0.9143 N.pl3          1 S1                 0.0000
      5 ****        -2.7685  -0.8289   1.7995 C.2            1 S1                 0.0000
      6 ****        -2.0209  -0.8296   2.9423 C.2            1 S1                 0.0000
      7 ****        -0.9681  -1.7440   2.6587 C.2            1 S1                 0.0000
      8 ****        -1.0564  -2.2613   1.4437 N.2            1 S1                 0.0000
      9 ****        -0.5629  -0.9894  -1.5213 N.4            1 S1                 1.0000
     10 ****         0.0566   0.1418  -0.8003 C.3            1 S1                 0.0000
     11 ****         1.5776  -0.0421  -0.6923 C.3            1 S1                 0.0000
     12 ****         2.1978   1.0524   0.0488 N.am           1 S1                 0.0000
     13 ****         3.0155   2.0441  -0.6292 C.3            1 S1                 0.0000
     14 ****         3.3036   3.1144   0.4339 C.3            1 S1                 0.0000
     15 ****         2.9312   2.4772   1.7771 C.3            1 S1                 0.0000
     16 ****         2.1430   1.2431   1.3726 C.2            1 S1                 0.0000
     17 ****         1.5445   0.5361   2.1821 O.2            1 S1                 0.0000
     18 ****        -3.6696  -1.3457  -2.8989 H              1 S1                 0.0000
     19 ****        -2.2507  -2.3422  -3.2088 H              1 S1                 0.0000
     20 ****        -2.2368  -0.6295  -3.6236 H              1 S1                 0.0000
     21 ****        -2.4124  -0.0195  -1.2320 H              1 S1                 0.0000
     22 ****        -3.6521  -2.0625  -0.4688 H              1 S1                 0.0000
     23 ****        -2.2153  -3.0344  -0.6785 H              1 S1                 0.0000
     24 ****        -3.6665  -0.2855   1.5441 H              1 S1                 0.0000
     25 ****        -2.1981  -0.2629   3.8445 H              1 S1                 0.0000
     26 ****        -0.1464  -2.0421   3.2934 H              1 S1                 0.0000
     27 ****        -0.2241  -1.8558  -1.1268 H              1 S1                 0.0000
     28 ****        -0.1765   1.0692  -1.3255 H              1 S1                 0.0000
     29 ****        -0.3783   0.2254   0.1951 H              1 S1                 0.0000
     30 ****         1.8073  -0.9852  -0.1931 H              1 S1                 0.0000
     31 ****         2.0194  -0.1038  -1.6879 H              1 S1                 0.0000
     32 ****         3.9391   1.5753  -0.9716 H              1 S1                 0.0000
     33 ****         2.5009   2.4618  -1.4954 H              1 S1                 0.0000
     34 ****         4.3447   3.4385   0.4093 H              1 S1                 0.0000
     35 ****         2.6830   3.9941   0.2580 H              1 S1                 0.0000
     36 ****         3.8186   2.1741   2.3338 H              1 S1                 0.0000
     37 ****         2.3359   3.1447   2.4008 H              1 S1                 0.0000
     38 ****        -0.2663  -0.9379  -2.4854 H              1 S1                 0.0000
     39 ****        -0.4415  -2.9223   1.0139 LP             1 S1                 0.0000
     40 ****         1.0382  -0.2664   1.8667 LP             1 S1                 0.0000
     41 ****         1.5643   0.7640   3.1556 LP             1 S1                 0.0000
@<TRIPOS>BOND
    1    1    2 1     
    2    1   18 1     
    3    1   19 1     
    4    1   20 1     
    5    2    3 1     
    6    2    9 1     
    7    2   21 1     
    8    3    4 1     
    9    3   22 1     
   10    3   23 1     
   11    4    8 1     
   12    4    5 1     
   13    5    6 2     
   14    5   24 1     
   15    6    7 1     
   16    6   25 1     
   17    7    8 2     
   18    7   26 1     
   19    9   10 1     
   20    9   27 1     
   21    9   38 1     
   22   10   11 1     
   23   10   28 1     
   24   10   29 1     
   25   11   12 1     
   26   11   30 1     
   27   11   31 1     
   28   12   16 am    
   29   12   13 1     
   30   13   14 1     
   31   13   32 1     
   32   13   33 1     
   33   14   15 1     
   34   14   34 1     
   35   14   35 1     
   36   15   16 1     
   37   15   36 1     
   38   15   37 1     
   39   16   17 2     
   40    8   39 1     
   41   17   40 1     
   42   17   41 1     
@<TRIPOS>SUBSTRUCTURE
      1 S1             1
@<TRIPOS>SET
LONE_PAIRS      STATIC     ATOMS    <user>   **** ""
3 39 40 41
DONOR_HYDROGENS      STATIC     ATOMS    <user>   **** ""
2 27 38
ATOM$BLUE        STATIC     ATOMS    COLORGROUP SYSTEM
3 39 40 41
ATOM$RED        STATIC     ATOMS    COLORGROUP SYSTEM
2 27 38
