AV-unprocessed.smi:2152|AV-procd|sdf|8762|dock5
  -GOLD-   2272011543D 1   1.00000     0.00000
 Structure written by MMmdl.
 41 42  0  0  0  0  0  0  0  0  1 V2000
  151.2841  141.1426  156.7290 C   0  0  0  0  0  0  0  0  0  0  0  0
  151.4029  141.8632  158.0842 C   0  0  2  0  0  0  0  0  0  0  0  0
  151.3985  143.3927  157.8866 C   0  0  0  0  0  0  0  0  0  0  0  0
  151.5101  144.1433  159.2221 C   0  0  0  0  0  0  0  0  0  0  0  0
  152.7623  143.7085  159.9954 C   0  0  0  0  0  0  0  0  0  0  0  0
  152.7735  142.1889  160.2145 C   0  0  0  0  0  0  0  0  0  0  0  0
  152.6544  141.4201  158.8823 C   0  0  1  0  0  0  0  0  0  0  0  0
  152.6044  139.9844  159.1488 N   0  0  0  0  0  0  0  0  0  0  0  0
  153.6645  139.1644  159.2059 C   0  0  0  0  0  0  0  0  0  0  0  0
  154.8267  139.5481  159.0673 O   0  0  0  0  0  0  0  0  0  0  0  0
  153.3583  137.6874  159.4858 C   0  0  0  0  0  0  0  0  0  0  0  0
  153.8112  137.2558  160.8141 N   0  0  0  0  0  0  0  0  0  0  0  0
  153.8806  138.1726  161.8472 C   0  0  0  0  0  0  0  0  0  0  0  0
  154.3020  137.8607  163.0924 C   0  0  0  0  0  0  0  0  0  0  0  0
  154.7145  136.5025  163.4257 C   0  0  0  0  0  0  0  0  0  0  0  0
  155.1213  136.1807  164.5426 O   0  0  0  0  0  0  0  0  0  0  0  0
  154.6205  135.5818  162.3543 N   0  0  0  0  0  0  0  0  0  0  0  0
  155.0232  134.2086  162.5783 C   0  0  0  0  0  0  0  0  0  0  0  0
  154.1944  135.9179  161.0501 C   0  0  0  0  0  0  0  0  0  0  0  0
  154.1598  135.0844  160.1409 O   0  0  0  0  0  0  0  0  0  0  0  0
  152.1555  141.3351  156.1022 H   0  0  0  0  0  0  0  0  0  0  0  0
  150.4023  141.4787  156.1828 H   0  0  0  0  0  0  0  0  0  0  0  0
  151.1954  140.0630  156.8512 H   0  0  0  0  0  0  0  0  0  0  0  0
  150.5189  141.6054  158.6700 H   0  0  0  0  0  0  0  0  0  0  0  0
  152.2269  143.6825  157.2386 H   0  0  0  0  0  0  0  0  0  0  0  0
  150.4862  143.6998  157.3739 H   0  0  0  0  0  0  0  0  0  0  0  0
  151.5390  145.2184  159.0428 H   0  0  0  0  0  0  0  0  0  0  0  0
  150.6214  143.9536  159.8254 H   0  0  0  0  0  0  0  0  0  0  0  0
  153.6557  144.0059  159.4450 H   0  0  0  0  0  0  0  0  0  0  0  0
  152.8039  144.2229  160.9558 H   0  0  0  0  0  0  0  0  0  0  0  0
  153.6901  141.9034  160.7323 H   0  0  0  0  0  0  0  0  0  0  0  0
  151.9489  141.9143  160.8738 H   0  0  0  0  0  0  0  0  0  0  0  0
  153.5339  141.6438  158.2746 H   0  0  0  0  0  0  0  0  0  0  0  0
  151.6886  139.5805  159.2824 H   0  0  0  0  0  0  0  0  0  0  0  0
  152.2814  137.5407  159.3928 H   0  0  0  0  0  0  0  0  0  0  0  0
  153.8091  137.0586  158.7155 H   0  0  0  0  0  0  0  0  0  0  0  0
  153.5900  139.1943  161.6498 H   0  0  0  0  0  0  0  0  0  0  0  0
  154.3375  138.6274  163.8522 H   0  0  0  0  0  0  0  0  0  0  0  0
  154.2879  133.5545  162.1064 H   0  0  0  0  0  0  0  0  0  0  0  0
  155.0485  133.9823  163.6441 H   0  0  0  0  0  0  0  0  0  0  0  0
  156.0103  134.0908  162.1288 H   0  0  0  0  0  0  0  0  0  0  0  0
  1  2  1  0  0  0  0
  1 21  1  0  0  0  0
  1 22  1  0  0  0  0
  1 23  1  0  0  0  0
  2  7  1  0  0  0  0
  2  3  1  0  0  0  0
  2 24  1  0  0  0  0
  3  4  1  0  0  0  0
  3 25  1  0  0  0  0
  3 26  1  0  0  0  0
  4  5  1  0  0  0  0
  4 27  1  0  0  0  0
  4 28  1  0  0  0  0
  5  6  1  0  0  0  0
  5 29  1  0  0  0  0
  5 30  1  0  0  0  0
  6  7  1  0  0  0  0
  6 31  1  0  0  0  0
  6 32  1  0  0  0  0
  7  8  1  0  0  0  0
  7 33  1  0  0  0  0
  8  9  1  0  0  0  0
  8 34  1  0  0  0  0
  9 10  2  0  0  0  0
  9 11  1  0  0  0  0
 11 12  1  0  0  0  0
 11 35  1  0  0  0  0
 11 36  1  0  0  0  0
 12 19  1  0  0  0  0
 12 13  1  0  0  0  0
 13 14  2  0  0  0  0
 13 37  1  0  0  0  0
 14 15  1  0  0  0  0
 14 38  1  0  0  0  0
 15 16  2  0  0  0  0
 15 17  1  0  0  0  0
 17 18  1  0  0  0  0
 17 19  1  0  0  0  0
 18 39  1  0  0  0  0
 18 40  1  0  0  0  0
 18 41  1  0  0  0  0
 19 20  2  0  0  0  0
M  END
> <s_m_source_file>
AV-unprocessed.smi

> <i_m_source_file_index>
2152

> <i_lp_mmshare_version>
43012

> <i_f3d_flags>
0

> <s_epik_input>
W0NIM11bQ0BASF0xW0NIMl1bQ0gyXVtDSDJdW0NIMl1bQ0BIXTFbTkhdQyg9TylbQ0gyXW4yW2NIXVtjSF1jKD1PKW4oW0NIM10pYzI9Tw==

> <s_epik_cmdline>
J2VwaWtfcHl0aG9uJywgJy1waCcsICc3LjAnLCAnLXRuJywgJzgnLCAnLW1hJywgJzIwMCcsICctbWV0YWxfYmluZGluZycsICctaW1hZScsICc8aW5maWxlLm1hZT4nLCAnLW9tYWUnLCAnPG91dGZpbGUubWFlPic=

> <r_lp_tautomer_probability>
1

> <r_epik_Ionization_Penalty>
3.20555e-08

> <r_epik_Ionization_Penalty_Charging>
1.30086e-08

> <r_epik_Ionization_Penalty_Neutral>
1.90469e-08

> <r_epik_State_Penalty>
-0

> <r_epik_Charging_Adjusted_Penalty>
1.30086e-08

> <i_epik_Tot_Q>
0

> <i_epik_Tot_abs_Q>
0

> <r_epik_Metal_State_Penalty>
-0

> <b_epik_Metal_Only>
0

> <s_lp_Force_Field>
OPLS_2005

> <r_lp_Energy>
17.5308

> <b_lp_Chiralities_Consistent>
1

> <s_lp_Variant>
AV-unprocessed.smi:2152-1

> <Gold.Version>
5.8.1

> <Gold.Id.Protein>
6NUR|6NUR_protein|mol2

> <Gold.PLP.Fitness>
41.7110

> <Gold.PLP.PLP>
-37.3309

> <Gold.PLP.part.hbond>
-2.0000

> <Gold.PLP.part.metal>
0.0000

> <Gold.PLP.part.buried>
-4.7243

> <Gold.PLP.part.nonpolar>
-30.8557

> <Gold.PLP.part.repulsive>
0.2040

> <Gold.PLP.ligand.clash>
0.0000

> <Gold.PLP.ligand.torsion>
0.8142

> <Gold.PLP.Chemscore.Hbond>
2.0000

> <Gold.PLP.Chemscore.CHOScore>
0.0000

> <Gold.PLP.Chemscore.Metal>
0.0000

> <Gold.Chemscore.Hbonds>
donor molecule, donor type, donor heavy atom, donor atom, acceptor molecule, acceptor atom, score
      P1  H  6896  6907       L1    20  1.00
      P1  H  7997  8009       L1    10  1.00

> <Gold.PLP.Chemscore.Internal.Correction>
0.0085

> <Gold.Rescore>
     Score         DG    S(hbond)    S(metal)    S(lipo)     H(rot)  DE(clash)    DE(int)     intcor
     18.64     -19.47       1.94        0.00      97.59       1.52       0.04       0.79       ----

> <Gold.Chemscore.Fitness>
18.6445

> <Gold.Chemscore.DG>
-19.4725

> <Gold.Chemscore.ZeroCoef>
-5.4800

> <Gold.Chemscore.Hbond>
1.9389

> <Gold.Chemscore.Metal>
0.0000

> <Gold.Chemscore.Lipo>
97.5942

> <Gold.Chemscore.Internal_Hbond>
0.0000

> <Gold.Chemscore.DEClash>
0.0351

> <Gold.Chemscore.DEInternal>
0.7929

> <Gold.Chemscore.Rot>
1.5242

> <Gold.Chemscore.Internal.Correction>
   9.000000E+99

> <Gold.Chemscore.Hbonds>
donor molecule, donor type, donor heavy atom, donor atom, acceptor molecule, acceptor atom, score
      P1  H  6896  6907       L1    20  0.45
      P1  H  7997  8009       L1    10  0.93

> <Gold.Chemscore.Hbond.Weighted>
-6.4758

> <Gold.Chemscore.Metal.Weighted>
-0.0000

> <Gold.Chemscore.Lipo.Weighted>
-11.4185

> <Gold.Chemscore.Internal_Hbond.Weighted>
0.0000

> <Gold.Chemscore.DEClash.Weighted>
0.0351

> <Gold.Chemscore.DEInternal.Weighted>
0.7929

> <Gold.Chemscore.Rot.Weighted>
3.9019

> <Gold.Chemscore.Internal.Correction.Weighted>
   9.000000E+99

> <Gold.Protein.RotatedTorsions>
[ 6907 6896 6895 6894 ] final   59.21 input  -60.11 | X-H torsion
[ 7974 7965 7964 7962 ] final -151.97 input  175.53 | X-H torsion
[ 8008 7997 7996 7995 ] final  100.30 input   59.86 | X-H torsion
[ 10167 10162 10161 10158 ] final   14.06 input  -65.29 | X-H torsion
[ 10718 10713 10712 10709 ] final   25.21 input   66.30 | X-H torsion
[ 10763 10752 10751 10750 ] final  119.96 input  -60.55 | X-H torsion
[ 11005 11000 10999 10996 ] final -126.36 input  -57.11 | X-H torsion

> <Gold.Protein.ActiveResidues>
 VAL166  LYS551  ARG553  GLY616  TRP617  ASP618  TYR619  PRO620  LYS621  CYS622 
 ASP623  PHE694  ASN695  SER759  ASP760  ASP761  ALA762  ILE779  LEU786  VAL792 
 PHE793  MET794  SER795  GLU796  ALA797  LYS798  CYS799  TRP800  GLU811  SER814 

> <Gold.Protein.RotatedAtoms>
  152.3894  134.6465  160.0112 H   0  0  0  0  0  0  0  0  0  0  0  0  # atno 6907 bound_to 6896
  151.6703  133.3308  159.3203 H   0  0  0  0  0  0  0  0  0  0  0  0  # atno 6908 bound_to 6896
  150.7813  134.6804  159.6486 H   0  0  0  0  0  0  0  0  0  0  0  0  # atno 6909 bound_to 6896
  144.7820  140.4725  143.5833 H   0  0  0  0  0  0  0  0  0  0  0  0  # atno 7974 bound_to 7965
  156.1190  140.3215  155.8181 H   0  0  0  0  0  0  0  0  0  0  0  0  # atno 8008 bound_to 7997
  155.4538  140.0534  157.3015 H   0  0  0  0  0  0  0  0  0  0  0  0  # atno 8009 bound_to 7997
  154.4813  140.2054  155.9770 H   0  0  0  0  0  0  0  0  0  0  0  0  # atno 8010 bound_to 7997
  140.5961  143.8698  150.6919 H   0  0  0  0  0  0  0  0  0  0  0  0  # atno 10167 bound_to 10162
  157.1903  130.6843  149.6147 H   0  0  0  0  0  0  0  0  0  0  0  0  # atno 10718 bound_to 10713
  153.5911  135.3465  155.2911 H   0  0  0  0  0  0  0  0  0  0  0  0  # atno 10763 bound_to 10752
  154.8652  135.4205  154.2515 H   0  0  0  0  0  0  0  0  0  0  0  0  # atno 10764 bound_to 10752
  153.3322  135.7045  153.7008 H   0  0  0  0  0  0  0  0  0  0  0  0  # atno 10765 bound_to 10752
  140.9687  134.0835  157.3892 H   0  0  0  0  0  0  0  0  0  0  0  0  # atno 11005 bound_to 11000
  145.6025  139.1505  143.3121 LP  0  0  0  0  0  0  0  0  0  0  0  0  # atno 17320 bound_to 7965
  146.2033  140.6145  142.9092 LP  0  0  0  0  0  0  0  0  0  0  0  0  # atno 17321 bound_to 7965
  140.2233  143.3792  152.1625 LP  0  0  0  0  0  0  0  0  0  0  0  0  # atno 17342 bound_to 10162
  139.5259  144.7101  151.5231 LP  0  0  0  0  0  0  0  0  0  0  0  0  # atno 17343 bound_to 10162
  155.9712  130.4617  150.6118 LP  0  0  0  0  0  0  0  0  0  0  0  0  # atno 17370 bound_to 10713
  157.3867  131.0789  151.1429 LP  0  0  0  0  0  0  0  0  0  0  0  0  # atno 17371 bound_to 10713
  139.8904  135.0112  156.6735 LP  0  0  0  0  0  0  0  0  0  0  0  0  # atno 17394 bound_to 11000
  140.7360  133.9018  155.8244 LP  0  0  0  0  0  0  0  0  0  0  0  0  # atno 17395 bound_to 11000

$$$$
