AV-unprocessed.smi:2032|AV-procd|sdf|8257|dock9
  -GOLD-   2272010533D 1   1.00000     0.00000
 Structure written by MMmdl.
 42 43  0  0  0  0  0  0  0  0  3 V2000
  153.2925  141.0053  161.4693 C   0  0  0  0  0  0  0  0  0  0  0  0
  152.3142  141.4956  160.3958 C   0  0  2  0  0  0  0  0  0  0  0  0
  151.9511  140.3860  159.3922 C   0  0  0  0  0  0  0  0  0  0  0  0
  151.0601  140.8910  158.3099 N   0  3  2  0  0  0  0  0  0  0  0  0
  150.6642  139.8324  157.3206 C   0  0  1  0  0  0  0  0  0  0  0  0
  151.7874  139.5743  156.2850 C   0  0  0  0  0  0  0  0  0  0  0  0
  150.2569  138.5032  158.0096 C   0  0  0  0  0  0  0  0  0  0  0  0
  149.0447  138.6437  158.8080 N   0  0  0  0  0  0  0  0  0  0  0  0
  148.2633  137.6341  159.2114 C   0  0  0  0  0  0  0  0  0  0  0  0
  148.5531  136.4747  158.9076 O   0  0  0  0  0  0  0  0  0  0  0  0
  147.1983  138.0326  159.9424 N   0  5  0  0  0  0  0  0  0  0  0  0
  146.4277  137.1223  160.5597 C   0  0  0  0  0  0  0  0  0  0  0  0
  146.3287  135.8530  160.1489 N   0  0  0  0  0  0  0  0  0  0  0  0
  145.4657  135.0824  160.9303 C   0  0  0  0  0  0  0  0  0  0  0  0
  144.8876  135.7837  161.9548 C   0  0  0  0  0  0  0  0  0  0  0  0
  145.4127  137.4429  161.9689 S   0  0  0  0  0  0  0  0  0  0  0  0
  151.6670  142.1037  157.6919 C   0  0  0  0  0  0  0  0  0  0  0  0
  152.0480  143.1552  158.7510 C   0  0  2  0  0  0  0  0  0  0  0  0
  152.7557  144.3667  158.1333 C   0  0  0  0  0  0  0  0  0  0  0  0
  152.9276  142.5696  159.6991 O   0  0  0  0  0  0  0  0  0  0  0  0
  152.8659  140.1833  162.0446 H   0  0  0  0  0  0  0  0  0  0  0  0
  153.5378  141.8057  162.1677 H   0  0  0  0  0  0  0  0  0  0  0  0
  154.2245  140.6548  161.0250 H   0  0  0  0  0  0  0  0  0  0  0  0
  151.4103  141.8541  160.8919 H   0  0  0  0  0  0  0  0  0  0  0  0
  152.8563  139.9670  158.9494 H   0  0  0  0  0  0  0  0  0  0  0  0
  151.4678  139.5897  159.9548 H   0  0  0  0  0  0  0  0  0  0  0  0
  149.7913  140.2014  156.7793 H   0  0  0  0  0  0  0  0  0  0  0  0
  151.5470  138.7537  155.6098 H   0  0  0  0  0  0  0  0  0  0  0  0
  152.7279  139.3247  156.7770 H   0  0  0  0  0  0  0  0  0  0  0  0
  151.9589  140.4314  155.6358 H   0  0  0  0  0  0  0  0  0  0  0  0
  150.1157  137.7213  157.2613 H   0  0  0  0  0  0  0  0  0  0  0  0
  151.0247  138.1604  158.7020 H   0  0  0  0  0  0  0  0  0  0  0  0
  148.7733  139.5779  159.0775 H   0  0  0  0  0  0  0  0  0  0  0  0
  145.3201  134.0413  160.6829 H   0  0  0  0  0  0  0  0  0  0  0  0
  144.1882  135.4295  162.6969 H   0  0  0  0  0  0  0  0  0  0  0  0
  152.5447  141.8143  157.1115 H   0  0  0  0  0  0  0  0  0  0  0  0
  150.9676  142.5836  157.0100 H   0  0  0  0  0  0  0  0  0  0  0  0
  151.1484  143.5051  159.2608 H   0  0  0  0  0  0  0  0  0  0  0  0
  152.1175  144.8652  157.4032 H   0  0  0  0  0  0  0  0  0  0  0  0
  153.6755  144.0719  157.6276 H   0  0  0  0  0  0  0  0  0  0  0  0
  153.0170  145.0977  158.8990 H   0  0  0  0  0  0  0  0  0  0  0  0
  150.2076  141.1968  158.7571 H   0  0  0  0  0  0  0  0  0  0  0  0
  1  2  1  0  0  0  0
  1 21  1  0  0  0  0
  1 22  1  0  0  0  0
  1 23  1  0  0  0  0
  2 20  1  0  0  0  0
  2  3  1  0  0  0  0
  2 24  1  0  0  0  0
  3  4  1  0  0  0  0
  3 25  1  0  0  0  0
  3 26  1  0  0  0  0
  4  5  1  0  0  0  0
  4 17  1  0  0  0  0
  4 42  1  0  0  0  0
  5  6  1  0  0  0  0
  5  7  1  0  0  0  0
  5 27  1  0  0  0  0
  6 28  1  0  0  0  0
  6 29  1  0  0  0  0
  6 30  1  0  0  0  0
  7  8  1  0  0  0  0
  7 31  1  0  0  0  0
  7 32  1  0  0  0  0
  8  9  1  0  0  0  0
  8 33  1  0  0  0  0
  9 10  2  0  0  0  0
  9 11  1  0  0  0  0
 11 12  1  0  0  0  0
 12 16  1  0  0  0  0
 12 13  2  0  0  0  0
 13 14  1  0  0  0  0
 14 15  2  0  0  0  0
 14 34  1  0  0  0  0
 15 16  1  0  0  0  0
 15 35  1  0  0  0  0
 17 18  1  0  0  0  0
 17 36  1  0  0  0  0
 17 37  1  0  0  0  0
 18 19  1  0  0  0  0
 18 20  1  0  0  0  0
 18 38  1  0  0  0  0
 19 39  1  0  0  0  0
 19 40  1  0  0  0  0
 19 41  1  0  0  0  0
M  CHG  1   4   1
M  CHG  1  11  -1
M  END
> <s_m_source_file>
AV-unprocessed.smi

> <i_m_source_file_index>
2032

> <i_lp_mmshare_version>
43012

> <i_f3d_flags>
0

> <s_epik_input>
W0NIM11bQ0BASF0xW0NIMl1OKFtDSDJdW0NASF0oTzEpW0NIM10pW0NASF0oW0NIM10pW0NIMl1bTkhdQyg9TylbTkhdYzJuW2NIXVtjSF1zMg==

> <s_epik_cmdline>
J2VwaWtfcHl0aG9uJywgJy1waCcsICc3LjAnLCAnLXRuJywgJzgnLCAnLW1hJywgJzIwMCcsICctbWV0YWxfYmluZGluZycsICctaW1hZScsICc8aW5maWxlLm1hZT4nLCAnLW9tYWUnLCAnPG91dGZpbGUubWFlPic=

> <r_lp_tautomer_probability>
0.999

> <r_epik_Ionization_Penalty>
6.71699

> <r_epik_Ionization_Penalty_Charging>
5.88592

> <r_epik_Ionization_Penalty_Neutral>
0.831074

> <r_epik_State_Penalty>
6.08365

> <r_epik_Charging_Adjusted_Penalty>
11.9696

> <i_epik_Tot_Q>
0

> <i_epik_Tot_abs_Q>
2

> <r_epik_Metal_State_Penalty>
2.0947

> <b_epik_Metal_Only>
1

> <s_lp_Force_Field>
OPLS_2005

> <r_lp_Energy>
10.3148

> <b_lp_Chiralities_Consistent>
1

> <s_lp_Variant>
AV-unprocessed.smi:2032-27

> <Gold.Version>
5.8.1

> <Gold.Id.Protein>
6NUR|6NUR_protein|mol2

> <Gold.PLP.Fitness>
51.2513

> <Gold.PLP.PLP>
-43.2549

> <Gold.PLP.part.hbond>
-3.0000

> <Gold.PLP.part.metal>
0.0000

> <Gold.PLP.part.buried>
-6.5313

> <Gold.PLP.part.nonpolar>
-34.9024

> <Gold.PLP.part.repulsive>
0.3439

> <Gold.PLP.ligand.clash>
0.0000

> <Gold.PLP.ligand.torsion>
0.5295

> <Gold.PLP.Chemscore.Hbond>
2.9882

> <Gold.PLP.Chemscore.CHOScore>
0.0000

> <Gold.PLP.Chemscore.Metal>
0.0000

> <Gold.Chemscore.Hbonds>
donor molecule, donor type, donor heavy atom, donor atom, acceptor molecule, acceptor atom, score
      P1  H  6934  6947       L1    11  1.01

> <Gold.PLP.Chemscore.Internal.Correction>
0.0909

> <Gold.Rescore>
     Score         DG    S(hbond)    S(metal)    S(lipo)     H(rot)  DE(clash)    DE(int)     intcor
     15.67     -18.10       1.65        0.00      95.26       1.58       0.00       2.43       ----

> <Gold.Chemscore.Fitness>
15.6710

> <Gold.Chemscore.DG>
-18.1039

> <Gold.Chemscore.ZeroCoef>
-5.4800

> <Gold.Chemscore.Hbond>
1.6529

> <Gold.Chemscore.Metal>
0.0000

> <Gold.Chemscore.Lipo>
95.2629

> <Gold.Chemscore.Internal_Hbond>
0.0000

> <Gold.Chemscore.DEClash>
0.0048

> <Gold.Chemscore.DEInternal>
2.4281

> <Gold.Chemscore.Rot>
1.5791

> <Gold.Chemscore.Internal.Correction>
   9.000000E+99

> <Gold.Chemscore.Hbonds>
donor molecule, donor type, donor heavy atom, donor atom, acceptor molecule, acceptor atom, score
      P1  H  6934  6947       L1    11  0.13

> <Gold.Chemscore.Hbond.Weighted>
-5.5207

> <Gold.Chemscore.Metal.Weighted>
-0.0000

> <Gold.Chemscore.Lipo.Weighted>
-11.1458

> <Gold.Chemscore.Internal_Hbond.Weighted>
0.0000

> <Gold.Chemscore.DEClash.Weighted>
0.0048

> <Gold.Chemscore.DEInternal.Weighted>
2.4281

> <Gold.Chemscore.Rot.Weighted>
4.0425

> <Gold.Chemscore.Internal.Correction.Weighted>
   9.000000E+99

> <Gold.Protein.RotatedTorsions>
[ 6907 6896 6895 6894 ] final  -51.54 input  -60.11 | X-H torsion
[ 7974 7965 7964 7962 ] final  121.76 input  175.53 | X-H torsion
[ 8008 7997 7996 7995 ] final -172.62 input   59.86 | X-H torsion
[ 10167 10162 10161 10158 ] final  -42.76 input  -65.29 | X-H torsion
[ 10718 10713 10712 10709 ] final   -5.77 input   66.30 | X-H torsion
[ 10763 10752 10751 10750 ] final  -71.31 input  -60.55 | X-H torsion
[ 11005 11000 10999 10996 ] final  -96.25 input  -57.11 | X-H torsion

> <Gold.Protein.ActiveResidues>
 VAL166  LYS551  ARG553  GLY616  TRP617  ASP618  TYR619  PRO620  LYS621  CYS622 
 ASP623  PHE694  ASN695  SER759  ASP760  ASP761  ALA762  ILE779  LEU786  VAL792 
 PHE793  MET794  SER795  GLU796  ALA797  LYS798  CYS799  TRP800  GLU811  SER814 

> <Gold.Protein.RotatedAtoms>
  150.8602  134.7952  159.7076 H   0  0  0  0  0  0  0  0  0  0  0  0  # atno 6907 bound_to 6896
  152.4641  134.5112  159.9764 H   0  0  0  0  0  0  0  0  0  0  0  0  # atno 6908 bound_to 6896
  151.5218  133.3427  159.2938 H   0  0  0  0  0  0  0  0  0  0  0  0  # atno 6909 bound_to 6896
  145.1156  139.3423  143.4741 H   0  0  0  0  0  0  0  0  0  0  0  0  # atno 7974 bound_to 7965
  155.9469  140.1119  157.1009 H   0  0  0  0  0  0  0  0  0  0  0  0  # atno 8008 bound_to 7997
  154.4101  140.1208  156.5067 H   0  0  0  0  0  0  0  0  0  0  0  0  # atno 8009 bound_to 7997
  155.6892  140.3472  155.4889 H   0  0  0  0  0  0  0  0  0  0  0  0  # atno 8010 bound_to 7997
  140.6958  143.3020  151.3255 H   0  0  0  0  0  0  0  0  0  0  0  0  # atno 10167 bound_to 10162
  156.7416  130.5211  149.5823 H   0  0  0  0  0  0  0  0  0  0  0  0  # atno 10718 bound_to 10713
  154.4300  135.5966  153.6063 H   0  0  0  0  0  0  0  0  0  0  0  0  # atno 10763 bound_to 10752
  152.9798  135.5973  154.3851 H   0  0  0  0  0  0  0  0  0  0  0  0  # atno 10764 bound_to 10752
  154.3687  135.2841  155.2257 H   0  0  0  0  0  0  0  0  0  0  0  0  # atno 10765 bound_to 10752
  141.1417  133.8084  157.0546 H   0  0  0  0  0  0  0  0  0  0  0  0  # atno 11005 bound_to 11000
  146.3524  140.1093  142.8604 LP  0  0  0  0  0  0  0  0  0  0  0  0  # atno 17320 bound_to 7965
  145.0798  140.9213  143.4832 LP  0  0  0  0  0  0  0  0  0  0  0  0  # atno 17321 bound_to 7965
  139.6411  144.0537  152.2555 LP  0  0  0  0  0  0  0  0  0  0  0  0  # atno 17342 bound_to 10162
  140.0043  144.6270  150.7702 LP  0  0  0  0  0  0  0  0  0  0  0  0  # atno 17343 bound_to 10162
  156.1461  130.6278  151.0532 LP  0  0  0  0  0  0  0  0  0  0  0  0  # atno 17370 bound_to 10713
  157.6816  131.0836  150.7355 LP  0  0  0  0  0  0  0  0  0  0  0  0  # atno 17371 bound_to 10713
  140.0610  134.9754  157.1305 LP  0  0  0  0  0  0  0  0  0  0  0  0  # atno 17394 bound_to 11000
  140.3848  134.2248  155.7169 LP  0  0  0  0  0  0  0  0  0  0  0  0  # atno 17395 bound_to 11000

$$$$
