AV-unprocessed.smi:3324|AV-procd|sdf|12781|dock2
  -GOLD-   2272019123D 1   1.00000     0.00000
 Structure written by MMmdl.
 31 31  0  0  0  0  0  0  0  0  2 V2000
  146.4625  139.9619  153.8295 O   0  0  0  0  0  0  0  0  0  0  0  0
  147.0018  138.9790  153.3198 C   0  0  0  0  0  0  0  0  0  0  0  0
  146.1621  137.8415  152.7345 C   0  0  0  0  0  0  0  0  0  0  0  0
  146.6498  137.4074  151.4090 N   0  3  0  0  0  0  0  0  0  0  0  0
  145.7983  136.3951  150.7559 C   0  0  0  0  0  0  0  0  0  0  0  0
  145.7550  135.0987  151.5777 C   0  0  0  0  0  0  0  0  0  0  0  0
  145.5513  133.9354  150.7362 N   0  0  0  0  0  0  0  0  0  0  0  0
  144.4254  133.5741  150.0264 C   0  0  0  0  0  0  0  0  0  0  0  0
  144.7080  132.4006  149.3879 C   0  0  0  0  0  0  0  0  0  0  0  0
  146.0476  132.1182  149.7755 C   0  0  0  0  0  0  0  0  0  0  0  0
  146.5496  133.0391  150.5829 N   0  0  0  0  0  0  0  0  0  0  0  0
  148.3321  138.8293  153.2376 N   0  0  0  0  0  0  0  0  0  0  0  0
  149.3187  139.7765  153.7487 C   0  0  0  0  0  0  0  0  0  0  0  0
  150.3053  139.1107  154.7231 C   0  0  0  0  0  0  0  0  0  0  0  0
  149.6207  138.5050  155.6922 F   0  0  0  0  0  0  0  0  0  0  0  0
  151.0521  138.2013  154.0966 F   0  0  0  0  0  0  0  0  0  0  0  0
  151.1010  140.0294  155.2710 F   0  0  0  0  0  0  0  0  0  0  0  0
  146.1805  136.9957  153.4231 H   0  0  0  0  0  0  0  0  0  0  0  0
  145.1261  138.1726  152.6481 H   0  0  0  0  0  0  0  0  0  0  0  0
  146.7042  138.2188  150.8096 H   0  0  0  0  0  0  0  0  0  0  0  0
  144.7904  136.7946  150.6358 H   0  0  0  0  0  0  0  0  0  0  0  0
  146.1880  136.1951  149.7567 H   0  0  0  0  0  0  0  0  0  0  0  0
  146.6849  134.9650  152.1327 H   0  0  0  0  0  0  0  0  0  0  0  0
  144.9499  135.1407  152.3128 H   0  0  0  0  0  0  0  0  0  0  0  0
  143.5273  134.1743  150.0335 H   0  0  0  0  0  0  0  0  0  0  0  0
  144.0567  131.8293  148.7429 H   0  0  0  0  0  0  0  0  0  0  0  0
  146.6661  131.2777  149.4965 H   0  0  0  0  0  0  0  0  0  0  0  0
  148.6927  137.9912  152.8046 H   0  0  0  0  0  0  0  0  0  0  0  0
  149.8646  140.1812  152.8959 H   0  0  0  0  0  0  0  0  0  0  0  0
  148.8262  140.6253  154.2264 H   0  0  0  0  0  0  0  0  0  0  0  0
  147.5799  137.0294  151.5200 H   0  0  0  0  0  0  0  0  0  0  0  0
  1  2  2  0  0  0  0
  2  3  1  0  0  0  0
  2 12  1  0  0  0  0
  3  4  1  0  0  0  0
  3 18  1  0  0  0  0
  3 19  1  0  0  0  0
  4  5  1  0  0  0  0
  4 20  1  0  0  0  0
  4 31  1  0  0  0  0
  5  6  1  0  0  0  0
  5 21  1  0  0  0  0
  5 22  1  0  0  0  0
  6  7  1  0  0  0  0
  6 23  1  0  0  0  0
  6 24  1  0  0  0  0
  7 11  1  0  0  0  0
  7  8  1  0  0  0  0
  8  9  2  0  0  0  0
  8 25  1  0  0  0  0
  9 10  1  0  0  0  0
  9 26  1  0  0  0  0
 10 11  2  0  0  0  0
 10 27  1  0  0  0  0
 12 13  1  0  0  0  0
 12 28  1  0  0  0  0
 13 14  1  0  0  0  0
 13 29  1  0  0  0  0
 13 30  1  0  0  0  0
 14 15  1  0  0  0  0
 14 16  1  0  0  0  0
 14 17  1  0  0  0  0
M  CHG  1   4   1
M  END
> <s_m_source_file>
AV-unprocessed.smi

> <i_m_source_file_index>
3324

> <i_lp_mmshare_version>
43012

> <i_f3d_flags>
0

> <s_epik_input>
RkMoRikoRilbQ0gyXVtOSF1DKD1PKVtDSDJdW05IXVtDSDJdW0NIMl1uMVtjSF1bY0hdW2NIXW4x

> <s_epik_cmdline>
J2VwaWtfcHl0aG9uJywgJy1waCcsICc3LjAnLCAnLXRuJywgJzgnLCAnLW1hJywgJzIwMCcsICctbWV0YWxfYmluZGluZycsICctaW1hZScsICc8aW5maWxlLm1hZT4nLCAnLW9tYWUnLCAnPG91dGZpbGUubWFlPic=

> <r_lp_tautomer_probability>
1

> <r_epik_Ionization_Penalty>
0.310414

> <r_epik_Ionization_Penalty_Charging>
0.310394

> <r_epik_Ionization_Penalty_Neutral>
2.02819e-05

> <r_epik_State_Penalty>
0.304907

> <r_epik_Charging_Adjusted_Penalty>
0.6153

> <i_epik_Tot_Q>
1

> <i_epik_Tot_abs_Q>
1

> <r_epik_Metal_State_Penalty>
0.315528

> <b_epik_Metal_Only>
0

> <s_lp_Force_Field>
OPLS_2005

> <r_lp_Energy>
1.82642

> <b_lp_Chiralities_Consistent>
1

> <s_lp_Variant>
AV-unprocessed.smi:3324-1

> <Gold.Version>
5.8.1

> <Gold.Id.Protein>
6NUR|6NUR_protein|mol2

> <Gold.PLP.Fitness>
46.6504

> <Gold.PLP.PLP>
-32.7846

> <Gold.PLP.part.hbond>
-3.0000

> <Gold.PLP.part.metal>
0.0000

> <Gold.PLP.part.buried>
0.1737

> <Gold.PLP.part.nonpolar>
-29.9957

> <Gold.PLP.part.repulsive>
0.5177

> <Gold.PLP.ligand.clash>
0.0000

> <Gold.PLP.ligand.torsion>
0.4728

> <Gold.PLP.Chemscore.Hbond>
3.0000

> <Gold.PLP.Chemscore.CHOScore>
1.9078

> <Gold.PLP.Chemscore.Metal>
0.0000

> <Gold.Chemscore.Hbonds>
donor molecule, donor type, donor heavy atom, donor atom, acceptor molecule, acceptor atom, score
      L1  H     4    31       P1  7948  2.00
      L1  H    12    28       P1  7948  1.00
      L1  C     8    25       P1 10186  0.89
      L1  C    10    27       P1 10747  0.94

> <Gold.PLP.Chemscore.Internal.Correction>
0.0880

> <Gold.Rescore>
     Score         DG    S(hbond)    S(metal)    S(lipo)     H(rot)  DE(clash)    DE(int)     intcor
     11.39     -11.94       1.97        0.00      62.58       2.91       0.18       0.36       ----

> <Gold.Chemscore.Fitness>
11.3919

> <Gold.Chemscore.DG>
-11.9351

> <Gold.Chemscore.ZeroCoef>
-5.4800

> <Gold.Chemscore.Hbond>
1.9701

> <Gold.Chemscore.Metal>
0.0000

> <Gold.Chemscore.Lipo>
62.5843

> <Gold.Chemscore.Internal_Hbond>
0.0000

> <Gold.Chemscore.DEClash>
0.1792

> <Gold.Chemscore.DEInternal>
0.3640

> <Gold.Chemscore.Rot>
2.9091

> <Gold.Chemscore.Internal.Correction>
   9.000000E+99

> <Gold.Chemscore.Hbonds>
donor molecule, donor type, donor heavy atom, donor atom, acceptor molecule, acceptor atom, score
      L1  H     4    31       P1  7948  0.98
      L1  H    12    28       P1  7948  0.97

> <Gold.Chemscore.Hbond.Weighted>
-6.5800

> <Gold.Chemscore.Metal.Weighted>
-0.0000

> <Gold.Chemscore.Lipo.Weighted>
-7.3224

> <Gold.Chemscore.Internal_Hbond.Weighted>
0.0000

> <Gold.Chemscore.DEClash.Weighted>
0.1792

> <Gold.Chemscore.DEInternal.Weighted>
0.3640

> <Gold.Chemscore.Rot.Weighted>
7.4472

> <Gold.Chemscore.Internal.Correction.Weighted>
   9.000000E+99

> <Gold.Protein.RotatedTorsions>
[ 6907 6896 6895 6894 ] final    8.95 input  -60.11 | X-H torsion
[ 7974 7965 7964 7962 ] final  172.20 input  175.53 | X-H torsion
[ 8008 7997 7996 7995 ] final  -40.56 input   59.86 | X-H torsion
[ 10167 10162 10161 10158 ] final   32.73 input  -65.29 | X-H torsion
[ 10718 10713 10712 10709 ] final  151.76 input   66.30 | X-H torsion
[ 10763 10752 10751 10750 ] final  -67.03 input  -60.55 | X-H torsion
[ 11005 11000 10999 10996 ] final  175.71 input  -57.11 | X-H torsion

> <Gold.Protein.ActiveResidues>
 VAL166  LYS551  ARG553  GLY616  TRP617  ASP618  TYR619  PRO620  LYS621  CYS622 
 ASP623  PHE694  ASN695  SER759  ASP760  ASP761  ALA762  ILE779  LEU786  VAL792 
 PHE793  MET794  SER795  GLU796  ALA797  LYS798  CYS799  TRP800  GLU811  SER814 

> <Gold.Protein.RotatedAtoms>
  151.7143  135.0906  160.0272 H   0  0  0  0  0  0  0  0  0  0  0  0  # atno 6907 bound_to 6896
  152.3642  133.6331  159.6046 H   0  0  0  0  0  0  0  0  0  0  0  0  # atno 6908 bound_to 6896
  150.7626  133.9291  159.3463 H   0  0  0  0  0  0  0  0  0  0  0  0  # atno 6909 bound_to 6896
  144.7274  139.9463  143.6430 H   0  0  0  0  0  0  0  0  0  0  0  0  # atno 7974 bound_to 7965
  154.4011  140.1522  156.3047 H   0  0  0  0  0  0  0  0  0  0  0  0  # atno 8008 bound_to 7997
  155.8669  140.3450  155.5773 H   0  0  0  0  0  0  0  0  0  0  0  0  # atno 8009 bound_to 7997
  155.7818  140.0844  157.2046 H   0  0  0  0  0  0  0  0  0  0  0  0  # atno 8010 bound_to 7997
  140.4472  144.1101  150.6184 H   0  0  0  0  0  0  0  0  0  0  0  0  # atno 10167 bound_to 10162
  157.2665  131.0808  151.1629 H   0  0  0  0  0  0  0  0  0  0  0  0  # atno 10718 bound_to 10713
  154.3686  135.6100  153.5728 H   0  0  0  0  0  0  0  0  0  0  0  0  # atno 10763 bound_to 10752
  152.9791  135.5832  154.4549 H   0  0  0  0  0  0  0  0  0  0  0  0  # atno 10764 bound_to 10752
  154.4299  135.2847  155.1897 H   0  0  0  0  0  0  0  0  0  0  0  0  # atno 10765 bound_to 10752
  140.3652  134.7078  157.4357 H   0  0  0  0  0  0  0  0  0  0  0  0  # atno 11005 bound_to 11000
  146.0746  139.3734  143.0502 LP  0  0  0  0  0  0  0  0  0  0  0  0  # atno 17320 bound_to 7965
  145.7922  140.9809  143.1043 LP  0  0  0  0  0  0  0  0  0  0  0  0  # atno 17321 bound_to 7965
  140.4250  143.2594  151.9668 LP  0  0  0  0  0  0  0  0  0  0  0  0  # atno 17342 bound_to 10162
  139.4794  144.5797  151.7954 LP  0  0  0  0  0  0  0  0  0  0  0  0  # atno 17343 bound_to 10162
  157.3118  130.6893  149.6220 LP  0  0  0  0  0  0  0  0  0  0  0  0  # atno 17370 bound_to 10713
  155.9663  130.4361  150.5120 LP  0  0  0  0  0  0  0  0  0  0  0  0  # atno 17371 bound_to 10713
  140.0595  134.6015  155.8765 LP  0  0  0  0  0  0  0  0  0  0  0  0  # atno 17394 bound_to 11000
  141.1972  133.6595  156.5729 LP  0  0  0  0  0  0  0  0  0  0  0  0  # atno 17395 bound_to 11000

$$$$
