AV-unprocessed.smi:37|AV-procd|sdf|329|dock7
  -GOLD-   2262016163D 1   1.00000     0.00000
 Structure written by MMmdl.
 43 44  0  0  0  0  0  0  0  0  2 V2000
  151.3131  145.3639  160.4827 C   0  0  0  0  0  0  0  0  0  0  0  0
  151.7422  144.0663  161.1829 C   0  0  0  0  0  0  0  0  0  0  0  0
  152.2494  142.9891  160.2217 C   0  0  0  0  0  0  0  0  0  0  0  0
  153.2463  143.1456  159.5144 O   0  0  0  0  0  0  0  0  0  0  0  0
  151.4853  141.8915  160.2629 O   0  0  0  0  0  0  0  0  0  0  0  0
  151.5396  140.9408  159.2117 C   0  0  0  0  0  0  0  0  0  0  0  0
  150.2074  140.8793  158.4413 C   0  0  2  0  0  0  0  0  0  0  0  0
  149.3345  139.8540  158.9126 O   0  0  0  0  0  0  0  0  0  0  0  0
  148.5996  139.3078  157.8512 C   0  0  2  0  0  0  0  0  0  0  0  0
  149.0365  137.8713  157.6178 N   0  0  0  0  0  0  0  0  0  0  0  0
  149.4717  137.4376  156.3751 C   0  0  0  0  0  0  0  0  0  0  0  0
  149.8615  136.1631  156.1722 C   0  0  0  0  0  0  0  0  0  0  0  0
  150.2717  135.7755  154.9521 F   0  0  0  0  0  0  0  0  0  0  0  0
  149.8343  135.2136  157.2819 C   0  0  0  0  0  0  0  0  0  0  0  0
  150.1590  134.0440  157.0838 O   0  0  0  0  0  0  0  0  0  0  0  0
  149.4468  135.6760  158.5053 N   0  5  0  0  0  0  0  0  0  0  0  0
  149.0665  136.9698  158.7181 C   0  0  0  0  0  0  0  0  0  0  0  0
  148.7476  137.4011  159.8261 O   0  0  0  0  0  0  0  0  0  0  0  0
  148.8855  140.1828  156.6153 C   0  0  1  0  0  0  0  0  0  0  0  0
  147.5603  141.6687  156.5416 Br  0  0  0  0  0  0  0  0  0  0  0  0
  150.2626  140.7537  156.9124 C   0  0  2  0  0  0  0  0  0  0  0  0
  151.2833  139.8557  156.4894 O   0  0  0  0  0  0  0  0  0  0  0  0
  151.3593  139.4575  155.2063 C   0  0  0  0  0  0  0  0  0  0  0  0
  150.7109  139.9224  154.2688 O   0  0  0  0  0  0  0  0  0  0  0  0
  152.3837  138.3451  154.9875 C   0  0  0  0  0  0  0  0  0  0  0  0
  153.7775  138.8810  154.6330 C   0  0  0  0  0  0  0  0  0  0  0  0
  150.9700  146.0972  161.2125 H   0  0  0  0  0  0  0  0  0  0  0  0
  150.4945  145.1863  159.7843 H   0  0  0  0  0  0  0  0  0  0  0  0
  152.1397  145.8116  159.9296 H   0  0  0  0  0  0  0  0  0  0  0  0
  152.5315  144.2827  161.9034 H   0  0  0  0  0  0  0  0  0  0  0  0
  150.9035  143.6591  161.7483 H   0  0  0  0  0  0  0  0  0  0  0  0
  152.3483  141.2050  158.5293 H   0  0  0  0  0  0  0  0  0  0  0  0
  151.7697  139.9558  159.6205 H   0  0  0  0  0  0  0  0  0  0  0  0
  149.6831  141.8114  158.6563 H   0  0  0  0  0  0  0  0  0  0  0  0
  147.5416  139.2324  158.1078 H   0  0  0  0  0  0  0  0  0  0  0  0
  149.5161  138.1165  155.5402 H   0  0  0  0  0  0  0  0  0  0  0  0
  148.8222  139.6389  155.6732 H   0  0  0  0  0  0  0  0  0  0  0  0
  150.4155  141.7269  156.4434 H   0  0  0  0  0  0  0  0  0  0  0  0
  152.4442  137.7514  155.9001 H   0  0  0  0  0  0  0  0  0  0  0  0
  152.0256  137.6800  154.2016 H   0  0  0  0  0  0  0  0  0  0  0  0
  154.5127  138.0766  154.6427 H   0  0  0  0  0  0  0  0  0  0  0  0
  154.1090  139.6417  155.3411 H   0  0  0  0  0  0  0  0  0  0  0  0
  153.7876  139.3196  153.6353 H   0  0  0  0  0  0  0  0  0  0  0  0
  1  2  1  0  0  0  0
  1 27  1  0  0  0  0
  1 28  1  0  0  0  0
  1 29  1  0  0  0  0
  2  3  1  0  0  0  0
  2 30  1  0  0  0  0
  2 31  1  0  0  0  0
  3  4  2  0  0  0  0
  3  5  1  0  0  0  0
  5  6  1  0  0  0  0
  6  7  1  0  0  0  0
  6 32  1  0  0  0  0
  6 33  1  0  0  0  0
  7 21  1  0  0  0  0
  7  8  1  0  0  0  0
  7 34  1  0  0  0  0
  8  9  1  0  0  0  0
  9 10  1  0  0  0  0
  9 19  1  0  0  0  0
  9 35  1  0  0  0  0
 10 17  1  0  0  0  0
 10 11  1  0  0  0  0
 11 12  2  0  0  0  0
 11 36  1  0  0  0  0
 12 13  1  0  0  0  0
 12 14  1  0  0  0  0
 14 15  2  0  0  0  0
 14 16  1  0  0  0  0
 16 17  1  0  0  0  0
 17 18  2  0  0  0  0
 19 20  1  0  0  0  0
 19 21  1  0  0  0  0
 19 37  1  0  0  0  0
 21 22  1  0  0  0  0
 21 38  1  0  0  0  0
 22 23  1  0  0  0  0
 23 24  2  0  0  0  0
 23 25  1  0  0  0  0
 25 26  1  0  0  0  0
 25 39  1  0  0  0  0
 25 40  1  0  0  0  0
 26 41  1  0  0  0  0
 26 42  1  0  0  0  0
 26 43  1  0  0  0  0
M  CHG  1  16  -1
M  END
> <s_m_source_file>
AV-unprocessed.smi

> <i_m_source_file_index>
37

> <i_lp_mmshare_version>
43012

> <i_f3d_flags>
0

> <s_epik_input>
W0NIM11bQ0gyXUMoPU8pT1tDSDJdW0NAQEhdMU9bQ0BASF0objJbY0hdYyhGKWMoPU8pW25IXWMyPU8pW0NAQEhdKEJyKVtDQEhdMU9DKD1PKVtDSDJdW0NIM10=

> <s_epik_cmdline>
J2VwaWtfcHl0aG9uJywgJy1waCcsICc3LjAnLCAnLXRuJywgJzgnLCAnLW1hJywgJzIwMCcsICctbWV0YWxfYmluZGluZycsICctaW1hZScsICc8aW5maWxlLm1hZT4nLCAnLW9tYWUnLCAnPG91dGZpbGUubWFlPic=

> <r_epik_Ionization_Penalty>
1.08158

> <r_epik_Ionization_Penalty_Charging>
9.05154e-09

> <r_epik_Ionization_Penalty_Neutral>
1.08158

> <r_epik_State_Penalty>
1.13706

> <r_epik_Charging_Adjusted_Penalty>
1.13706

> <i_epik_Tot_Q>
-1

> <i_epik_Tot_abs_Q>
1

> <r_epik_Metal_State_Penalty>
0.00343535

> <b_epik_Metal_Only>
0

> <s_epik_Chemistry_Notes>
This compound has an ester and may undergo hydrolysis at high or low pH. This compound contains an acetal/aminal-like group ( X-CH(R)-Y where X, Y are N, S, or O) that may be acid/base labile, releasing an aldehyde.

> <s_lp_Force_Field>
OPLS_2005

> <r_lp_Energy>
30.7461

> <b_lp_Chiralities_Consistent>
1

> <s_lp_Variant>
AV-unprocessed.smi:37-27

> <Gold.Version>
5.8.1

> <Gold.Id.Protein>
6NUR|6NUR_protein|mol2

> <Gold.PLP.Fitness>
43.8716

> <Gold.PLP.PLP>
-37.5032

> <Gold.PLP.part.hbond>
-6.8966

> <Gold.PLP.part.metal>
0.0000

> <Gold.PLP.part.buried>
-1.5190

> <Gold.PLP.part.nonpolar>
-29.0407

> <Gold.PLP.part.repulsive>
0.1667

> <Gold.PLP.ligand.clash>
0.0000

> <Gold.PLP.ligand.torsion>
1.7355

> <Gold.PLP.Chemscore.Hbond>
3.2184

> <Gold.PLP.Chemscore.CHOScore>
0.0000

> <Gold.PLP.Chemscore.Metal>
0.0000

> <Gold.Chemscore.Hbonds>
donor molecule, donor type, donor heavy atom, donor atom, acceptor molecule, acceptor atom, score
      P1  H  6896  6909       L1    16  2.00
      P1  H  6931  6943       L1    18  0.19
      P1  H  7989  7998       L1    24  0.99

> <Gold.PLP.Chemscore.Internal.Correction>
0.1843

> <Gold.Rescore>
     Score         DG    S(hbond)    S(metal)    S(lipo)     H(rot)  DE(clash)    DE(int)     intcor
      3.36      -9.97       1.50        0.00      66.98       3.27       2.02       4.59       ----

> <Gold.Chemscore.Fitness>
3.3573

> <Gold.Chemscore.DG>
-9.9668

> <Gold.Chemscore.ZeroCoef>
-5.4800

> <Gold.Chemscore.Hbond>
1.5011

> <Gold.Chemscore.Metal>
0.0000

> <Gold.Chemscore.Lipo>
66.9796

> <Gold.Chemscore.Internal_Hbond>
0.0000

> <Gold.Chemscore.DEClash>
2.0157

> <Gold.Chemscore.DEInternal>
4.5938

> <Gold.Chemscore.Rot>
3.2669

> <Gold.Chemscore.Internal.Correction>
   9.000000E+99

> <Gold.Chemscore.Hbonds>
donor molecule, donor type, donor heavy atom, donor atom, acceptor molecule, acceptor atom, score
      P1  H  6896  6909       L1    16  0.25
      P1  H  6931  6943       L1    18  0.19
      P1  H  6934  6947       L1    18  0.01
      P1  H  7989  7998       L1    24  0.60

> <Gold.Chemscore.Hbond.Weighted>
-5.0136

> <Gold.Chemscore.Metal.Weighted>
-0.0000

> <Gold.Chemscore.Lipo.Weighted>
-7.8366

> <Gold.Chemscore.Internal_Hbond.Weighted>
0.0000

> <Gold.Chemscore.DEClash.Weighted>
2.0157

> <Gold.Chemscore.DEInternal.Weighted>
4.5938

> <Gold.Chemscore.Rot.Weighted>
8.3634

> <Gold.Chemscore.Internal.Correction.Weighted>
   9.000000E+99

> <Gold.Protein.RotatedTorsions>
[ 6907 6896 6895 6894 ] final   64.80 input  -60.11 | X-H torsion
[ 7974 7965 7964 7962 ] final  -12.57 input  175.53 | X-H torsion
[ 8008 7997 7996 7995 ] final   15.15 input   59.86 | X-H torsion
[ 10167 10162 10161 10158 ] final  178.23 input  -65.29 | X-H torsion
[ 10718 10713 10712 10709 ] final -104.82 input   66.30 | X-H torsion
[ 10763 10752 10751 10750 ] final  -32.01 input  -60.55 | X-H torsion
[ 11005 11000 10999 10996 ] final   14.06 input  -57.11 | X-H torsion

> <Gold.Protein.ActiveResidues>
 VAL166  LYS551  ARG553  GLY616  TRP617  ASP618  TYR619  PRO620  LYS621  CYS622 
 ASP623  PHE694  ASN695  SER759  ASP760  ASP761  ALA762  ILE779  LEU786  VAL792 
 PHE793  MET794  SER795  GLU796  ALA797  LYS798  CYS799  TRP800  GLU811  SER814 

> <Gold.Protein.RotatedAtoms>
  152.4359  134.5687  159.9914 H   0  0  0  0  0  0  0  0  0  0  0  0  # atno 6907 bound_to 6896
  151.5798  133.3373  159.3014 H   0  0  0  0  0  0  0  0  0  0  0  0  # atno 6908 bound_to 6896
  150.8257  134.7522  159.6875 H   0  0  0  0  0  0  0  0  0  0  0  0  # atno 6909 bound_to 6896
  146.2147  140.3076  142.8380 H   0  0  0  0  0  0  0  0  0  0  0  0  # atno 7974 bound_to 7965
  154.8586  140.2941  155.5553 H   0  0  0  0  0  0  0  0  0  0  0  0  # atno 8008 bound_to 7997
  156.3019  140.2482  156.3489 H   0  0  0  0  0  0  0  0  0  0  0  0  # atno 8009 bound_to 7997
  154.8943  140.0393  157.1846 H   0  0  0  0  0  0  0  0  0  0  0  0  # atno 8010 bound_to 7997
  139.5285  144.2704  152.0632 H   0  0  0  0  0  0  0  0  0  0  0  0  # atno 10167 bound_to 10162
  156.0320  130.5534  150.7452 H   0  0  0  0  0  0  0  0  0  0  0  0  # atno 10718 bound_to 10713
  153.8068  135.6885  153.4847 H   0  0  0  0  0  0  0  0  0  0  0  0  # atno 10763 bound_to 10752
  153.1653  135.4563  154.9827 H   0  0  0  0  0  0  0  0  0  0  0  0  # atno 10764 bound_to 10752
  154.7984  135.3328  154.7552 H   0  0  0  0  0  0  0  0  0  0  0  0  # atno 10765 bound_to 10752
  140.4738  134.1004  155.7737 H   0  0  0  0  0  0  0  0  0  0  0  0  # atno 11005 bound_to 11000
  144.9011  140.7644  143.5866 LP  0  0  0  0  0  0  0  0  0  0  0  0  # atno 17320 bound_to 7965
  145.3002  139.1853  143.4693 LP  0  0  0  0  0  0  0  0  0  0  0  0  # atno 17321 bound_to 7965
  140.2164  144.4510  150.6362 LP  0  0  0  0  0  0  0  0  0  0  0  0  # atno 17342 bound_to 10162
  140.6447  143.2211  151.6212 LP  0  0  0  0  0  0  0  0  0  0  0  0  # atno 17343 bound_to 10162
  157.5010  131.0918  151.0314 LP  0  0  0  0  0  0  0  0  0  0  0  0  # atno 17370 bound_to 10713
  157.0695  130.5858  149.5400 LP  0  0  0  0  0  0  0  0  0  0  0  0  # atno 17371 bound_to 10713
  141.1564  133.8874  157.1965 LP  0  0  0  0  0  0  0  0  0  0  0  0  # atno 17394 bound_to 11000
  139.9869  135.0079  156.9883 LP  0  0  0  0  0  0  0  0  0  0  0  0  # atno 17395 bound_to 11000

$$$$
