AV-unprocessed.smi:313|AV-procd|sdf|2309|dock8
  -GOLD-   2262022213D 1   1.00000     0.00000
 Structure written by MMmdl.
 50 51  0  0  0  0  0  0  0  0  1 V2000
  153.3637  143.4863  159.9343 C   0  0  0  0  0  0  0  0  0  0  0  0
  152.7226  143.1837  158.5719 C   0  0  0  0  0  0  0  0  0  0  0  0
  151.4457  143.9990  158.2941 C   0  0  2  0  0  0  0  0  0  0  0  0
  150.8345  144.5531  159.5908 C   0  0  0  0  0  0  0  0  0  0  0  0
  150.4652  143.1750  157.5914 N   0  0  0  0  0  0  0  0  0  0  0  0
  150.2099  141.8815  157.8412 C   0  0  0  0  0  0  0  0  0  0  0  0
  150.7895  141.2339  158.7147 O   0  0  0  0  0  0  0  0  0  0  0  0
  149.1161  141.2317  156.9782 C   0  0  2  0  0  0  0  0  0  0  0  0
  147.9071  140.9405  157.8822 C   0  0  0  0  0  0  0  0  0  0  0  0
  149.5794  139.9621  156.4205 N   0  0  0  0  0  0  0  0  0  0  0  0
  150.5655  139.8246  155.5181 C   0  0  0  0  0  0  0  0  0  0  0  0
  151.2093  140.7714  155.0653 O   0  0  0  0  0  0  0  0  0  0  0  0
  150.8942  138.4129  155.1271 C   0  0  0  0  0  0  0  0  0  0  0  0
  150.0569  137.3308  155.4758 C   0  0  0  0  0  0  0  0  0  0  0  0
  150.4037  136.0324  155.0563 C   0  0  0  0  0  0  0  0  0  0  0  0
  151.5772  135.8437  154.2886 C   0  0  0  0  0  0  0  0  0  0  0  0
  151.9405  134.5507  153.8530 N   0  0  0  0  0  0  0  0  0  0  0  0
  152.9145  133.8542  154.6903 C   0  0  0  0  0  0  0  0  0  0  0  0
  153.4506  132.6071  153.9662 C   0  0  0  0  0  0  0  0  0  0  0  0
  152.3653  131.7747  153.5715 O   0  0  0  0  0  0  0  0  0  0  0  0
  151.4914  132.4392  152.6653 C   0  0  0  0  0  0  0  0  0  0  0  0
  150.8837  133.6769  153.3466 C   0  0  0  0  0  0  0  0  0  0  0  0
  152.3784  136.8847  153.9533 N   0  0  0  0  0  0  0  0  0  0  0  0
  152.0408  138.1284  154.3553 C   0  0  0  0  0  0  0  0  0  0  0  0
  154.2333  142.8507  160.1017 H   0  0  0  0  0  0  0  0  0  0  0  0
  152.6603  143.3067  160.7478 H   0  0  0  0  0  0  0  0  0  0  0  0
  153.6964  144.5224  160.0013 H   0  0  0  0  0  0  0  0  0  0  0  0
  153.4542  143.3607  157.7825 H   0  0  0  0  0  0  0  0  0  0  0  0
  152.4836  142.1203  158.5295 H   0  0  0  0  0  0  0  0  0  0  0  0
  151.7224  144.8441  157.6608 H   0  0  0  0  0  0  0  0  0  0  0  0
  151.5469  145.1854  160.1212 H   0  0  0  0  0  0  0  0  0  0  0  0
  150.5372  143.7493  160.2650 H   0  0  0  0  0  0  0  0  0  0  0  0
  149.9512  145.1585  159.3847 H   0  0  0  0  0  0  0  0  0  0  0  0
  149.9372  143.6258  156.8583 H   0  0  0  0  0  0  0  0  0  0  0  0
  148.8180  141.9061  156.1729 H   0  0  0  0  0  0  0  0  0  0  0  0
  147.5111  141.8570  158.3220 H   0  0  0  0  0  0  0  0  0  0  0  0
  148.1630  140.2630  158.6985 H   0  0  0  0  0  0  0  0  0  0  0  0
  147.0991  140.4795  157.3133 H   0  0  0  0  0  0  0  0  0  0  0  0
  149.1292  139.1257  156.7622 H   0  0  0  0  0  0  0  0  0  0  0  0
  149.1575  137.4814  156.0550 H   0  0  0  0  0  0  0  0  0  0  0  0
  149.7747  135.2006  155.3359 H   0  0  0  0  0  0  0  0  0  0  0  0
  153.7531  134.4964  154.9547 H   0  0  0  0  0  0  0  0  0  0  0  0
  152.4307  133.5640  155.6238 H   0  0  0  0  0  0  0  0  0  0  0  0
  154.0433  132.8887  153.0944 H   0  0  0  0  0  0  0  0  0  0  0  0
  154.1073  132.0429  154.6283 H   0  0  0  0  0  0  0  0  0  0  0  0
  152.0323  132.7192  151.7600 H   0  0  0  0  0  0  0  0  0  0  0  0
  150.7017  131.7508  152.3643 H   0  0  0  0  0  0  0  0  0  0  0  0
  150.2418  133.3694  154.1732 H   0  0  0  0  0  0  0  0  0  0  0  0
  150.2604  134.2137  152.6303 H   0  0  0  0  0  0  0  0  0  0  0  0
  152.7144  138.9161  154.0508 H   0  0  0  0  0  0  0  0  0  0  0  0
  1  2  1  0  0  0  0
  1 25  1  0  0  0  0
  1 26  1  0  0  0  0
  1 27  1  0  0  0  0
  2  3  1  0  0  0  0
  2 28  1  0  0  0  0
  2 29  1  0  0  0  0
  3  4  1  0  0  0  0
  3  5  1  0  0  0  0
  3 30  1  0  0  0  0
  4 31  1  0  0  0  0
  4 32  1  0  0  0  0
  4 33  1  0  0  0  0
  5  6  1  0  0  0  0
  5 34  1  0  0  0  0
  6  7  2  0  0  0  0
  6  8  1  0  0  0  0
  8  9  1  0  0  0  0
  8 10  1  0  0  0  0
  8 35  1  0  0  0  0
  9 36  1  0  0  0  0
  9 37  1  0  0  0  0
  9 38  1  0  0  0  0
 10 11  1  0  0  0  0
 10 39  1  0  0  0  0
 11 12  2  0  0  0  0
 11 13  1  0  0  0  0
 13 24  1  0  0  0  0
 13 14  2  0  0  0  0
 14 15  1  0  0  0  0
 14 40  1  0  0  0  0
 15 16  2  0  0  0  0
 15 41  1  0  0  0  0
 16 17  1  0  0  0  0
 16 23  1  0  0  0  0
 17 22  1  0  0  0  0
 17 18  1  0  0  0  0
 18 19  1  0  0  0  0
 18 42  1  0  0  0  0
 18 43  1  0  0  0  0
 19 20  1  0  0  0  0
 19 44  1  0  0  0  0
 19 45  1  0  0  0  0
 20 21  1  0  0  0  0
 21 22  1  0  0  0  0
 21 46  1  0  0  0  0
 21 47  1  0  0  0  0
 22 48  1  0  0  0  0
 22 49  1  0  0  0  0
 23 24  2  0  0  0  0
 24 50  1  0  0  0  0
M  END
> <s_m_source_file>
AV-unprocessed.smi

> <i_m_source_file_index>
313

> <i_lp_mmshare_version>
43012

> <i_f3d_flags>
0

> <s_epik_input>
W0NIM11bQ0gyXVtDQEhdKFtDSDNdKVtOSF1DKD1PKVtDQEhdKFtDSDNdKVtOSF1DKD1PKWMxW2NIXVtjSF1jKG5bY0hdMSlOMltDSDJdW0NIMl1PW0NIMl1bQ0gyXTI=

> <s_epik_cmdline>
J2VwaWtfcHl0aG9uJywgJy1waCcsICc3LjAnLCAnLXRuJywgJzgnLCAnLW1hJywgJzIwMCcsICctbWV0YWxfYmluZGluZycsICctaW1hZScsICc8aW5maWxlLm1hZT4nLCAnLW9tYWUnLCAnPG91dGZpbGUubWFlPic=

> <r_lp_tautomer_probability>
1

> <r_epik_Ionization_Penalty>
9.96442e-06

> <r_epik_Ionization_Penalty_Charging>
0

> <r_epik_Ionization_Penalty_Neutral>
9.96442e-06

> <r_epik_State_Penalty>
-0

> <r_epik_Charging_Adjusted_Penalty>
0

> <i_epik_Tot_Q>
0

> <i_epik_Tot_abs_Q>
0

> <r_epik_Metal_State_Penalty>
-0

> <b_epik_Metal_Only>
0

> <s_lp_Force_Field>
OPLS_2005

> <r_lp_Energy>
19.8546

> <b_lp_Chiralities_Consistent>
1

> <s_lp_Variant>
AV-unprocessed.smi:313-1

> <Gold.Version>
5.8.1

> <Gold.Id.Protein>
6NUR|6NUR_protein|mol2

> <Gold.PLP.Fitness>
44.8507

> <Gold.PLP.PLP>
-39.8758

> <Gold.PLP.part.hbond>
-3.0944

> <Gold.PLP.part.metal>
0.0000

> <Gold.PLP.part.buried>
-6.7802

> <Gold.PLP.part.nonpolar>
-30.9805

> <Gold.PLP.part.repulsive>
0.3405

> <Gold.PLP.ligand.clash>
0.0233

> <Gold.PLP.ligand.torsion>
1.6786

> <Gold.PLP.Chemscore.Hbond>
2.6503

> <Gold.PLP.Chemscore.CHOScore>
0.0000

> <Gold.PLP.Chemscore.Metal>
0.0000

> <Gold.Chemscore.Hbonds>
donor molecule, donor type, donor heavy atom, donor atom, acceptor molecule, acceptor atom, score
      L1  H     5    34       P1  8028  1.00
      P1  H  7989  7998       L1    12  0.80

> <Gold.PLP.Chemscore.Internal.Correction>
0.4046

> <Gold.Rescore>
     Score         DG    S(hbond)    S(metal)    S(lipo)     H(rot)  DE(clash)    DE(int)     intcor
     18.00     -20.65       2.70        0.00      91.68       1.79       0.12       2.53       ----

> <Gold.Chemscore.Fitness>
18.0015

> <Gold.Chemscore.DG>
-20.6497

> <Gold.Chemscore.ZeroCoef>
-5.4800

> <Gold.Chemscore.Hbond>
2.7013

> <Gold.Chemscore.Metal>
0.0000

> <Gold.Chemscore.Lipo>
91.6807

> <Gold.Chemscore.Internal_Hbond>
0.0000

> <Gold.Chemscore.DEClash>
0.1170

> <Gold.Chemscore.DEInternal>
2.5312

> <Gold.Chemscore.Rot>
1.7888

> <Gold.Chemscore.Internal.Correction>
   9.000000E+99

> <Gold.Chemscore.Hbonds>
donor molecule, donor type, donor heavy atom, donor atom, acceptor molecule, acceptor atom, score
      L1  H     5    34       P1  8028  0.99
      P1  H  7989  7998       L1    12  0.79

> <Gold.Chemscore.Hbond.Weighted>
-9.0223

> <Gold.Chemscore.Metal.Weighted>
-0.0000

> <Gold.Chemscore.Lipo.Weighted>
-10.7266

> <Gold.Chemscore.Internal_Hbond.Weighted>
0.0000

> <Gold.Chemscore.DEClash.Weighted>
0.1170

> <Gold.Chemscore.DEInternal.Weighted>
2.5312

> <Gold.Chemscore.Rot.Weighted>
4.5793

> <Gold.Chemscore.Internal.Correction.Weighted>
   9.000000E+99

> <Gold.Protein.RotatedTorsions>
[ 6907 6896 6895 6894 ] final   81.01 input  -60.11 | X-H torsion
[ 7974 7965 7964 7962 ] final   68.42 input  175.53 | X-H torsion
[ 8008 7997 7996 7995 ] final  -88.65 input   59.86 | X-H torsion
[ 10167 10162 10161 10158 ] final   43.31 input  -65.29 | X-H torsion
[ 10718 10713 10712 10709 ] final   40.25 input   66.30 | X-H torsion
[ 10763 10752 10751 10750 ] final   65.63 input  -60.55 | X-H torsion
[ 11005 11000 10999 10996 ] final  -66.53 input  -57.11 | X-H torsion

> <Gold.Protein.ActiveResidues>
 VAL166  LYS551  ARG553  GLY616  TRP617  ASP618  TYR619  PRO620  LYS621  CYS622 
 ASP623  PHE694  ASN695  SER759  ASP760  ASP761  ALA762  ILE779  LEU786  VAL792 
 PHE793  MET794  SER795  GLU796  ALA797  LYS798  CYS799  TRP800  GLU811  SER814 

> <Gold.Protein.RotatedAtoms>
  152.5254  134.3270  159.9168 H   0  0  0  0  0  0  0  0  0  0  0  0  # atno 6907 bound_to 6896
  151.3219  133.4030  159.2663 H   0  0  0  0  0  0  0  0  0  0  0  0  # atno 6908 bound_to 6896
  150.9952  134.9294  159.7980 H   0  0  0  0  0  0  0  0  0  0  0  0  # atno 6909 bound_to 6896
  145.8028  139.2991  143.1145 H   0  0  0  0  0  0  0  0  0  0  0  0  # atno 7974 bound_to 7965
  154.6773  140.0551  157.0229 H   0  0  0  0  0  0  0  0  0  0  0  0  # atno 8008 bound_to 7997
  155.1002  140.3228  155.4530 H   0  0  0  0  0  0  0  0  0  0  0  0  # atno 8009 bound_to 7997
  156.2681  140.2032  156.6128 H   0  0  0  0  0  0  0  0  0  0  0  0  # atno 8010 bound_to 7997
  140.3456  144.2414  150.6151 H   0  0  0  0  0  0  0  0  0  0  0  0  # atno 10167 bound_to 10162
  157.3800  130.7748  149.7185 H   0  0  0  0  0  0  0  0  0  0  0  0  # atno 10718 bound_to 10713
  153.0105  135.5350  154.6698 H   0  0  0  0  0  0  0  0  0  0  0  0  # atno 10763 bound_to 10752
  154.5885  135.2856  155.0662 H   0  0  0  0  0  0  0  0  0  0  0  0  # atno 10764 bound_to 10752
  154.1764  135.6523  153.5075 H   0  0  0  0  0  0  0  0  0  0  0  0  # atno 10765 bound_to 10752
  141.1484  133.6701  156.6153 H   0  0  0  0  0  0  0  0  0  0  0  0  # atno 11005 bound_to 11000
  145.9860  140.8643  143.0090 LP  0  0  0  0  0  0  0  0  0  0  0  0  # atno 17320 bound_to 7965
  144.6766  140.2148  143.7373 LP  0  0  0  0  0  0  0  0  0  0  0  0  # atno 17321 bound_to 7965
  140.5267  143.2252  151.8303 LP  0  0  0  0  0  0  0  0  0  0  0  0  # atno 17342 bound_to 10162
  139.4834  144.4770  151.9354 LP  0  0  0  0  0  0  0  0  0  0  0  0  # atno 17343 bound_to 10162
  155.9773  130.4064  150.3718 LP  0  0  0  0  0  0  0  0  0  0  0  0  # atno 17370 bound_to 10713
  157.1820  131.0394  151.2743 LP  0  0  0  0  0  0  0  0  0  0  0  0  # atno 17371 bound_to 10713
  140.3582  134.7710  157.4515 LP  0  0  0  0  0  0  0  0  0  0  0  0  # atno 17394 bound_to 11000
  140.0806  134.5736  155.8545 LP  0  0  0  0  0  0  0  0  0  0  0  0  # atno 17395 bound_to 11000

$$$$
