AV-unprocessed.smi:2567|AV-procd|sdf|10078|dock5
  -GOLD-   2272014103D 1   1.00000     0.00000
 Structure written by MMmdl.
 34 35  0  0  0  0  0  0  0  0  2 V2000
  145.8632  132.4967  156.4362 C   0  0  0  0  0  0  0  0  0  0  0  0
  145.7407  133.9880  156.0518 C   0  0  0  0  0  0  0  0  0  0  0  0
  144.2682  134.3878  156.2909 C   0  0  0  0  0  0  0  0  0  0  0  0
  146.6588  134.8360  156.9504 C   0  0  0  0  0  0  0  0  0  0  0  0
  146.1141  134.2005  154.6032 C   0  0  0  0  0  0  0  0  0  0  0  0
  147.0072  135.1261  154.2437 N   0  0  0  0  0  0  0  0  0  0  0  0
  146.9419  135.0879  152.8971 N   0  0  0  0  0  0  0  0  0  0  0  0
  146.0045  134.2153  152.5266 C   0  0  0  0  0  0  0  0  0  0  0  0
  145.6622  133.9693  151.0912 C   0  0  2  0  0  0  0  0  0  0  0  0
  144.2238  134.4023  150.7476 C   0  0  0  0  0  0  0  0  0  0  0  0
  143.9073  134.0416  149.3518 N   0  3  0  0  0  0  0  0  0  0  0  0
  144.1358  132.6047  149.1007 C   0  0  0  0  0  0  0  0  0  0  0  0
  145.5711  132.2189  149.4991 C   0  0  0  0  0  0  0  0  0  0  0  0
  145.8031  132.5696  150.8595 O   0  0  0  0  0  0  0  0  0  0  0  0
  145.4132  133.6394  153.5677 N   0  0  0  0  0  0  0  0  0  0  0  0
  147.5153  135.6684  152.3017 H   0  0  0  0  0  0  0  0  0  0  0  0
  145.5559  132.3269  157.4688 H   0  0  0  0  0  0  0  0  0  0  0  0
  146.8892  132.1377  156.3480 H   0  0  0  0  0  0  0  0  0  0  0  0
  145.2373  131.8689  155.8008 H   0  0  0  0  0  0  0  0  0  0  0  0
  143.5922  133.8176  155.6524 H   0  0  0  0  0  0  0  0  0  0  0  0
  144.0981  135.4460  156.0894 H   0  0  0  0  0  0  0  0  0  0  0  0
  143.9711  134.2094  157.3249 H   0  0  0  0  0  0  0  0  0  0  0  0
  146.4126  134.7068  158.0048 H   0  0  0  0  0  0  0  0  0  0  0  0
  146.5680  135.8979  156.7191 H   0  0  0  0  0  0  0  0  0  0  0  0
  147.7058  134.5593  156.8208 H   0  0  0  0  0  0  0  0  0  0  0  0
  146.3764  134.5103  150.4669 H   0  0  0  0  0  0  0  0  0  0  0  0
  143.5090  133.9122  151.4106 H   0  0  0  0  0  0  0  0  0  0  0  0
  144.1014  135.4777  150.8800 H   0  0  0  0  0  0  0  0  0  0  0  0
  142.9424  134.2674  149.1566 H   0  0  0  0  0  0  0  0  0  0  0  0
  143.4160  132.0214  149.6765 H   0  0  0  0  0  0  0  0  0  0  0  0
  143.9574  132.3877  148.0473 H   0  0  0  0  0  0  0  0  0  0  0  0
  145.7186  131.1454  149.3807 H   0  0  0  0  0  0  0  0  0  0  0  0
  146.3008  132.7131  148.8557 H   0  0  0  0  0  0  0  0  0  0  0  0
  144.5023  134.5764  148.7353 H   0  0  0  0  0  0  0  0  0  0  0  0
  1  2  1  0  0  0  0
  1 17  1  0  0  0  0
  1 18  1  0  0  0  0
  1 19  1  0  0  0  0
  2  3  1  0  0  0  0
  2  4  1  0  0  0  0
  2  5  1  0  0  0  0
  3 20  1  0  0  0  0
  3 21  1  0  0  0  0
  3 22  1  0  0  0  0
  4 23  1  0  0  0  0
  4 24  1  0  0  0  0
  4 25  1  0  0  0  0
  5 15  1  0  0  0  0
  5  6  2  0  0  0  0
  6  7  1  0  0  0  0
  7 16  1  0  0  0  0
  7  8  1  0  0  0  0
  8  9  1  0  0  0  0
  8 15  2  0  0  0  0
  9 14  1  0  0  0  0
  9 10  1  0  0  0  0
  9 26  1  0  0  0  0
 10 11  1  0  0  0  0
 10 27  1  0  0  0  0
 10 28  1  0  0  0  0
 11 12  1  0  0  0  0
 11 29  1  0  0  0  0
 11 34  1  0  0  0  0
 12 13  1  0  0  0  0
 12 30  1  0  0  0  0
 12 31  1  0  0  0  0
 13 14  1  0  0  0  0
 13 32  1  0  0  0  0
 13 33  1  0  0  0  0
M  CHG  1  11   1
M  END
> <s_m_source_file>
AV-unprocessed.smi

> <i_m_source_file_index>
2567

> <i_lp_mmshare_version>
43012

> <i_f3d_flags>
0

> <s_epik_input>
W0NIM11DKFtDSDNdKShbQ0gzXSljMW5bbkhdYyhuMSlbQ0BASF0yW0NIMl1bTkhdW0NIMl1bQ0gyXU8y

> <s_epik_cmdline>
J2VwaWtfcHl0aG9uJywgJy1waCcsICc3LjAnLCAnLXRuJywgJzgnLCAnLW1hJywgJzIwMCcsICctbWV0YWxfYmluZGluZycsICctaW1hZScsICc8aW5maWxlLm1hZT4nLCAnLW9tYWUnLCAnPG91dGZpbGUubWFlPic=

> <r_epik_Ionization_Penalty>
0.162344

> <r_epik_Ionization_Penalty_Charging>
0.125708

> <r_epik_Ionization_Penalty_Neutral>
0.0366363

> <r_epik_State_Penalty>
1.18286

> <r_epik_Charging_Adjusted_Penalty>
1.30856

> <i_epik_Tot_Q>
1

> <i_epik_Tot_abs_Q>
1

> <r_epik_Metal_State_Penalty>
1.49333

> <b_epik_Metal_Only>
0

> <s_lp_Force_Field>
OPLS_2005

> <r_lp_Energy>
12.4699

> <b_lp_Chiralities_Consistent>
1

> <s_lp_Variant>
AV-unprocessed.smi:2567-3

> <Gold.Version>
5.8.1

> <Gold.Id.Protein>
6NUR|6NUR_protein|mol2

> <Gold.PLP.Fitness>
31.4198

> <Gold.PLP.PLP>
-19.4980

> <Gold.PLP.part.hbond>
-2.8888

> <Gold.PLP.part.metal>
0.0000

> <Gold.PLP.part.buried>
-4.5860

> <Gold.PLP.part.nonpolar>
-12.8962

> <Gold.PLP.part.repulsive>
0.4169

> <Gold.PLP.ligand.clash>
0.0000

> <Gold.PLP.ligand.torsion>
0.1419

> <Gold.PLP.Chemscore.Hbond>
4.0000

> <Gold.PLP.Chemscore.CHOScore>
0.0000

> <Gold.PLP.Chemscore.Metal>
0.0000

> <Gold.Chemscore.Hbonds>
donor molecule, donor type, donor heavy atom, donor atom, acceptor molecule, acceptor atom, score
      L1  H     7    16       P1  7948  1.00
      L1  H    11    29       P1 10186  2.00
      L1  H    11    34       P1  7921  1.00

> <Gold.PLP.Chemscore.Internal.Correction>
0.2056

> <Gold.Rescore>
     Score         DG    S(hbond)    S(metal)    S(lipo)     H(rot)  DE(clash)    DE(int)     intcor
     16.77     -16.91       2.92        0.00      41.83       1.26       0.01       0.13       ----

> <Gold.Chemscore.Fitness>
16.7651

> <Gold.Chemscore.DG>
-16.9054

> <Gold.Chemscore.ZeroCoef>
-5.4800

> <Gold.Chemscore.Hbond>
2.9248

> <Gold.Chemscore.Metal>
0.0000

> <Gold.Chemscore.Lipo>
41.8306

> <Gold.Chemscore.Internal_Hbond>
0.0000

> <Gold.Chemscore.DEClash>
0.0137

> <Gold.Chemscore.DEInternal>
0.1266

> <Gold.Chemscore.Rot>
1.2647

> <Gold.Chemscore.Internal.Correction>
   9.000000E+99

> <Gold.Chemscore.Hbonds>
donor molecule, donor type, donor heavy atom, donor atom, acceptor molecule, acceptor atom, score
      L1  H     7    16       P1  7948  0.93
      L1  H    11    29       P1 10186  0.97
      L1  H    11    34       P1  7921  0.95

> <Gold.Chemscore.Hbond.Weighted>
-9.7687

> <Gold.Chemscore.Metal.Weighted>
-0.0000

> <Gold.Chemscore.Lipo.Weighted>
-4.8942

> <Gold.Chemscore.Internal_Hbond.Weighted>
0.0000

> <Gold.Chemscore.DEClash.Weighted>
0.0137

> <Gold.Chemscore.DEInternal.Weighted>
0.1266

> <Gold.Chemscore.Rot.Weighted>
3.2375

> <Gold.Chemscore.Internal.Correction.Weighted>
   9.000000E+99

> <Gold.Protein.RotatedTorsions>
[ 6907 6896 6895 6894 ] final  152.97 input  -60.11 | X-H torsion
[ 7974 7965 7964 7962 ] final   -3.05 input  175.53 | X-H torsion
[ 8008 7997 7996 7995 ] final   75.43 input   59.86 | X-H torsion
[ 10167 10162 10161 10158 ] final  -92.74 input  -65.29 | X-H torsion
[ 10718 10713 10712 10709 ] final  166.31 input   66.30 | X-H torsion
[ 10763 10752 10751 10750 ] final  -80.45 input  -60.55 | X-H torsion
[ 11005 11000 10999 10996 ] final  -96.29 input  -57.11 | X-H torsion

> <Gold.Protein.ActiveResidues>
 VAL166  LYS551  ARG553  GLY616  TRP617  ASP618  TYR619  PRO620  LYS621  CYS622 
 ASP623  PHE694  ASN695  SER759  ASP760  ASP761  ALA762  ILE779  LEU786  VAL792 
 PHE793  MET794  SER795  GLU796  ALA797  LYS798  CYS799  TRP800  GLU811  SER814 

> <Gold.Protein.RotatedAtoms>
  152.0793  133.4145  159.4493 H   0  0  0  0  0  0  0  0  0  0  0  0  # atno 6907 bound_to 6896
  150.6862  134.3001  159.4712 H   0  0  0  0  0  0  0  0  0  0  0  0  # atno 6908 bound_to 6896
  152.0841  134.9451  160.0623 H   0  0  0  0  0  0  0  0  0  0  0  0  # atno 6909 bound_to 6896
  146.2395  140.1664  142.8332 H   0  0  0  0  0  0  0  0  0  0  0  0  # atno 7974 bound_to 7965
  155.8128  140.3472  155.5468 H   0  0  0  0  0  0  0  0  0  0  0  0  # atno 8008 bound_to 7997
  155.8423  140.0943  157.1747 H   0  0  0  0  0  0  0  0  0  0  0  0  # atno 8009 bound_to 7997
  154.4005  140.1392  156.3731 H   0  0  0  0  0  0  0  0  0  0  0  0  # atno 8010 bound_to 7997
  140.3317  143.2991  151.9934 H   0  0  0  0  0  0  0  0  0  0  0  0  # atno 10167 bound_to 10162
  157.0677  131.0357  151.2623 H   0  0  0  0  0  0  0  0  0  0  0  0  # atno 10718 bound_to 10713
  154.5514  135.5660  153.6925 H   0  0  0  0  0  0  0  0  0  0  0  0  # atno 10763 bound_to 10752
  152.9990  135.6251  154.2369 H   0  0  0  0  0  0  0  0  0  0  0  0  # atno 10764 bound_to 10752
  154.2304  135.2866  155.2872 H   0  0  0  0  0  0  0  0  0  0  0  0  # atno 10765 bound_to 10752
  141.1416  133.8087  157.0551 H   0  0  0  0  0  0  0  0  0  0  0  0  # atno 11005 bound_to 11000
  145.0047  140.8663  143.5260 LP  0  0  0  0  0  0  0  0  0  0  0  0  # atno 17320 bound_to 7965
  145.1688  139.2416  143.5353 LP  0  0  0  0  0  0  0  0  0  0  0  0  # atno 17321 bound_to 7965
  139.4855  144.6229  151.7220 LP  0  0  0  0  0  0  0  0  0  0  0  0  # atno 17342 bound_to 10162
  140.5391  144.0608  150.6081 LP  0  0  0  0  0  0  0  0  0  0  0  0  # atno 17343 bound_to 10162
  157.4904  130.7818  149.7501 LP  0  0  0  0  0  0  0  0  0  0  0  0  # atno 17370 bound_to 10713
  155.9960  130.3908  150.2798 LP  0  0  0  0  0  0  0  0  0  0  0  0  # atno 17371 bound_to 10713
  140.0607  134.9756  157.1299 LP  0  0  0  0  0  0  0  0  0  0  0  0  # atno 17394 bound_to 11000
  140.3853  134.2243  155.7168 LP  0  0  0  0  0  0  0  0  0  0  0  0  # atno 17395 bound_to 11000

$$$$
