AV-unprocessed.smi:100|AV-procd|sdf|898|dock10
  -GOLD-   2262017393D 1   1.00000     0.00000
 Structure written by MMmdl.
 31 33  0  0  0  0  0  0  0  0  1 V2000
  149.5450  138.3688  153.3589 N   0  0  0  0  0  0  0  0  0  0  0  0
  150.4960  138.7566  154.2200 C   0  0  0  0  0  0  0  0  0  0  0  0
  151.6208  138.0097  154.3146 N   0  0  0  0  0  0  0  0  0  0  0  0
  152.5838  138.3758  155.1666 C   0  0  0  0  0  0  0  0  0  0  0  0
  152.6151  139.4268  155.9901 N   0  0  0  0  0  0  0  0  0  0  0  0
  151.4797  140.1790  155.8949 C   0  0  0  0  0  0  0  0  0  0  0  0
  150.3787  139.9113  155.0345 C   0  0  0  0  0  0  0  0  0  0  0  0
  149.4030  140.8849  155.1969 N   0  0  0  0  0  0  0  0  0  0  0  0
  149.9026  141.6812  156.1036 C   0  0  0  0  0  0  0  0  0  0  0  0
  151.1484  141.3332  156.5781 N   0  0  0  0  0  0  0  0  0  0  0  0
  151.9589  142.0573  157.6094 C   0  0  1  0  0  0  0  0  0  0  0  0
  151.5108  143.3705  157.7301 O   0  0  0  0  0  0  0  0  0  0  0  0
  151.6049  143.8174  159.0857 C   0  0  1  0  0  0  0  0  0  0  0  0
  150.2044  144.2440  159.5586 C   0  0  0  0  0  0  0  0  0  0  0  0
  149.8459  145.4746  158.9674 O   0  0  0  0  0  0  0  0  0  0  0  0
  152.1573  142.6220  159.8809 C   0  0  2  0  0  0  0  0  0  0  0  0
  153.4775  142.7558  160.0211 F   0  0  0  0  0  0  0  0  0  0  0  0
  151.8753  141.4211  158.9991 C   0  0  1  0  0  0  0  0  0  0  0  0
  150.6194  140.8391  159.2973 O   0  0  0  0  0  0  0  0  0  0  0  0
  148.6968  138.9098  153.2699 H   0  0  0  0  0  0  0  0  0  0  0  0
  149.6768  137.5359  152.8039 H   0  0  0  0  0  0  0  0  0  0  0  0
  153.4538  137.7364  155.1928 H   0  0  0  0  0  0  0  0  0  0  0  0
  149.3714  142.5544  156.4535 H   0  0  0  0  0  0  0  0  0  0  0  0
  152.9767  142.0680  157.2155 H   0  0  0  0  0  0  0  0  0  0  0  0
  152.2944  144.6602  159.1584 H   0  0  0  0  0  0  0  0  0  0  0  0
  149.4552  143.4836  159.3417 H   0  0  0  0  0  0  0  0  0  0  0  0
  150.2015  144.3950  160.6384 H   0  0  0  0  0  0  0  0  0  0  0  0
  149.0568  145.3469  158.4636 H   0  0  0  0  0  0  0  0  0  0  0  0
  151.7469  142.5301  160.8873 H   0  0  0  0  0  0  0  0  0  0  0  0
  152.6379  140.6472  159.0953 H   0  0  0  0  0  0  0  0  0  0  0  0
  150.0689  140.9099  158.5322 H   0  0  0  0  0  0  0  0  0  0  0  0
  1  2  1  0  0  0  0
  1 20  1  0  0  0  0
  1 21  1  0  0  0  0
  2  7  1  0  0  0  0
  2  3  2  0  0  0  0
  3  4  1  0  0  0  0
  4  5  2  0  0  0  0
  4 22  1  0  0  0  0
  5  6  1  0  0  0  0
  6 10  1  0  0  0  0
  6  7  2  0  0  0  0
  7  8  1  0  0  0  0
  8  9  2  0  0  0  0
  9 10  1  0  0  0  0
  9 23  1  0  0  0  0
 10 11  1  0  0  0  0
 11 18  1  0  0  0  0
 11 12  1  0  0  0  0
 11 24  1  0  0  0  0
 12 13  1  0  0  0  0
 13 14  1  0  0  0  0
 13 16  1  0  0  0  0
 13 25  1  0  0  0  0
 14 15  1  0  0  0  0
 14 26  1  0  0  0  0
 14 27  1  0  0  0  0
 15 28  1  0  0  0  0
 16 17  1  0  0  0  0
 16 18  1  0  0  0  0
 16 29  1  0  0  0  0
 18 19  1  0  0  0  0
 18 30  1  0  0  0  0
 19 31  1  0  0  0  0
M  END
> <s_m_source_file>
AV-unprocessed.smi

> <i_m_source_file_index>
100

> <i_lp_mmshare_version>
43012

> <i_f3d_flags>
0

> <s_epik_input>
bjFbY0hdbmMoW05IMl0pYyhjMTIpbltjSF1uMltDQEBIXTNPW0NAQEhdKFtDSDJdW09IXSlbQ0BIXShGKVtDQEhdM1tPSF0=

> <s_epik_cmdline>
J2VwaWtfcHl0aG9uJywgJy1waCcsICc3LjAnLCAnLXRuJywgJzgnLCAnLW1hJywgJzIwMCcsICctbWV0YWxfYmluZGluZycsICctaW1hZScsICc8aW5maWxlLm1hZT4nLCAnLW9tYWUnLCAnPG91dGZpbGUubWFlPic=

> <r_lp_tautomer_probability>
1

> <r_epik_Ionization_Penalty>
0.000750324

> <r_epik_Ionization_Penalty_Charging>
0

> <r_epik_Ionization_Penalty_Neutral>
0.000750324

> <r_epik_State_Penalty>
-0

> <r_epik_Charging_Adjusted_Penalty>
0

> <i_epik_Tot_Q>
0

> <i_epik_Tot_abs_Q>
0

> <r_epik_Metal_State_Penalty>
-0

> <b_epik_Metal_Only>
0

> <s_epik_Chemistry_Notes>
This compound contains an acetal/aminal-like group ( X-CH(R)-Y where X, Y are N, S, or O) that may be acid/base labile, releasing an aldehyde.

> <s_lp_Force_Field>
OPLS_2005

> <r_lp_Energy>
37.0589

> <b_lp_Chiralities_Consistent>
1

> <s_lp_Variant>
AV-unprocessed.smi:100-2

> <Gold.Version>
5.8.1

> <Gold.Id.Protein>
6NUR|6NUR_protein|mol2

> <Gold.PLP.Fitness>
45.5612

> <Gold.PLP.PLP>
-34.8320

> <Gold.PLP.part.hbond>
-5.9318

> <Gold.PLP.part.metal>
0.0000

> <Gold.PLP.part.buried>
-2.6266

> <Gold.PLP.part.nonpolar>
-26.7968

> <Gold.PLP.part.repulsive>
0.4635

> <Gold.PLP.ligand.clash>
0.0000

> <Gold.PLP.ligand.torsion>
0.6248

> <Gold.PLP.Chemscore.Hbond>
2.9920

> <Gold.PLP.Chemscore.CHOScore>
1.0000

> <Gold.PLP.Chemscore.Metal>
0.0000

> <Gold.Chemscore.Hbonds>
donor molecule, donor type, donor heavy atom, donor atom, acceptor molecule, acceptor atom, score
      L1  H     1    21       P1  7948  0.99
      L1  H    15    28       P1  8029  0.98
      P1  H  7997  8010       L1     5  1.00
      L1  C     9    23       P1  8028  1.00

> <Gold.PLP.Chemscore.Internal.Correction>
0.0029

> <Gold.Rescore>
     Score         DG    S(hbond)    S(metal)    S(lipo)     H(rot)  DE(clash)    DE(int)     intcor
      8.06     -12.04       2.82        0.00      45.40       3.19       3.27       0.71       ----

> <Gold.Chemscore.Fitness>
8.0572

> <Gold.Chemscore.DG>
-12.0423

> <Gold.Chemscore.ZeroCoef>
-5.4800

> <Gold.Chemscore.Hbond>
2.8197

> <Gold.Chemscore.Metal>
0.0000

> <Gold.Chemscore.Lipo>
45.3957

> <Gold.Chemscore.Internal_Hbond>
0.0000

> <Gold.Chemscore.DEClash>
3.2725

> <Gold.Chemscore.DEInternal>
0.7126

> <Gold.Chemscore.Rot>
3.1901

> <Gold.Chemscore.Internal.Correction>
   9.000000E+99

> <Gold.Chemscore.Hbonds>
donor molecule, donor type, donor heavy atom, donor atom, acceptor molecule, acceptor atom, score
      L1  H     1    21       P1  7948  0.47
      L1  H    15    28       P1  8029  0.88
      P1  H  7997  8010       L1     5  0.88

> <Gold.Chemscore.Hbond.Weighted>
-9.4177

> <Gold.Chemscore.Metal.Weighted>
-0.0000

> <Gold.Chemscore.Lipo.Weighted>
-5.3113

> <Gold.Chemscore.Internal_Hbond.Weighted>
0.0000

> <Gold.Chemscore.DEClash.Weighted>
3.2725

> <Gold.Chemscore.DEInternal.Weighted>
0.7126

> <Gold.Chemscore.Rot.Weighted>
8.1667

> <Gold.Chemscore.Internal.Correction.Weighted>
   9.000000E+99

> <Gold.Protein.RotatedTorsions>
[ 6907 6896 6895 6894 ] final -171.11 input  -60.11 | X-H torsion
[ 7974 7965 7964 7962 ] final  101.37 input  175.53 | X-H torsion
[ 8008 7997 7996 7995 ] final   79.86 input   59.86 | X-H torsion
[ 10167 10162 10161 10158 ] final   72.40 input  -65.29 | X-H torsion
[ 10718 10713 10712 10709 ] final  -37.35 input   66.30 | X-H torsion
[ 10763 10752 10751 10750 ] final  -61.36 input  -60.55 | X-H torsion
[ 11005 11000 10999 10996 ] final  -53.64 input  -57.11 | X-H torsion

> <Gold.Protein.ActiveResidues>
 VAL166  LYS551  ARG553  GLY616  TRP617  ASP618  TYR619  PRO620  LYS621  CYS622 
 ASP623  PHE694  ASN695  SER759  ASP760  ASP761  ALA762  ILE779  LEU786  VAL792 
 PHE793  MET794  SER795  GLU796  ALA797  LYS798  CYS799  TRP800  GLU811  SER814 

> <Gold.Protein.RotatedAtoms>
  151.5186  133.3471  159.2897 H   0  0  0  0  0  0  0  0  0  0  0  0  # atno 6907 bound_to 6896
  150.8667  134.8034  159.7135 H   0  0  0  0  0  0  0  0  0  0  0  0  # atno 6908 bound_to 6896
  152.4669  134.5064  159.9792 H   0  0  0  0  0  0  0  0  0  0  0  0  # atno 6909 bound_to 6896
  145.3732  139.2394  143.3444 H   0  0  0  0  0  0  0  0  0  0  0  0  # atno 7974 bound_to 7965
  155.8755  140.3447  155.5851 H   0  0  0  0  0  0  0  0  0  0  0  0  # atno 8008 bound_to 7997
  155.7779  140.0854  157.2093 H   0  0  0  0  0  0  0  0  0  0  0  0  # atno 8009 bound_to 7997
  154.4020  140.1506  156.3005 H   0  0  0  0  0  0  0  0  0  0  0  0  # atno 8010 bound_to 7997
  140.0357  144.5430  150.7473 H   0  0  0  0  0  0  0  0  0  0  0  0  # atno 10167 bound_to 10162
  156.3163  130.4259  149.8003 H   0  0  0  0  0  0  0  0  0  0  0  0  # atno 10718 bound_to 10713
  154.2834  135.6267  153.5356 H   0  0  0  0  0  0  0  0  0  0  0  0  # atno 10763 bound_to 10752
  152.9862  135.5638  154.5470 H   0  0  0  0  0  0  0  0  0  0  0  0  # atno 10764 bound_to 10752
  154.5066  135.2874  155.1353 H   0  0  0  0  0  0  0  0  0  0  0  0  # atno 10765 bound_to 10752
  141.0986  133.6621  156.4203 H   0  0  0  0  0  0  0  0  0  0  0  0  # atno 11005 bound_to 11000
  146.2876  140.4386  142.8752 LP  0  0  0  0  0  0  0  0  0  0  0  0  # atno 17320 bound_to 7965
  144.8561  140.7073  143.6137 LP  0  0  0  0  0  0  0  0  0  0  0  0  # atno 17321 bound_to 7965
  140.7282  143.2660  151.4044 LP  0  0  0  0  0  0  0  0  0  0  0  0  # atno 17342 bound_to 10162
  139.6047  144.1222  152.2236 LP  0  0  0  0  0  0  0  0  0  0  0  0  # atno 17343 bound_to 10162
  156.5327  130.8265  151.3242 LP  0  0  0  0  0  0  0  0  0  0  0  0  # atno 17370 bound_to 10713
  157.7402  130.9846  150.2363 LP  0  0  0  0  0  0  0  0  0  0  0  0  # atno 17371 bound_to 10713
  140.5078  134.6424  157.5273 LP  0  0  0  0  0  0  0  0  0  0  0  0  # atno 17394 bound_to 11000
  139.9830  134.7106  155.9824 LP  0  0  0  0  0  0  0  0  0  0  0  0  # atno 17395 bound_to 11000

$$$$
