AV-unprocessed.smi:2908|AV-procd|sdf|11167|dock1
  -GOLD-   2272016 53D 1   1.00000     0.00000
 Structure written by MMmdl.
 43 44  0  0  0  0  0  0  0  0  1 V2000
  149.7452  141.8186  154.0602 O   0  0  0  0  0  0  0  0  0  0  0  0
  149.1263  140.9282  154.6449 C   0  0  0  0  0  0  0  0  0  0  0  0
  149.5741  140.3843  155.7881 N   0  0  0  0  0  0  0  0  0  0  0  0
  150.7975  140.7850  156.4691 C   0  0  0  0  0  0  0  0  0  0  0  0
  150.8375  142.3066  156.6675 C   0  0  0  0  0  0  0  0  0  0  0  0
  151.4507  142.6943  158.0002 C   0  0  0  0  0  0  0  0  0  0  0  0
  150.8705  143.7069  158.7938 C   0  0  0  0  0  0  0  0  0  0  0  0
  151.4723  144.0186  160.0284 C   0  0  0  0  0  0  0  0  0  0  0  0
  152.6240  143.3094  160.4202 C   0  0  0  0  0  0  0  0  0  0  0  0
  153.1257  142.3164  159.5557 C   0  0  0  0  0  0  0  0  0  0  0  0
  152.5569  142.0101  158.3697 N   0  0  0  0  0  0  0  0  0  0  0  0
  147.9673  140.3981  154.1782 N   0  0  0  0  0  0  0  0  0  0  0  0
  147.1527  140.9194  153.0697 C   0  0  0  0  0  0  0  0  0  0  0  0
  147.3530  140.0130  151.8427 C   0  0  0  0  0  0  0  0  0  0  0  0
  146.9874  138.5368  152.1466 C   0  0  0  0  0  0  0  0  0  0  0  0
  147.2788  137.6194  150.9274 C   0  0  2  0  0  0  0  0  0  0  0  0
  146.8130  138.2679  149.7579 O   0  0  0  0  0  0  0  0  0  0  0  0
  146.6267  136.2175  150.9692 C   0  0  0  0  0  0  0  0  0  0  0  0
  147.2236  135.4714  151.9000 F   0  0  0  0  0  0  0  0  0  0  0  0
  145.3407  136.3059  151.3070 F   0  0  0  0  0  0  0  0  0  0  0  0
  146.7235  135.6083  149.7872 F   0  0  0  0  0  0  0  0  0  0  0  0
  147.6938  138.0764  153.4461 C   0  0  0  0  0  0  0  0  0  0  0  0
  147.4907  139.0768  154.5989 C   0  0  0  0  0  0  0  0  0  0  0  0
  149.0271  139.6503  156.2137 H   0  0  0  0  0  0  0  0  0  0  0  0
  150.8575  140.2815  157.4355 H   0  0  0  0  0  0  0  0  0  0  0  0
  151.6575  140.4600  155.8812 H   0  0  0  0  0  0  0  0  0  0  0  0
  151.4103  142.7747  155.8656 H   0  0  0  0  0  0  0  0  0  0  0  0
  149.8288  142.7172  156.6043 H   0  0  0  0  0  0  0  0  0  0  0  0
  149.9843  144.2312  158.4680 H   0  0  0  0  0  0  0  0  0  0  0  0
  151.0566  144.7867  160.6638 H   0  0  0  0  0  0  0  0  0  0  0  0
  153.1110  143.5211  161.3606 H   0  0  0  0  0  0  0  0  0  0  0  0
  154.0067  141.7526  159.8241 H   0  0  0  0  0  0  0  0  0  0  0  0
  146.1025  140.9189  153.3648 H   0  0  0  0  0  0  0  0  0  0  0  0
  147.3751  141.9527  152.8040 H   0  0  0  0  0  0  0  0  0  0  0  0
  146.7481  140.3929  151.0190 H   0  0  0  0  0  0  0  0  0  0  0  0
  148.3917  140.0761  151.5151 H   0  0  0  0  0  0  0  0  0  0  0  0
  145.9141  138.5026  152.3401 H   0  0  0  0  0  0  0  0  0  0  0  0
  148.3572  137.4957  150.8200 H   0  0  0  0  0  0  0  0  0  0  0  0
  145.9190  138.5384  149.9024 H   0  0  0  0  0  0  0  0  0  0  0  0
  147.3076  137.1088  153.7646 H   0  0  0  0  0  0  0  0  0  0  0  0
  148.7610  137.9454  153.2622 H   0  0  0  0  0  0  0  0  0  0  0  0
  147.9924  138.7154  155.4978 H   0  0  0  0  0  0  0  0  0  0  0  0
  146.4332  139.1390  154.8594 H   0  0  0  0  0  0  0  0  0  0  0  0
  1  2  2  0  0  0  0
  2  3  1  0  0  0  0
  2 12  1  0  0  0  0
  3  4  1  0  0  0  0
  3 24  1  0  0  0  0
  4  5  1  0  0  0  0
  4 25  1  0  0  0  0
  4 26  1  0  0  0  0
  5  6  1  0  0  0  0
  5 27  1  0  0  0  0
  5 28  1  0  0  0  0
  6 11  1  0  0  0  0
  6  7  2  0  0  0  0
  7  8  1  0  0  0  0
  7 29  1  0  0  0  0
  8  9  2  0  0  0  0
  8 30  1  0  0  0  0
  9 10  1  0  0  0  0
  9 31  1  0  0  0  0
 10 11  2  0  0  0  0
 10 32  1  0  0  0  0
 12 23  1  0  0  0  0
 12 13  1  0  0  0  0
 13 14  1  0  0  0  0
 13 33  1  0  0  0  0
 13 34  1  0  0  0  0
 14 15  1  0  0  0  0
 14 35  1  0  0  0  0
 14 36  1  0  0  0  0
 15 16  1  0  0  0  0
 15 22  1  0  0  0  0
 15 37  1  0  0  0  0
 16 17  1  0  0  0  0
 16 18  1  0  0  0  0
 16 38  1  0  0  0  0
 17 39  1  0  0  0  0
 18 19  1  0  0  0  0
 18 20  1  0  0  0  0
 18 21  1  0  0  0  0
 22 23  1  0  0  0  0
 22 40  1  0  0  0  0
 22 41  1  0  0  0  0
 23 42  1  0  0  0  0
 23 43  1  0  0  0  0
M  END
> <s_m_source_file>
AV-unprocessed.smi

> <i_m_source_file_index>
2908

> <i_lp_mmshare_version>
43012

> <i_f3d_flags>
0

> <s_epik_input>
RkMoRikoRilbQ0BASF0oW09IXSlbQ0hdKFtDSDJdW0NIMl0xKVtDSDJdW0NIMl1OMUMoPU8pW05IXVtDSDJdW0NIMl1jMltjSF1bY0hdW2NIXVtjSF1uMg==

> <s_epik_cmdline>
J2VwaWtfcHl0aG9uJywgJy1waCcsICc3LjAnLCAnLXRuJywgJzgnLCAnLW1hJywgJzIwMCcsICctbWV0YWxfYmluZGluZycsICctaW1hZScsICc8aW5maWxlLm1hZT4nLCAnLW9tYWUnLCAnPG91dGZpbGUubWFlPic=

> <r_epik_Ionization_Penalty>
0.0451198

> <r_epik_Ionization_Penalty_Charging>
0

> <r_epik_Ionization_Penalty_Neutral>
0.0451198

> <r_epik_State_Penalty>
0.0381178

> <r_epik_Charging_Adjusted_Penalty>
0.0381178

> <i_epik_Tot_Q>
0

> <i_epik_Tot_abs_Q>
0

> <r_epik_Metal_State_Penalty>
0.0354176

> <b_epik_Metal_Only>
0

> <s_lp_Force_Field>
OPLS_2005

> <r_lp_Energy>
35.4637

> <b_lp_Chiralities_Consistent>
1

> <s_lp_Variant>
AV-unprocessed.smi:2908-1

> <Gold.Version>
5.8.1

> <Gold.Id.Protein>
6NUR|6NUR_protein|mol2

> <Gold.PLP.Fitness>
48.9766

> <Gold.PLP.PLP>
-42.6535

> <Gold.PLP.part.hbond>
-4.0000

> <Gold.PLP.part.metal>
0.0000

> <Gold.PLP.part.buried>
2.3550

> <Gold.PLP.part.nonpolar>
-41.7002

> <Gold.PLP.part.repulsive>
0.2316

> <Gold.PLP.ligand.clash>
0.6495

> <Gold.PLP.ligand.torsion>
1.0541

> <Gold.PLP.Chemscore.Hbond>
2.8743

> <Gold.PLP.Chemscore.CHOScore>
0.0000

> <Gold.PLP.Chemscore.Metal>
0.0000

> <Gold.Chemscore.Hbonds>
donor molecule, donor type, donor heavy atom, donor atom, acceptor molecule, acceptor atom, score
      L1  H    17    39       P1 10171  1.00
      P1  H  7989  7998       L1     1  0.07
      P1  H  8011  8017       L1     1  0.46

> <Gold.PLP.Chemscore.Internal.Correction>
0.4581

> <Gold.Rescore>
     Score         DG    S(hbond)    S(metal)    S(lipo)     H(rot)  DE(clash)    DE(int)     intcor
     15.82     -21.06       2.65        0.00     108.09       2.30       4.32       0.93       ----

> <Gold.Chemscore.Fitness>
15.8216

> <Gold.Chemscore.DG>
-21.0627

> <Gold.Chemscore.ZeroCoef>
-5.4800

> <Gold.Chemscore.Hbond>
2.6458

> <Gold.Chemscore.Metal>
0.0000

> <Gold.Chemscore.Lipo>
108.0875

> <Gold.Chemscore.Internal_Hbond>
0.0000

> <Gold.Chemscore.DEClash>
4.3160

> <Gold.Chemscore.DEInternal>
0.9252

> <Gold.Chemscore.Rot>
2.3048

> <Gold.Chemscore.Internal.Correction>
   9.000000E+99

> <Gold.Chemscore.Hbonds>
donor molecule, donor type, donor heavy atom, donor atom, acceptor molecule, acceptor atom, score
      L1  H    17    39       P1 10171  0.94
      P1  H  7989  7998       L1     1  0.05
      P1  H  8011  8017       L1     1  0.46

> <Gold.Chemscore.Hbond.Weighted>
-8.8369

> <Gold.Chemscore.Metal.Weighted>
-0.0000

> <Gold.Chemscore.Lipo.Weighted>
-12.6462

> <Gold.Chemscore.Internal_Hbond.Weighted>
0.0000

> <Gold.Chemscore.DEClash.Weighted>
4.3160

> <Gold.Chemscore.DEInternal.Weighted>
0.9252

> <Gold.Chemscore.Rot.Weighted>
5.9004

> <Gold.Chemscore.Internal.Correction.Weighted>
   9.000000E+99

> <Gold.Protein.RotatedTorsions>
[ 6907 6896 6895 6894 ] final  -39.64 input  -60.11 | X-H torsion
[ 7974 7965 7964 7962 ] final  104.49 input  175.53 | X-H torsion
[ 8008 7997 7996 7995 ] final -132.79 input   59.86 | X-H torsion
[ 10167 10162 10161 10158 ] final  -37.23 input  -65.29 | X-H torsion
[ 10718 10713 10712 10709 ] final  178.19 input   66.30 | X-H torsion
[ 10763 10752 10751 10750 ] final   97.64 input  -60.55 | X-H torsion
[ 11005 11000 10999 10996 ] final  -26.30 input  -57.11 | X-H torsion

> <Gold.Protein.ActiveResidues>
 VAL166  LYS551  ARG553  GLY616  TRP617  ASP618  TYR619  PRO620  LYS621  CYS622 
 ASP623  PHE694  ASN695  SER759  ASP760  ASP761  ALA762  ILE779  LEU786  VAL792 
 PHE793  MET794  SER795  GLU796  ALA797  LYS798  CYS799  TRP800  GLU811  SER814 

> <Gold.Protein.RotatedAtoms>
  150.9879  134.9220  159.7882 H   0  0  0  0  0  0  0  0  0  0  0  0  # atno 6907 bound_to 6896
  152.5242  134.3321  159.9197 H   0  0  0  0  0  0  0  0  0  0  0  0  # atno 6908 bound_to 6896
  151.3328  133.3952  159.2698 H   0  0  0  0  0  0  0  0  0  0  0  0  # atno 6909 bound_to 6896
  145.3321  139.2484  143.3655 H   0  0  0  0  0  0  0  0  0  0  0  0  # atno 7974 bound_to 7965
  155.3347  140.0469  157.3043 H   0  0  0  0  0  0  0  0  0  0  0  0  # atno 8008 bound_to 7997
  154.5309  140.2256  155.8771 H   0  0  0  0  0  0  0  0  0  0  0  0  # atno 8009 bound_to 7997
  156.1787  140.3079  155.9114 H   0  0  0  0  0  0  0  0  0  0  0  0  # atno 8010 bound_to 7997
  140.7123  143.3356  151.2471 H   0  0  0  0  0  0  0  0  0  0  0  0  # atno 10167 bound_to 10162
  156.8942  130.9857  151.3045 H   0  0  0  0  0  0  0  0  0  0  0  0  # atno 10718 bound_to 10713
  153.2793  135.4176  155.1063 H   0  0  0  0  0  0  0  0  0  0  0  0  # atno 10763 bound_to 10752
  154.8484  135.3491  154.6134 H   0  0  0  0  0  0  0  0  0  0  0  0  # atno 10764 bound_to 10752
  153.6555  135.7051  153.5252 H   0  0  0  0  0  0  0  0  0  0  0  0  # atno 10765 bound_to 10752
  140.9016  133.7520  156.0551 H   0  0  0  0  0  0  0  0  0  0  0  0  # atno 11005 bound_to 11000
  146.3041  140.3901  142.8693 LP  0  0  0  0  0  0  0  0  0  0  0  0  # atno 17320 bound_to 7965
  144.8856  140.7457  143.5959 LP  0  0  0  0  0  0  0  0  0  0  0  0  # atno 17321 bound_to 7965
  139.6850  143.9789  152.2829 LP  0  0  0  0  0  0  0  0  0  0  0  0  # atno 17342 bound_to 10162
  139.9432  144.6668  150.8245 LP  0  0  0  0  0  0  0  0  0  0  0  0  # atno 17343 bound_to 10162
  157.6065  130.8551  149.8884 LP  0  0  0  0  0  0  0  0  0  0  0  0  # atno 17370 bound_to 10713
  156.0614  130.3699  150.0975 LP  0  0  0  0  0  0  0  0  0  0  0  0  # atno 17371 bound_to 10713
  140.8222  134.3275  157.5377 LP  0  0  0  0  0  0  0  0  0  0  0  0  # atno 17394 bound_to 11000
  139.8743  134.9316  156.3532 LP  0  0  0  0  0  0  0  0  0  0  0  0  # atno 17395 bound_to 11000

$$$$
