#       Name:                AV-unprocessed.smi:995
#       Creating user name   scv26
#       Creation time:       Fri Mar 27 02:24:26 2020


#       File generated by GOLD software.
#

@<TRIPOS>MOLECULE
AV-unprocessed.smi:995
    46    47     1
SMALL
NO_CHARGES


@<TRIPOS>ATOM
      1 ****        -2.3641  -2.3136   0.0094 O.2            1 S1                 0.0000
      2 ****        -2.6445  -1.1435   0.2679 C.2            1 S1                 0.0000
      3 ****        -1.7411  -0.1820   0.5365 N.am           1 S1                 0.0000
      4 ****        -0.3220  -0.2640   0.5770 C.ar           1 S1                 0.0000
      5 ****         0.4160  -1.4697   0.6564 C.ar           1 S1                 0.0000
      6 ****         1.8222  -1.4056   0.6947 C.ar           1 S1                 0.0000
      7 ****         2.4493  -0.1445   0.6618 C.ar           1 S1                 0.0000
      8 ****         3.8277  -0.0915   0.6924 O.3            1 S1                 0.0000
      9 ****         4.4604   1.1854   0.6633 C.3            1 S1                 0.0000
     10 ****         5.9844   0.9953   0.6456 C.3            1 S1                 0.0000
     11 ****         6.3592   0.3322   1.7404 F              1 S1                 0.0000
     12 ****         6.3013   0.2839  -0.4371 F              1 S1                 0.0000
     13 ****         6.7413   2.3318   0.5813 C.3            1 S1                 0.0000
     14 ****         6.4078   3.1237   1.6008 F              1 S1                 0.0000
     15 ****         8.0589   2.1291   0.5900 F              1 S1                 0.0000
     16 ****         1.7490   1.0146   0.6022 N.ar           1 S1                 0.0000
     17 ****         0.4021   0.9461   0.5638 C.ar           1 S1                 0.0000
     18 ****        -4.1152  -0.6843   0.2968 C.3            1 S1                 0.0000
     19 ****        -5.1373  -1.7658  -0.1270 C.3            1 S1                 0.0000
     20 ****        -5.0498  -2.0102  -1.5260 O.3            1 S1                 0.0000
     21 ****        -5.3003  -0.8304  -2.2763 C.3            1 S1                 0.0000
     22 ****        -4.2465   0.2275  -1.9128 C.3            1 S1                 0.0000
     23 ****        -4.3045   0.4810  -0.5107 O.3            1 S1                 0.0000
     24 ****        -2.1218   0.7430   0.6759 H              1 S1                 0.0000
     25 ****        -0.0574  -2.4375   0.6985 H              1 S1                 0.0000
     26 ****         2.4103  -2.3098   0.7500 H              1 S1                 0.0000
     27 ****         4.1539   1.7406  -0.2250 H              1 S1                 0.0000
     28 ****         4.1664   1.7654   1.5398 H              1 S1                 0.0000
     29 ****         6.5059   2.8756  -0.3340 H              1 S1                 0.0000
     30 ****        -0.1149   1.8935   0.5165 H              1 S1                 0.0000
     31 ****        -4.3276  -0.4004   1.3281 H              1 S1                 0.0000
     32 ****        -4.9686  -2.6989   0.4120 H              1 S1                 0.0000
     33 ****        -6.1496  -1.4459   0.1247 H              1 S1                 0.0000
     34 ****        -5.2480  -1.0665  -3.3392 H              1 S1                 0.0000
     35 ****        -6.3080  -0.4621  -2.0776 H              1 S1                 0.0000
     36 ****        -3.2499  -0.0986  -2.2129 H              1 S1                 0.0000
     37 ****        -4.4461   1.1565  -2.4468 H              1 S1                 0.0000
     38 ****        -1.4079  -2.6058  -0.0113 LP             1 S1                 0.0000
     39 ****        -3.0924  -2.9722  -0.1800 LP             1 S1                 0.0000
     40 ****         4.1604  -0.6038  -0.0993 LP             1 S1                 0.0000
     41 ****         4.1220  -0.5476   1.5322 LP             1 S1                 0.0000
     42 ****         2.2185   1.8974   0.5871 LP             1 S1                 0.0000
     43 ****        -5.7239  -2.7047  -1.7775 LP             1 S1                 0.0000
     44 ****        -4.1318  -2.3435  -1.7410 LP             1 S1                 0.0000
     45 ****        -3.5911   1.1429  -0.2806 LP             1 S1                 0.0000
     46 ****        -5.2010   0.8695  -0.2977 LP             1 S1                 0.0000
@<TRIPOS>BOND
    1    1    2 2     
    2    2    3 am    
    3    2   18 1     
    4    3    4 1     
    5    3   24 1     
    6    4   17 ar    
    7    4    5 ar    
    8    5    6 ar    
    9    5   25 1     
   10    6    7 ar    
   11    6   26 1     
   12    7    8 1     
   13    7   16 ar    
   14    8    9 1     
   15    9   10 1     
   16    9   27 1     
   17    9   28 1     
   18   10   11 1     
   19   10   12 1     
   20   10   13 1     
   21   13   14 1     
   22   13   15 1     
   23   13   29 1     
   24   16   17 ar    
   25   17   30 1     
   26   18   23 1     
   27   18   19 1     
   28   18   31 1     
   29   19   20 1     
   30   19   32 1     
   31   19   33 1     
   32   20   21 1     
   33   21   22 1     
   34   21   34 1     
   35   21   35 1     
   36   22   23 1     
   37   22   36 1     
   38   22   37 1     
   39    1   38 1     
   40    1   39 1     
   41    8   40 1     
   42    8   41 1     
   43   16   42 1     
   44   20   43 1     
   45   20   44 1     
   46   23   45 1     
   47   23   46 1     
@<TRIPOS>SUBSTRUCTURE
      1 S1             1
@<TRIPOS>SET
LONE_PAIRS      STATIC     ATOMS    <user>   **** ""
9 38 39 40 41 42 43 44 45 46
DONOR_HYDROGENS      STATIC     ATOMS    <user>   **** ""
1 24
ATOM$BLUE        STATIC     ATOMS    COLORGROUP SYSTEM
9 38 39 40 41 42 43 44 45 46
ATOM$RED        STATIC     ATOMS    COLORGROUP SYSTEM
1 24
