AV-unprocessed.smi:83|AV-procd|sdf|801|dock3
  -GOLD-   2262017183D 1   1.00000     0.00000
 Structure written by MMmdl.
 56 59  0  0  0  0  0  0  0  0  1 V2000
  147.9050  146.1940  160.5067 C   0  0  0  0  0  0  0  0  0  0  0  0
  148.4401  144.7845  160.2480 C   0  0  0  0  0  0  0  0  0  0  0  0
  147.6993  143.8199  160.4386 O   0  0  0  0  0  0  0  0  0  0  0  0
  149.7115  144.6501  159.8201 N   0  0  0  0  0  0  0  0  0  0  0  0
  150.6459  145.7451  159.5650 C   0  0  0  0  0  0  0  0  0  0  0  0
  151.8716  145.0953  158.9197 C   0  0  0  0  0  0  0  0  0  0  0  0
  151.8447  143.6595  159.4325 C   0  0  2  0  0  0  0  0  0  0  0  0
  152.6367  142.6686  158.5571 C   0  0  0  0  0  0  0  0  0  0  0  0
  152.7385  141.3382  159.1603 N   0  0  0  0  0  0  0  0  0  0  0  0
  152.1990  140.2034  158.4223 C   0  0  0  0  0  0  0  0  0  0  0  0
  153.6565  141.1267  160.1431 C   0  0  0  0  0  0  0  0  0  0  0  0
  153.4358  141.7020  161.3550 N   0  0  0  0  0  0  0  0  0  0  0  0
  154.3013  141.5364  162.3583 C   0  0  0  0  0  0  0  0  0  0  0  0
  155.4411  140.8456  162.3696 N   0  0  0  0  0  0  0  0  0  0  0  0
  155.6780  140.2671  161.1585 C   0  0  0  0  0  0  0  0  0  0  0  0
  154.8476  140.3500  160.0023 C   0  0  0  0  0  0  0  0  0  0  0  0
  155.4342  139.6355  158.9617 N   0  0  0  0  0  0  0  0  0  0  0  0
  156.5344  139.1563  159.4725 C   0  0  0  0  0  0  0  0  0  0  0  0
  156.7583  139.4861  160.7882 N   0  0  0  0  0  0  0  0  0  0  0  0
  157.8983  139.0905  161.5964 C   0  0  0  0  0  0  0  0  0  0  0  0
  157.7079  139.4345  163.0860 C   0  0  2  0  0  0  0  0  0  0  0  0
  158.9603  139.5920  163.7258 O   0  0  0  0  0  0  0  0  0  0  0  0
  156.8375  138.4015  163.8305 C   0  0  2  0  0  0  0  0  0  0  0  0
  155.4697  138.0900  163.2180 C   0  0  0  0  0  0  0  0  0  0  0  0
  154.7317  137.5406  164.4184 C   0  0  0  0  0  0  0  0  0  0  0  0
  155.2539  138.4326  165.5428 C   0  0  0  0  0  0  0  0  0  0  0  0
  156.5889  138.7796  165.1823 O   0  0  0  0  0  0  0  0  0  0  0  0
  150.3453  143.3625  159.5512 C   0  0  0  0  0  0  0  0  0  0  0  0
  148.5267  146.7170  161.2337 H   0  0  0  0  0  0  0  0  0  0  0  0
  146.8893  146.1536  160.9015 H   0  0  0  0  0  0  0  0  0  0  0  0
  147.8833  146.7728  159.5832 H   0  0  0  0  0  0  0  0  0  0  0  0
  150.2193  146.5096  158.9143 H   0  0  0  0  0  0  0  0  0  0  0  0
  150.9165  146.2128  160.5128 H   0  0  0  0  0  0  0  0  0  0  0  0
  151.7591  145.1056  157.8346 H   0  0  0  0  0  0  0  0  0  0  0  0
  152.7994  145.6134  159.1637 H   0  0  0  0  0  0  0  0  0  0  0  0
  152.2687  143.6665  160.4381 H   0  0  0  0  0  0  0  0  0  0  0  0
  152.2093  142.6261  157.5553 H   0  0  0  0  0  0  0  0  0  0  0  0
  153.6494  143.0490  158.4201 H   0  0  0  0  0  0  0  0  0  0  0  0
  151.9347  139.3882  159.0968 H   0  0  0  0  0  0  0  0  0  0  0  0
  152.9218  139.8378  157.6925 H   0  0  0  0  0  0  0  0  0  0  0  0
  151.2955  140.4919  157.8846 H   0  0  0  0  0  0  0  0  0  0  0  0
  154.0437  142.0294  163.2840 H   0  0  0  0  0  0  0  0  0  0  0  0
  157.2179  138.5460  158.9000 H   0  0  0  0  0  0  0  0  0  0  0  0
  158.0425  138.0161  161.4747 H   0  0  0  0  0  0  0  0  0  0  0  0
  158.7942  139.5707  161.2006 H   0  0  0  0  0  0  0  0  0  0  0  0
  157.2046  140.3999  163.1543 H   0  0  0  0  0  0  0  0  0  0  0  0
  159.3212  138.7351  163.8939 H   0  0  0  0  0  0  0  0  0  0  0  0
  157.3953  137.4648  163.8845 H   0  0  0  0  0  0  0  0  0  0  0  0
  154.9700  138.9932  162.8654 H   0  0  0  0  0  0  0  0  0  0  0  0
  155.5258  137.3844  162.3887 H   0  0  0  0  0  0  0  0  0  0  0  0
  153.6474  137.5793  164.3117 H   0  0  0  0  0  0  0  0  0  0  0  0
  155.0222  136.5039  164.5949 H   0  0  0  0  0  0  0  0  0  0  0  0
  154.6646  139.3483  165.6050 H   0  0  0  0  0  0  0  0  0  0  0  0
  155.2183  137.9409  166.5152 H   0  0  0  0  0  0  0  0  0  0  0  0
  150.1475  142.6344  160.3398 H   0  0  0  0  0  0  0  0  0  0  0  0
  149.9470  142.9662  158.6161 H   0  0  0  0  0  0  0  0  0  0  0  0
  1  2  1  0  0  0  0
  1 29  1  0  0  0  0
  1 30  1  0  0  0  0
  1 31  1  0  0  0  0
  2  3  2  0  0  0  0
  2  4  1  0  0  0  0
  4 28  1  0  0  0  0
  4  5  1  0  0  0  0
  5  6  1  0  0  0  0
  5 32  1  0  0  0  0
  5 33  1  0  0  0  0
  6  7  1  0  0  0  0
  6 34  1  0  0  0  0
  6 35  1  0  0  0  0
  7  8  1  0  0  0  0
  7 28  1  0  0  0  0
  7 36  1  0  0  0  0
  8  9  1  0  0  0  0
  8 37  1  0  0  0  0
  8 38  1  0  0  0  0
  9 10  1  0  0  0  0
  9 11  1  0  0  0  0
 10 39  1  0  0  0  0
 10 40  1  0  0  0  0
 10 41  1  0  0  0  0
 11 16  1  0  0  0  0
 11 12  2  0  0  0  0
 12 13  1  0  0  0  0
 13 14  2  0  0  0  0
 13 42  1  0  0  0  0
 14 15  1  0  0  0  0
 15 19  1  0  0  0  0
 15 16  2  0  0  0  0
 16 17  1  0  0  0  0
 17 18  2  0  0  0  0
 18 19  1  0  0  0  0
 18 43  1  0  0  0  0
 19 20  1  0  0  0  0
 20 21  1  0  0  0  0
 20 44  1  0  0  0  0
 20 45  1  0  0  0  0
 21 22  1  0  0  0  0
 21 23  1  0  0  0  0
 21 46  1  0  0  0  0
 22 47  1  0  0  0  0
 23 27  1  0  0  0  0
 23 24  1  0  0  0  0
 23 48  1  0  0  0  0
 24 25  1  0  0  0  0
 24 49  1  0  0  0  0
 24 50  1  0  0  0  0
 25 26  1  0  0  0  0
 25 51  1  0  0  0  0
 25 52  1  0  0  0  0
 26 27  1  0  0  0  0
 26 53  1  0  0  0  0
 26 54  1  0  0  0  0
 28 55  1  0  0  0  0
 28 56  1  0  0  0  0
M  END
> <s_m_source_file>
AV-unprocessed.smi

> <i_m_source_file_index>
83

> <i_lp_mmshare_version>
43012

> <i_f3d_flags>
0

> <s_epik_input>
W0NIM11DKD1PKU4xW0NIMl1bQ0gyXVtDQEhdKFtDSDJdMSlbQ0gyXU4oW0NIM10pYyhuW2NIXW4yKWMoYzIzKW5bY0hdbjNbQ0gyXVtDQEhdKFtPSF0pW0NAQEhdNFtDSDJdW0NIMl1bQ0gyXU80

> <s_epik_cmdline>
J2VwaWtfcHl0aG9uJywgJy1waCcsICc3LjAnLCAnLXRuJywgJzgnLCAnLW1hJywgJzIwMCcsICctbWV0YWxfYmluZGluZycsICctaW1hZScsICc8aW5maWxlLm1hZT4nLCAnLW9tYWUnLCAnPG91dGZpbGUubWFlPic=

> <r_lp_tautomer_probability>
1

> <r_epik_Ionization_Penalty>
0.00109752

> <r_epik_Ionization_Penalty_Charging>
0

> <r_epik_Ionization_Penalty_Neutral>
0.00109752

> <r_epik_State_Penalty>
0.000634803

> <r_epik_Charging_Adjusted_Penalty>
0.000634803

> <i_epik_Tot_Q>
0

> <i_epik_Tot_abs_Q>
0

> <r_epik_Metal_State_Penalty>
-0

> <b_epik_Metal_Only>
0

> <s_lp_Force_Field>
OPLS_2005

> <r_lp_Energy>
56.4298

> <b_lp_Chiralities_Consistent>
1

> <s_lp_Variant>
AV-unprocessed.smi:83-2

> <Gold.Version>
5.8.1

> <Gold.Id.Protein>
6NUR|6NUR_protein|mol2

> <Gold.PLP.Fitness>
44.7168

> <Gold.PLP.PLP>
-41.4885

> <Gold.PLP.part.hbond>
-3.0000

> <Gold.PLP.part.metal>
0.0000

> <Gold.PLP.part.buried>
-0.1925

> <Gold.PLP.part.nonpolar>
-38.5722

> <Gold.PLP.part.repulsive>
0.1124

> <Gold.PLP.ligand.clash>
0.0000

> <Gold.PLP.ligand.torsion>
1.6373

> <Gold.PLP.Chemscore.Hbond>
2.0000

> <Gold.PLP.Chemscore.CHOScore>
0.0000

> <Gold.PLP.Chemscore.Metal>
0.0000

> <Gold.Chemscore.Hbonds>
donor molecule, donor type, donor heavy atom, donor atom, acceptor molecule, acceptor atom, score
      P1  H  6933  6944       L1     3  1.00
      P1  H  7997  8009       L1    17  1.00

> <Gold.PLP.Chemscore.Internal.Correction>
0.5030

> <Gold.Rescore>
     Score         DG    S(hbond)    S(metal)    S(lipo)     H(rot)  DE(clash)    DE(int)     intcor
      9.28     -16.62       1.93        0.00      97.24       2.62       4.03       3.31       ----

> <Gold.Chemscore.Fitness>
9.2754

> <Gold.Chemscore.DG>
-16.6170

> <Gold.Chemscore.ZeroCoef>
-5.4800

> <Gold.Chemscore.Hbond>
1.9324

> <Gold.Chemscore.Metal>
0.0000

> <Gold.Chemscore.Lipo>
97.2443

> <Gold.Chemscore.Internal_Hbond>
0.0000

> <Gold.Chemscore.DEClash>
4.0321

> <Gold.Chemscore.DEInternal>
3.3095

> <Gold.Chemscore.Rot>
2.6152

> <Gold.Chemscore.Internal.Correction>
   9.000000E+99

> <Gold.Chemscore.Hbonds>
donor molecule, donor type, donor heavy atom, donor atom, acceptor molecule, acceptor atom, score
      P1  H  6933  6944       L1     3  0.90
      P1  H  7997  8009       L1    17  0.94

> <Gold.Chemscore.Hbond.Weighted>
-6.4543

> <Gold.Chemscore.Metal.Weighted>
-0.0000

> <Gold.Chemscore.Lipo.Weighted>
-11.3776

> <Gold.Chemscore.Internal_Hbond.Weighted>
0.0000

> <Gold.Chemscore.DEClash.Weighted>
4.0321

> <Gold.Chemscore.DEInternal.Weighted>
3.3095

> <Gold.Chemscore.Rot.Weighted>
6.6949

> <Gold.Chemscore.Internal.Correction.Weighted>
   9.000000E+99

> <Gold.Protein.RotatedTorsions>
[ 6907 6896 6895 6894 ] final -154.86 input  -60.11 | X-H torsion
[ 7974 7965 7964 7962 ] final   99.20 input  175.53 | X-H torsion
[ 8008 7997 7996 7995 ] final   98.84 input   59.86 | X-H torsion
[ 10167 10162 10161 10158 ] final  -20.63 input  -65.29 | X-H torsion
[ 10718 10713 10712 10709 ] final  -33.41 input   66.30 | X-H torsion
[ 10763 10752 10751 10750 ] final  -70.34 input  -60.55 | X-H torsion
[ 11005 11000 10999 10996 ] final -152.35 input  -57.11 | X-H torsion

> <Gold.Protein.ActiveResidues>
 VAL166  LYS551  ARG553  GLY616  TRP617  ASP618  TYR619  PRO620  LYS621  CYS622 
 ASP623  PHE694  ASN695  SER759  ASP760  ASP761  ALA762  ILE779  LEU786  VAL792 
 PHE793  MET794  SER795  GLU796  ALA797  LYS798  CYS799  TRP800  GLU811  SER814 

> <Gold.Protein.RotatedAtoms>
  151.2638  133.4289  159.2617 H   0  0  0  0  0  0  0  0  0  0  0  0  # atno 6907 bound_to 6896
  151.0507  134.9671  159.8220 H   0  0  0  0  0  0  0  0  0  0  0  0  # atno 6908 bound_to 6896
  152.5382  134.2592  159.8981 H   0  0  0  0  0  0  0  0  0  0  0  0  # atno 6909 bound_to 6896
  145.4020  139.2346  143.3295 H   0  0  0  0  0  0  0  0  0  0  0  0  # atno 7974 bound_to 7965
  156.1045  140.3237  155.7987 H   0  0  0  0  0  0  0  0  0  0  0  0  # atno 8008 bound_to 7997
  155.4779  140.0551  157.2988 H   0  0  0  0  0  0  0  0  0  0  0  0  # atno 8009 bound_to 7997
  154.4718  140.2015  155.9989 H   0  0  0  0  0  0  0  0  0  0  0  0  # atno 8010 bound_to 7997
  140.7277  143.4704  151.0255 H   0  0  0  0  0  0  0  0  0  0  0  0  # atno 10167 bound_to 10162
  156.3630  130.4327  149.7607 H   0  0  0  0  0  0  0  0  0  0  0  0  # atno 10718 bound_to 10713
  154.4162  135.5997  153.5982 H   0  0  0  0  0  0  0  0  0  0  0  0  # atno 10763 bound_to 10752
  152.9792  135.5941  154.4010 H   0  0  0  0  0  0  0  0  0  0  0  0  # atno 10764 bound_to 10752
  154.3829  135.2841  155.2179 H   0  0  0  0  0  0  0  0  0  0  0  0  # atno 10765 bound_to 10752
  140.7198  134.3740  157.5185 H   0  0  0  0  0  0  0  0  0  0  0  0  # atno 11005 bound_to 11000
  146.2747  140.4719  142.8800 LP  0  0  0  0  0  0  0  0  0  0  0  0  # atno 17320 bound_to 7965
  144.8367  140.6794  143.6255 LP  0  0  0  0  0  0  0  0  0  0  0  0  # atno 17321 bound_to 7965
  139.8395  143.7582  152.3180 LP  0  0  0  0  0  0  0  0  0  0  0  0  # atno 17342 bound_to 10162
  139.7726  144.7471  151.0202 LP  0  0  0  0  0  0  0  0  0  0  0  0  # atno 17343 bound_to 10162
  156.4764  130.8020  151.3036 LP  0  0  0  0  0  0  0  0  0  0  0  0  # atno 17370 bound_to 10713
  157.7476  131.0019  150.2982 LP  0  0  0  0  0  0  0  0  0  0  0  0  # atno 17371 bound_to 10713
  139.8851  134.8947  156.2664 LP  0  0  0  0  0  0  0  0  0  0  0  0  # atno 17394 bound_to 11000
  141.0013  133.7150  156.0965 LP  0  0  0  0  0  0  0  0  0  0  0  0  # atno 17395 bound_to 11000

$$$$
