#       Name:                AV-unprocessed.smi:2149
#       Creating user name   scv26
#       Creation time:       Fri Mar 27 11:52:54 2020


#       File generated by GOLD software.
#

@<TRIPOS>MOLECULE
AV-unprocessed.smi:2149
    45    46     1
SMALL
NO_CHARGES


@<TRIPOS>ATOM
      1 ****        -4.4596  -0.1418  -1.6031 C.3            1 S1                 0.0000
      2 ****        -4.3914  -1.9796  -1.5727 S.o2           1 S1                 0.0000
      3 ****        -5.7342  -2.4833  -1.2460 O.2            1 S1                 0.0000
      4 ****        -3.7217  -2.4324  -2.8015 O.2            1 S1                 0.0000
      5 ****        -3.3448  -2.3440  -0.2307 N.pl3          1 S1                 0.0000
      6 ****        -3.8556  -2.2524   1.1525 C.3            1 S1                 0.0000
      7 ****        -3.3921  -0.9594   1.8457 C.3            1 S1                 0.0000
      8 ****        -1.8687  -0.8063   1.7731 C.3            1 S1                 0.0000
      9 ****        -1.4112  -0.8488   0.3041 C.3            1 S1                 0.0000
     10 ****         0.1126  -0.7024   0.1959 C.2            1 S1                 0.0000
     11 ****         0.8553  -1.5048   0.7623 O.2            1 S1                 0.0000
     12 ****         0.5655   0.3293  -0.5334 N.am           1 S1                 0.0000
     13 ****         1.9718   0.6455  -0.7528 C.3            1 S1                 0.0000
     14 ****         2.5645   1.4291   0.4299 C.3            1 S1                 0.0000
     15 ****         4.0186   1.7971   0.2037 C.ar           1 S1                 0.0000
     16 ****         4.3733   3.0855  -0.2500 C.ar           1 S1                 0.0000
     17 ****         5.7370   3.3737  -0.4516 C.ar           1 S1                 0.0000
     18 ****         6.6883   2.3679  -0.1938 C.ar           1 S1                 0.0000
     19 ****         6.2317   1.1128   0.2555 C.ar           1 S1                 0.0000
     20 ****         4.9264   0.8259   0.4506 N.ar           1 S1                 0.0000
     21 ****        -1.8847  -2.1597  -0.3631 C.3            1 S1                 0.0000
     22 ****        -5.1250   0.1753  -2.4056 H              1 S1                 0.0000
     23 ****        -3.4662   0.2626  -1.7896 H              1 S1                 0.0000
     24 ****        -4.8451   0.2316  -0.6564 H              1 S1                 0.0000
     25 ****        -4.9430  -2.3200   1.1630 H              1 S1                 0.0000
     26 ****        -3.4893  -3.1147   1.7106 H              1 S1                 0.0000
     27 ****        -3.8702  -0.0948   1.3871 H              1 S1                 0.0000
     28 ****        -3.7127  -0.9666   2.8878 H              1 S1                 0.0000
     29 ****        -1.5695   0.1330   2.2400 H              1 S1                 0.0000
     30 ****        -1.3955  -1.6063   2.3450 H              1 S1                 0.0000
     31 ****        -1.8671  -0.0061  -0.2150 H              1 S1                 0.0000
     32 ****        -0.1122   0.9404  -0.9661 H              1 S1                 0.0000
     33 ****         2.5391  -0.2698  -0.9313 H              1 S1                 0.0000
     34 ****         2.0466   1.2384  -1.6647 H              1 S1                 0.0000
     35 ****         1.9874   2.3386   0.6017 H              1 S1                 0.0000
     36 ****         2.4901   0.8424   1.3468 H              1 S1                 0.0000
     37 ****         3.6202   3.8360  -0.4409 H              1 S1                 0.0000
     38 ****         6.0475   4.3485  -0.7977 H              1 S1                 0.0000
     39 ****         7.7425   2.5531  -0.3368 H              1 S1                 0.0000
     40 ****         6.9331   0.3184   0.4631 H              1 S1                 0.0000
     41 ****        -1.3924  -3.0163   0.0999 H              1 S1                 0.0000
     42 ****        -1.5998  -2.1774  -1.4151 H              1 S1                 0.0000
     43 ****         0.4661  -2.2558   1.2956 LP             1 S1                 0.0000
     44 ****         1.8476  -1.4053   0.6889 LP             1 S1                 0.0000
     45 ****         4.6398  -0.0779   0.7682 LP             1 S1                 0.0000
@<TRIPOS>BOND
    1    1    2 1     
    2    1   22 1     
    3    1   23 1     
    4    1   24 1     
    5    2    3 2     
    6    2    4 2     
    7    2    5 1     
    8    5   21 1     
    9    5    6 1     
   10    6    7 1     
   11    6   25 1     
   12    6   26 1     
   13    7    8 1     
   14    7   27 1     
   15    7   28 1     
   16    8    9 1     
   17    8   29 1     
   18    8   30 1     
   19    9   10 1     
   20    9   21 1     
   21    9   31 1     
   22   10   11 2     
   23   10   12 am    
   24   12   13 1     
   25   12   32 1     
   26   13   14 1     
   27   13   33 1     
   28   13   34 1     
   29   14   15 1     
   30   14   35 1     
   31   14   36 1     
   32   15   20 ar    
   33   15   16 ar    
   34   16   17 ar    
   35   16   37 1     
   36   17   18 ar    
   37   17   38 1     
   38   18   19 ar    
   39   18   39 1     
   40   19   20 ar    
   41   19   40 1     
   42   21   41 1     
   43   21   42 1     
   44   11   43 1     
   45   11   44 1     
   46   20   45 1     
@<TRIPOS>SUBSTRUCTURE
      1 S1             1
@<TRIPOS>SET
LONE_PAIRS      STATIC     ATOMS    <user>   **** ""
5 3 4 43 44 45
DONOR_HYDROGENS      STATIC     ATOMS    <user>   **** ""
1 32
ATOM$BLUE        STATIC     ATOMS    COLORGROUP SYSTEM
5 3 4 43 44 45
ATOM$RED        STATIC     ATOMS    COLORGROUP SYSTEM
1 32
