AV-unprocessed.smi:2416|AV-procd|sdf|9546|dock8
  -GOLD-   2272013183D 1   1.00000     0.00000
 Structure written by MMmdl.
 40 41  0  0  0  0  0  0  0  0  1 V2000
  138.0557  141.2984  156.3162 C   0  0  0  0  0  0  0  0  0  0  0  0
  138.3745  140.0153  155.7907 O   0  0  0  0  0  0  0  0  0  0  0  0
  138.6519  139.9283  154.3858 C   0  0  1  0  0  0  0  0  0  0  0  0
  137.4345  140.3808  153.5699 C   0  0  0  0  0  0  0  0  0  0  0  0
  140.0343  140.5334  154.0761 C   0  0  0  0  0  0  0  0  0  0  0  0
  140.6333  139.1862  154.4741 C   0  0  2  0  0  0  0  0  0  0  0  0
  141.7691  138.8122  153.6379 N   0  0  0  0  0  0  0  0  0  0  0  0
  142.2036  137.5564  153.4645 C   0  0  0  0  0  0  0  0  0  0  0  0
  141.6787  136.5779  153.9964 O   0  0  0  0  0  0  0  0  0  0  0  0
  143.2696  137.5203  152.6458 N   0  0  0  0  0  0  0  0  0  0  0  0
  143.9951  136.3846  152.1974 C   0  0  0  0  0  0  0  0  0  0  0  0
  143.2988  135.1577  152.2860 C   0  0  0  0  0  0  0  0  0  0  0  0
  143.9308  133.9701  151.8684 C   0  0  0  0  0  0  0  0  0  0  0  0
  145.2453  134.0421  151.3743 C   0  0  0  0  0  0  0  0  0  0  0  0
  145.8936  132.9276  150.9609 F   0  0  0  0  0  0  0  0  0  0  0  0
  145.8691  135.3023  151.3208 C   0  0  0  0  0  0  0  0  0  0  0  0
  145.2640  136.4414  151.7199 N   0  0  0  0  0  0  0  0  0  0  0  0
  139.2826  138.5275  154.0902 C   0  0  0  0  0  0  0  0  0  0  0  0
  138.8233  137.3696  154.9836 C   0  0  0  0  0  0  0  0  0  0  0  0
  139.1471  138.0180  152.6425 C   0  0  0  0  0  0  0  0  0  0  0  0
  138.0116  141.2354  157.4034 H   0  0  0  0  0  0  0  0  0  0  0  0
  137.0795  141.6427  155.9754 H   0  0  0  0  0  0  0  0  0  0  0  0
  138.8009  142.0508  156.0601 H   0  0  0  0  0  0  0  0  0  0  0  0
  137.5796  140.2210  152.5021 H   0  0  0  0  0  0  0  0  0  0  0  0
  137.2362  141.4454  153.6905 H   0  0  0  0  0  0  0  0  0  0  0  0
  136.5371  139.8354  153.8628 H   0  0  0  0  0  0  0  0  0  0  0  0
  140.1625  140.7740  153.0192 H   0  0  0  0  0  0  0  0  0  0  0  0
  140.3495  141.3647  154.7054 H   0  0  0  0  0  0  0  0  0  0  0  0
  140.8396  139.1380  155.5459 H   0  0  0  0  0  0  0  0  0  0  0  0
  142.2567  139.5600  153.1666 H   0  0  0  0  0  0  0  0  0  0  0  0
  143.5985  138.4096  152.3005 H   0  0  0  0  0  0  0  0  0  0  0  0
  142.2890  135.1221  152.6688 H   0  0  0  0  0  0  0  0  0  0  0  0
  143.4153  133.0228  151.9266 H   0  0  0  0  0  0  0  0  0  0  0  0
  146.8784  135.3996  150.9492 H   0  0  0  0  0  0  0  0  0  0  0  0
  139.3551  136.4465  154.7511 H   0  0  0  0  0  0  0  0  0  0  0  0
  137.7569  137.1746  154.8661 H   0  0  0  0  0  0  0  0  0  0  0  0
  139.0016  137.5733  156.0396 H   0  0  0  0  0  0  0  0  0  0  0  0
  139.7583  137.1317  152.4683 H   0  0  0  0  0  0  0  0  0  0  0  0
  139.4562  138.7653  151.9117 H   0  0  0  0  0  0  0  0  0  0  0  0
  138.1167  137.7478  152.4094 H   0  0  0  0  0  0  0  0  0  0  0  0
  1  2  1  0  0  0  0
  1 21  1  0  0  0  0
  1 22  1  0  0  0  0
  1 23  1  0  0  0  0
  2  3  1  0  0  0  0
  3 18  1  0  0  0  0
  3  4  1  0  0  0  0
  3  5  1  0  0  0  0
  4 24  1  0  0  0  0
  4 25  1  0  0  0  0
  4 26  1  0  0  0  0
  5  6  1  0  0  0  0
  5 27  1  0  0  0  0
  5 28  1  0  0  0  0
  6  7  1  0  0  0  0
  6 18  1  0  0  0  0
  6 29  1  0  0  0  0
  7  8  1  0  0  0  0
  7 30  1  0  0  0  0
  8  9  2  0  0  0  0
  8 10  1  0  0  0  0
 10 11  1  0  0  0  0
 10 31  1  0  0  0  0
 11 17  1  0  0  0  0
 11 12  2  0  0  0  0
 12 13  1  0  0  0  0
 12 32  1  0  0  0  0
 13 14  2  0  0  0  0
 13 33  1  0  0  0  0
 14 15  1  0  0  0  0
 14 16  1  0  0  0  0
 16 17  2  0  0  0  0
 16 34  1  0  0  0  0
 18 19  1  0  0  0  0
 18 20  1  0  0  0  0
 19 35  1  0  0  0  0
 19 36  1  0  0  0  0
 19 37  1  0  0  0  0
 20 38  1  0  0  0  0
 20 39  1  0  0  0  0
 20 40  1  0  0  0  0
M  END
> <s_m_source_file>
AV-unprocessed.smi

> <i_m_source_file_index>
2416

> <i_lp_mmshare_version>
43012

> <i_f3d_flags>
0

> <s_epik_input>
W0NIM11PW0NAQF0xKFtDSDNdKVtDSDJdW0NASF0oQzEoW0NIM10pW0NIM10pW05IXUMoPU8pW05IXWMyW2NIXVtjSF1jKEYpW2NIXW4y

> <s_epik_cmdline>
J2VwaWtfcHl0aG9uJywgJy1waCcsICc3LjAnLCAnLXRuJywgJzgnLCAnLW1hJywgJzIwMCcsICctbWV0YWxfYmluZGluZycsICctaW1hZScsICc8aW5maWxlLm1hZT4nLCAnLW9tYWUnLCAnPG91dGZpbGUubWFlPic=

> <r_lp_tautomer_probability>
1

> <r_epik_Ionization_Penalty>
3.67756e-05

> <r_epik_Ionization_Penalty_Charging>
0

> <r_epik_Ionization_Penalty_Neutral>
3.67756e-05

> <r_epik_State_Penalty>
-0

> <r_epik_Charging_Adjusted_Penalty>
0

> <i_epik_Tot_Q>
0

> <i_epik_Tot_abs_Q>
0

> <r_epik_Metal_State_Penalty>
-0

> <b_epik_Metal_Only>
0

> <s_lp_Force_Field>
OPLS_2005

> <r_lp_Energy>
27.4539

> <b_lp_Chiralities_Consistent>
1

> <s_lp_Variant>
AV-unprocessed.smi:2416-3

> <Gold.Version>
5.8.1

> <Gold.Id.Protein>
6NUR|6NUR_protein|mol2

> <Gold.PLP.Fitness>
39.7631

> <Gold.PLP.PLP>
-31.0657

> <Gold.PLP.part.hbond>
-2.9151

> <Gold.PLP.part.metal>
0.0000

> <Gold.PLP.part.buried>
-5.4930

> <Gold.PLP.part.nonpolar>
-24.0010

> <Gold.PLP.part.repulsive>
0.3315

> <Gold.PLP.ligand.clash>
0.0000

> <Gold.PLP.ligand.torsion>
0.3371

> <Gold.PLP.Chemscore.Hbond>
2.0000

> <Gold.PLP.Chemscore.CHOScore>
1.0000

> <Gold.PLP.Chemscore.Metal>
0.0000

> <Gold.Chemscore.Hbonds>
donor molecule, donor type, donor heavy atom, donor atom, acceptor molecule, acceptor atom, score
      L1  H     7    30       P1 10175  1.00
      L1  H    10    31       P1 10175  0.99
      L1  C    16    34       P1  7948  1.00

> <Gold.PLP.Chemscore.Internal.Correction>
0.3716

> <Gold.Rescore>
     Score         DG    S(hbond)    S(metal)    S(lipo)     H(rot)  DE(clash)    DE(int)     intcor
     14.31     -16.10       1.85        0.00      65.61       1.27       0.01       1.78       ----

> <Gold.Chemscore.Fitness>
14.3078

> <Gold.Chemscore.DG>
-16.0964

> <Gold.Chemscore.ZeroCoef>
-5.4800

> <Gold.Chemscore.Hbond>
1.8500

> <Gold.Chemscore.Metal>
0.0000

> <Gold.Chemscore.Lipo>
65.6137

> <Gold.Chemscore.Internal_Hbond>
0.0000

> <Gold.Chemscore.DEClash>
0.0100

> <Gold.Chemscore.DEInternal>
1.7786

> <Gold.Chemscore.Rot>
1.2653

> <Gold.Chemscore.Internal.Correction>
   9.000000E+99

> <Gold.Chemscore.Hbonds>
donor molecule, donor type, donor heavy atom, donor atom, acceptor molecule, acceptor atom, score
      L1  H     7    30       P1 10175  0.94
      L1  H    10    31       P1 10175  0.87

> <Gold.Chemscore.Hbond.Weighted>
-6.1789

> <Gold.Chemscore.Metal.Weighted>
-0.0000

> <Gold.Chemscore.Lipo.Weighted>
-7.6768

> <Gold.Chemscore.Internal_Hbond.Weighted>
0.0000

> <Gold.Chemscore.DEClash.Weighted>
0.0100

> <Gold.Chemscore.DEInternal.Weighted>
1.7786

> <Gold.Chemscore.Rot.Weighted>
3.2392

> <Gold.Chemscore.Internal.Correction.Weighted>
   9.000000E+99

> <Gold.Protein.RotatedTorsions>
[ 6907 6896 6895 6894 ] final  113.18 input  -60.11 | X-H torsion
[ 7974 7965 7964 7962 ] final  -30.78 input  175.53 | X-H torsion
[ 8008 7997 7996 7995 ] final -110.61 input   59.86 | X-H torsion
[ 10167 10162 10161 10158 ] final  -92.32 input  -65.29 | X-H torsion
[ 10718 10713 10712 10709 ] final  137.63 input   66.30 | X-H torsion
[ 10763 10752 10751 10750 ] final -115.64 input  -60.55 | X-H torsion
[ 11005 11000 10999 10996 ] final   68.45 input  -57.11 | X-H torsion

> <Gold.Protein.ActiveResidues>
 VAL166  LYS551  ARG553  GLY616  TRP617  ASP618  TYR619  PRO620  LYS621  CYS622 
 ASP623  PHE694  ASN695  SER759  ASP760  ASP761  ALA762  ILE779  LEU786  VAL792 
 PHE793  MET794  SER795  GLU796  ALA797  LYS798  CYS799  TRP800  GLU811  SER814 

> <Gold.Protein.RotatedAtoms>
  152.4875  133.8412  159.7153 H   0  0  0  0  0  0  0  0  0  0  0  0  # atno 6907 bound_to 6896
  150.8975  133.7152  159.2894 H   0  0  0  0  0  0  0  0  0  0  0  0  # atno 6908 bound_to 6896
  151.4605  135.1042  159.9775 H   0  0  0  0  0  0  0  0  0  0  0  0  # atno 6909 bound_to 6896
  146.1117  140.5584  142.8775 H   0  0  0  0  0  0  0  0  0  0  0  0  # atno 7974 bound_to 7965
  154.9771  140.0397  157.2261 H   0  0  0  0  0  0  0  0  0  0  0  0  # atno 8008 bound_to 7997
  154.7748  140.2808  155.6087 H   0  0  0  0  0  0  0  0  0  0  0  0  # atno 8009 bound_to 7997
  156.2927  140.2603  156.2559 H   0  0  0  0  0  0  0  0  0  0  0  0  # atno 8010 bound_to 7997
  140.3359  143.2968  151.9889 H   0  0  0  0  0  0  0  0  0  0  0  0  # atno 10167 bound_to 10162
  157.4340  131.1051  151.0218 H   0  0  0  0  0  0  0  0  0  0  0  0  # atno 10718 bound_to 10713
  154.8489  135.4374  154.1695 H   0  0  0  0  0  0  0  0  0  0  0  0  # atno 10763 bound_to 10752
  153.2812  135.6953  153.7389 H   0  0  0  0  0  0  0  0  0  0  0  0  # atno 10764 bound_to 10752
  153.6593  135.3438  155.3097 H   0  0  0  0  0  0  0  0  0  0  0  0  # atno 10765 bound_to 10752
  139.9711  134.6899  156.0446 H   0  0  0  0  0  0  0  0  0  0  0  0  # atno 11005 bound_to 11000
  144.7517  140.5208  143.6797 LP  0  0  0  0  0  0  0  0  0  0  0  0  # atno 17320 bound_to 7965
  145.5650  139.1481  143.3320 LP  0  0  0  0  0  0  0  0  0  0  0  0  # atno 17321 bound_to 7965
  139.4848  144.6196  151.7280 LP  0  0  0  0  0  0  0  0  0  0  0  0  # atno 17342 bound_to 10162
  140.5354  144.0665  150.6068 LP  0  0  0  0  0  0  0  0  0  0  0  0  # atno 17343 bound_to 10162
  157.1104  130.6019  149.5480 LP  0  0  0  0  0  0  0  0  0  0  0  0  # atno 17370 bound_to 10713
  155.9924  130.4981  150.7337 LP  0  0  0  0  0  0  0  0  0  0  0  0  # atno 17371 bound_to 10713
  141.1390  133.6569  156.3675 LP  0  0  0  0  0  0  0  0  0  0  0  0  # atno 17394 bound_to 11000
  140.5292  134.6229  157.5344 LP  0  0  0  0  0  0  0  0  0  0  0  0  # atno 17395 bound_to 11000

$$$$
