AV-unprocessed.smi:37|AV-procd|sdf|320|dock2
  -GOLD-   2262016143D 1   1.00000     0.00000
 Structure written by MMmdl.
 43 44  0  0  0  0  0  0  0  0  2 V2000
  148.0488  135.5551  162.9199 C   0  0  0  0  0  0  0  0  0  0  0  0
  147.8353  135.3536  161.4122 C   0  0  0  0  0  0  0  0  0  0  0  0
  148.2500  136.5602  160.5677 C   0  0  0  0  0  0  0  0  0  0  0  0
  147.7201  137.6664  160.6875 O   0  0  0  0  0  0  0  0  0  0  0  0
  149.2330  136.2531  159.7115 O   0  0  0  0  0  0  0  0  0  0  0  0
  149.7763  137.2529  158.8647 C   0  0  0  0  0  0  0  0  0  0  0  0
  150.4330  136.6217  157.6245 C   0  0  1  0  0  0  0  0  0  0  0  0
  149.6205  135.5629  157.1236 O   0  0  0  0  0  0  0  0  0  0  0  0
  149.8933  135.4476  155.7632 C   0  0  1  0  0  0  0  0  0  0  0  0
  148.8846  134.5229  155.1019 N   0  0  0  0  0  0  0  0  0  0  0  0
  148.0556  134.9656  154.0823 C   0  0  0  0  0  0  0  0  0  0  0  0
  147.1938  134.1347  153.4614 C   0  0  0  0  0  0  0  0  0  0  0  0
  146.4030  134.6019  152.4799 F   0  0  0  0  0  0  0  0  0  0  0  0
  147.1411  132.7279  153.8491 C   0  0  0  0  0  0  0  0  0  0  0  0
  146.3285  131.9812  153.3055 O   0  0  0  0  0  0  0  0  0  0  0  0
  148.0164  132.2998  154.8031 N   0  5  0  0  0  0  0  0  0  0  0  0
  148.9055  133.1340  155.4183 C   0  0  0  0  0  0  0  0  0  0  0  0
  149.7395  132.7332  156.2301 O   0  0  0  0  0  0  0  0  0  0  0  0
  149.8634  136.9133  155.3060 C   0  0  1  0  0  0  0  0  0  0  0  0
  148.0110  137.6803  155.3598 Br  0  0  0  0  0  0  0  0  0  0  0  0
  150.7077  137.5423  156.4140 C   0  0  1  0  0  0  0  0  0  0  0  0
  150.4143  138.9172  156.6430 O   0  0  0  0  0  0  0  0  0  0  0  0
  150.9768  139.8699  155.8800 C   0  0  0  0  0  0  0  0  0  0  0  0
  151.6401  139.6744  154.8599 O   0  0  0  0  0  0  0  0  0  0  0  0
  150.6932  141.2731  156.4191 C   0  0  0  0  0  0  0  0  0  0  0  0
  149.9027  142.1582  155.4435 C   0  0  0  0  0  0  0  0  0  0  0  0
  147.7492  134.6643  163.4717 H   0  0  0  0  0  0  0  0  0  0  0  0
  147.4586  136.3908  163.2976 H   0  0  0  0  0  0  0  0  0  0  0  0
  149.0973  135.7482  163.1507 H   0  0  0  0  0  0  0  0  0  0  0  0
  148.4028  134.4859  161.0745 H   0  0  0  0  0  0  0  0  0  0  0  0
  146.7850  135.1378  161.2146 H   0  0  0  0  0  0  0  0  0  0  0  0
  148.9913  137.9426  158.5513 H   0  0  0  0  0  0  0  0  0  0  0  0
  150.5132  137.8332  159.4212 H   0  0  0  0  0  0  0  0  0  0  0  0
  151.3830  136.1840  157.9337 H   0  0  0  0  0  0  0  0  0  0  0  0
  150.8607  134.9683  155.5984 H   0  0  0  0  0  0  0  0  0  0  0  0
  148.0932  135.9921  153.7537 H   0  0  0  0  0  0  0  0  0  0  0  0
  150.2821  137.0437  154.3079 H   0  0  0  0  0  0  0  0  0  0  0  0
  151.7633  137.4301  156.1599 H   0  0  0  0  0  0  0  0  0  0  0  0
  150.1428  141.1771  157.3556 H   0  0  0  0  0  0  0  0  0  0  0  0
  151.6438  141.7493  156.6593 H   0  0  0  0  0  0  0  0  0  0  0  0
  149.7142  143.1387  155.8808 H   0  0  0  0  0  0  0  0  0  0  0  0
  148.9360  141.7162  155.1987 H   0  0  0  0  0  0  0  0  0  0  0  0
  150.4506  142.3125  154.5131 H   0  0  0  0  0  0  0  0  0  0  0  0
  1  2  1  0  0  0  0
  1 27  1  0  0  0  0
  1 28  1  0  0  0  0
  1 29  1  0  0  0  0
  2  3  1  0  0  0  0
  2 30  1  0  0  0  0
  2 31  1  0  0  0  0
  3  4  2  0  0  0  0
  3  5  1  0  0  0  0
  5  6  1  0  0  0  0
  6  7  1  0  0  0  0
  6 32  1  0  0  0  0
  6 33  1  0  0  0  0
  7 21  1  0  0  0  0
  7  8  1  0  0  0  0
  7 34  1  0  0  0  0
  8  9  1  0  0  0  0
  9 10  1  0  0  0  0
  9 19  1  0  0  0  0
  9 35  1  0  0  0  0
 10 17  1  0  0  0  0
 10 11  1  0  0  0  0
 11 12  2  0  0  0  0
 11 36  1  0  0  0  0
 12 13  1  0  0  0  0
 12 14  1  0  0  0  0
 14 15  2  0  0  0  0
 14 16  1  0  0  0  0
 16 17  1  0  0  0  0
 17 18  2  0  0  0  0
 19 20  1  0  0  0  0
 19 21  1  0  0  0  0
 19 37  1  0  0  0  0
 21 22  1  0  0  0  0
 21 38  1  0  0  0  0
 22 23  1  0  0  0  0
 23 24  2  0  0  0  0
 23 25  1  0  0  0  0
 25 26  1  0  0  0  0
 25 39  1  0  0  0  0
 25 40  1  0  0  0  0
 26 41  1  0  0  0  0
 26 42  1  0  0  0  0
 26 43  1  0  0  0  0
M  CHG  1  16  -1
M  END
> <s_m_source_file>
AV-unprocessed.smi

> <i_m_source_file_index>
37

> <i_lp_mmshare_version>
43012

> <i_f3d_flags>
0

> <s_epik_input>
W0NIM11bQ0gyXUMoPU8pT1tDSDJdW0NAQEhdMU9bQ0BASF0objJbY0hdYyhGKWMoPU8pW25IXWMyPU8pW0NAQEhdKEJyKVtDQEhdMU9DKD1PKVtDSDJdW0NIM10=

> <s_epik_cmdline>
J2VwaWtfcHl0aG9uJywgJy1waCcsICc3LjAnLCAnLXRuJywgJzgnLCAnLW1hJywgJzIwMCcsICctbWV0YWxfYmluZGluZycsICctaW1hZScsICc8aW5maWxlLm1hZT4nLCAnLW9tYWUnLCAnPG91dGZpbGUubWFlPic=

> <r_epik_Ionization_Penalty>
1.08158

> <r_epik_Ionization_Penalty_Charging>
9.05154e-09

> <r_epik_Ionization_Penalty_Neutral>
1.08158

> <r_epik_State_Penalty>
1.13706

> <r_epik_Charging_Adjusted_Penalty>
1.13706

> <i_epik_Tot_Q>
-1

> <i_epik_Tot_abs_Q>
1

> <r_epik_Metal_State_Penalty>
0.00343535

> <b_epik_Metal_Only>
0

> <s_epik_Chemistry_Notes>
This compound has an ester and may undergo hydrolysis at high or low pH. This compound contains an acetal/aminal-like group ( X-CH(R)-Y where X, Y are N, S, or O) that may be acid/base labile, releasing an aldehyde.

> <s_lp_Force_Field>
OPLS_2005

> <r_lp_Energy>
41.8028

> <b_lp_Chiralities_Consistent>
1

> <s_lp_Variant>
AV-unprocessed.smi:37-18

> <Gold.Version>
5.8.1

> <Gold.Id.Protein>
6NUR|6NUR_protein|mol2

> <Gold.PLP.Fitness>
54.6310

> <Gold.PLP.PLP>
-43.9327

> <Gold.PLP.part.hbond>
-4.7760

> <Gold.PLP.part.metal>
0.0000

> <Gold.PLP.part.buried>
-6.3274

> <Gold.PLP.part.nonpolar>
-34.4666

> <Gold.PLP.part.repulsive>
0.1197

> <Gold.PLP.ligand.clash>
0.0000

> <Gold.PLP.ligand.torsion>
0.6257

> <Gold.PLP.Chemscore.Hbond>
3.0669

> <Gold.PLP.Chemscore.CHOScore>
0.8449

> <Gold.PLP.Chemscore.Metal>
0.0000

> <Gold.Chemscore.Hbonds>
donor molecule, donor type, donor heavy atom, donor atom, acceptor molecule, acceptor atom, score
      P1  H  6931  6943       L1     4  0.37
      P1  H  6934  6947       L1     4  0.70
      P1  H  7989  7998       L1    24  1.00
      L1  C    11    36       P1  7948  0.66

> <Gold.PLP.Chemscore.Internal.Correction>
0.2145

> <Gold.Rescore>
     Score         DG    S(hbond)    S(metal)    S(lipo)     H(rot)  DE(clash)    DE(int)     intcor
     11.11     -13.87       2.97        0.00      58.45       3.27       0.14       2.62       ----

> <Gold.Chemscore.Fitness>
11.1097

> <Gold.Chemscore.DG>
-13.8728

> <Gold.Chemscore.ZeroCoef>
-5.4800

> <Gold.Chemscore.Hbond>
2.9694

> <Gold.Chemscore.Metal>
0.0000

> <Gold.Chemscore.Lipo>
58.4477

> <Gold.Chemscore.Internal_Hbond>
0.0000

> <Gold.Chemscore.DEClash>
0.1385

> <Gold.Chemscore.DEInternal>
2.6245

> <Gold.Chemscore.Rot>
3.2669

> <Gold.Chemscore.Internal.Correction>
   9.000000E+99

> <Gold.Chemscore.Hbonds>
donor molecule, donor type, donor heavy atom, donor atom, acceptor molecule, acceptor atom, score
      P1  H  6931  6943       L1     4  0.03
      P1  H  6934  6947       L1     4  0.68
      P1  H  7989  7998       L1    24  0.97

> <Gold.Chemscore.Hbond.Weighted>
-9.9178

> <Gold.Chemscore.Metal.Weighted>
-0.0000

> <Gold.Chemscore.Lipo.Weighted>
-6.8384

> <Gold.Chemscore.Internal_Hbond.Weighted>
0.0000

> <Gold.Chemscore.DEClash.Weighted>
0.1385

> <Gold.Chemscore.DEInternal.Weighted>
2.6245

> <Gold.Chemscore.Rot.Weighted>
8.3634

> <Gold.Chemscore.Internal.Correction.Weighted>
   9.000000E+99

> <Gold.Protein.RotatedTorsions>
[ 6907 6896 6895 6894 ] final -172.36 input  -60.11 | X-H torsion
[ 7974 7965 7964 7962 ] final  -37.43 input  175.53 | X-H torsion
[ 8008 7997 7996 7995 ] final    4.55 input   59.86 | X-H torsion
[ 10167 10162 10161 10158 ] final  130.46 input  -65.29 | X-H torsion
[ 10718 10713 10712 10709 ] final  126.77 input   66.30 | X-H torsion
[ 10763 10752 10751 10750 ] final   71.16 input  -60.55 | X-H torsion
[ 11005 11000 10999 10996 ] final -152.88 input  -57.11 | X-H torsion

> <Gold.Protein.ActiveResidues>
 VAL166  LYS551  ARG553  GLY616  TRP617  ASP618  TYR619  PRO620  LYS621  CYS622 
 ASP623  PHE694  ASN695  SER759  ASP760  ASP761  ALA762  ILE779  LEU786  VAL792 
 PHE793  MET794  SER795  GLU796  ALA797  LYS798  CYS799  TRP800  GLU811  SER814 

> <Gold.Protein.RotatedAtoms>
  151.5388  133.3436  159.2931 H   0  0  0  0  0  0  0  0  0  0  0  0  # atno 6907 bound_to 6896
  150.8548  134.7886  159.7048 H   0  0  0  0  0  0  0  0  0  0  0  0  # atno 6908 bound_to 6896
  152.4585  134.5247  159.9844 H   0  0  0  0  0  0  0  0  0  0  0  0  # atno 6909 bound_to 6896
  146.0575  140.6395  142.9012 H   0  0  0  0  0  0  0  0  0  0  0  0  # atno 7974 bound_to 7965
  154.7173  140.2704  155.6574 H   0  0  0  0  0  0  0  0  0  0  0  0  # atno 8008 bound_to 7997
  156.2813  140.2741  156.1758 H   0  0  0  0  0  0  0  0  0  0  0  0  # atno 8009 bound_to 7997
  155.0554  140.0371  157.2548 H   0  0  0  0  0  0  0  0  0  0  0  0  # atno 8010 bound_to 7997
  139.5429  144.6747  151.4566 H   0  0  0  0  0  0  0  0  0  0  0  0  # atno 10167 bound_to 10162
  157.5390  131.1097  150.8888 H   0  0  0  0  0  0  0  0  0  0  0  0  # atno 10718 bound_to 10713
  153.0383  135.5147  154.7551 H   0  0  0  0  0  0  0  0  0  0  0  0  # atno 10763 bound_to 10752
  154.6510  135.2925  154.9989 H   0  0  0  0  0  0  0  0  0  0  0  0  # atno 10764 bound_to 10752
  154.0874  135.6655  153.4899 H   0  0  0  0  0  0  0  0  0  0  0  0  # atno 10765 bound_to 10752
  140.7142  134.3799  157.5193 H   0  0  0  0  0  0  0  0  0  0  0  0  # atno 11005 bound_to 11000
  144.7156  140.4198  143.7047 LP  0  0  0  0  0  0  0  0  0  0  0  0  # atno 17320 bound_to 7965
  145.6617  139.1582  143.2804 LP  0  0  0  0  0  0  0  0  0  0  0  0  # atno 17321 bound_to 7965
  140.6666  143.8384  150.6949 LP  0  0  0  0  0  0  0  0  0  0  0  0  # atno 17342 bound_to 10162
  140.1795  143.4126  152.1943 LP  0  0  0  0  0  0  0  0  0  0  0  0  # atno 17343 bound_to 10162
  156.9447  130.5397  149.5281 LP  0  0  0  0  0  0  0  0  0  0  0  0  # atno 17370 bound_to 10713
  156.0482  130.5555  150.8929 LP  0  0  0  0  0  0  0  0  0  0  0  0  # atno 17371 bound_to 10713
  139.8864  134.8911  156.2587 LP  0  0  0  0  0  0  0  0  0  0  0  0  # atno 17394 bound_to 11000
  141.0059  133.7124  156.1034 LP  0  0  0  0  0  0  0  0  0  0  0  0  # atno 17395 bound_to 11000

$$$$
