AV-unprocessed.smi:767|AV-procd|sdf|3661|dock1
  -GOLD-   22720 1 73D 1   1.00000     0.00000
 Structure written by MMmdl.
 47 49  0  0  0  0  0  0  0  0  1 V2000
  143.8047  132.6330  149.0935 C   0  0  0  0  0  0  0  0  0  0  0  0
  144.8043  132.6653  150.2308 C   0  0  0  0  0  0  0  0  0  0  0  0
  145.1081  131.4973  150.9618 C   0  0  0  0  0  0  0  0  0  0  0  0
  146.0445  131.5872  152.0099 C   0  0  0  0  0  0  0  0  0  0  0  0
  146.6383  132.8357  152.2862 C   0  0  0  0  0  0  0  0  0  0  0  0
  147.6572  132.9839  153.3985 C   0  0  0  0  0  0  0  0  0  0  0  0
  147.2532  134.0706  154.4075 C   0  0  0  0  0  0  0  0  0  0  0  0
  147.8240  135.3653  154.0575 N   0  0  0  0  0  0  0  0  0  0  0  0
  147.6831  136.4857  154.7791 C   0  0  0  0  0  0  0  0  0  0  0  0
  147.0498  136.5539  155.8327 O   0  0  0  0  0  0  0  0  0  0  0  0
  148.3189  137.5222  154.2176 N   0  0  0  0  0  0  0  0  0  0  0  0
  148.3378  138.8724  154.7708 C   0  0  2  0  0  0  0  0  0  0  0  0
  148.1242  139.9509  153.6973 C   0  0  1  0  0  0  0  0  0  0  0  0
  146.8857  140.8045  153.7294 C   0  0  0  0  0  0  0  0  0  0  0  0
  147.3526  142.0554  154.4795 C   0  0  0  0  0  0  0  0  0  0  0  0
  148.4954  141.6278  155.2173 O   0  0  0  0  0  0  0  0  0  0  0  0
  149.2317  140.7330  154.3869 C   0  0  1  0  0  0  0  0  0  0  0  0
  149.7527  139.4407  155.0508 C   0  0  0  0  0  0  0  0  0  0  0  0
  150.1534  139.5583  156.5220 C   0  0  0  0  0  0  0  0  0  0  0  0
  150.9366  138.7910  154.3199 C   0  0  0  0  0  0  0  0  0  0  0  0
  146.2658  133.9426  151.4945 C   0  0  0  0  0  0  0  0  0  0  0  0
  145.3692  133.8658  150.4876 N   0  0  0  0  0  0  0  0  0  0  0  0
  143.4078  131.6286  148.9434 H   0  0  0  0  0  0  0  0  0  0  0  0
  144.2760  132.9545  148.1644 H   0  0  0  0  0  0  0  0  0  0  0  0
  142.9691  133.3006  149.3049 H   0  0  0  0  0  0  0  0  0  0  0  0
  144.6374  130.5538  150.7272 H   0  0  0  0  0  0  0  0  0  0  0  0
  146.3024  130.7123  152.5884 H   0  0  0  0  0  0  0  0  0  0  0  0
  147.7721  132.0228  153.9017 H   0  0  0  0  0  0  0  0  0  0  0  0
  148.6283  133.2202  152.9611 H   0  0  0  0  0  0  0  0  0  0  0  0
  146.1681  134.1750  154.4268 H   0  0  0  0  0  0  0  0  0  0  0  0
  147.5569  133.7882  155.4170 H   0  0  0  0  0  0  0  0  0  0  0  0
  148.3630  135.4105  153.2052 H   0  0  0  0  0  0  0  0  0  0  0  0
  148.8132  137.3725  153.3504 H   0  0  0  0  0  0  0  0  0  0  0  0
  147.6632  139.0083  155.6193 H   0  0  0  0  0  0  0  0  0  0  0  0
  148.4266  139.6219  152.7013 H   0  0  0  0  0  0  0  0  0  0  0  0
  146.5172  141.0482  152.7326 H   0  0  0  0  0  0  0  0  0  0  0  0
  146.0822  140.3040  154.2704 H   0  0  0  0  0  0  0  0  0  0  0  0
  147.6557  142.8328  153.7766 H   0  0  0  0  0  0  0  0  0  0  0  0
  146.5832  142.4668  155.1331 H   0  0  0  0  0  0  0  0  0  0  0  0
  149.9166  141.2350  153.7019 H   0  0  0  0  0  0  0  0  0  0  0  0
  151.0253  140.2005  156.6491 H   0  0  0  0  0  0  0  0  0  0  0  0
  150.3931  138.5846  156.9503 H   0  0  0  0  0  0  0  0  0  0  0  0
  149.3501  139.9825  157.1250 H   0  0  0  0  0  0  0  0  0  0  0  0
  151.8393  139.3960  154.4096 H   0  0  0  0  0  0  0  0  0  0  0  0
  150.7384  138.6711  153.2544 H   0  0  0  0  0  0  0  0  0  0  0  0
  151.1653  137.8028  154.7208 H   0  0  0  0  0  0  0  0  0  0  0  0
  146.7001  134.9155  151.6716 H   0  0  0  0  0  0  0  0  0  0  0  0
  1  2  1  0  0  0  0
  1 23  1  0  0  0  0
  1 24  1  0  0  0  0
  1 25  1  0  0  0  0
  2 22  1  0  0  0  0
  2  3  2  0  0  0  0
  3  4  1  0  0  0  0
  3 26  1  0  0  0  0
  4  5  2  0  0  0  0
  4 27  1  0  0  0  0
  5  6  1  0  0  0  0
  5 21  1  0  0  0  0
  6  7  1  0  0  0  0
  6 28  1  0  0  0  0
  6 29  1  0  0  0  0
  7  8  1  0  0  0  0
  7 30  1  0  0  0  0
  7 31  1  0  0  0  0
  8  9  1  0  0  0  0
  8 32  1  0  0  0  0
  9 10  2  0  0  0  0
  9 11  1  0  0  0  0
 11 12  1  0  0  0  0
 11 33  1  0  0  0  0
 12 18  1  0  0  0  0
 12 13  1  0  0  0  0
 12 34  1  0  0  0  0
 13 17  1  0  0  0  0
 13 14  1  0  0  0  0
 13 35  1  0  0  0  0
 14 15  1  0  0  0  0
 14 36  1  0  0  0  0
 14 37  1  0  0  0  0
 15 16  1  0  0  0  0
 15 38  1  0  0  0  0
 15 39  1  0  0  0  0
 16 17  1  0  0  0  0
 17 18  1  0  0  0  0
 17 40  1  0  0  0  0
 18 19  1  0  0  0  0
 18 20  1  0  0  0  0
 19 41  1  0  0  0  0
 19 42  1  0  0  0  0
 19 43  1  0  0  0  0
 20 44  1  0  0  0  0
 20 45  1  0  0  0  0
 20 46  1  0  0  0  0
 21 22  2  0  0  0  0
 21 47  1  0  0  0  0
M  END
> <s_m_source_file>
AV-unprocessed.smi

> <i_m_source_file_index>
767

> <i_lp_mmshare_version>
43012

> <i_f3d_flags>
0

> <s_epik_input>
W0NIM11jMVtjSF1bY0hdYyhbY0hdbjEpW0NIMl1bQ0gyXVtOSF1DKD1PKVtOSF1bQ0BIXTJDKFtDSDNdKShbQ0gzXSlbQ0BIXShbQ0BASF0yMylPW0NIMl1bQ0gyXTM=

> <s_epik_cmdline>
J2VwaWtfcHl0aG9uJywgJy1waCcsICc3LjAnLCAnLXRuJywgJzgnLCAnLW1hJywgJzIwMCcsICctbWV0YWxfYmluZGluZycsICctaW1hZScsICc8aW5maWxlLm1hZT4nLCAnLW9tYWUnLCAnPG91dGZpbGUubWFlPic=

> <r_epik_Ionization_Penalty>
0.0567523

> <r_epik_Ionization_Penalty_Charging>
0

> <r_epik_Ionization_Penalty_Neutral>
0.0567523

> <r_epik_State_Penalty>
0.0489186

> <r_epik_Charging_Adjusted_Penalty>
0.0489186

> <i_epik_Tot_Q>
0

> <i_epik_Tot_abs_Q>
0

> <r_epik_Metal_State_Penalty>
0.044622

> <b_epik_Metal_Only>
0

> <s_lp_Force_Field>
OPLS_2005

> <r_lp_Energy>
31.223

> <b_lp_Chiralities_Consistent>
1

> <s_lp_Variant>
AV-unprocessed.smi:767-5

> <Gold.Version>
5.8.1

> <Gold.Id.Protein>
6NUR|6NUR_protein|mol2

> <Gold.PLP.Fitness>
44.2607

> <Gold.PLP.PLP>
-36.1126

> <Gold.PLP.part.hbond>
-2.0000

> <Gold.PLP.part.metal>
0.0000

> <Gold.PLP.part.buried>
-3.6713

> <Gold.PLP.part.nonpolar>
-32.2125

> <Gold.PLP.part.repulsive>
1.3026

> <Gold.PLP.ligand.clash>
0.0000

> <Gold.PLP.ligand.torsion>
0.3459

> <Gold.PLP.Chemscore.Hbond>
1.8800

> <Gold.PLP.Chemscore.CHOScore>
1.0000

> <Gold.PLP.Chemscore.Metal>
0.0000

> <Gold.Chemscore.Hbonds>
donor molecule, donor type, donor heavy atom, donor atom, acceptor molecule, acceptor atom, score
      L1  H     8    32       P1  7948  1.00
      L1  H    11    33       P1  7948  0.90
      L1  C    21    47       P1  7948  0.89

> <Gold.PLP.Chemscore.Internal.Correction>
0.1999

> <Gold.Rescore>
     Score         DG    S(hbond)    S(metal)    S(lipo)     H(rot)  DE(clash)    DE(int)     intcor
     19.62     -20.23       1.81        0.00     106.21       1.45       0.22       0.39       ----

> <Gold.Chemscore.Fitness>
19.6196

> <Gold.Chemscore.DG>
-20.2326

> <Gold.Chemscore.ZeroCoef>
-5.4800

> <Gold.Chemscore.Hbond>
1.8074

> <Gold.Chemscore.Metal>
0.0000

> <Gold.Chemscore.Lipo>
106.2134

> <Gold.Chemscore.Internal_Hbond>
0.0000

> <Gold.Chemscore.DEClash>
0.2225

> <Gold.Chemscore.DEInternal>
0.3905

> <Gold.Chemscore.Rot>
1.4497

> <Gold.Chemscore.Internal.Correction>
   9.000000E+99

> <Gold.Chemscore.Hbonds>
donor molecule, donor type, donor heavy atom, donor atom, acceptor molecule, acceptor atom, score
      L1  H     8    32       P1  7948  0.96
      L1  H    11    33       P1  7948  0.88

> <Gold.Chemscore.Hbond.Weighted>
-6.0368

> <Gold.Chemscore.Metal.Weighted>
-0.0000

> <Gold.Chemscore.Lipo.Weighted>
-12.4270

> <Gold.Chemscore.Internal_Hbond.Weighted>
0.0000

> <Gold.Chemscore.DEClash.Weighted>
0.2225

> <Gold.Chemscore.DEInternal.Weighted>
0.3905

> <Gold.Chemscore.Rot.Weighted>
3.7112

> <Gold.Chemscore.Internal.Correction.Weighted>
   9.000000E+99

> <Gold.Protein.RotatedTorsions>
[ 6907 6896 6895 6894 ] final   80.42 input  -60.11 | X-H torsion
[ 7974 7965 7964 7962 ] final -114.95 input  175.53 | X-H torsion
[ 8008 7997 7996 7995 ] final   17.43 input   59.86 | X-H torsion
[ 10167 10162 10161 10158 ] final   -2.21 input  -65.29 | X-H torsion
[ 10718 10713 10712 10709 ] final  -64.42 input   66.30 | X-H torsion
[ 10763 10752 10751 10750 ] final  124.02 input  -60.55 | X-H torsion
[ 11005 11000 10999 10996 ] final   51.17 input  -57.11 | X-H torsion

> <Gold.Protein.ActiveResidues>
 VAL166  LYS551  ARG553  GLY616  TRP617  ASP618  TYR619  PRO620  LYS621  CYS622 
 ASP623  PHE694  ASN695  SER759  ASP760  ASP761  ALA762  ILE779  LEU786  VAL792 
 PHE793  MET794  SER795  GLU796  ALA797  LYS798  CYS799  TRP800  GLU811  SER814 

> <Gold.Protein.RotatedAtoms>
  152.5234  134.3361  159.9200 H   0  0  0  0  0  0  0  0  0  0  0  0  # atno 6907 bound_to 6896
  151.3310  133.3994  159.2670 H   0  0  0  0  0  0  0  0  0  0  0  0  # atno 6908 bound_to 6896
  150.9880  134.9239  159.7941 H   0  0  0  0  0  0  0  0  0  0  0  0  # atno 6909 bound_to 6896
  145.1141  140.8629  143.3853 H   0  0  0  0  0  0  0  0  0  0  0  0  # atno 7974 bound_to 7965
  154.8914  140.2987  155.5369 H   0  0  0  0  0  0  0  0  0  0  0  0  # atno 8008 bound_to 7997
  156.3021  140.2424  156.3864 H   0  0  0  0  0  0  0  0  0  0  0  0  # atno 8009 bound_to 7997
  154.8615  140.0405  157.1657 H   0  0  0  0  0  0  0  0  0  0  0  0  # atno 8010 bound_to 7997
  140.6841  143.6684  150.8206 H   0  0  0  0  0  0  0  0  0  0  0  0  # atno 10167 bound_to 10162
  156.0730  130.4233  150.1417 H   0  0  0  0  0  0  0  0  0  0  0  0  # atno 10718 bound_to 10713
  153.6548  135.3356  155.3110 H   0  0  0  0  0  0  0  0  0  0  0  0  # atno 10763 bound_to 10752
  154.8529  135.4349  154.1866 H   0  0  0  0  0  0  0  0  0  0  0  0  # atno 10764 bound_to 10752
  153.2818  135.7009  153.7453 H   0  0  0  0  0  0  0  0  0  0  0  0  # atno 10765 bound_to 10752
  140.0955  134.5151  155.8811 H   0  0  0  0  0  0  0  0  0  0  0  0  # atno 11005 bound_to 11000
  145.0814  139.2957  143.5781 LP  0  0  0  0  0  0  0  0  0  0  0  0  # atno 17320 bound_to 7965
  146.3525  140.0321  142.8649 LP  0  0  0  0  0  0  0  0  0  0  0  0  # atno 17321 bound_to 7965
  140.0389  143.5366  152.2727 LP  0  0  0  0  0  0  0  0  0  0  0  0  # atno 17342 bound_to 10162
  139.6186  144.7624  151.2790 LP  0  0  0  0  0  0  0  0  0  0  0  0  # atno 17343 bound_to 10162
  156.9464  130.9761  151.3506 LP  0  0  0  0  0  0  0  0  0  0  0  0  # atno 17370 bound_to 10713
  157.5811  130.8377  149.8524 LP  0  0  0  0  0  0  0  0  0  0  0  0  # atno 17371 bound_to 10713
  141.2091  133.6680  156.6414 LP  0  0  0  0  0  0  0  0  0  0  0  0  # atno 17394 bound_to 11000
  140.3292  134.7943  157.4313 LP  0  0  0  0  0  0  0  0  0  0  0  0  # atno 17395 bound_to 11000

$$$$
