AV-unprocessed.smi:223|AV-procd|sdf|1706|dock5
  -GOLD-   2262020173D 1   1.00000     0.00000
 Structure written by MMmdl.
 47 50  0  0  0  0  0  0  0  0  1 V2000
  152.4093  139.5735  156.0343 C   0  0  0  0  0  0  0  0  0  0  0  0
  151.3261  139.2804  154.9896 C   0  0  1  0  0  0  0  0  0  0  0  0
  151.4161  137.8831  154.5346 C   0  0  0  0  0  0  0  0  0  0  0  0
  151.4880  136.7854  154.1757 N   0  0  0  0  0  0  0  0  0  0  0  0
  149.9256  139.6349  155.5311 C   0  0  0  0  0  0  0  0  0  0  0  0
  148.8650  139.5650  154.5257 N   0  0  0  0  0  0  0  0  0  0  0  0
  148.0429  138.4805  154.5637 C   0  0  0  0  0  0  0  0  0  0  0  0
  148.0886  137.6513  155.6413 N   0  0  0  0  0  0  0  0  0  0  0  0
  147.3106  136.5675  155.7002 C   0  0  0  0  0  0  0  0  0  0  0  0
  146.4233  136.1296  154.8066 N   0  0  0  0  0  0  0  0  0  0  0  0
  146.3599  136.9587  153.7264 C   0  0  0  0  0  0  0  0  0  0  0  0
  147.1289  138.1408  153.5225 C   0  0  0  0  0  0  0  0  0  0  0  0
  146.7845  138.7155  152.3042 N   0  0  0  0  0  0  0  0  0  0  0  0
  145.8755  137.9183  151.8149 C   0  0  0  0  0  0  0  0  0  0  0  0
  145.5498  136.8431  152.6097 N   0  0  0  0  0  0  0  0  0  0  0  0
  144.5703  135.8061  152.3190 C   0  0  0  0  0  0  0  0  0  0  0  0
  144.8892  134.9874  151.0436 C   0  0  2  0  0  0  0  0  0  0  0  0
  144.8239  135.8445  149.9186 O   0  0  0  0  0  0  0  0  0  0  0  0
  143.9180  133.8223  150.8391 C   0  0  0  0  0  0  0  0  0  0  0  0
  144.7648  132.5908  151.1373 C   0  0  0  0  0  0  0  0  0  0  0  0
  146.0400  132.9673  150.6503 O   0  0  0  0  0  0  0  0  0  0  0  0
  146.2701  134.3021  151.0767 C   0  0  0  0  0  0  0  0  0  0  0  0
  148.3162  140.8289  154.0393 C   0  0  0  0  0  0  0  0  0  0  0  0
  147.7791  141.8306  155.0373 C   0  0  0  0  0  0  0  0  0  0  0  0
  146.8279  141.0626  154.1506 C   0  0  0  0  0  0  0  0  0  0  0  0
  153.4020  139.3567  155.6389 H   0  0  0  0  0  0  0  0  0  0  0  0
  152.2679  138.9679  156.9300 H   0  0  0  0  0  0  0  0  0  0  0  0
  152.3938  140.6221  156.3320 H   0  0  0  0  0  0  0  0  0  0  0  0
  151.5401  139.8960  154.1159 H   0  0  0  0  0  0  0  0  0  0  0  0
  149.6773  138.9504  156.3431 H   0  0  0  0  0  0  0  0  0  0  0  0
  149.9331  140.6238  155.9865 H   0  0  0  0  0  0  0  0  0  0  0  0
  147.4153  135.9643  156.5899 H   0  0  0  0  0  0  0  0  0  0  0  0
  145.4117  138.0988  150.8562 H   0  0  0  0  0  0  0  0  0  0  0  0
  144.5115  135.1434  153.1835 H   0  0  0  0  0  0  0  0  0  0  0  0
  143.5902  136.2769  152.2303 H   0  0  0  0  0  0  0  0  0  0  0  0
  145.0626  135.3486  149.1505 H   0  0  0  0  0  0  0  0  0  0  0  0
  143.0315  133.8780  151.4720 H   0  0  0  0  0  0  0  0  0  0  0  0
  143.5765  133.7736  149.8036 H   0  0  0  0  0  0  0  0  0  0  0  0
  144.8191  132.4015  152.2105 H   0  0  0  0  0  0  0  0  0  0  0  0
  144.3927  131.6924  150.6443 H   0  0  0  0  0  0  0  0  0  0  0  0
  147.0195  134.7957  150.4565 H   0  0  0  0  0  0  0  0  0  0  0  0
  146.6624  134.2553  152.0929 H   0  0  0  0  0  0  0  0  0  0  0  0
  148.8014  141.2515  153.1620 H   0  0  0  0  0  0  0  0  0  0  0  0
  147.8080  141.5638  156.0922 H   0  0  0  0  0  0  0  0  0  0  0  0
  147.9323  142.8853  154.8187 H   0  0  0  0  0  0  0  0  0  0  0  0
  146.3449  141.6046  153.3404 H   0  0  0  0  0  0  0  0  0  0  0  0
  146.2243  140.2869  154.6178 H   0  0  0  0  0  0  0  0  0  0  0  0
  1  2  1  0  0  0  0
  1 26  1  0  0  0  0
  1 27  1  0  0  0  0
  1 28  1  0  0  0  0
  2  3  1  0  0  0  0
  2  5  1  0  0  0  0
  2 29  1  0  0  0  0
  3  4  3  0  0  0  0
  5  6  1  0  0  0  0
  5 30  1  0  0  0  0
  5 31  1  0  0  0  0
  6  7  1  0  0  0  0
  6 23  1  0  0  0  0
  7 12  1  0  0  0  0
  7  8  2  0  0  0  0
  8  9  1  0  0  0  0
  9 10  2  0  0  0  0
  9 32  1  0  0  0  0
 10 11  1  0  0  0  0
 11 15  1  0  0  0  0
 11 12  2  0  0  0  0
 12 13  1  0  0  0  0
 13 14  2  0  0  0  0
 14 15  1  0  0  0  0
 14 33  1  0  0  0  0
 15 16  1  0  0  0  0
 16 17  1  0  0  0  0
 16 34  1  0  0  0  0
 16 35  1  0  0  0  0
 17 22  1  0  0  0  0
 17 18  1  0  0  0  0
 17 19  1  0  0  0  0
 18 36  1  0  0  0  0
 19 20  1  0  0  0  0
 19 37  1  0  0  0  0
 19 38  1  0  0  0  0
 20 21  1  0  0  0  0
 20 39  1  0  0  0  0
 20 40  1  0  0  0  0
 21 22  1  0  0  0  0
 22 41  1  0  0  0  0
 22 42  1  0  0  0  0
 23 25  1  0  0  0  0
 23 24  1  0  0  0  0
 23 43  1  0  0  0  0
 24 25  1  0  0  0  0
 24 44  1  0  0  0  0
 24 45  1  0  0  0  0
 25 46  1  0  0  0  0
 25 47  1  0  0  0  0
M  END
> <s_m_source_file>
AV-unprocessed.smi

> <i_m_source_file_index>
223

> <i_lp_mmshare_version>
43012

> <i_f3d_flags>
0

> <s_epik_input>
TiNDW0NAQEhdKFtDSDNdKVtDSDJdTihbQ0hdMVtDSDJdW0NIMl0xKWMobltjSF1uMiljKGMyMyluW2NIXW4zW0NIMl1bQ0BAXTQoW09IXSlbQ0gyXVtDSDJdT1tDSDJdNA==

> <s_epik_cmdline>
J2VwaWtfcHl0aG9uJywgJy1waCcsICc3LjAnLCAnLXRuJywgJzgnLCAnLW1hJywgJzIwMCcsICctbWV0YWxfYmluZGluZycsICctaW1hZScsICc8aW5maWxlLm1hZT4nLCAnLW9tYWUnLCAnPG91dGZpbGUubWFlPic=

> <r_lp_tautomer_probability>
1

> <r_epik_Ionization_Penalty>
0.000756152

> <r_epik_Ionization_Penalty_Charging>
0

> <r_epik_Ionization_Penalty_Neutral>
0.000756152

> <r_epik_State_Penalty>
0.00038036

> <r_epik_Charging_Adjusted_Penalty>
0.00038036

> <i_epik_Tot_Q>
0

> <i_epik_Tot_abs_Q>
0

> <r_epik_Metal_State_Penalty>
-0

> <b_epik_Metal_Only>
0

> <s_lp_Force_Field>
OPLS_2005

> <r_lp_Energy>
37.1983

> <b_lp_Chiralities_Consistent>
1

> <s_lp_Variant>
AV-unprocessed.smi:223-4

> <Gold.Version>
5.8.1

> <Gold.Id.Protein>
6NUR|6NUR_protein|mol2

> <Gold.PLP.Fitness>
45.7139

> <Gold.PLP.PLP>
-37.7958

> <Gold.PLP.part.hbond>
-2.5627

> <Gold.PLP.part.metal>
0.0000

> <Gold.PLP.part.buried>
-0.2536

> <Gold.PLP.part.nonpolar>
-36.6255

> <Gold.PLP.part.repulsive>
1.2606

> <Gold.PLP.ligand.clash>
0.0000

> <Gold.PLP.ligand.torsion>
0.9685

> <Gold.PLP.Chemscore.Hbond>
2.0000

> <Gold.PLP.Chemscore.CHOScore>
0.8392

> <Gold.PLP.Chemscore.Metal>
0.0000

> <Gold.Chemscore.Hbonds>
donor molecule, donor type, donor heavy atom, donor atom, acceptor molecule, acceptor atom, score
      L1  H    18    36       P1  7921  1.00
      P1  H 10752 10764       L1     4  1.00
      L1  C    14    33       P1 10171  0.72

> <Gold.PLP.Chemscore.Internal.Correction>
1.3374

> <Gold.Rescore>
     Score         DG    S(hbond)    S(metal)    S(lipo)     H(rot)  DE(clash)    DE(int)     intcor
      9.74     -13.59       1.94        0.00      73.29       2.72       1.66       2.19       ----

> <Gold.Chemscore.Fitness>
9.7444

> <Gold.Chemscore.DG>
-13.5934

> <Gold.Chemscore.ZeroCoef>
-5.4800

> <Gold.Chemscore.Hbond>
1.9442

> <Gold.Chemscore.Metal>
0.0000

> <Gold.Chemscore.Lipo>
73.2942

> <Gold.Chemscore.Internal_Hbond>
0.0000

> <Gold.Chemscore.DEClash>
1.6627

> <Gold.Chemscore.DEInternal>
2.1863

> <Gold.Chemscore.Rot>
2.7171

> <Gold.Chemscore.Internal.Correction>
   9.000000E+99

> <Gold.Chemscore.Hbonds>
donor molecule, donor type, donor heavy atom, donor atom, acceptor molecule, acceptor atom, score
      L1  H    18    36       P1  7921  0.98
      P1  H 10752 10764       L1     4  1.00

> <Gold.Chemscore.Hbond.Weighted>
-6.4938

> <Gold.Chemscore.Metal.Weighted>
-0.0000

> <Gold.Chemscore.Lipo.Weighted>
-8.5754

> <Gold.Chemscore.Internal_Hbond.Weighted>
0.0000

> <Gold.Chemscore.DEClash.Weighted>
1.6627

> <Gold.Chemscore.DEInternal.Weighted>
2.1863

> <Gold.Chemscore.Rot.Weighted>
6.9558

> <Gold.Chemscore.Internal.Correction.Weighted>
   9.000000E+99

> <Gold.Protein.RotatedTorsions>
[ 6907 6896 6895 6894 ] final   70.62 input  -60.11 | X-H torsion
[ 7974 7965 7964 7962 ] final   75.83 input  175.53 | X-H torsion
[ 8008 7997 7996 7995 ] final -119.02 input   59.86 | X-H torsion
[ 10167 10162 10161 10158 ] final  -65.93 input  -65.29 | X-H torsion
[ 10718 10713 10712 10709 ] final   29.58 input   66.30 | X-H torsion
[ 10763 10752 10751 10750 ] final  -74.95 input  -60.55 | X-H torsion
[ 11005 11000 10999 10996 ] final  138.93 input  -57.11 | X-H torsion

> <Gold.Protein.ActiveResidues>
 VAL166  LYS551  ARG553  GLY616  TRP617  ASP618  TYR619  PRO620  LYS621  CYS622 
 ASP623  PHE694  ASN695  SER759  ASP760  ASP761  ALA762  ILE779  LEU786  VAL792 
 PHE793  MET794  SER795  GLU796  ALA797  LYS798  CYS799  TRP800  GLU811  SER814 

> <Gold.Protein.RotatedAtoms>
  152.4761  134.4841  159.9674 H   0  0  0  0  0  0  0  0  0  0  0  0  # atno 6907 bound_to 6896
  151.4857  133.3530  159.2853 H   0  0  0  0  0  0  0  0  0  0  0  0  # atno 6908 bound_to 6896
  150.8800  134.8216  159.7279 H   0  0  0  0  0  0  0  0  0  0  0  0  # atno 6909 bound_to 6896
  145.7105  139.2613  143.1653 H   0  0  0  0  0  0  0  0  0  0  0  0  # atno 7974 bound_to 7965
  155.1090  140.0397  157.2719 H   0  0  0  0  0  0  0  0  0  0  0  0  # atno 8008 bound_to 7997
  154.6699  140.2610  155.6992 H   0  0  0  0  0  0  0  0  0  0  0  0  # atno 8009 bound_to 7997
  156.2654  140.2800  156.1204 H   0  0  0  0  0  0  0  0  0  0  0  0  # atno 8010 bound_to 7997
  140.5694  143.2317  151.6569 H   0  0  0  0  0  0  0  0  0  0  0  0  # atno 10167 bound_to 10162
  157.2485  130.7103  149.6393 H   0  0  0  0  0  0  0  0  0  0  0  0  # atno 10718 bound_to 10713
  154.4799  135.5847  153.6382 H   0  0  0  0  0  0  0  0  0  0  0  0  # atno 10763 bound_to 10752
  152.9846  135.6087  154.3259 H   0  0  0  0  0  0  0  0  0  0  0  0  # atno 10764 bound_to 10752
  154.3149  135.2844  155.2527 H   0  0  0  0  0  0  0  0  0  0  0  0  # atno 10765 bound_to 10752
  140.0218  134.9393  157.0489 H   0  0  0  0  0  0  0  0  0  0  0  0  # atno 11005 bound_to 11000
  146.0716  140.7862  142.9685 LP  0  0  0  0  0  0  0  0  0  0  0  0  # atno 17320 bound_to 7965
  144.6943  140.3351  143.7209 LP  0  0  0  0  0  0  0  0  0  0  0  0  # atno 17321 bound_to 7965
  139.5109  144.3525  152.0638 LP  0  0  0  0  0  0  0  0  0  0  0  0  # atno 17342 bound_to 10162
  140.2661  144.4015  150.6168 LP  0  0  0  0  0  0  0  0  0  0  0  0  # atno 17343 bound_to 10162
  155.9667  130.4435  150.5425 LP  0  0  0  0  0  0  0  0  0  0  0  0  # atno 17370 bound_to 10713
  157.3304  131.0698  151.1865 LP  0  0  0  0  0  0  0  0  0  0  0  0  # atno 17371 bound_to 10713
  140.4374  134.1717  155.7171 LP  0  0  0  0  0  0  0  0  0  0  0  0  # atno 17394 bound_to 11000
  141.1778  133.8477  157.1361 LP  0  0  0  0  0  0  0  0  0  0  0  0  # atno 17395 bound_to 11000

$$$$
