AV-unprocessed.smi:1677|AV-procd|sdf|6723|dock3
  -GOLD-   22720 7463D 1   1.00000     0.00000
 Structure written by MMmdl.
 37 38  0  0  0  0  0  0  0  0  2 V2000
  148.7475  138.6344  156.6273 C   0  0  0  0  0  0  0  0  0  0  0  0
  149.9476  139.3841  156.0265 C   0  0  1  0  0  0  0  0  0  0  0  0
  149.7172  139.8290  154.5660 C   0  0  0  0  0  0  0  0  0  0  0  0
  148.3839  140.3985  154.3481 N   0  0  0  0  0  0  0  0  0  0  0  0
  147.9606  141.6617  154.6732 C   0  0  0  0  0  0  0  0  0  0  0  0
  146.6477  141.7456  154.2865 C   0  0  0  0  0  0  0  0  0  0  0  0
  146.3246  140.5299  153.7454 N   0  3  0  0  0  0  0  0  0  0  0  0
  147.3807  139.7109  153.7869 C   0  0  0  0  0  0  0  0  0  0  0  0
  150.2549  140.5404  156.8628 N   0  0  0  0  0  0  0  0  0  0  0  0
  151.4500  140.8059  157.4139 C   0  0  0  0  0  0  0  0  0  0  0  0
  152.4415  140.0945  157.2490 O   0  0  0  0  0  0  0  0  0  0  0  0
  151.5367  142.0686  158.2811 C   0  0  1  0  0  0  0  0  0  0  0  0
  152.9049  142.1594  158.9943 C   0  0  0  0  0  0  0  0  0  0  0  0
  153.1130  143.5070  159.6623 C   0  0  0  0  0  0  0  0  0  0  0  0
  152.3741  144.5935  159.3792 C   0  0  0  0  0  0  0  0  0  0  0  0
  151.2523  144.5981  158.3554 C   0  0  0  0  0  0  0  0  0  0  0  0
  151.2751  143.3460  157.4577 C   0  0  0  0  0  0  0  0  0  0  0  0
  148.5349  137.7144  156.0826 H   0  0  0  0  0  0  0  0  0  0  0  0
  147.8468  139.2492  156.6096 H   0  0  0  0  0  0  0  0  0  0  0  0
  148.9401  138.3570  157.6645 H   0  0  0  0  0  0  0  0  0  0  0  0
  150.8007  138.7032  156.0520 H   0  0  0  0  0  0  0  0  0  0  0  0
  150.4617  140.5687  154.2668 H   0  0  0  0  0  0  0  0  0  0  0  0
  149.8215  138.9838  153.8842 H   0  0  0  0  0  0  0  0  0  0  0  0
  148.6092  142.3882  155.1417 H   0  0  0  0  0  0  0  0  0  0  0  0
  145.9380  142.5572  154.3548 H   0  0  0  0  0  0  0  0  0  0  0  0
  147.4163  138.6962  153.4319 H   0  0  0  0  0  0  0  0  0  0  0  0
  149.4973  141.1813  157.0512 H   0  0  0  0  0  0  0  0  0  0  0  0
  150.7601  142.0083  159.0463 H   0  0  0  0  0  0  0  0  0  0  0  0
  152.9772  141.3802  159.7539 H   0  0  0  0  0  0  0  0  0  0  0  0
  153.7281  141.9994  158.2961 H   0  0  0  0  0  0  0  0  0  0  0  0
  153.9085  143.5727  160.3900 H   0  0  0  0  0  0  0  0  0  0  0  0
  152.5623  145.5209  159.9001 H   0  0  0  0  0  0  0  0  0  0  0  0
  150.3057  144.6593  158.8928 H   0  0  0  0  0  0  0  0  0  0  0  0
  151.3283  145.4963  157.7421 H   0  0  0  0  0  0  0  0  0  0  0  0
  152.0586  143.4620  156.7069 H   0  0  0  0  0  0  0  0  0  0  0  0
  150.3346  143.2699  156.9100 H   0  0  0  0  0  0  0  0  0  0  0  0
  145.4178  140.2835  153.3683 H   0  0  0  0  0  0  0  0  0  0  0  0
  1  2  1  0  0  0  0
  1 18  1  0  0  0  0
  1 19  1  0  0  0  0
  1 20  1  0  0  0  0
  2  3  1  0  0  0  0
  2  9  1  0  0  0  0
  2 21  1  0  0  0  0
  3  4  1  0  0  0  0
  3 22  1  0  0  0  0
  3 23  1  0  0  0  0
  4  8  1  0  0  0  0
  4  5  1  0  0  0  0
  5  6  2  0  0  0  0
  5 24  1  0  0  0  0
  6  7  1  0  0  0  0
  6 25  1  0  0  0  0
  7  8  2  0  0  0  0
  7 37  1  0  0  0  0
  8 26  1  0  0  0  0
  9 10  1  0  0  0  0
  9 27  1  0  0  0  0
 10 11  2  0  0  0  0
 10 12  1  0  0  0  0
 12 17  1  0  0  0  0
 12 13  1  0  0  0  0
 12 28  1  0  0  0  0
 13 14  1  0  0  0  0
 13 29  1  0  0  0  0
 13 30  1  0  0  0  0
 14 15  2  0  0  0  0
 14 31  1  0  0  0  0
 15 16  1  0  0  0  0
 15 32  1  0  0  0  0
 16 17  1  0  0  0  0
 16 33  1  0  0  0  0
 16 34  1  0  0  0  0
 17 35  1  0  0  0  0
 17 36  1  0  0  0  0
M  CHG  1   7   1
M  END
> <s_m_source_file>
AV-unprocessed.smi

> <i_m_source_file_index>
1677

> <i_lp_mmshare_version>
43012

> <i_f3d_flags>
0

> <s_epik_input>
W2NIXTFuW2NIXVtjSF1uMVtDSDJdW0NAQEhdKFtDSDNdKVtOSF1DKD1PKVtDQEBIXTJbQ0gyXVtDSF09W0NIXVtDSDJdW0NIMl0y

> <s_epik_cmdline>
J2VwaWtfcHl0aG9uJywgJy1waCcsICc3LjAnLCAnLXRuJywgJzgnLCAnLW1hJywgJzIwMCcsICctbWV0YWxfYmluZGluZycsICctaW1hZScsICc8aW5maWxlLm1hZT4nLCAnLW9tYWUnLCAnPG91dGZpbGUubWFlPic=

> <r_lp_tautomer_probability>
1

> <r_epik_Ionization_Penalty>
0.245541

> <r_epik_Ionization_Penalty_Charging>
0

> <r_epik_Ionization_Penalty_Neutral>
0.245541

> <r_epik_State_Penalty>
0.236686

> <r_epik_Charging_Adjusted_Penalty>
0.236686

> <i_epik_Tot_Q>
1

> <i_epik_Tot_abs_Q>
1

> <r_epik_Metal_State_Penalty>
0.529594

> <b_epik_Metal_Only>
0

> <s_lp_Force_Field>
OPLS_2005

> <r_lp_Energy>
11.602

> <b_lp_Chiralities_Consistent>
1

> <s_lp_Variant>
AV-unprocessed.smi:1677-4

> <Gold.Version>
5.8.1

> <Gold.Id.Protein>
6NUR|6NUR_protein|mol2

> <Gold.PLP.Fitness>
48.7153

> <Gold.PLP.PLP>
-37.7256

> <Gold.PLP.part.hbond>
-2.0000

> <Gold.PLP.part.metal>
0.0000

> <Gold.PLP.part.buried>
-0.6136

> <Gold.PLP.part.nonpolar>
-33.9405

> <Gold.PLP.part.repulsive>
0.0532

> <Gold.PLP.ligand.clash>
0.0000

> <Gold.PLP.ligand.torsion>
0.5343

> <Gold.PLP.Chemscore.Hbond>
3.0000

> <Gold.PLP.Chemscore.CHOScore>
1.0000

> <Gold.PLP.Chemscore.Metal>
0.0000

> <Gold.Chemscore.Hbonds>
donor molecule, donor type, donor heavy atom, donor atom, acceptor molecule, acceptor atom, score
      L1  H     7    37       P1 10175  2.00
      P1  H  7997  8009       L1    11  0.99
      L1  C     5    24       P1  8028  1.00

> <Gold.PLP.Chemscore.Internal.Correction>
0.0583

> <Gold.Rescore>
     Score         DG    S(hbond)    S(metal)    S(lipo)     H(rot)  DE(clash)    DE(int)     intcor
     17.83     -18.58       1.92        0.00      96.78       1.81       0.07       0.69       ----

> <Gold.Chemscore.Fitness>
17.8294

> <Gold.Chemscore.DG>
-18.5828

> <Gold.Chemscore.ZeroCoef>
-5.4800

> <Gold.Chemscore.Hbond>
1.9237

> <Gold.Chemscore.Metal>
0.0000

> <Gold.Chemscore.Lipo>
96.7795

> <Gold.Chemscore.Internal_Hbond>
0.0000

> <Gold.Chemscore.DEClash>
0.0684

> <Gold.Chemscore.DEInternal>
0.6851

> <Gold.Chemscore.Rot>
1.8147

> <Gold.Chemscore.Internal.Correction>
   9.000000E+99

> <Gold.Chemscore.Hbonds>
donor molecule, donor type, donor heavy atom, donor atom, acceptor molecule, acceptor atom, score
      L1  H     7    37       P1 10175  0.98
      P1  H  7997  8009       L1    11  0.90

> <Gold.Chemscore.Hbond.Weighted>
-6.4251

> <Gold.Chemscore.Metal.Weighted>
-0.0000

> <Gold.Chemscore.Lipo.Weighted>
-11.3232

> <Gold.Chemscore.Internal_Hbond.Weighted>
0.0000

> <Gold.Chemscore.DEClash.Weighted>
0.0684

> <Gold.Chemscore.DEInternal.Weighted>
0.6851

> <Gold.Chemscore.Rot.Weighted>
4.6456

> <Gold.Chemscore.Internal.Correction.Weighted>
   9.000000E+99

> <Gold.Protein.RotatedTorsions>
[ 6907 6896 6895 6894 ] final   72.02 input  -60.11 | X-H torsion
[ 7974 7965 7964 7962 ] final  128.56 input  175.53 | X-H torsion
[ 8008 7997 7996 7995 ] final -172.21 input   59.86 | X-H torsion
[ 10167 10162 10161 10158 ] final  159.85 input  -65.29 | X-H torsion
[ 10718 10713 10712 10709 ] final    3.83 input   66.30 | X-H torsion
[ 10763 10752 10751 10750 ] final  -41.49 input  -60.55 | X-H torsion
[ 11005 11000 10999 10996 ] final   13.20 input  -57.11 | X-H torsion

> <Gold.Protein.ActiveResidues>
 VAL166  LYS551  ARG553  GLY616  TRP617  ASP618  TYR619  PRO620  LYS621  CYS622 
 ASP623  PHE694  ASN695  SER759  ASP760  ASP761  ALA762  ILE779  LEU786  VAL792 
 PHE793  MET794  SER795  GLU796  ALA797  LYS798  CYS799  TRP800  GLU811  SER814 

> <Gold.Protein.RotatedAtoms>
  152.4844  134.4633  159.9612 H   0  0  0  0  0  0  0  0  0  0  0  0  # atno 6907 bound_to 6896
  151.4633  133.3581  159.2820 H   0  0  0  0  0  0  0  0  0  0  0  0  # atno 6908 bound_to 6896
  150.8942  134.8374  159.7375 H   0  0  0  0  0  0  0  0  0  0  0  0  # atno 6909 bound_to 6896
  145.0382  139.3986  143.5115 H   0  0  0  0  0  0  0  0  0  0  0  0  # atno 7974 bound_to 7965
  155.9416  140.1110  157.1051 H   0  0  0  0  0  0  0  0  0  0  0  0  # atno 8008 bound_to 7997
  154.4090  140.1218  156.5001 H   0  0  0  0  0  0  0  0  0  0  0  0  # atno 8009 bound_to 7997
  155.6954  140.3472  155.4913 H   0  0  0  0  0  0  0  0  0  0  0  0  # atno 8010 bound_to 7997
  139.4835  144.4690  151.8602 H   0  0  0  0  0  0  0  0  0  0  0  0  # atno 10167 bound_to 10162
  156.8836  130.5662  149.5652 H   0  0  0  0  0  0  0  0  0  0  0  0  # atno 10718 bound_to 10713
  153.9634  135.6737  153.4745 H   0  0  0  0  0  0  0  0  0  0  0  0  # atno 10763 bound_to 10752
  153.0827  135.4915  154.8532 H   0  0  0  0  0  0  0  0  0  0  0  0  # atno 10764 bound_to 10752
  154.7260  135.3127  154.8931 H   0  0  0  0  0  0  0  0  0  0  0  0  # atno 10765 bound_to 10752
  140.4834  134.0912  155.7756 H   0  0  0  0  0  0  0  0  0  0  0  0  # atno 11005 bound_to 11000
  146.3506  139.9969  142.8680 LP  0  0  0  0  0  0  0  0  0  0  0  0  # atno 17320 bound_to 7965
  145.1682  140.9707  143.4337 LP  0  0  0  0  0  0  0  0  0  0  0  0  # atno 17321 bound_to 7965
  140.4158  144.2309  150.5888 LP  0  0  0  0  0  0  0  0  0  0  0  0  # atno 17342 bound_to 10162
  140.4922  143.2344  151.8801 LP  0  0  0  0  0  0  0  0  0  0  0  0  # atno 17343 bound_to 10162
  156.0665  130.5707  150.9298 LP  0  0  0  0  0  0  0  0  0  0  0  0  # atno 17370 bound_to 10713
  157.6126  131.0935  150.8768 LP  0  0  0  0  0  0  0  0  0  0  0  0  # atno 17371 bound_to 10713
  141.1520  133.8952  157.2074 LP  0  0  0  0  0  0  0  0  0  0  0  0  # atno 17394 bound_to 11000
  139.9812  135.0097  156.9754 LP  0  0  0  0  0  0  0  0  0  0  0  0  # atno 17395 bound_to 11000

$$$$
