AV-unprocessed.smi:213|AV-procd|sdf|1634|dock9
  -GOLD-   2262019593D 1   1.00000     0.00000
 Structure written by MMmdl.
 59 62  0  0  0  0  0  0  0  0  2 V2000
  151.4931  139.6827  155.4365 C   0  0  0  0  0  0  0  0  0  0  0  0
  150.2707  140.5060  155.8836 C   0  0  1  0  0  0  0  0  0  0  0  0
  150.6367  141.9774  156.1893 C   0  0  0  0  0  0  0  0  0  0  0  0
  151.0734  142.1765  157.5939 N   0  3  0  0  0  0  0  0  0  0  0  0
  152.1575  141.2466  157.9898 C   0  0  0  0  0  0  0  0  0  0  0  0
  152.5368  141.4593  159.4653 C   0  0  0  0  0  0  0  0  0  0  0  0
  152.9206  142.8133  159.6687 O   0  0  0  0  0  0  0  0  0  0  0  0
  151.8615  143.7161  159.3763 C   0  0  0  0  0  0  0  0  0  0  0  0
  151.4564  143.5777  157.8990 C   0  0  0  0  0  0  0  0  0  0  0  0
  149.1868  140.4163  154.8955 N   0  0  0  0  0  0  0  0  0  0  0  0
  148.6089  141.6355  154.3338 C   0  0  0  0  0  0  0  0  0  0  0  0
  148.4280  139.2859  154.8205 C   0  0  0  0  0  0  0  0  0  0  0  0
  148.4465  138.3997  155.8534 N   0  0  0  0  0  0  0  0  0  0  0  0
  147.7066  137.2885  155.8141 C   0  0  0  0  0  0  0  0  0  0  0  0
  146.8871  136.8672  154.8511 N   0  0  0  0  0  0  0  0  0  0  0  0
  146.8630  137.7433  153.8068 C   0  0  0  0  0  0  0  0  0  0  0  0
  147.5944  138.9620  153.7077 C   0  0  0  0  0  0  0  0  0  0  0  0
  147.3178  139.5717  152.4881 N   0  0  0  0  0  0  0  0  0  0  0  0
  146.4593  138.7749  151.9139 C   0  0  0  0  0  0  0  0  0  0  0  0
  146.1238  137.6558  152.6399 N   0  0  0  0  0  0  0  0  0  0  0  0
  145.1920  136.6103  152.2505 C   0  0  0  0  0  0  0  0  0  0  0  0
  145.6663  135.7568  151.0523 C   0  0  2  0  0  0  0  0  0  0  0  0
  145.0625  136.1946  149.8500 O   0  0  0  0  0  0  0  0  0  0  0  0
  145.4941  134.2293  151.2196 C   0  0  2  0  0  0  0  0  0  0  0  0
  146.2293  133.3581  150.2004 C   0  0  0  0  0  0  0  0  0  0  0  0
  145.4889  132.0474  150.3480 C   0  0  0  0  0  0  0  0  0  0  0  0
  144.0504  132.5134  150.5655 C   0  0  0  0  0  0  0  0  0  0  0  0
  144.1351  133.8060  151.1585 O   0  0  0  0  0  0  0  0  0  0  0  0
  152.2498  139.6447  156.2201 H   0  0  0  0  0  0  0  0  0  0  0  0
  151.9654  140.0992  154.5470 H   0  0  0  0  0  0  0  0  0  0  0  0
  151.2088  138.6542  155.2119 H   0  0  0  0  0  0  0  0  0  0  0  0
  149.9227  140.0280  156.7983 H   0  0  0  0  0  0  0  0  0  0  0  0
  151.4368  142.2866  155.5154 H   0  0  0  0  0  0  0  0  0  0  0  0
  149.7968  142.6418  155.9811 H   0  0  0  0  0  0  0  0  0  0  0  0
  151.8348  140.2155  157.8417 H   0  0  0  0  0  0  0  0  0  0  0  0
  153.0282  141.4062  157.3518 H   0  0  0  0  0  0  0  0  0  0  0  0
  151.7053  141.2012  160.1232 H   0  0  0  0  0  0  0  0  0  0  0  0
  153.3701  140.8111  159.7364 H   0  0  0  0  0  0  0  0  0  0  0  0
  151.0117  143.5251  160.0337 H   0  0  0  0  0  0  0  0  0  0  0  0
  152.1990  144.7325  159.5796 H   0  0  0  0  0  0  0  0  0  0  0  0
  152.2868  143.8784  157.2579 H   0  0  0  0  0  0  0  0  0  0  0  0
  150.6304  144.2557  157.6872 H   0  0  0  0  0  0  0  0  0  0  0  0
  147.5212  141.6359  154.4181 H   0  0  0  0  0  0  0  0  0  0  0  0
  148.8741  141.7260  153.2803 H   0  0  0  0  0  0  0  0  0  0  0  0
  148.9712  142.5268  154.8443 H   0  0  0  0  0  0  0  0  0  0  0  0
  147.7806  136.6451  156.6784 H   0  0  0  0  0  0  0  0  0  0  0  0
  146.0401  138.9856  150.9408 H   0  0  0  0  0  0  0  0  0  0  0  0
  145.0146  135.9727  153.1174 H   0  0  0  0  0  0  0  0  0  0  0  0
  144.2332  137.0729  152.0147 H   0  0  0  0  0  0  0  0  0  0  0  0
  146.7333  135.9467  150.9317 H   0  0  0  0  0  0  0  0  0  0  0  0
  145.4895  135.7643  149.1254 H   0  0  0  0  0  0  0  0  0  0  0  0
  145.8534  133.9535  152.2126 H   0  0  0  0  0  0  0  0  0  0  0  0
  146.1044  133.7399  149.1867 H   0  0  0  0  0  0  0  0  0  0  0  0
  147.2965  133.2715  150.4054 H   0  0  0  0  0  0  0  0  0  0  0  0
  145.5986  131.3908  149.4848 H   0  0  0  0  0  0  0  0  0  0  0  0
  145.8474  131.5149  151.2299 H   0  0  0  0  0  0  0  0  0  0  0  0
  143.5295  132.6059  149.6121 H   0  0  0  0  0  0  0  0  0  0  0  0
  143.4848  131.8269  151.1954 H   0  0  0  0  0  0  0  0  0  0  0  0
  150.2806  141.9499  158.1772 H   0  0  0  0  0  0  0  0  0  0  0  0
  1  2  1  0  0  0  0
  1 29  1  0  0  0  0
  1 30  1  0  0  0  0
  1 31  1  0  0  0  0
  2  3  1  0  0  0  0
  2 10  1  0  0  0  0
  2 32  1  0  0  0  0
  3  4  1  0  0  0  0
  3 33  1  0  0  0  0
  3 34  1  0  0  0  0
  4  9  1  0  0  0  0
  4  5  1  0  0  0  0
  4 59  1  0  0  0  0
  5  6  1  0  0  0  0
  5 35  1  0  0  0  0
  5 36  1  0  0  0  0
  6  7  1  0  0  0  0
  6 37  1  0  0  0  0
  6 38  1  0  0  0  0
  7  8  1  0  0  0  0
  8  9  1  0  0  0  0
  8 39  1  0  0  0  0
  8 40  1  0  0  0  0
  9 41  1  0  0  0  0
  9 42  1  0  0  0  0
 10 11  1  0  0  0  0
 10 12  1  0  0  0  0
 11 43  1  0  0  0  0
 11 44  1  0  0  0  0
 11 45  1  0  0  0  0
 12 17  1  0  0  0  0
 12 13  2  0  0  0  0
 13 14  1  0  0  0  0
 14 15  2  0  0  0  0
 14 46  1  0  0  0  0
 15 16  1  0  0  0  0
 16 20  1  0  0  0  0
 16 17  2  0  0  0  0
 17 18  1  0  0  0  0
 18 19  2  0  0  0  0
 19 20  1  0  0  0  0
 19 47  1  0  0  0  0
 20 21  1  0  0  0  0
 21 22  1  0  0  0  0
 21 48  1  0  0  0  0
 21 49  1  0  0  0  0
 22 23  1  0  0  0  0
 22 24  1  0  0  0  0
 22 50  1  0  0  0  0
 23 51  1  0  0  0  0
 24 28  1  0  0  0  0
 24 25  1  0  0  0  0
 24 52  1  0  0  0  0
 25 26  1  0  0  0  0
 25 53  1  0  0  0  0
 25 54  1  0  0  0  0
 26 27  1  0  0  0  0
 26 55  1  0  0  0  0
 26 56  1  0  0  0  0
 27 28  1  0  0  0  0
 27 57  1  0  0  0  0
 27 58  1  0  0  0  0
M  CHG  1   4   1
M  END
> <s_m_source_file>
AV-unprocessed.smi

> <i_m_source_file_index>
213

> <i_lp_mmshare_version>
43012

> <i_f3d_flags>
0

> <s_epik_input>
W0NIMl0xW0NIMl1PW0NIMl1bQ0gyXU4xW0NIMl1bQ0BASF0oW0NIM10pTihbQ0gzXSljKG5bY0hdbjIpYyhjMjMpbltjSF1uM1tDSDJdW0NASF0oW09IXSlbQ0BASF00W0NIMl1bQ0gyXVtDSDJdTzQ=

> <s_epik_cmdline>
J2VwaWtfcHl0aG9uJywgJy1waCcsICc3LjAnLCAnLXRuJywgJzgnLCAnLW1hJywgJzIwMCcsICctbWV0YWxfYmluZGluZycsICctaW1hZScsICc8aW5maWxlLm1hZT4nLCAnLW9tYWUnLCAnPG91dGZpbGUubWFlPic=

> <r_lp_tautomer_probability>
1

> <r_epik_Ionization_Penalty>
0.399679

> <r_epik_Ionization_Penalty_Charging>
0.399433

> <r_epik_Ionization_Penalty_Neutral>
0.000246213

> <r_epik_State_Penalty>
0.286032

> <r_epik_Charging_Adjusted_Penalty>
0.685465

> <i_epik_Tot_Q>
1

> <i_epik_Tot_abs_Q>
1

> <r_epik_Metal_State_Penalty>
0.286072

> <b_epik_Metal_Only>
0

> <s_lp_Force_Field>
OPLS_2005

> <r_lp_Energy>
46.153

> <b_lp_Chiralities_Consistent>
1

> <s_lp_Variant>
AV-unprocessed.smi:213-2

> <Gold.Version>
5.8.1

> <Gold.Id.Protein>
6NUR|6NUR_protein|mol2

> <Gold.PLP.Fitness>
52.8624

> <Gold.PLP.PLP>
-49.4649

> <Gold.PLP.part.hbond>
-2.0000

> <Gold.PLP.part.metal>
0.0000

> <Gold.PLP.part.buried>
-9.0102

> <Gold.PLP.part.nonpolar>
-43.8375

> <Gold.PLP.part.repulsive>
4.0069

> <Gold.PLP.ligand.clash>
0.0000

> <Gold.PLP.ligand.torsion>
1.7490

> <Gold.PLP.Chemscore.Hbond>
1.0000

> <Gold.PLP.Chemscore.CHOScore>
1.0000

> <Gold.PLP.Chemscore.Metal>
0.0000

> <Gold.Chemscore.Hbonds>
donor molecule, donor type, donor heavy atom, donor atom, acceptor molecule, acceptor atom, score
      L1  H    23    51       P1  7921  1.00
      L1  C    19    47       P1 10171  1.00

> <Gold.PLP.Chemscore.Internal.Correction>
0.8955

> <Gold.Rescore>
     Score         DG    S(hbond)    S(metal)    S(lipo)     H(rot)  DE(clash)    DE(int)     intcor
     11.77     -15.17       1.00        0.00     116.24       2.83       1.49       1.91       ----

> <Gold.Chemscore.Fitness>
11.7697

> <Gold.Chemscore.DG>
-15.1722

> <Gold.Chemscore.ZeroCoef>
-5.4800

> <Gold.Chemscore.Hbond>
0.9955

> <Gold.Chemscore.Metal>
0.0000

> <Gold.Chemscore.Lipo>
116.2415

> <Gold.Chemscore.Internal_Hbond>
0.0000

> <Gold.Chemscore.DEClash>
1.4893

> <Gold.Chemscore.DEInternal>
1.9132

> <Gold.Chemscore.Rot>
2.8254

> <Gold.Chemscore.Internal.Correction>
   9.000000E+99

> <Gold.Chemscore.Hbonds>
donor molecule, donor type, donor heavy atom, donor atom, acceptor molecule, acceptor atom, score
      L1  H    23    51       P1  7921  1.00

> <Gold.Chemscore.Hbond.Weighted>
-3.3249

> <Gold.Chemscore.Metal.Weighted>
-0.0000

> <Gold.Chemscore.Lipo.Weighted>
-13.6003

> <Gold.Chemscore.Internal_Hbond.Weighted>
0.0000

> <Gold.Chemscore.DEClash.Weighted>
1.4893

> <Gold.Chemscore.DEInternal.Weighted>
1.9132

> <Gold.Chemscore.Rot.Weighted>
7.2330

> <Gold.Chemscore.Internal.Correction.Weighted>
   9.000000E+99

> <Gold.Protein.RotatedTorsions>
[ 6907 6896 6895 6894 ] final  -11.41 input  -60.11 | X-H torsion
[ 7974 7965 7964 7962 ] final   39.12 input  175.53 | X-H torsion
[ 8008 7997 7996 7995 ] final   21.65 input   59.86 | X-H torsion
[ 10167 10162 10161 10158 ] final  -77.43 input  -65.29 | X-H torsion
[ 10718 10713 10712 10709 ] final -165.13 input   66.30 | X-H torsion
[ 10763 10752 10751 10750 ] final   20.30 input  -60.55 | X-H torsion
[ 11005 11000 10999 10996 ] final  -51.91 input  -57.11 | X-H torsion

> <Gold.Protein.ActiveResidues>
 VAL166  LYS551  ARG553  GLY616  TRP617  ASP618  TYR619  PRO620  LYS621  CYS622 
 ASP623  PHE694  ASN695  SER759  ASP760  ASP761  ALA762  ILE779  LEU786  VAL792 
 PHE793  MET794  SER795  GLU796  ALA797  LYS798  CYS799  TRP800  GLU811  SER814 

> <Gold.Protein.RotatedAtoms>
  151.3866  135.0949  159.9512 H   0  0  0  0  0  0  0  0  0  0  0  0  # atno 6907 bound_to 6896
  152.5092  133.9020  159.7456 H   0  0  0  0  0  0  0  0  0  0  0  0  # atno 6908 bound_to 6896
  150.9465  133.6542  159.2809 H   0  0  0  0  0  0  0  0  0  0  0  0  # atno 6909 bound_to 6896
  146.1009  139.5689  142.9415 H   0  0  0  0  0  0  0  0  0  0  0  0  # atno 7974 bound_to 7965
  154.9537  140.3069  155.5063 H   0  0  0  0  0  0  0  0  0  0  0  0  # atno 8008 bound_to 7997
  156.2984  140.2314  156.4555 H   0  0  0  0  0  0  0  0  0  0  0  0  # atno 8009 bound_to 7997
  154.8030  140.0433  157.1275 H   0  0  0  0  0  0  0  0  0  0  0  0  # atno 8010 bound_to 7997
  140.4770  143.2411  151.8116 H   0  0  0  0  0  0  0  0  0  0  0  0  # atno 10167 bound_to 10162
  156.6490  130.9000  151.3010 H   0  0  0  0  0  0  0  0  0  0  0  0  # atno 10718 bound_to 10713
  153.1089  135.6692  153.9536 H   0  0  0  0  0  0  0  0  0  0  0  0  # atno 10763 bound_to 10752
  153.9085  135.3028  155.3450 H   0  0  0  0  0  0  0  0  0  0  0  0  # atno 10764 bound_to 10752
  154.7509  135.5035  153.9365 H   0  0  0  0  0  0  0  0  0  0  0  0  # atno 10765 bound_to 10752
  141.0896  133.6635  156.3947 H   0  0  0  0  0  0  0  0  0  0  0  0  # atno 11005 bound_to 11000
  145.5857  141.0376  143.2098 LP  0  0  0  0  0  0  0  0  0  0  0  0  # atno 17320 bound_to 7965
  144.7432  139.7392  143.7303 LP  0  0  0  0  0  0  0  0  0  0  0  0  # atno 17321 bound_to 7965
  139.4827  144.4820  151.9294 LP  0  0  0  0  0  0  0  0  0  0  0  0  # atno 17342 bound_to 10162
  140.3905  144.2621  150.5900 LP  0  0  0  0  0  0  0  0  0  0  0  0  # atno 17343 bound_to 10162
  157.7147  130.9482  150.1212 LP  0  0  0  0  0  0  0  0  0  0  0  0  # atno 17370 bound_to 10713
  156.2099  130.3666  149.8683 LP  0  0  0  0  0  0  0  0  0  0  0  0  # atno 17371 bound_to 10713
  140.5282  134.6238  157.5341 LP  0  0  0  0  0  0  0  0  0  0  0  0  # atno 17394 bound_to 11000
  139.9720  134.7277  156.0023 LP  0  0  0  0  0  0  0  0  0  0  0  0  # atno 17395 bound_to 11000

$$$$
