AV-unprocessed.smi:3158|AV-procd|sdf|12043|dock6
  -GOLD-   2272017463D 1   1.00000     0.00000
 Structure written by MMmdl.
 40 40  0  0  0  0  0  0  0  0  2 V2000
  152.5768  138.3183  155.1201 C   0  0  0  0  0  0  0  0  0  0  0  0
  151.2378  138.4135  154.3737 C   0  0  0  0  0  0  0  0  0  0  0  0
  150.0984  137.5848  155.0028 C   0  0  2  0  0  0  0  0  0  0  0  0
  150.5278  136.1307  155.2421 C   0  0  0  0  0  0  0  0  0  0  0  0
  148.9077  137.5945  154.1539 N   0  0  0  0  0  0  0  0  0  0  0  0
  147.6900  138.0287  154.5158 C   0  0  0  0  0  0  0  0  0  0  0  0
  147.4339  138.4810  155.6325 O   0  0  0  0  0  0  0  0  0  0  0  0
  146.5864  137.9412  153.4533 C   0  0  1  0  0  0  0  0  0  0  0  0
  146.9011  138.8933  152.2897 C   0  0  0  0  0  0  0  0  0  0  0  0
  146.4567  136.5566  152.9500 N   0  3  0  0  0  0  0  0  0  0  0  0
  145.2458  136.2988  152.1398 C   0  0  0  0  0  0  0  0  0  0  0  0
  145.6108  135.7258  150.7609 C   0  0  0  0  0  0  0  0  0  0  0  0
  145.3282  134.3035  150.6662 N   0  0  0  0  0  0  0  0  0  0  0  0
  144.1029  133.6752  150.5877 C   0  0  0  0  0  0  0  0  0  0  0  0
  144.3388  132.3322  150.5141 C   0  0  0  0  0  0  0  0  0  0  0  0
  145.7574  132.2338  150.5671 C   0  0  0  0  0  0  0  0  0  0  0  0
  146.3458  133.4145  150.6666 N   0  0  0  0  0  0  0  0  0  0  0  0
  153.3597  138.8489  154.5779 H   0  0  0  0  0  0  0  0  0  0  0  0
  152.8941  137.2810  155.2310 H   0  0  0  0  0  0  0  0  0  0  0  0
  152.5139  138.7588  156.1146 H   0  0  0  0  0  0  0  0  0  0  0  0
  150.9396  139.4603  154.3034 H   0  0  0  0  0  0  0  0  0  0  0  0
  151.3937  138.0763  153.3481 H   0  0  0  0  0  0  0  0  0  0  0  0
  149.8616  138.0139  155.9780 H   0  0  0  0  0  0  0  0  0  0  0  0
  151.3914  136.0809  155.9058 H   0  0  0  0  0  0  0  0  0  0  0  0
  150.7975  135.6360  154.3084 H   0  0  0  0  0  0  0  0  0  0  0  0
  149.7257  135.5549  155.7052 H   0  0  0  0  0  0  0  0  0  0  0  0
  149.0226  137.2393  153.2156 H   0  0  0  0  0  0  0  0  0  0  0  0
  145.6323  138.2413  153.8906 H   0  0  0  0  0  0  0  0  0  0  0  0
  146.9939  139.9238  152.6350 H   0  0  0  0  0  0  0  0  0  0  0  0
  146.1081  138.8715  151.5417 H   0  0  0  0  0  0  0  0  0  0  0  0
  147.8334  138.6248  151.7907 H   0  0  0  0  0  0  0  0  0  0  0  0
  147.2643  136.3338  152.3864 H   0  0  0  0  0  0  0  0  0  0  0  0
  144.5787  135.6079  152.6568 H   0  0  0  0  0  0  0  0  0  0  0  0
  144.6954  137.2332  152.0282 H   0  0  0  0  0  0  0  0  0  0  0  0
  145.0451  136.2373  149.9813 H   0  0  0  0  0  0  0  0  0  0  0  0
  146.6670  135.8923  150.5453 H   0  0  0  0  0  0  0  0  0  0  0  0
  143.1748  134.2283  150.5857 H   0  0  0  0  0  0  0  0  0  0  0  0
  143.6091  131.5396  150.4373 H   0  0  0  0  0  0  0  0  0  0  0  0
  146.3729  131.3465  150.5392 H   0  0  0  0  0  0  0  0  0  0  0  0
  146.4441  135.9446  153.7541 H   0  0  0  0  0  0  0  0  0  0  0  0
  1  2  1  0  0  0  0
  1 18  1  0  0  0  0
  1 19  1  0  0  0  0
  1 20  1  0  0  0  0
  2  3  1  0  0  0  0
  2 21  1  0  0  0  0
  2 22  1  0  0  0  0
  3  4  1  0  0  0  0
  3  5  1  0  0  0  0
  3 23  1  0  0  0  0
  4 24  1  0  0  0  0
  4 25  1  0  0  0  0
  4 26  1  0  0  0  0
  5  6  1  0  0  0  0
  5 27  1  0  0  0  0
  6  7  2  0  0  0  0
  6  8  1  0  0  0  0
  8  9  1  0  0  0  0
  8 10  1  0  0  0  0
  8 28  1  0  0  0  0
  9 29  1  0  0  0  0
  9 30  1  0  0  0  0
  9 31  1  0  0  0  0
 10 11  1  0  0  0  0
 10 32  1  0  0  0  0
 10 40  1  0  0  0  0
 11 12  1  0  0  0  0
 11 33  1  0  0  0  0
 11 34  1  0  0  0  0
 12 13  1  0  0  0  0
 12 35  1  0  0  0  0
 12 36  1  0  0  0  0
 13 17  1  0  0  0  0
 13 14  1  0  0  0  0
 14 15  2  0  0  0  0
 14 37  1  0  0  0  0
 15 16  1  0  0  0  0
 15 38  1  0  0  0  0
 16 17  2  0  0  0  0
 16 39  1  0  0  0  0
M  CHG  1  10   1
M  END
> <s_m_source_file>
AV-unprocessed.smi

> <i_m_source_file_index>
3158

> <i_lp_mmshare_version>
43012

> <i_f3d_flags>
0

> <s_epik_input>
W0NIM11bQ0gyXVtDQEhdKFtDSDNdKVtOSF1DKD1PKVtDQEhdKFtDSDNdKVtOSF1bQ0gyXVtDSDJdbjFbY0hdW2NIXVtjSF1uMQ==

> <s_epik_cmdline>
J2VwaWtfcHl0aG9uJywgJy1waCcsICc3LjAnLCAnLXRuJywgJzgnLCAnLW1hJywgJzIwMCcsICctbWV0YWxfYmluZGluZycsICctaW1hZScsICc8aW5maWxlLm1hZT4nLCAnLW9tYWUnLCAnPG91dGZpbGUubWFlPic=

> <r_lp_tautomer_probability>
1

> <r_epik_Ionization_Penalty>
0.20724

> <r_epik_Ionization_Penalty_Charging>
0.207237

> <r_epik_Ionization_Penalty_Neutral>
3.33806e-06

> <r_epik_State_Penalty>
0.197234

> <r_epik_Charging_Adjusted_Penalty>
0.404471

> <i_epik_Tot_Q>
1

> <i_epik_Tot_abs_Q>
1

> <r_epik_Metal_State_Penalty>
0.197524

> <b_epik_Metal_Only>
0

> <s_lp_Force_Field>
OPLS_2005

> <r_lp_Energy>
5.46656

> <b_lp_Chiralities_Consistent>
1

> <s_lp_Variant>
AV-unprocessed.smi:3158-3

> <Gold.Version>
5.8.1

> <Gold.Id.Protein>
6NUR|6NUR_protein|mol2

> <Gold.PLP.Fitness>
45.8946

> <Gold.PLP.PLP>
-32.7836

> <Gold.PLP.part.hbond>
-2.0000

> <Gold.PLP.part.metal>
0.0000

> <Gold.PLP.part.buried>
-4.6435

> <Gold.PLP.part.nonpolar>
-25.3573

> <Gold.PLP.part.repulsive>
0.2485

> <Gold.PLP.ligand.clash>
0.0000

> <Gold.PLP.ligand.torsion>
0.9907

> <Gold.PLP.Chemscore.Hbond>
3.0000

> <Gold.PLP.Chemscore.CHOScore>
2.0000

> <Gold.PLP.Chemscore.Metal>
0.0000

> <Gold.Chemscore.Hbonds>
donor molecule, donor type, donor heavy atom, donor atom, acceptor molecule, acceptor atom, score
      L1  H     5    27       P1  7948  1.00
      L1  H    10    32       P1  7948  2.00
      L1  C    14    37       P1 10186  1.00
      L1  C    16    39       P1 10747  0.69

> <Gold.PLP.Chemscore.Internal.Correction>
0.0925

> <Gold.Rescore>
     Score         DG    S(hbond)    S(metal)    S(lipo)     H(rot)  DE(clash)    DE(int)     intcor
     14.23     -15.64       1.99        0.00      78.38       2.21       0.02       1.39       ----

> <Gold.Chemscore.Fitness>
14.2297

> <Gold.Chemscore.DG>
-15.6411

> <Gold.Chemscore.ZeroCoef>
-5.4800

> <Gold.Chemscore.Hbond>
1.9931

> <Gold.Chemscore.Metal>
0.0000

> <Gold.Chemscore.Lipo>
78.3754

> <Gold.Chemscore.Internal_Hbond>
0.0000

> <Gold.Chemscore.DEClash>
0.0203

> <Gold.Chemscore.DEInternal>
1.3911

> <Gold.Chemscore.Rot>
2.2132

> <Gold.Chemscore.Internal.Correction>
   9.000000E+99

> <Gold.Chemscore.Hbonds>
donor molecule, donor type, donor heavy atom, donor atom, acceptor molecule, acceptor atom, score
      L1  H     5    27       P1  7948  1.00
      L1  H    10    32       P1  7948  1.00

> <Gold.Chemscore.Hbond.Weighted>
-6.6570

> <Gold.Chemscore.Metal.Weighted>
-0.0000

> <Gold.Chemscore.Lipo.Weighted>
-9.1699

> <Gold.Chemscore.Internal_Hbond.Weighted>
0.0000

> <Gold.Chemscore.DEClash.Weighted>
0.0203

> <Gold.Chemscore.DEInternal.Weighted>
1.3911

> <Gold.Chemscore.Rot.Weighted>
5.6658

> <Gold.Chemscore.Internal.Correction.Weighted>
   9.000000E+99

> <Gold.Protein.RotatedTorsions>
[ 6907 6896 6895 6894 ] final   50.91 input  -60.11 | X-H torsion
[ 7974 7965 7964 7962 ] final  -11.27 input  175.53 | X-H torsion
[ 8008 7997 7996 7995 ] final   21.22 input   59.86 | X-H torsion
[ 10167 10162 10161 10158 ] final -155.79 input  -65.29 | X-H torsion
[ 10718 10713 10712 10709 ] final   83.23 input   66.30 | X-H torsion
[ 10763 10752 10751 10750 ] final  -29.97 input  -60.55 | X-H torsion
[ 11005 11000 10999 10996 ] final    7.13 input  -57.11 | X-H torsion

> <Gold.Protein.ActiveResidues>
 VAL166  LYS551  ARG553  GLY616  TRP617  ASP618  TYR619  PRO620  LYS621  CYS622 
 ASP623  PHE694  ASN695  SER759  ASP760  ASP761  ALA762  ILE779  LEU786  VAL792 
 PHE793  MET794  SER795  GLU796  ALA797  LYS798  CYS799  TRP800  GLU811  SER814 

> <Gold.Protein.RotatedAtoms>
  152.3069  134.7544  160.0345 H   0  0  0  0  0  0  0  0  0  0  0  0  # atno 6907 bound_to 6896
  151.8038  133.3368  159.3543 H   0  0  0  0  0  0  0  0  0  0  0  0  # atno 6908 bound_to 6896
  150.7301  134.5658  159.5910 H   0  0  0  0  0  0  0  0  0  0  0  0  # atno 6909 bound_to 6896
  146.2193  140.2886  142.8367 H   0  0  0  0  0  0  0  0  0  0  0  0  # atno 7974 bound_to 7965
  154.9473  140.3061  155.5092 H   0  0  0  0  0  0  0  0  0  0  0  0  # atno 8008 bound_to 7997
  156.2990  140.2325  156.4485 H   0  0  0  0  0  0  0  0  0  0  0  0  # atno 8009 bound_to 7997
  154.8088  140.0429  157.1316 H   0  0  0  0  0  0  0  0  0  0  0  0  # atno 8010 bound_to 7997
  139.6903  143.9432  152.2381 H   0  0  0  0  0  0  0  0  0  0  0  0  # atno 10167 bound_to 10162
  157.6874  131.0082  150.2493 H   0  0  0  0  0  0  0  0  0  0  0  0  # atno 10718 bound_to 10713
  153.7733  135.6910  153.4902 H   0  0  0  0  0  0  0  0  0  0  0  0  # atno 10763 bound_to 10752
  153.1860  135.4488  155.0088 H   0  0  0  0  0  0  0  0  0  0  0  0  # atno 10764 bound_to 10752
  154.8109  135.3377  154.7241 H   0  0  0  0  0  0  0  0  0  0  0  0  # atno 10765 bound_to 10752
  140.5517  134.0276  155.7939 H   0  0  0  0  0  0  0  0  0  0  0  0  # atno 11005 bound_to 11000
  144.9143  140.7794  143.5787 LP  0  0  0  0  0  0  0  0  0  0  0  0  # atno 17320 bound_to 7965
  145.2819  139.1915  143.4786 LP  0  0  0  0  0  0  0  0  0  0  0  0  # atno 17321 bound_to 7965
  139.9246  144.6778  150.8425 LP  0  0  0  0  0  0  0  0  0  0  0  0  # atno 17342 bound_to 10162
  140.7680  143.3351  151.2327 LP  0  0  0  0  0  0  0  0  0  0  0  0  # atno 17343 bound_to 10162
  156.3092  130.3769  149.7677 LP  0  0  0  0  0  0  0  0  0  0  0  0  # atno 17370 bound_to 10713
  156.5283  130.8246  151.3228 LP  0  0  0  0  0  0  0  0  0  0  0  0  # atno 17371 bound_to 10713
  141.1167  133.9528  157.2808 LP  0  0  0  0  0  0  0  0  0  0  0  0  # atno 17394 bound_to 11000
  139.9452  135.0185  156.8829 LP  0  0  0  0  0  0  0  0  0  0  0  0  # atno 17395 bound_to 11000

$$$$
