AV-unprocessed.smi:2548|AV-procd|sdf|10008|dock6
  -GOLD-   2272014 53D 1   1.00000     0.00000
 Structure written by MMmdl.
 44 45  0  0  0  0  0  0  0  0  1 V2000
  141.6365  134.6325  153.1769 C   0  0  0  0  0  0  0  0  0  0  0  0
  142.6281  135.7421  152.9872 C   0  0  0  0  0  0  0  0  0  0  0  0
  144.0231  135.6391  152.7115 C   0  0  0  0  0  0  0  0  0  0  0  0
  144.4483  136.9358  152.6300 C   0  0  0  0  0  0  0  0  0  0  0  0
  145.8013  137.5188  152.3625 C   0  0  0  0  0  0  0  0  0  0  0  0
  146.4412  138.1267  153.6163 C   0  0  0  0  0  0  0  0  0  0  0  0
  147.4437  137.6226  154.1250 O   0  0  0  0  0  0  0  0  0  0  0  0
  145.8493  139.2315  154.0969 N   0  0  0  0  0  0  0  0  0  0  0  0
  146.2723  139.9852  155.2777 C   0  0  0  0  0  0  0  0  0  0  0  0
  147.0268  141.3097  154.9473 C   0  0  0  0  0  0  0  0  0  0  0  0
  146.0752  142.2283  154.1444 C   0  0  0  0  0  0  0  0  0  0  0  0
  147.3899  142.0780  156.2513 C   0  0  0  0  0  0  0  0  0  0  0  0
  148.2686  141.3396  157.2828 C   0  0  0  0  0  0  0  0  0  0  0  0
  149.7882  141.4384  157.0674 C   0  0  0  0  0  0  0  0  0  0  0  0
  150.2990  141.2661  155.6273 C   0  0  0  0  0  0  0  0  0  0  0  0
  149.4653  140.3390  154.7289 C   0  0  0  0  0  0  0  0  0  0  0  0
  148.2796  141.0646  154.0648 C   0  0  0  0  0  0  0  0  0  0  0  0
  143.3375  137.7175  152.8555 N   0  0  0  0  0  0  0  0  0  0  0  0
  142.2206  136.9995  153.0742 N   0  0  0  0  0  0  0  0  0  0  0  0
  143.3266  138.7275  152.8576 H   0  0  0  0  0  0  0  0  0  0  0  0
  142.1189  133.6572  153.1075 H   0  0  0  0  0  0  0  0  0  0  0  0
  140.8548  134.6704  152.4177 H   0  0  0  0  0  0  0  0  0  0  0  0
  141.1574  134.6966  154.1543 H   0  0  0  0  0  0  0  0  0  0  0  0
  144.6201  134.7475  152.5884 H   0  0  0  0  0  0  0  0  0  0  0  0
  145.7189  138.2874  151.5929 H   0  0  0  0  0  0  0  0  0  0  0  0
  146.4684  136.7519  151.9676 H   0  0  0  0  0  0  0  0  0  0  0  0
  145.0355  139.5780  153.6099 H   0  0  0  0  0  0  0  0  0  0  0  0
  145.3704  140.2157  155.8457 H   0  0  0  0  0  0  0  0  0  0  0  0
  146.8610  139.3347  155.9224 H   0  0  0  0  0  0  0  0  0  0  0  0
  146.5246  143.2054  153.9627 H   0  0  0  0  0  0  0  0  0  0  0  0
  145.1391  142.3969  154.6777 H   0  0  0  0  0  0  0  0  0  0  0  0
  145.8248  141.8086  153.1695 H   0  0  0  0  0  0  0  0  0  0  0  0
  147.8548  143.0346  156.0082 H   0  0  0  0  0  0  0  0  0  0  0  0
  146.4569  142.3366  156.7542 H   0  0  0  0  0  0  0  0  0  0  0  0
  148.0593  141.7608  158.2666 H   0  0  0  0  0  0  0  0  0  0  0  0
  147.9813  140.2948  157.3735 H   0  0  0  0  0  0  0  0  0  0  0  0
  150.1420  142.4000  157.4410 H   0  0  0  0  0  0  0  0  0  0  0  0
  150.2639  140.6899  157.7022 H   0  0  0  0  0  0  0  0  0  0  0  0
  150.3835  142.2453  155.1547 H   0  0  0  0  0  0  0  0  0  0  0  0
  151.3206  140.8872  155.6768 H   0  0  0  0  0  0  0  0  0  0  0  0
  150.1171  139.9870  153.9287 H   0  0  0  0  0  0  0  0  0  0  0  0
  149.1519  139.4420  155.2628 H   0  0  0  0  0  0  0  0  0  0  0  0
  147.9899  140.5029  153.1773 H   0  0  0  0  0  0  0  0  0  0  0  0
  148.6370  142.0177  153.6724 H   0  0  0  0  0  0  0  0  0  0  0  0
  1 21  1  0  0  0  0
  1 22  1  0  0  0  0
  1 23  1  0  0  0  0
  1  2  1  0  0  0  0
  2 19  2  0  0  0  0
  2  3  1  0  0  0  0
  3  4  2  0  0  0  0
  3 24  1  0  0  0  0
  4 18  1  0  0  0  0
  4  5  1  0  0  0  0
  5  6  1  0  0  0  0
  5 25  1  0  0  0  0
  5 26  1  0  0  0  0
  6  7  2  0  0  0  0
  6  8  1  0  0  0  0
  8  9  1  0  0  0  0
  8 27  1  0  0  0  0
  9 10  1  0  0  0  0
  9 28  1  0  0  0  0
  9 29  1  0  0  0  0
 10 17  1  0  0  0  0
 10 11  1  0  0  0  0
 10 12  1  0  0  0  0
 11 30  1  0  0  0  0
 11 31  1  0  0  0  0
 11 32  1  0  0  0  0
 12 13  1  0  0  0  0
 12 33  1  0  0  0  0
 12 34  1  0  0  0  0
 13 14  1  0  0  0  0
 13 35  1  0  0  0  0
 13 36  1  0  0  0  0
 14 15  1  0  0  0  0
 14 37  1  0  0  0  0
 14 38  1  0  0  0  0
 15 16  1  0  0  0  0
 15 39  1  0  0  0  0
 15 40  1  0  0  0  0
 16 17  1  0  0  0  0
 16 41  1  0  0  0  0
 16 42  1  0  0  0  0
 17 43  1  0  0  0  0
 17 44  1  0  0  0  0
 18 19  1  0  0  0  0
 18 20  1  0  0  0  0
M  END
> <s_m_source_file>
AV-unprocessed.smi

> <i_m_source_file_index>
2548

> <i_lp_mmshare_version>
43012

> <i_f3d_flags>
0

> <s_epik_input>
W0NIM11jMVtjSF1jKG5bbkhdMSlbQ0gyXUMoPU8pW05IXVtDSDJdQzIoW0NIM10pW0NIMl1bQ0gyXVtDSDJdW0NIMl1bQ0gyXVtDSDJdMg==

> <s_epik_cmdline>
J2VwaWtfcHl0aG9uJywgJy1waCcsICc3LjAnLCAnLXRuJywgJzgnLCAnLW1hJywgJzIwMCcsICctbWV0YWxfYmluZGluZycsICctaW1hZScsICc8aW5maWxlLm1hZT4nLCAnLW9tYWUnLCAnPG91dGZpbGUubWFlPic=

> <r_lp_tautomer_probability>
0.5

> <r_epik_Ionization_Penalty>
0.000120089

> <r_epik_Ionization_Penalty_Charging>
0

> <r_epik_Ionization_Penalty_Neutral>
0.000120089

> <r_epik_State_Penalty>
0.41068

> <r_epik_Charging_Adjusted_Penalty>
0.41068

> <i_epik_Tot_Q>
0

> <i_epik_Tot_abs_Q>
0

> <r_epik_Metal_State_Penalty>
0.410662

> <b_epik_Metal_Only>
0

> <s_lp_Force_Field>
OPLS_2005

> <r_lp_Energy>
21.4694

> <b_lp_Chiralities_Consistent>
1

> <s_lp_Variant>
AV-unprocessed.smi:2548-2

> <Gold.Version>
5.8.1

> <Gold.Id.Protein>
6NUR|6NUR_protein|mol2

> <Gold.PLP.Fitness>
35.5600

> <Gold.PLP.PLP>
-30.1859

> <Gold.PLP.part.hbond>
-2.5472

> <Gold.PLP.part.metal>
0.0000

> <Gold.PLP.part.buried>
-3.6560

> <Gold.PLP.part.nonpolar>
-25.4616

> <Gold.PLP.part.repulsive>
0.7942

> <Gold.PLP.ligand.clash>
0.0000

> <Gold.PLP.ligand.torsion>
0.3183

> <Gold.PLP.Chemscore.Hbond>
2.0000

> <Gold.PLP.Chemscore.CHOScore>
0.0000

> <Gold.PLP.Chemscore.Metal>
0.0000

> <Gold.Chemscore.Hbonds>
donor molecule, donor type, donor heavy atom, donor atom, acceptor molecule, acceptor atom, score
      L1  H     8    27       P1 10175  1.00
      L1  H    18    20       P1 10175  1.00

> <Gold.PLP.Chemscore.Internal.Correction>
0.0107

> <Gold.Rescore>
     Score         DG    S(hbond)    S(metal)    S(lipo)     H(rot)  DE(clash)    DE(int)     intcor
     16.18     -16.69       1.99        0.00      72.73       1.55       0.19       0.31       ----

> <Gold.Chemscore.Fitness>
16.1836

> <Gold.Chemscore.DG>
-16.6862

> <Gold.Chemscore.ZeroCoef>
-5.4800

> <Gold.Chemscore.Hbond>
1.9948

> <Gold.Chemscore.Metal>
0.0000

> <Gold.Chemscore.Lipo>
72.7252

> <Gold.Chemscore.Internal_Hbond>
0.0000

> <Gold.Chemscore.DEClash>
0.1943

> <Gold.Chemscore.DEInternal>
0.3083

> <Gold.Chemscore.Rot>
1.5489

> <Gold.Chemscore.Internal.Correction>
   9.000000E+99

> <Gold.Chemscore.Hbonds>
donor molecule, donor type, donor heavy atom, donor atom, acceptor molecule, acceptor atom, score
      L1  H     8    27       P1 10175  0.97
      L1  H    18    20       P1 10175  1.00

> <Gold.Chemscore.Hbond.Weighted>
-6.6625

> <Gold.Chemscore.Metal.Weighted>
-0.0000

> <Gold.Chemscore.Lipo.Weighted>
-8.5089

> <Gold.Chemscore.Internal_Hbond.Weighted>
0.0000

> <Gold.Chemscore.DEClash.Weighted>
0.1943

> <Gold.Chemscore.DEInternal.Weighted>
0.3083

> <Gold.Chemscore.Rot.Weighted>
3.9652

> <Gold.Chemscore.Internal.Correction.Weighted>
   9.000000E+99

> <Gold.Protein.RotatedTorsions>
[ 6907 6896 6895 6894 ] final  131.88 input  -60.11 | X-H torsion
[ 7974 7965 7964 7962 ] final  -84.99 input  175.53 | X-H torsion
[ 8008 7997 7996 7995 ] final   -9.31 input   59.86 | X-H torsion
[ 10167 10162 10161 10158 ] final -152.39 input  -65.29 | X-H torsion
[ 10718 10713 10712 10709 ] final   44.69 input   66.30 | X-H torsion
[ 10763 10752 10751 10750 ] final    8.15 input  -60.55 | X-H torsion
[ 11005 11000 10999 10996 ] final   87.09 input  -57.11 | X-H torsion

> <Gold.Protein.ActiveResidues>
 VAL166  LYS551  ARG553  GLY616  TRP617  ASP618  TYR619  PRO620  LYS621  CYS622 
 ASP623  PHE694  ASN695  SER759  ASP760  ASP761  ALA762  ILE779  LEU786  VAL792 
 PHE793  MET794  SER795  GLU796  ALA797  LYS798  CYS799  TRP800  GLU811  SER814 

> <Gold.Protein.RotatedAtoms>
  152.3381  133.6035  159.5856 H   0  0  0  0  0  0  0  0  0  0  0  0  # atno 6907 bound_to 6896
  150.7462  133.9765  159.3571 H   0  0  0  0  0  0  0  0  0  0  0  0  # atno 6908 bound_to 6896
  151.7632  135.0805  160.0400 H   0  0  0  0  0  0  0  0  0  0  0  0  # atno 6909 bound_to 6896
  145.4993  140.9548  143.1769 H   0  0  0  0  0  0  0  0  0  0  0  0  # atno 7974 bound_to 7965
  154.5658  140.2358  155.8265 H   0  0  0  0  0  0  0  0  0  0  0  0  # atno 8008 bound_to 7997
  156.2067  140.3037  155.9601 H   0  0  0  0  0  0  0  0  0  0  0  0  # atno 8009 bound_to 7997
  155.2803  140.0422  157.3005 H   0  0  0  0  0  0  0  0  0  0  0  0  # atno 8010 bound_to 7997
  139.7186  143.8994  152.2495 H   0  0  0  0  0  0  0  0  0  0  0  0  # atno 10167 bound_to 10162
  157.4295  130.8016  149.7590 H   0  0  0  0  0  0  0  0  0  0  0  0  # atno 10718 bound_to 10713
  153.2283  135.6889  153.7919 H   0  0  0  0  0  0  0  0  0  0  0  0  # atno 10763 bound_to 10752
  153.7093  135.3285  155.3243 H   0  0  0  0  0  0  0  0  0  0  0  0  # atno 10764 bound_to 10752
  154.8302  135.4586  154.1158 H   0  0  0  0  0  0  0  0  0  0  0  0  # atno 10765 bound_to 10752
  139.8928  134.8399  156.2811 H   0  0  0  0  0  0  0  0  0  0  0  0  # atno 11005 bound_to 11000
  144.7789  139.6568  143.7163 LP  0  0  0  0  0  0  0  0  0  0  0  0  # atno 17320 bound_to 7965
  146.2236  139.5681  142.9602 LP  0  0  0  0  0  0  0  0  0  0  0  0  # atno 17321 bound_to 7965
  139.8883  144.6980  150.8799 LP  0  0  0  0  0  0  0  0  0  0  0  0  # atno 17342 bound_to 10162
  140.7749  143.3606  151.1835 LP  0  0  0  0  0  0  0  0  0  0  0  0  # atno 17343 bound_to 10162
  155.9908  130.3942  150.3011 LP  0  0  0  0  0  0  0  0  0  0  0  0  # atno 17370 bound_to 10713
  157.1167  131.0236  151.3026 LP  0  0  0  0  0  0  0  0  0  0  0  0  # atno 17371 bound_to 10713
  141.0038  133.7136  156.1002 LP  0  0  0  0  0  0  0  0  0  0  0  0  # atno 17394 bound_to 11000
  140.7461  134.4096  157.5548 LP  0  0  0  0  0  0  0  0  0  0  0  0  # atno 17395 bound_to 11000

$$$$
