AV-unprocessed.smi:2445|AV-procd|sdf|9636|dock4
  -GOLD-   2272013273D 1   1.00000     0.00000
 Structure written by MMmdl.
 40 41  0  0  0  0  0  0  0  0  1 V2000
  144.3924  144.7999  153.9205 C   0  0  0  0  0  0  0  0  0  0  0  0
  145.1815  143.6325  154.4066 C   0  0  0  0  0  0  0  0  0  0  0  0
  145.0795  142.9949  155.6181 C   0  0  0  0  0  0  0  0  0  0  0  0
  145.9611  141.9225  155.7671 N   0  0  0  0  0  0  0  0  0  0  0  0
  146.7280  141.7370  154.6889 C   0  0  0  0  0  0  0  0  0  0  0  0
  147.7237  140.6243  154.5561 C   0  0  1  0  0  0  0  0  0  0  0  0
  147.3240  139.6244  153.4613 C   0  0  0  0  0  0  0  0  0  0  0  0
  149.1792  141.1222  154.4167 C   0  0  0  0  0  0  0  0  0  0  0  0
  149.4883  142.1956  155.3603 N   0  0  0  0  0  0  0  0  0  0  0  0
  150.2156  142.0645  156.4792 C   0  0  0  0  0  0  0  0  0  0  0  0
  150.6686  140.9961  156.8895 O   0  0  0  0  0  0  0  0  0  0  0  0
  150.4077  143.2441  157.0856 N   0  0  0  0  0  0  0  0  0  0  0  0
  151.2157  143.4540  158.2872 C   0  0  1  0  0  0  0  0  0  0  0  0
  152.3173  144.4786  158.0198 C   0  0  0  0  0  0  0  0  0  0  0  0
  152.2049  145.4585  159.1830 C   0  0  0  0  0  0  0  0  0  0  0  0
  150.8264  145.4217  159.5071 O   0  0  0  0  0  0  0  0  0  0  0  0
  150.4257  144.0596  159.4702 C   0  0  1  0  0  0  0  0  0  0  0  0
  148.8924  143.9605  159.4272 C   0  0  0  0  0  0  0  0  0  0  0  0
  146.4078  142.8997  153.4067 S   0  0  0  0  0  0  0  0  0  0  0  0
  143.6282  145.0859  154.6436 H   0  0  0  0  0  0  0  0  0  0  0  0
  143.8939  144.5644  152.9799 H   0  0  0  0  0  0  0  0  0  0  0  0
  145.0395  145.6615  153.7548 H   0  0  0  0  0  0  0  0  0  0  0  0
  144.4066  143.2341  156.4283 H   0  0  0  0  0  0  0  0  0  0  0  0
  147.6800  140.0706  155.4950 H   0  0  0  0  0  0  0  0  0  0  0  0
  146.3269  139.2218  153.6427 H   0  0  0  0  0  0  0  0  0  0  0  0
  148.0177  138.7841  153.4238 H   0  0  0  0  0  0  0  0  0  0  0  0
  147.3195  140.0950  152.4776 H   0  0  0  0  0  0  0  0  0  0  0  0
  149.8698  140.3006  154.6076 H   0  0  0  0  0  0  0  0  0  0  0  0
  149.3694  141.4445  153.3915 H   0  0  0  0  0  0  0  0  0  0  0  0
  149.1570  143.1180  155.1184 H   0  0  0  0  0  0  0  0  0  0  0  0
  149.9883  144.0645  156.6734 H   0  0  0  0  0  0  0  0  0  0  0  0
  151.6693  142.5138  158.6060 H   0  0  0  0  0  0  0  0  0  0  0  0
  153.3070  144.0253  157.9563 H   0  0  0  0  0  0  0  0  0  0  0  0
  152.1380  145.0107  157.0841 H   0  0  0  0  0  0  0  0  0  0  0  0
  152.7907  145.1178  160.0383 H   0  0  0  0  0  0  0  0  0  0  0  0
  152.5317  146.4646  158.9202 H   0  0  0  0  0  0  0  0  0  0  0  0
  150.7776  143.5939  160.3927 H   0  0  0  0  0  0  0  0  0  0  0  0
  148.5671  142.9210  159.3846 H   0  0  0  0  0  0  0  0  0  0  0  0
  148.4791  144.4822  158.5636 H   0  0  0  0  0  0  0  0  0  0  0  0
  148.4534  144.4066  160.3198 H   0  0  0  0  0  0  0  0  0  0  0  0
  1  2  1  0  0  0  0
  1 20  1  0  0  0  0
  1 21  1  0  0  0  0
  1 22  1  0  0  0  0
  2 19  1  0  0  0  0
  2  3  2  0  0  0  0
  3  4  1  0  0  0  0
  3 23  1  0  0  0  0
  4  5  2  0  0  0  0
  5  6  1  0  0  0  0
  5 19  1  0  0  0  0
  6  7  1  0  0  0  0
  6  8  1  0  0  0  0
  6 24  1  0  0  0  0
  7 25  1  0  0  0  0
  7 26  1  0  0  0  0
  7 27  1  0  0  0  0
  8  9  1  0  0  0  0
  8 28  1  0  0  0  0
  8 29  1  0  0  0  0
  9 10  1  0  0  0  0
  9 30  1  0  0  0  0
 10 11  2  0  0  0  0
 10 12  1  0  0  0  0
 12 13  1  0  0  0  0
 12 31  1  0  0  0  0
 13 17  1  0  0  0  0
 13 14  1  0  0  0  0
 13 32  1  0  0  0  0
 14 15  1  0  0  0  0
 14 33  1  0  0  0  0
 14 34  1  0  0  0  0
 15 16  1  0  0  0  0
 15 35  1  0  0  0  0
 15 36  1  0  0  0  0
 16 17  1  0  0  0  0
 17 18  1  0  0  0  0
 17 37  1  0  0  0  0
 18 38  1  0  0  0  0
 18 39  1  0  0  0  0
 18 40  1  0  0  0  0
M  END
> <s_m_source_file>
AV-unprocessed.smi

> <i_m_source_file_index>
2445

> <i_lp_mmshare_version>
43012

> <i_f3d_flags>
0

> <s_epik_input>
W0NIM11jMVtjSF1uYyhzMSlbQ0BIXShbQ0gzXSlbQ0gyXVtOSF1DKD1PKVtOSF1bQ0BASF0yW0NIMl1bQ0gyXU9bQ0BIXTJbQ0gzXQ==

> <s_epik_cmdline>
J2VwaWtfcHl0aG9uJywgJy1waCcsICc3LjAnLCAnLXRuJywgJzgnLCAnLW1hJywgJzIwMCcsICctbWV0YWxfYmluZGluZycsICctaW1hZScsICc8aW5maWxlLm1hZT4nLCAnLW9tYWUnLCAnPG91dGZpbGUubWFlPic=

> <r_epik_Ionization_Penalty>
0.000649483

> <r_epik_Ionization_Penalty_Charging>
0

> <r_epik_Ionization_Penalty_Neutral>
0.000649483

> <r_epik_State_Penalty>
0.000379895

> <r_epik_Charging_Adjusted_Penalty>
0.000379895

> <i_epik_Tot_Q>
0

> <i_epik_Tot_abs_Q>
0

> <r_epik_Metal_State_Penalty>
-0

> <b_epik_Metal_Only>
0

> <s_lp_Force_Field>
OPLS_2005

> <r_lp_Energy>
6.66007

> <b_lp_Chiralities_Consistent>
1

> <s_lp_Variant>
AV-unprocessed.smi:2445-4

> <Gold.Version>
5.8.1

> <Gold.Id.Protein>
6NUR|6NUR_protein|mol2

> <Gold.PLP.Fitness>
42.7461

> <Gold.PLP.PLP>
-37.1945

> <Gold.PLP.part.hbond>
-2.1659

> <Gold.PLP.part.metal>
0.0000

> <Gold.PLP.part.buried>
-5.4508

> <Gold.PLP.part.nonpolar>
-30.5099

> <Gold.PLP.part.repulsive>
0.5261

> <Gold.PLP.ligand.clash>
0.0000

> <Gold.PLP.ligand.torsion>
0.2252

> <Gold.PLP.Chemscore.Hbond>
1.9600

> <Gold.PLP.Chemscore.CHOScore>
0.0000

> <Gold.PLP.Chemscore.Metal>
0.0000

> <Gold.Chemscore.Hbonds>
donor molecule, donor type, donor heavy atom, donor atom, acceptor molecule, acceptor atom, score
      L1  H     9    30       P1  8028  0.94
      L1  H    12    31       P1  8028  1.00

> <Gold.PLP.Chemscore.Internal.Correction>
0.1220

> <Gold.Rescore>
     Score         DG    S(hbond)    S(metal)    S(lipo)     H(rot)  DE(clash)    DE(int)     intcor
     18.96     -19.52       1.87        0.00     100.24       1.53       0.34       0.23       ----

> <Gold.Chemscore.Fitness>
18.9627

> <Gold.Chemscore.DG>
-19.5232

> <Gold.Chemscore.ZeroCoef>
-5.4800

> <Gold.Chemscore.Hbond>
1.8679

> <Gold.Chemscore.Metal>
0.0000

> <Gold.Chemscore.Lipo>
100.2368

> <Gold.Chemscore.Internal_Hbond>
0.0000

> <Gold.Chemscore.DEClash>
0.3353

> <Gold.Chemscore.DEInternal>
0.2252

> <Gold.Chemscore.Rot>
1.5325

> <Gold.Chemscore.Internal.Correction>
   9.000000E+99

> <Gold.Chemscore.Hbonds>
donor molecule, donor type, donor heavy atom, donor atom, acceptor molecule, acceptor atom, score
      L1  H     9    30       P1  8028  0.91
      L1  H    12    31       P1  8028  0.94

> <Gold.Chemscore.Hbond.Weighted>
-6.2389

> <Gold.Chemscore.Metal.Weighted>
-0.0000

> <Gold.Chemscore.Lipo.Weighted>
-11.7277

> <Gold.Chemscore.Internal_Hbond.Weighted>
0.0000

> <Gold.Chemscore.DEClash.Weighted>
0.3353

> <Gold.Chemscore.DEInternal.Weighted>
0.2252

> <Gold.Chemscore.Rot.Weighted>
3.9233

> <Gold.Chemscore.Internal.Correction.Weighted>
   9.000000E+99

> <Gold.Protein.RotatedTorsions>
[ 6907 6896 6895 6894 ] final   87.45 input  -60.11 | X-H torsion
[ 7974 7965 7964 7962 ] final -107.42 input  175.53 | X-H torsion
[ 8008 7997 7996 7995 ] final -153.51 input   59.86 | X-H torsion
[ 10167 10162 10161 10158 ] final -150.02 input  -65.29 | X-H torsion
[ 10718 10713 10712 10709 ] final  153.68 input   66.30 | X-H torsion
[ 10763 10752 10751 10750 ] final    0.98 input  -60.55 | X-H torsion
[ 11005 11000 10999 10996 ] final  172.79 input  -57.11 | X-H torsion

> <Gold.Protein.ActiveResidues>
 VAL166  LYS551  ARG553  GLY616  TRP617  ASP618  TYR619  PRO620  LYS621  CYS622 
 ASP623  PHE694  ASN695  SER759  ASP760  ASP761  ALA762  ILE779  LEU786  VAL792 
 PHE793  MET794  SER795  GLU796  ALA797  LYS798  CYS799  TRP800  GLU811  SER814 

> <Gold.Protein.RotatedAtoms>
  152.5411  134.2274  159.8811 H   0  0  0  0  0  0  0  0  0  0  0  0  # atno 6907 bound_to 6896
  151.2247  133.4476  159.2609 H   0  0  0  0  0  0  0  0  0  0  0  0  # atno 6908 bound_to 6896
  151.0772  134.9848  159.8394 H   0  0  0  0  0  0  0  0  0  0  0  0  # atno 6909 bound_to 6896
  145.2055  140.9074  143.3345 H   0  0  0  0  0  0  0  0  0  0  0  0  # atno 7974 bound_to 7965
  155.6719  140.0734  157.2517 H   0  0  0  0  0  0  0  0  0  0  0  0  # atno 8008 bound_to 7997
  154.4122  140.1697  156.1940 H   0  0  0  0  0  0  0  0  0  0  0  0  # atno 8009 bound_to 7997
  155.9609  140.3370  155.6493 H   0  0  0  0  0  0  0  0  0  0  0  0  # atno 8010 bound_to 7997
  139.7391  143.8690  152.2557 H   0  0  0  0  0  0  0  0  0  0  0  0  # atno 10167 bound_to 10162
  157.2415  131.0760  151.1789 H   0  0  0  0  0  0  0  0  0  0  0  0  # atno 10718 bound_to 10713
  153.3138  135.6964  153.7091 H   0  0  0  0  0  0  0  0  0  0  0  0  # atno 10763 bound_to 10752
  153.5958  135.3471  155.2928 H   0  0  0  0  0  0  0  0  0  0  0  0  # atno 10764 bound_to 10752
  154.8581  135.4329  154.2284 H   0  0  0  0  0  0  0  0  0  0  0  0  # atno 10765 bound_to 10752
  140.3335  134.7337  157.4151 H   0  0  0  0  0  0  0  0  0  0  0  0  # atno 11005 bound_to 11000
  144.9906  139.3693  143.6216 LP  0  0  0  0  0  0  0  0  0  0  0  0  # atno 17320 bound_to 7965
  146.3409  139.9087  142.8783 LP  0  0  0  0  0  0  0  0  0  0  0  0  # atno 17321 bound_to 7965
  139.8635  144.7105  150.9071 LP  0  0  0  0  0  0  0  0  0  0  0  0  # atno 17342 bound_to 10162
  140.7783  143.3797  151.1498 LP  0  0  0  0  0  0  0  0  0  0  0  0  # atno 17343 bound_to 10162
  157.3373  130.7015  149.6360 LP  0  0  0  0  0  0  0  0  0  0  0  0  # atno 17370 bound_to 10713
  155.9670  130.4290  150.4813 LP  0  0  0  0  0  0  0  0  0  0  0  0  # atno 17371 bound_to 10713
  140.0841  134.5691  155.8510 LP  0  0  0  0  0  0  0  0  0  0  0  0  # atno 17394 bound_to 11000
  141.2057  133.6649  156.6198 LP  0  0  0  0  0  0  0  0  0  0  0  0  # atno 17395 bound_to 11000

$$$$
