AV-unprocessed.smi:2330|AV-procd|sdf|9312|dock7
  -GOLD-   2272012533D 1   1.00000     0.00000
 Structure written by MMmdl.
 42 43  0  0  0  0  0  0  0  0  1 V2000
  146.0724  132.5944  150.4050 C   0  0  0  0  0  0  0  0  0  0  0  0
  145.3850  133.5006  151.4361 C   0  0  2  0  0  0  0  0  0  0  0  0
  145.0373  134.8749  150.8328 C   0  0  0  0  0  0  0  0  0  0  0  0
  144.3574  135.7949  151.8633 C   0  0  0  0  0  0  0  0  0  0  0  0
  145.2012  135.9618  153.1416 C   0  0  2  0  0  0  0  0  0  0  0  0
  146.3949  136.7561  152.8565 N   0  0  0  0  0  0  0  0  0  0  0  0
  146.5560  138.0527  153.1542 C   0  0  0  0  0  0  0  0  0  0  0  0
  145.6975  138.7490  153.6964 O   0  0  0  0  0  0  0  0  0  0  0  0
  147.7728  138.4922  152.8035 N   0  0  0  0  0  0  0  0  0  0  0  0
  148.2777  139.8460  153.0129 C   0  0  0  0  0  0  0  0  0  0  0  0
  148.7575  140.0774  154.4618 C   0  0  2  0  0  0  0  0  0  0  0  0
  148.6857  141.5395  154.9360 C   0  0  0  0  0  0  0  0  0  0  0  0
  150.1188  139.4967  154.6866 C   0  0  0  0  0  0  0  0  0  0  0  0
  151.1860  140.2185  155.0442 N   0  0  0  0  0  0  0  0  0  0  0  0
  152.3363  139.4394  155.1897 C   0  0  0  0  0  0  0  0  0  0  0  0
  152.1300  138.1071  154.9379 C   0  0  0  0  0  0  0  0  0  0  0  0
  150.4743  137.7813  154.5051 S   0  0  0  0  0  0  0  0  0  0  0  0
  145.5681  134.5846  153.7347 C   0  0  0  0  0  0  0  0  0  0  0  0
  146.2479  133.6691  152.7013 C   0  0  0  0  0  0  0  0  0  0  0  0
  147.0165  133.0232  150.0674 H   0  0  0  0  0  0  0  0  0  0  0  0
  145.4408  132.4477  149.5284 H   0  0  0  0  0  0  0  0  0  0  0  0
  146.2850  131.6111  150.8255 H   0  0  0  0  0  0  0  0  0  0  0  0
  144.4518  133.0165  151.7285 H   0  0  0  0  0  0  0  0  0  0  0  0
  145.9430  135.3522  150.4563 H   0  0  0  0  0  0  0  0  0  0  0  0
  144.3801  134.7473  149.9719 H   0  0  0  0  0  0  0  0  0  0  0  0
  144.1521  136.7687  151.4168 H   0  0  0  0  0  0  0  0  0  0  0  0
  143.3867  135.3742  152.1287 H   0  0  0  0  0  0  0  0  0  0  0  0
  144.5996  136.5068  153.8713 H   0  0  0  0  0  0  0  0  0  0  0  0
  147.1624  136.2731  152.4128 H   0  0  0  0  0  0  0  0  0  0  0  0
  148.4038  137.8371  152.3654 H   0  0  0  0  0  0  0  0  0  0  0  0
  149.1139  139.9857  152.3268 H   0  0  0  0  0  0  0  0  0  0  0  0
  147.5304  140.5911  152.7340 H   0  0  0  0  0  0  0  0  0  0  0  0
  148.0814  139.5145  155.1068 H   0  0  0  0  0  0  0  0  0  0  0  0
  149.0101  141.6294  155.9733 H   0  0  0  0  0  0  0  0  0  0  0  0
  147.6708  141.9324  154.8810 H   0  0  0  0  0  0  0  0  0  0  0  0
  149.3249  142.1827  154.3303 H   0  0  0  0  0  0  0  0  0  0  0  0
  153.2620  139.9163  155.4761 H   0  0  0  0  0  0  0  0  0  0  0  0
  152.8480  137.3015  154.9803 H   0  0  0  0  0  0  0  0  0  0  0  0
  146.2103  134.7019  154.6083 H   0  0  0  0  0  0  0  0  0  0  0  0
  144.6600  134.0993  154.0942 H   0  0  0  0  0  0  0  0  0  0  0  0
  146.4404  132.6949  153.1519 H   0  0  0  0  0  0  0  0  0  0  0  0
  147.2224  134.0796  152.4331 H   0  0  0  0  0  0  0  0  0  0  0  0
  1  2  1  0  0  0  0
  1 20  1  0  0  0  0
  1 21  1  0  0  0  0
  1 22  1  0  0  0  0
  2 19  1  0  0  0  0
  2  3  1  0  0  0  0
  2 23  1  0  0  0  0
  3  4  1  0  0  0  0
  3 24  1  0  0  0  0
  3 25  1  0  0  0  0
  4  5  1  0  0  0  0
  4 26  1  0  0  0  0
  4 27  1  0  0  0  0
  5  6  1  0  0  0  0
  5 18  1  0  0  0  0
  5 28  1  0  0  0  0
  6  7  1  0  0  0  0
  6 29  1  0  0  0  0
  7  8  2  0  0  0  0
  7  9  1  0  0  0  0
  9 10  1  0  0  0  0
  9 30  1  0  0  0  0
 10 11  1  0  0  0  0
 10 31  1  0  0  0  0
 10 32  1  0  0  0  0
 11 12  1  0  0  0  0
 11 13  1  0  0  0  0
 11 33  1  0  0  0  0
 12 34  1  0  0  0  0
 12 35  1  0  0  0  0
 12 36  1  0  0  0  0
 13 17  1  0  0  0  0
 13 14  2  0  0  0  0
 14 15  1  0  0  0  0
 15 16  2  0  0  0  0
 15 37  1  0  0  0  0
 16 17  1  0  0  0  0
 16 38  1  0  0  0  0
 18 19  1  0  0  0  0
 18 39  1  0  0  0  0
 18 40  1  0  0  0  0
 19 41  1  0  0  0  0
 19 42  1  0  0  0  0
M  END
> <s_m_source_file>
AV-unprocessed.smi

> <i_m_source_file_index>
2330

> <i_lp_mmshare_version>
43012

> <i_f3d_flags>
0

> <s_epik_input>
W0NIM11bQ0BASF0xW0NIMl1bQ0gyXVtDQEhdKFtDSDJdW0NIMl0xKVtOSF1DKD1PKVtOSF1bQ0gyXVtDQEhdKFtDSDNdKWMybltjSF1bY0hdczI=

> <s_epik_cmdline>
J2VwaWtfcHl0aG9uJywgJy1waCcsICc3LjAnLCAnLXRuJywgJzgnLCAnLW1hJywgJzIwMCcsICctbWV0YWxfYmluZGluZycsICctaW1hZScsICc8aW5maWxlLm1hZT4nLCAnLW9tYWUnLCAnPG91dGZpbGUubWFlPic=

> <r_lp_tautomer_probability>
1

> <r_epik_Ionization_Penalty>
0.000331107

> <r_epik_Ionization_Penalty_Charging>
0

> <r_epik_Ionization_Penalty_Neutral>
0.000331107

> <r_epik_State_Penalty>
-0

> <r_epik_Charging_Adjusted_Penalty>
0

> <i_epik_Tot_Q>
0

> <i_epik_Tot_abs_Q>
0

> <r_epik_Metal_State_Penalty>
-0

> <b_epik_Metal_Only>
0

> <s_lp_Force_Field>
OPLS_2005

> <r_lp_Energy>
-1.48662

> <b_lp_Chiralities_Consistent>
1

> <s_lp_Variant>
AV-unprocessed.smi:2330-3

> <Gold.Version>
5.8.1

> <Gold.Id.Protein>
6NUR|6NUR_protein|mol2

> <Gold.PLP.Fitness>
38.8745

> <Gold.PLP.PLP>
-31.1762

> <Gold.PLP.part.hbond>
-4.0000

> <Gold.PLP.part.metal>
0.0000

> <Gold.PLP.part.buried>
1.0934

> <Gold.PLP.part.nonpolar>
-31.2915

> <Gold.PLP.part.repulsive>
1.4560

> <Gold.PLP.ligand.clash>
0.0000

> <Gold.PLP.ligand.torsion>
0.6967

> <Gold.PLP.Chemscore.Hbond>
2.9920

> <Gold.PLP.Chemscore.CHOScore>
0.0000

> <Gold.PLP.Chemscore.Metal>
0.0000

> <Gold.Chemscore.Hbonds>
donor molecule, donor type, donor heavy atom, donor atom, acceptor molecule, acceptor atom, score
      L1  H     6    29       P1  7948  1.00
      L1  H     9    30       P1  7948  1.00
      P1  H  7989  7998       L1    14  0.75

> <Gold.PLP.Chemscore.Internal.Correction>
0.1158

> <Gold.Rescore>
     Score         DG    S(hbond)    S(metal)    S(lipo)     H(rot)  DE(clash)    DE(int)     intcor
     16.18     -18.71       1.95        0.00      89.30       1.45       1.96       0.57       ----

> <Gold.Chemscore.Fitness>
16.1830

> <Gold.Chemscore.DG>
-18.7117

> <Gold.Chemscore.ZeroCoef>
-5.4800

> <Gold.Chemscore.Hbond>
1.9477

> <Gold.Chemscore.Metal>
0.0000

> <Gold.Chemscore.Lipo>
89.2951

> <Gold.Chemscore.Internal_Hbond>
0.0000

> <Gold.Chemscore.DEClash>
1.9554

> <Gold.Chemscore.DEInternal>
0.5734

> <Gold.Chemscore.Rot>
1.4536

> <Gold.Chemscore.Internal.Correction>
   9.000000E+99

> <Gold.Chemscore.Hbonds>
donor molecule, donor type, donor heavy atom, donor atom, acceptor molecule, acceptor atom, score
      L1  H     6    29       P1  7948  0.95
      L1  H     9    30       P1  7948  0.99
      P1  H  7989  7998       L1    14  0.02

> <Gold.Chemscore.Hbond.Weighted>
-6.5054

> <Gold.Chemscore.Metal.Weighted>
-0.0000

> <Gold.Chemscore.Lipo.Weighted>
-10.4475

> <Gold.Chemscore.Internal_Hbond.Weighted>
0.0000

> <Gold.Chemscore.DEClash.Weighted>
1.9554

> <Gold.Chemscore.DEInternal.Weighted>
0.5734

> <Gold.Chemscore.Rot.Weighted>
3.7212

> <Gold.Chemscore.Internal.Correction.Weighted>
   9.000000E+99

> <Gold.Protein.RotatedTorsions>
[ 6907 6896 6895 6894 ] final   -6.15 input  -60.11 | X-H torsion
[ 7974 7965 7964 7962 ] final  -33.73 input  175.53 | X-H torsion
[ 8008 7997 7996 7995 ] final  -53.55 input   59.86 | X-H torsion
[ 10167 10162 10161 10158 ] final -148.92 input  -65.29 | X-H torsion
[ 10718 10713 10712 10709 ] final   -2.87 input   66.30 | X-H torsion
[ 10763 10752 10751 10750 ] final -112.32 input  -60.55 | X-H torsion
[ 11005 11000 10999 10996 ] final -173.91 input  -57.11 | X-H torsion

> <Gold.Protein.ActiveResidues>
 VAL166  LYS551  ARG553  GLY616  TRP617  ASP618  TYR619  PRO620  LYS621  CYS622 
 ASP623  PHE694  ASN695  SER759  ASP760  ASP761  ALA762  ILE779  LEU786  VAL792 
 PHE793  MET794  SER795  GLU796  ALA797  LYS798  CYS799  TRP800  GLU811  SER814 

> <Gold.Protein.RotatedAtoms>
  151.4702  135.1045  159.9749 H   0  0  0  0  0  0  0  0  0  0  0  0  # atno 6907 bound_to 6896
  152.4819  133.8272  159.7095 H   0  0  0  0  0  0  0  0  0  0  0  0  # atno 6908 bound_to 6896
  150.8898  133.7198  159.2934 H   0  0  0  0  0  0  0  0  0  0  0  0  # atno 6909 bound_to 6896
  146.0887  140.5952  142.8874 H   0  0  0  0  0  0  0  0  0  0  0  0  # atno 7974 bound_to 7965
  154.4136  140.1197  156.5171 H   0  0  0  0  0  0  0  0  0  0  0  0  # atno 8008 bound_to 7997
  155.6740  140.3496  155.4810 H   0  0  0  0  0  0  0  0  0  0  0  0  # atno 8009 bound_to 7997
  155.9609  140.1122  157.0887 H   0  0  0  0  0  0  0  0  0  0  0  0  # atno 8010 bound_to 7997
  139.7488  143.8550  152.2581 H   0  0  0  0  0  0  0  0  0  0  0  0  # atno 10167 bound_to 10162
  156.7844  130.5341  149.5745 H   0  0  0  0  0  0  0  0  0  0  0  0  # atno 10718 bound_to 10713
  154.8344  135.4495  154.1175 H   0  0  0  0  0  0  0  0  0  0  0  0  # atno 10763 bound_to 10752
  153.2420  135.6917  153.7778 H   0  0  0  0  0  0  0  0  0  0  0  0  # atno 10764 bound_to 10752
  153.7122  135.3355  155.3225 H   0  0  0  0  0  0  0  0  0  0  0  0  # atno 10765 bound_to 10752
  140.4804  134.6081  157.4917 H   0  0  0  0  0  0  0  0  0  0  0  0  # atno 11005 bound_to 11000
  144.7344  140.4766  143.6914 LP  0  0  0  0  0  0  0  0  0  0  0  0  # atno 17320 bound_to 7965
  145.6081  139.1510  143.3091 LP  0  0  0  0  0  0  0  0  0  0  0  0  # atno 17321 bound_to 7965
  139.8522  144.7159  150.9200 LP  0  0  0  0  0  0  0  0  0  0  0  0  # atno 17342 bound_to 10162
  140.7795  143.3889  151.1344 LP  0  0  0  0  0  0  0  0  0  0  0  0  # atno 17343 bound_to 10162
  156.1198  130.6101  151.0176 LP  0  0  0  0  0  0  0  0  0  0  0  0  # atno 17370 bound_to 10713
  157.6631  131.0877  150.7792 LP  0  0  0  0  0  0  0  0  0  0  0  0  # atno 17371 bound_to 10713
  139.9830  134.7107  155.9825 LP  0  0  0  0  0  0  0  0  0  0  0  0  # atno 17394 bound_to 11000
  141.1534  133.6545  156.4084 LP  0  0  0  0  0  0  0  0  0  0  0  0  # atno 17395 bound_to 11000

$$$$
