AV-unprocessed.smi:566|AV-procd|sdf|2955|dock3
  -GOLD-   2262023453D 1   1.00000     0.00000
 Structure written by MMmdl.
 39 40  0  0  0  0  0  0  0  0  1 V2000
  147.2352  140.8241  153.2378 C   0  0  0  0  0  0  0  0  0  0  0  0
  147.9684  141.0979  154.5454 C   0  0  0  0  0  0  0  0  0  0  0  0
  149.3855  140.8233  154.5976 C   0  0  0  0  0  0  0  0  0  0  0  0
  150.1039  141.0846  155.7012 C   0  0  0  0  0  0  0  0  0  0  0  0
  151.6017  140.8008  155.7393 C   0  0  0  0  0  0  0  0  0  0  0  0
  149.4784  141.6239  156.8590 N   0  0  0  0  0  0  0  0  0  0  0  0
  150.2955  141.9130  158.0607 C   0  0  0  0  0  0  0  0  0  0  0  0
  151.2623  143.0936  157.8470 C   0  0  0  0  0  0  0  0  0  0  0  0
  151.4913  143.7606  159.0806 O   0  0  0  0  0  0  0  0  0  0  0  0
  152.3214  143.1635  160.0042 C   0  0  0  0  0  0  0  0  0  0  0  0
  152.2684  143.6587  161.3235 C   0  0  0  0  0  0  0  0  0  0  0  0
  153.0805  143.1081  162.3335 C   0  0  0  0  0  0  0  0  0  0  0  0
  153.9606  142.0528  162.0308 C   0  0  0  0  0  0  0  0  0  0  0  0
  154.0261  141.5503  160.7179 C   0  0  0  0  0  0  0  0  0  0  0  0
  154.8738  140.5359  160.4244 F   0  0  0  0  0  0  0  0  0  0  0  0
  153.2118  142.1001  159.7082 C   0  0  0  0  0  0  0  0  0  0  0  0
  148.1312  141.8803  156.9061 C   0  0  0  0  0  0  0  0  0  0  0  0
  147.6106  142.2870  157.9498 O   0  0  0  0  0  0  0  0  0  0  0  0
  147.3725  141.6192  155.6516 C   0  0  0  0  0  0  0  0  0  0  0  0
  145.9296  141.9299  155.6749 C   0  0  0  0  0  0  0  0  0  0  0  0
  145.3673  141.9341  156.8915 N   0  0  0  0  0  0  0  0  0  0  0  0
  145.2637  142.2492  154.6913 O   0  0  0  0  0  0  0  0  0  0  0  0
  147.9346  140.5829  152.4367 H   0  0  0  0  0  0  0  0  0  0  0  0
  146.6628  141.6957  152.9188 H   0  0  0  0  0  0  0  0  0  0  0  0
  146.5557  139.9787  153.3488 H   0  0  0  0  0  0  0  0  0  0  0  0
  149.8769  140.4093  153.7289 H   0  0  0  0  0  0  0  0  0  0  0  0
  151.8986  140.1885  154.8875 H   0  0  0  0  0  0  0  0  0  0  0  0
  151.9016  140.2567  156.6332 H   0  0  0  0  0  0  0  0  0  0  0  0
  152.1671  141.7314  155.6839 H   0  0  0  0  0  0  0  0  0  0  0  0
  149.6606  142.1153  158.9216 H   0  0  0  0  0  0  0  0  0  0  0  0
  150.8610  141.0372  158.3834 H   0  0  0  0  0  0  0  0  0  0  0  0
  152.2056  142.7475  157.4235 H   0  0  0  0  0  0  0  0  0  0  0  0
  150.8137  143.7918  157.1390 H   0  0  0  0  0  0  0  0  0  0  0  0
  151.5952  144.4688  161.5636 H   0  0  0  0  0  0  0  0  0  0  0  0
  153.0279  143.4956  163.3401 H   0  0  0  0  0  0  0  0  0  0  0  0
  154.5849  141.6300  162.8041 H   0  0  0  0  0  0  0  0  0  0  0  0
  153.2908  141.6896  158.7134 H   0  0  0  0  0  0  0  0  0  0  0  0
  144.3869  142.1528  156.9939 H   0  0  0  0  0  0  0  0  0  0  0  0
  145.9313  141.7330  157.7047 H   0  0  0  0  0  0  0  0  0  0  0  0
  1  2  1  0  0  0  0
  1 23  1  0  0  0  0
  1 24  1  0  0  0  0
  1 25  1  0  0  0  0
  2 19  2  0  0  0  0
  2  3  1  0  0  0  0
  3  4  2  0  0  0  0
  3 26  1  0  0  0  0
  4  5  1  0  0  0  0
  4  6  1  0  0  0  0
  5 27  1  0  0  0  0
  5 28  1  0  0  0  0
  5 29  1  0  0  0  0
  6  7  1  0  0  0  0
  6 17  1  0  0  0  0
  7  8  1  0  0  0  0
  7 30  1  0  0  0  0
  7 31  1  0  0  0  0
  8  9  1  0  0  0  0
  8 32  1  0  0  0  0
  8 33  1  0  0  0  0
  9 10  1  0  0  0  0
 10 16  1  0  0  0  0
 10 11  2  0  0  0  0
 11 12  1  0  0  0  0
 11 34  1  0  0  0  0
 12 13  2  0  0  0  0
 12 35  1  0  0  0  0
 13 14  1  0  0  0  0
 13 36  1  0  0  0  0
 14 15  1  0  0  0  0
 14 16  2  0  0  0  0
 16 37  1  0  0  0  0
 17 18  2  0  0  0  0
 17 19  1  0  0  0  0
 19 20  1  0  0  0  0
 20 21  1  0  0  0  0
 20 22  2  0  0  0  0
 21 38  1  0  0  0  0
 21 39  1  0  0  0  0
M  END
> <s_m_source_file>
AV-unprocessed.smi

> <i_m_source_file_index>
566

> <i_lp_mmshare_version>
43012

> <i_f3d_flags>
0

> <s_epik_input>
W0NIM11jMVtjSF1jKFtDSDNdKW4oYyg9TyljMUMoPU8pW05IMl0pW0NIMl1bQ0gyXU9jMltjSF1bY0hdW2NIXWMoRilbY0hdMg==

> <s_epik_cmdline>
J2VwaWtfcHl0aG9uJywgJy1waCcsICc3LjAnLCAnLXRuJywgJzgnLCAnLW1hJywgJzIwMCcsICctbWV0YWxfYmluZGluZycsICctaW1hZScsICc8aW5maWxlLm1hZT4nLCAnLW9tYWUnLCAnPG91dGZpbGUubWFlPic=

> <r_lp_tautomer_probability>
1

> <r_epik_Ionization_Penalty>
1.93248e-07

> <r_epik_Ionization_Penalty_Charging>
2.77691e-08

> <r_epik_Ionization_Penalty_Neutral>
1.65479e-07

> <r_epik_State_Penalty>
-0

> <r_epik_Charging_Adjusted_Penalty>
2.77691e-08

> <i_epik_Tot_Q>
0

> <i_epik_Tot_abs_Q>
0

> <r_epik_Metal_State_Penalty>
-0

> <b_epik_Metal_Only>
0

> <s_lp_Force_Field>
OPLS_2005

> <r_lp_Energy>
41.2098

> <b_lp_Chiralities_Consistent>
1

> <s_lp_Variant>
AV-unprocessed.smi:566-1

> <Gold.Version>
5.8.1

> <Gold.Id.Protein>
6NUR|6NUR_protein|mol2

> <Gold.PLP.Fitness>
46.7331

> <Gold.PLP.PLP>
-48.0344

> <Gold.PLP.part.hbond>
0.0000

> <Gold.PLP.part.metal>
0.0000

> <Gold.PLP.part.buried>
-4.7447

> <Gold.PLP.part.nonpolar>
-43.7855

> <Gold.PLP.part.repulsive>
0.4236

> <Gold.PLP.ligand.clash>
0.0000

> <Gold.PLP.ligand.torsion>
0.8130

> <Gold.PLP.Chemscore.Hbond>
0.0000

> <Gold.PLP.Chemscore.CHOScore>
0.0000

> <Gold.PLP.Chemscore.Metal>
0.0000

> <Gold.PLP.Chemscore.Internal.Correction>
0.3246

> <Gold.Rescore>
     Score         DG    S(hbond)    S(metal)    S(lipo)     H(rot)  DE(clash)    DE(int)     intcor
     12.94     -15.24       0.00        0.00     120.37       1.69       0.11       2.19       ----

> <Gold.Chemscore.Fitness>
12.9410

> <Gold.Chemscore.DG>
-15.2429

> <Gold.Chemscore.ZeroCoef>
-5.4800

> <Gold.Chemscore.Hbond>
0.0000

> <Gold.Chemscore.Metal>
0.0000

> <Gold.Chemscore.Lipo>
120.3727

> <Gold.Chemscore.Internal_Hbond>
0.0000

> <Gold.Chemscore.DEClash>
0.1119

> <Gold.Chemscore.DEInternal>
2.1901

> <Gold.Chemscore.Rot>
1.6878

> <Gold.Chemscore.Internal.Correction>
   9.000000E+99

> <Gold.Chemscore.Hbond.Weighted>
-0.0000

> <Gold.Chemscore.Metal.Weighted>
-0.0000

> <Gold.Chemscore.Lipo.Weighted>
-14.0836

> <Gold.Chemscore.Internal_Hbond.Weighted>
0.0000

> <Gold.Chemscore.DEClash.Weighted>
0.1119

> <Gold.Chemscore.DEInternal.Weighted>
2.1901

> <Gold.Chemscore.Rot.Weighted>
4.3207

> <Gold.Chemscore.Internal.Correction.Weighted>
   9.000000E+99

> <Gold.Protein.RotatedTorsions>
[ 6907 6896 6895 6894 ] final   11.93 input  -60.11 | X-H torsion
[ 7974 7965 7964 7962 ] final -102.81 input  175.53 | X-H torsion
[ 8008 7997 7996 7995 ] final   26.70 input   59.86 | X-H torsion
[ 10167 10162 10161 10158 ] final  -43.37 input  -65.29 | X-H torsion
[ 10718 10713 10712 10709 ] final   10.68 input   66.30 | X-H torsion
[ 10763 10752 10751 10750 ] final   56.91 input  -60.55 | X-H torsion
[ 11005 11000 10999 10996 ] final  120.88 input  -57.11 | X-H torsion

> <Gold.Protein.ActiveResidues>
 VAL166  LYS551  ARG553  GLY616  TRP617  ASP618  TYR619  PRO620  LYS621  CYS622 
 ASP623  PHE694  ASN695  SER759  ASP760  ASP761  ALA762  ILE779  LEU786  VAL792 
 PHE793  MET794  SER795  GLU796  ALA797  LYS798  CYS799  TRP800  GLU811  SER814 

> <Gold.Protein.RotatedAtoms>
  151.7622  135.0807  160.0347 H   0  0  0  0  0  0  0  0  0  0  0  0  # atno 6907 bound_to 6896
  152.3345  133.5992  159.5841 H   0  0  0  0  0  0  0  0  0  0  0  0  # atno 6908 bound_to 6896
  150.7442  133.9733  159.3594 H   0  0  0  0  0  0  0  0  0  0  0  0  # atno 6909 bound_to 6896
  145.2640  140.9278  143.3024 H   0  0  0  0  0  0  0  0  0  0  0  0  # atno 7974 bound_to 7965
  155.0314  140.3159  155.4757 H   0  0  0  0  0  0  0  0  0  0  0  0  # atno 8008 bound_to 7997
  156.2873  140.2179  156.5378 H   0  0  0  0  0  0  0  0  0  0  0  0  # atno 8009 bound_to 7997
  154.7367  140.0477  157.0762 H   0  0  0  0  0  0  0  0  0  0  0  0  # atno 8010 bound_to 7997
  140.6936  143.2987  151.3342 H   0  0  0  0  0  0  0  0  0  0  0  0  # atno 10167 bound_to 10162
  156.9845  130.6018  149.5680 H   0  0  0  0  0  0  0  0  0  0  0  0  # atno 10718 bound_to 10713
  152.9840  135.5660  154.5306 H   0  0  0  0  0  0  0  0  0  0  0  0  # atno 10763 bound_to 10752
  154.4778  135.2787  155.1596 H   0  0  0  0  0  0  0  0  0  0  0  0  # atno 10764 bound_to 10752
  154.3117  135.6287  153.5522 H   0  0  0  0  0  0  0  0  0  0  0  0  # atno 10765 bound_to 10752
  139.9203  134.9636  156.7873 H   0  0  0  0  0  0  0  0  0  0  0  0  # atno 11005 bound_to 11000
  144.9393  139.4207  143.6456 LP  0  0  0  0  0  0  0  0  0  0  0  0  # atno 17320 bound_to 7965
  146.3267  139.8345  142.8902 LP  0  0  0  0  0  0  0  0  0  0  0  0  # atno 17321 bound_to 7965
  139.6366  144.0619  152.2520 LP  0  0  0  0  0  0  0  0  0  0  0  0  # atno 17342 bound_to 10162
  140.0111  144.6223  150.7646 LP  0  0  0  0  0  0  0  0  0  0  0  0  # atno 17343 bound_to 10162
  156.0231  130.5326  150.8332 LP  0  0  0  0  0  0  0  0  0  0  0  0  # atno 17370 bound_to 10713
  157.5503  131.0943  150.9705 LP  0  0  0  0  0  0  0  0  0  0  0  0  # atno 17371 bound_to 10713
  140.6495  133.9744  155.7748 LP  0  0  0  0  0  0  0  0  0  0  0  0  # atno 17394 bound_to 11000
  141.0717  134.0195  157.3516 LP  0  0  0  0  0  0  0  0  0  0  0  0  # atno 17395 bound_to 11000

$$$$
