AV-unprocessed.smi:79|AV-procd|sdf|784|dock10
  -GOLD-   2262017153D 1   1.00000     0.00000
 Structure written by MMmdl.
 56 59  0  0  0  0  0  0  0  0  2 V2000
  143.2779  137.0288  156.0999 C   0  0  0  0  0  0  0  0  0  0  0  0
  144.1487  137.7254  155.0465 C   0  0  1  0  0  0  0  0  0  0  0  0
  143.3725  137.8983  153.8779 O   0  0  0  0  0  0  0  0  0  0  0  0
  144.6528  139.1000  155.5290 C   0  0  0  0  0  0  0  0  0  0  0  0
  145.6594  139.6942  154.6123 N   0  3  1  0  0  0  0  0  0  0  0  0
  146.2247  140.9627  155.1395 C   0  0  0  0  0  0  0  0  0  0  0  0
  147.1773  141.6140  154.1221 C   0  0  0  0  0  0  0  0  0  0  0  0
  148.2031  140.6652  153.6946 N   0  0  0  0  0  0  0  0  0  0  0  0
  149.3598  140.6963  154.4072 C   0  0  0  0  0  0  0  0  0  0  0  0
  150.5185  140.2610  153.8443 N   0  0  0  0  0  0  0  0  0  0  0  0
  151.6593  140.2857  154.5395 C   0  0  0  0  0  0  0  0  0  0  0  0
  151.8642  140.7005  155.7906 N   0  0  0  0  0  0  0  0  0  0  0  0
  150.7070  141.1403  156.3620 C   0  0  0  0  0  0  0  0  0  0  0  0
  149.4231  141.1709  155.7478 C   0  0  0  0  0  0  0  0  0  0  0  0
  148.4886  141.6932  156.6336 N   0  0  0  0  0  0  0  0  0  0  0  0
  149.1789  141.9507  157.7110 C   0  0  0  0  0  0  0  0  0  0  0  0
  150.5188  141.6425  157.6383 N   0  0  0  0  0  0  0  0  0  0  0  0
  151.5155  141.8346  158.6812 C   0  0  0  0  0  0  0  0  0  0  0  0
  151.6384  143.2912  159.1657 C   0  0  0  0  0  0  0  0  0  0  0  0
  151.8726  144.1972  157.9403 C   0  0  0  0  0  0  0  0  0  0  0  0
  150.6726  144.5136  157.2631 O   0  0  0  0  0  0  0  0  0  0  0  0
  150.5458  143.7432  160.1449 C   0  0  0  0  0  0  0  0  0  0  0  0
  151.5183  144.2017  161.1097 O   0  0  0  0  0  0  0  0  0  0  0  0
  152.5623  143.5331  160.3680 C   0  0  0  0  0  0  0  0  0  0  0  0
  147.7059  139.3800  153.1921 C   0  0  2  0  0  0  0  0  0  0  0  0
  147.0712  139.5307  151.7988 C   0  0  0  0  0  0  0  0  0  0  0  0
  146.7254  138.7404  154.2012 C   0  0  0  0  0  0  0  0  0  0  0  0
  143.8396  136.8537  157.0178 H   0  0  0  0  0  0  0  0  0  0  0  0
  142.9258  136.0607  155.7417 H   0  0  0  0  0  0  0  0  0  0  0  0
  142.4032  137.6279  156.3552 H   0  0  0  0  0  0  0  0  0  0  0  0
  144.9845  137.0690  154.8074 H   0  0  0  0  0  0  0  0  0  0  0  0
  143.5265  138.7662  153.5364 H   0  0  0  0  0  0  0  0  0  0  0  0
  143.7954  139.7696  155.6170 H   0  0  0  0  0  0  0  0  0  0  0  0
  145.0802  139.0224  156.5299 H   0  0  0  0  0  0  0  0  0  0  0  0
  145.4199  141.6603  155.3737 H   0  0  0  0  0  0  0  0  0  0  0  0
  146.7543  140.7618  156.0723 H   0  0  0  0  0  0  0  0  0  0  0  0
  146.6191  141.9466  153.2469 H   0  0  0  0  0  0  0  0  0  0  0  0
  147.6133  142.5120  154.5587 H   0  0  0  0  0  0  0  0  0  0  0  0
  152.5328  139.9220  154.0186 H   0  0  0  0  0  0  0  0  0  0  0  0
  148.7252  142.3801  158.5923 H   0  0  0  0  0  0  0  0  0  0  0  0
  151.2778  141.1712  159.5138 H   0  0  0  0  0  0  0  0  0  0  0  0
  152.4701  141.4814  158.2897 H   0  0  0  0  0  0  0  0  0  0  0  0
  152.3344  145.1404  158.2305 H   0  0  0  0  0  0  0  0  0  0  0  0
  152.5457  143.7197  157.2277 H   0  0  0  0  0  0  0  0  0  0  0  0
  150.1320  143.7393  157.2308 H   0  0  0  0  0  0  0  0  0  0  0  0
  149.9098  144.5470  159.7726 H   0  0  0  0  0  0  0  0  0  0  0  0
  149.9399  142.9275  160.5419 H   0  0  0  0  0  0  0  0  0  0  0  0
  152.8877  142.6227  160.8721 H   0  0  0  0  0  0  0  0  0  0  0  0
  153.4113  144.1838  160.1562 H   0  0  0  0  0  0  0  0  0  0  0  0
  148.5488  138.6997  153.0617 H   0  0  0  0  0  0  0  0  0  0  0  0
  146.7723  138.5606  151.4009 H   0  0  0  0  0  0  0  0  0  0  0  0
  147.7787  139.9681  151.0939 H   0  0  0  0  0  0  0  0  0  0  0  0
  146.1844  140.1644  151.8165 H   0  0  0  0  0  0  0  0  0  0  0  0
  147.2675  138.4177  155.0910 H   0  0  0  0  0  0  0  0  0  0  0  0
  146.2950  137.8405  153.7639 H   0  0  0  0  0  0  0  0  0  0  0  0
  145.1574  139.9448  153.7722 H   0  0  0  0  0  0  0  0  0  0  0  0
  1  2  1  0  0  0  0
  1 28  1  0  0  0  0
  1 29  1  0  0  0  0
  1 30  1  0  0  0  0
  2  3  1  0  0  0  0
  2  4  1  0  0  0  0
  2 31  1  0  0  0  0
  3 32  1  0  0  0  0
  4  5  1  0  0  0  0
  4 33  1  0  0  0  0
  4 34  1  0  0  0  0
  5 27  1  0  0  0  0
  5  6  1  0  0  0  0
  5 56  1  0  0  0  0
  6  7  1  0  0  0  0
  6 35  1  0  0  0  0
  6 36  1  0  0  0  0
  7  8  1  0  0  0  0
  7 37  1  0  0  0  0
  7 38  1  0  0  0  0
  8  9  1  0  0  0  0
  8 25  1  0  0  0  0
  9 14  1  0  0  0  0
  9 10  2  0  0  0  0
 10 11  1  0  0  0  0
 11 12  2  0  0  0  0
 11 39  1  0  0  0  0
 12 13  1  0  0  0  0
 13 17  1  0  0  0  0
 13 14  2  0  0  0  0
 14 15  1  0  0  0  0
 15 16  2  0  0  0  0
 16 17  1  0  0  0  0
 16 40  1  0  0  0  0
 17 18  1  0  0  0  0
 18 19  1  0  0  0  0
 18 41  1  0  0  0  0
 18 42  1  0  0  0  0
 19 24  1  0  0  0  0
 19 20  1  0  0  0  0
 19 22  1  0  0  0  0
 20 21  1  0  0  0  0
 20 43  1  0  0  0  0
 20 44  1  0  0  0  0
 21 45  1  0  0  0  0
 22 23  1  0  0  0  0
 22 46  1  0  0  0  0
 22 47  1  0  0  0  0
 23 24  1  0  0  0  0
 24 48  1  0  0  0  0
 24 49  1  0  0  0  0
 25 26  1  0  0  0  0
 25 27  1  0  0  0  0
 25 50  1  0  0  0  0
 26 51  1  0  0  0  0
 26 52  1  0  0  0  0
 26 53  1  0  0  0  0
 27 54  1  0  0  0  0
 27 55  1  0  0  0  0
M  CHG  1   5   1
M  END
> <s_m_source_file>
AV-unprocessed.smi

> <i_m_source_file_index>
79

> <i_lp_mmshare_version>
43012

> <i_f3d_flags>
0

> <s_epik_input>
W0NIM11bQ0BIXShbT0hdKVtDSDJdTjFbQ0gyXVtDSDJdTihbQ0BASF0oW0NIM10pW0NIMl0xKWMobltjSF1uMiljKGMyMyluW2NIXW4zW0NIMl1DNChbQ0gyXVtPSF0pW0NIMl1PW0NIMl00

> <s_epik_cmdline>
J2VwaWtfcHl0aG9uJywgJy1waCcsICc3LjAnLCAnLXRuJywgJzgnLCAnLW1hJywgJzIwMCcsICctbWV0YWxfYmluZGluZycsICctaW1hZScsICc8aW5maWxlLm1hZT4nLCAnLW9tYWUnLCAnPG91dGZpbGUubWFlPic=

> <r_lp_tautomer_probability>
1

> <r_epik_Ionization_Penalty>
0.00515943

> <r_epik_Ionization_Penalty_Charging>
0.00509693

> <r_epik_Ionization_Penalty_Neutral>
6.25007e-05

> <r_epik_State_Penalty>
-0

> <r_epik_Charging_Adjusted_Penalty>
0.00509693

> <i_epik_Tot_Q>
1

> <i_epik_Tot_abs_Q>
1

> <r_epik_Metal_State_Penalty>
-0

> <b_epik_Metal_Only>
0

> <s_lp_Force_Field>
OPLS_2005

> <r_lp_Energy>
50.645

> <b_lp_Chiralities_Consistent>
1

> <s_lp_Variant>
AV-unprocessed.smi:79-8

> <Gold.Version>
5.8.1

> <Gold.Id.Protein>
6NUR|6NUR_protein|mol2

> <Gold.PLP.Fitness>
50.5499

> <Gold.PLP.PLP>
-43.2958

> <Gold.PLP.part.hbond>
-3.7010

> <Gold.PLP.part.metal>
0.0000

> <Gold.PLP.part.buried>
-3.5824

> <Gold.PLP.part.nonpolar>
-37.6135

> <Gold.PLP.part.repulsive>
1.6979

> <Gold.PLP.ligand.clash>
0.0009

> <Gold.PLP.ligand.torsion>
1.2516

> <Gold.PLP.Chemscore.Hbond>
3.0000

> <Gold.PLP.Chemscore.CHOScore>
0.0000

> <Gold.PLP.Chemscore.Metal>
0.0000

> <Gold.Chemscore.Hbonds>
donor molecule, donor type, donor heavy atom, donor atom, acceptor molecule, acceptor atom, score
      L1  H     3    32       P1 10175  1.00
      L1  H     5    56       P1 10175  1.98

> <Gold.PLP.Chemscore.Internal.Correction>
0.7582

> <Gold.Rescore>
     Score         DG    S(hbond)    S(metal)    S(lipo)     H(rot)  DE(clash)    DE(int)     intcor
      9.70     -13.64       2.02        0.00      86.27       3.39       1.39       2.55       ----

> <Gold.Chemscore.Fitness>
9.6958

> <Gold.Chemscore.DG>
-13.6378

> <Gold.Chemscore.ZeroCoef>
-5.4800

> <Gold.Chemscore.Hbond>
2.0161

> <Gold.Chemscore.Metal>
0.0000

> <Gold.Chemscore.Lipo>
86.2740

> <Gold.Chemscore.Internal_Hbond>
0.0000

> <Gold.Chemscore.DEClash>
1.3890

> <Gold.Chemscore.DEInternal>
2.5530

> <Gold.Chemscore.Rot>
3.3868

> <Gold.Chemscore.Internal.Correction>
   9.000000E+99

> <Gold.Chemscore.Hbonds>
donor molecule, donor type, donor heavy atom, donor atom, acceptor molecule, acceptor atom, score
      L1  H     3    32       P1 10175  0.97
      L1  H     5    56       P1 10175  0.92

> <Gold.Chemscore.Hbond.Weighted>
-6.7338

> <Gold.Chemscore.Metal.Weighted>
-0.0000

> <Gold.Chemscore.Lipo.Weighted>
-10.0941

> <Gold.Chemscore.Internal_Hbond.Weighted>
0.0000

> <Gold.Chemscore.DEClash.Weighted>
1.3890

> <Gold.Chemscore.DEInternal.Weighted>
2.5530

> <Gold.Chemscore.Rot.Weighted>
8.6701

> <Gold.Chemscore.Internal.Correction.Weighted>
   9.000000E+99

> <Gold.Protein.RotatedTorsions>
[ 6907 6896 6895 6894 ] final -136.61 input  -60.11 | X-H torsion
[ 7974 7965 7964 7962 ] final  -63.75 input  175.53 | X-H torsion
[ 8008 7997 7996 7995 ] final -171.67 input   59.86 | X-H torsion
[ 10167 10162 10161 10158 ] final   54.02 input  -65.29 | X-H torsion
[ 10718 10713 10712 10709 ] final  -43.67 input   66.30 | X-H torsion
[ 10763 10752 10751 10750 ] final   47.22 input  -60.55 | X-H torsion
[ 11005 11000 10999 10996 ] final -148.44 input  -57.11 | X-H torsion

> <Gold.Protein.ActiveResidues>
 VAL166  LYS551  ARG553  GLY616  TRP617  ASP618  TYR619  PRO620  LYS621  CYS622 
 ASP623  PHE694  ASN695  SER759  ASP760  ASP761  ALA762  ILE779  LEU786  VAL792 
 PHE793  MET794  SER795  GLU796  ALA797  LYS798  CYS799  TRP800  GLU811  SER814 

> <Gold.Protein.RotatedAtoms>
  151.0122  133.5954  159.2681 H   0  0  0  0  0  0  0  0  0  0  0  0  # atno 6907 bound_to 6896
  151.3102  135.0791  159.9279 H   0  0  0  0  0  0  0  0  0  0  0  0  # atno 6908 bound_to 6896
  152.5302  133.9788  159.7851 H   0  0  0  0  0  0  0  0  0  0  0  0  # atno 6909 bound_to 6896
  145.7752  140.8792  143.0359 H   0  0  0  0  0  0  0  0  0  0  0  0  # atno 7974 bound_to 7965
  155.9346  140.1097  157.1105 H   0  0  0  0  0  0  0  0  0  0  0  0  # atno 8008 bound_to 7997
  154.4077  140.1231  156.4913 H   0  0  0  0  0  0  0  0  0  0  0  0  # atno 8009 bound_to 7997
  155.7038  140.3471  155.4946 H   0  0  0  0  0  0  0  0  0  0  0  0  # atno 8010 bound_to 7997
  140.2346  144.3649  150.6402 H   0  0  0  0  0  0  0  0  0  0  0  0  # atno 10167 bound_to 10162
  156.2466  130.4184  149.8698 H   0  0  0  0  0  0  0  0  0  0  0  0  # atno 10718 bound_to 10713
  152.9802  135.5983  154.3727 H   0  0  0  0  0  0  0  0  0  0  0  0  # atno 10763 bound_to 10752
  154.3398  135.2768  155.2430 H   0  0  0  0  0  0  0  0  0  0  0  0  # atno 10764 bound_to 10752
  154.4516  135.5988  153.6251 H   0  0  0  0  0  0  0  0  0  0  0  0  # atno 10765 bound_to 10752
  140.7612  134.3296  157.5101 H   0  0  0  0  0  0  0  0  0  0  0  0  # atno 11005 bound_to 11000
  144.6806  139.9911  143.7484 LP  0  0  0  0  0  0  0  0  0  0  0  0  # atno 17320 bound_to 7965
  146.0130  139.3186  143.0859 LP  0  0  0  0  0  0  0  0  0  0  0  0  # atno 17321 bound_to 7965
  140.6159  143.2172  151.6792 LP  0  0  0  0  0  0  0  0  0  0  0  0  # atno 17342 bound_to 10162
  139.5098  144.3564  152.0603 LP  0  0  0  0  0  0  0  0  0  0  0  0  # atno 17343 bound_to 10162
  156.6261  130.8646  151.3486 LP  0  0  0  0  0  0  0  0  0  0  0  0  # atno 17370 bound_to 10713
  157.7197  130.9543  150.1392 LP  0  0  0  0  0  0  0  0  0  0  0  0  # atno 17371 bound_to 10713
  139.8770  134.9203  156.3247 LP  0  0  0  0  0  0  0  0  0  0  0  0  # atno 17394 bound_to 11000
  140.9661  133.7357  156.0469 LP  0  0  0  0  0  0  0  0  0  0  0  0  # atno 17395 bound_to 11000

$$$$
