#       Name:                AV-unprocessed.smi:2751
#       Creating user name   scv26
#       Creation time:       Fri Mar 27 15:05:28 2020


#       File generated by GOLD software.
#

@<TRIPOS>MOLECULE
AV-unprocessed.smi:2751
    41    42     1
SMALL
NO_CHARGES


@<TRIPOS>ATOM
      1 ****        -1.6900   1.2809   1.0274 O.2            1 S1                 0.0000
      2 ****        -2.2502   0.1804   1.0568 C.2            1 S1                 0.0000
      3 ****        -1.5482  -0.9627   1.0640 N.am           1 S1                 0.0000
      4 ****        -0.0932  -1.0625   1.0332 C.3            1 S1                 0.0000
      5 ****         0.4533  -0.9038  -0.3960 C.3            1 S1                 0.0000
      6 ****         1.9816  -1.0454  -0.4706 C.3            1 S1                 0.0000
      7 ****         2.4902  -1.0293  -1.9254 C.3            1 S1                 0.0000
      8 ****         4.0213  -1.0935  -1.9634 C.3            1 S1                 0.0000
      9 ****         4.6066   0.0144  -1.0816 C.3            1 S1                 0.0000
     10 ****         3.9924  -0.0431   0.3262 C.3            1 S1                 0.0000
     11 ****         2.5731   0.0408   0.2406 O.3            1 S1                 0.0000
     12 ****        -3.6101  -0.0971   1.0803 N.2            1 S1                 0.0000
     13 ****        -4.4736   0.8713   1.0403 C.2            1 S1                 0.0000
     14 ****        -4.3459   2.2563   0.9743 N.pl3          1 S1                 0.0000
     15 ****        -5.5997   2.8001   0.9568 C.2            1 S1                 0.0000
     16 ****        -6.4805   1.8055   1.0080 C.2            1 S1                 0.0000
     17 ****        -5.8213   0.6140   1.0599 O.3            1 S1                 0.0000
     18 ****        -2.0635  -1.8309   1.0885 H              1 S1                 0.0000
     19 ****         0.3475  -0.3205   1.7010 H              1 S1                 0.0000
     20 ****         0.1854  -2.0392   1.4298 H              1 S1                 0.0000
     21 ****        -0.0081  -1.6580  -1.0349 H              1 S1                 0.0000
     22 ****         0.1592   0.0642  -0.8038 H              1 S1                 0.0000
     23 ****         2.2712  -1.9853   0.0030 H              1 S1                 0.0000
     24 ****         2.0694  -1.8666  -2.4831 H              1 S1                 0.0000
     25 ****         2.1520  -0.1198  -2.4238 H              1 S1                 0.0000
     26 ****         4.3574  -2.0666  -1.6030 H              1 S1                 0.0000
     27 ****         4.3815  -0.9956  -2.9878 H              1 S1                 0.0000
     28 ****         5.6912  -0.0804  -1.0254 H              1 S1                 0.0000
     29 ****         4.3992   0.9869  -1.5297 H              1 S1                 0.0000
     30 ****         4.2827  -0.9600   0.8414 H              1 S1                 0.0000
     31 ****         4.3582   0.7888   0.9280 H              1 S1                 0.0000
     32 ****        -3.4983   2.8049   0.9451 H              1 S1                 0.0000
     33 ****        -5.7308   3.8710   0.9083 H              1 S1                 0.0000
     34 ****        -7.5602   1.7814   1.0157 H              1 S1                 0.0000
     35 ****        -2.2350   2.1193   1.0178 LP             1 S1                 0.0000
     36 ****        -0.6915   1.3334   1.0132 LP             1 S1                 0.0000
     37 ****         2.2000   0.0525   1.1683 LP             1 S1                 0.0000
     38 ****         2.3337   0.8924  -0.2257 LP             1 S1                 0.0000
     39 ****        -3.9252  -1.0450   1.1281 LP             1 S1                 0.0000
     40 ****        -6.0618   0.1299   1.9012 LP             1 S1                 0.0000
     41 ****        -6.0710   0.0538   0.2701 LP             1 S1                 0.0000
@<TRIPOS>BOND
    1    1    2 2     
    2    2   12 1     
    3    2    3 am    
    4    3    4 1     
    5    3   18 1     
    6    4    5 1     
    7    4   19 1     
    8    4   20 1     
    9    5    6 1     
   10    5   21 1     
   11    5   22 1     
   12    6   11 1     
   13    6    7 1     
   14    6   23 1     
   15    7    8 1     
   16    7   24 1     
   17    7   25 1     
   18    8    9 1     
   19    8   26 1     
   20    8   27 1     
   21    9   10 1     
   22    9   28 1     
   23    9   29 1     
   24   10   11 1     
   25   10   30 1     
   26   10   31 1     
   27   12   13 2     
   28   13   17 1     
   29   13   14 1     
   30   14   32 1     
   31   14   15 1     
   32   15   33 1     
   33   15   16 2     
   34   16   34 1     
   35   16   17 1     
   36    1   35 1     
   37    1   36 1     
   38   11   37 1     
   39   11   38 1     
   40   12   39 1     
   41   17   40 1     
   42   17   41 1     
@<TRIPOS>SUBSTRUCTURE
      1 S1             1
@<TRIPOS>SET
LONE_PAIRS      STATIC     ATOMS    <user>   **** ""
7 35 36 37 38 39 40 41
DONOR_HYDROGENS      STATIC     ATOMS    <user>   **** ""
2 18 32
ATOM$BLUE        STATIC     ATOMS    COLORGROUP SYSTEM
7 35 36 37 38 39 40 41
ATOM$RED        STATIC     ATOMS    COLORGROUP SYSTEM
2 18 32
