AV-unprocessed.smi:2881|AV-procd|sdf|11057|dock4
  -GOLD-   2272015523D 1   1.00000     0.00000
 Structure written by MMmdl.
 40 42  0  0  0  0  0  0  0  0  1 V2000
  143.6883  132.4753  151.0754 C   0  0  0  0  0  0  0  0  0  0  0  0
  143.8824  133.7900  151.7510 C   0  0  0  0  0  0  0  0  0  0  0  0
  144.2348  135.0150  151.2600 C   0  0  0  0  0  0  0  0  0  0  0  0
  144.2470  135.8652  152.4052 C   0  0  0  0  0  0  0  0  0  0  0  0
  144.5614  137.3362  152.4628 C   0  0  0  0  0  0  0  0  0  0  0  0
  145.5634  137.6172  153.5832 C   0  0  0  0  0  0  0  0  0  0  0  0
  146.0984  136.6842  154.1819 O   0  0  0  0  0  0  0  0  0  0  0  0
  145.8064  138.9079  153.8567 N   0  0  0  0  0  0  0  0  0  0  0  0
  146.7533  139.3893  154.8588 C   0  0  2  0  0  0  0  0  0  0  0  0
  146.1926  140.5232  155.7545 C   0  0  2  0  0  0  0  0  0  0  0  0
  145.5908  141.6667  154.9099 C   0  0  0  0  0  0  0  0  0  0  0  0
  146.8379  142.3036  154.2692 C   0  0  0  0  0  0  0  0  0  0  0  0
  147.9893  141.4596  154.8505 C   0  0  1  0  0  0  0  0  0  0  0  0
  147.4747  141.1745  156.2570 C   0  0  0  0  0  0  0  0  0  0  0  0
  147.9840  140.0598  154.1929 C   0  0  1  0  0  0  0  0  0  0  0  0
  149.2978  139.2865  154.4165 C   0  0  0  0  0  0  0  0  0  0  0  0
  150.3443  139.8827  153.6790 O   0  0  0  0  0  0  0  0  0  0  0  0
  143.9350  135.2156  153.5187 N   0  0  0  0  0  0  0  0  0  0  0  0
  143.7137  133.9535  153.1066 N   0  0  0  0  0  0  0  0  0  0  0  0
  143.4513  133.2232  153.7532 H   0  0  0  0  0  0  0  0  0  0  0  0
  143.6714  132.5931  149.9917 H   0  0  0  0  0  0  0  0  0  0  0  0
  142.7465  132.0177  151.3784 H   0  0  0  0  0  0  0  0  0  0  0  0
  144.4964  131.7884  151.3271 H   0  0  0  0  0  0  0  0  0  0  0  0
  144.4480  135.2710  150.2325 H   0  0  0  0  0  0  0  0  0  0  0  0
  144.9707  137.6893  151.5150 H   0  0  0  0  0  0  0  0  0  0  0  0
  143.6506  137.9096  152.6394 H   0  0  0  0  0  0  0  0  0  0  0  0
  145.3251  139.6073  153.3099 H   0  0  0  0  0  0  0  0  0  0  0  0
  147.0705  138.5535  155.4858 H   0  0  0  0  0  0  0  0  0  0  0  0
  145.5258  140.1671  156.5406 H   0  0  0  0  0  0  0  0  0  0  0  0
  144.8647  141.3274  154.1711 H   0  0  0  0  0  0  0  0  0  0  0  0
  145.0855  142.3888  155.5524 H   0  0  0  0  0  0  0  0  0  0  0  0
  146.8079  142.2741  153.1795 H   0  0  0  0  0  0  0  0  0  0  0  0
  146.9304  143.3478  154.5709 H   0  0  0  0  0  0  0  0  0  0  0  0
  148.9549  141.9645  154.8072 H   0  0  0  0  0  0  0  0  0  0  0  0
  147.3010  142.0769  156.8459 H   0  0  0  0  0  0  0  0  0  0  0  0
  148.1100  140.4962  156.8281 H   0  0  0  0  0  0  0  0  0  0  0  0
  147.8406  140.1746  153.1165 H   0  0  0  0  0  0  0  0  0  0  0  0
  149.5713  139.3022  155.4719 H   0  0  0  0  0  0  0  0  0  0  0  0
  149.2020  138.2407  154.1242 H   0  0  0  0  0  0  0  0  0  0  0  0
  150.1720  139.7594  152.7580 H   0  0  0  0  0  0  0  0  0  0  0  0
  1  2  1  0  0  0  0
  1 21  1  0  0  0  0
  1 22  1  0  0  0  0
  1 23  1  0  0  0  0
  2 19  1  0  0  0  0
  2  3  2  0  0  0  0
  3  4  1  0  0  0  0
  3 24  1  0  0  0  0
  4  5  1  0  0  0  0
  4 18  2  0  0  0  0
  5  6  1  0  0  0  0
  5 25  1  0  0  0  0
  5 26  1  0  0  0  0
  6  7  2  0  0  0  0
  6  8  1  0  0  0  0
  8  9  1  0  0  0  0
  8 27  1  0  0  0  0
  9 15  1  0  0  0  0
  9 10  1  0  0  0  0
  9 28  1  0  0  0  0
 10 14  1  0  0  0  0
 10 11  1  0  0  0  0
 10 29  1  0  0  0  0
 11 12  1  0  0  0  0
 11 30  1  0  0  0  0
 11 31  1  0  0  0  0
 12 13  1  0  0  0  0
 12 32  1  0  0  0  0
 12 33  1  0  0  0  0
 13 14  1  0  0  0  0
 13 15  1  0  0  0  0
 13 34  1  0  0  0  0
 14 35  1  0  0  0  0
 14 36  1  0  0  0  0
 15 16  1  0  0  0  0
 15 37  1  0  0  0  0
 16 17  1  0  0  0  0
 16 38  1  0  0  0  0
 16 39  1  0  0  0  0
 17 40  1  0  0  0  0
 18 19  1  0  0  0  0
 19 20  1  0  0  0  0
M  END
> <s_m_source_file>
AV-unprocessed.smi

> <i_m_source_file_index>
2881

> <i_lp_mmshare_version>
43012

> <i_f3d_flags>
0

> <s_epik_input>
W0NIM11jMVtjSF1jKG5bbkhdMSlbQ0gyXUMoPU8pW05IXVtDQEhdKFtDQEBIXTIzKVtDQEhdKFtDSDJdW09IXSlbQ0BASF0oW0NIMl0zKVtDSDJdW0NIMl0y

> <s_epik_cmdline>
J2VwaWtfcHl0aG9uJywgJy1waCcsICc3LjAnLCAnLXRuJywgJzgnLCAnLW1hJywgJzIwMCcsICctbWV0YWxfYmluZGluZycsICctaW1hZScsICc8aW5maWxlLm1hZT4nLCAnLW9tYWUnLCAnPG91dGZpbGUubWFlPic=

> <r_lp_tautomer_probability>
0.5

> <r_epik_Ionization_Penalty>
9.4349e-05

> <r_epik_Ionization_Penalty_Charging>
0

> <r_epik_Ionization_Penalty_Neutral>
9.4349e-05

> <r_epik_State_Penalty>
0.41068

> <r_epik_Charging_Adjusted_Penalty>
0.41068

> <i_epik_Tot_Q>
0

> <i_epik_Tot_abs_Q>
0

> <r_epik_Metal_State_Penalty>
0.4107

> <b_epik_Metal_Only>
0

> <s_lp_Force_Field>
OPLS_2005

> <r_lp_Energy>
47.2373

> <b_lp_Chiralities_Consistent>
1

> <s_lp_Variant>
AV-unprocessed.smi:2881-3

> <Gold.Version>
5.8.1

> <Gold.Id.Protein>
6NUR|6NUR_protein|mol2

> <Gold.PLP.Fitness>
36.4402

> <Gold.PLP.PLP>
-26.0001

> <Gold.PLP.part.hbond>
-4.0000

> <Gold.PLP.part.metal>
0.0000

> <Gold.PLP.part.buried>
-0.8899

> <Gold.PLP.part.nonpolar>
-21.4558

> <Gold.PLP.part.repulsive>
0.1318

> <Gold.PLP.ligand.clash>
0.0000

> <Gold.PLP.ligand.torsion>
0.3490

> <Gold.PLP.Chemscore.Hbond>
3.7040

> <Gold.PLP.Chemscore.CHOScore>
0.0000

> <Gold.PLP.Chemscore.Metal>
0.0000

> <Gold.Chemscore.Hbonds>
donor molecule, donor type, donor heavy atom, donor atom, acceptor molecule, acceptor atom, score
      L1  H     8    27       P1 10175  0.98
      L1  H    17    40       P1  7957  1.00
      L1  H    19    20       P1 10957  1.00
      P1  H  7989  7998       L1    17  0.66

> <Gold.PLP.Chemscore.Internal.Correction>
0.0260

> <Gold.Rescore>
     Score         DG    S(hbond)    S(metal)    S(lipo)     H(rot)  DE(clash)    DE(int)     intcor
     14.39     -16.25       2.98        0.00      56.78       2.28       0.04       1.82       ----

> <Gold.Chemscore.Fitness>
14.3872

> <Gold.Chemscore.DG>
-16.2450

> <Gold.Chemscore.ZeroCoef>
-5.4800

> <Gold.Chemscore.Hbond>
2.9781

> <Gold.Chemscore.Metal>
0.0000

> <Gold.Chemscore.Lipo>
56.7818

> <Gold.Chemscore.Internal_Hbond>
0.0000

> <Gold.Chemscore.DEClash>
0.0354

> <Gold.Chemscore.DEInternal>
1.8225

> <Gold.Chemscore.Rot>
2.2755

> <Gold.Chemscore.Internal.Correction>
   9.000000E+99

> <Gold.Chemscore.Hbonds>
donor molecule, donor type, donor heavy atom, donor atom, acceptor molecule, acceptor atom, score
      L1  H     8    27       P1 10175  0.90
      L1  H    17    40       P1  7957  0.98
      L1  H    19    20       P1 10957  0.98
      P1  H  7989  7998       L1    17  0.08

> <Gold.Chemscore.Hbond.Weighted>
-9.9467

> <Gold.Chemscore.Metal.Weighted>
-0.0000

> <Gold.Chemscore.Lipo.Weighted>
-6.6435

> <Gold.Chemscore.Internal_Hbond.Weighted>
0.0000

> <Gold.Chemscore.DEClash.Weighted>
0.0354

> <Gold.Chemscore.DEInternal.Weighted>
1.8225

> <Gold.Chemscore.Rot.Weighted>
5.8252

> <Gold.Chemscore.Internal.Correction.Weighted>
   9.000000E+99

> <Gold.Protein.RotatedTorsions>
[ 6907 6896 6895 6894 ] final  130.22 input  -60.11 | X-H torsion
[ 7974 7965 7964 7962 ] final  -69.23 input  175.53 | X-H torsion
[ 8008 7997 7996 7995 ] final   28.67 input   59.86 | X-H torsion
[ 10167 10162 10161 10158 ] final  160.56 input  -65.29 | X-H torsion
[ 10718 10713 10712 10709 ] final -129.60 input   66.30 | X-H torsion
[ 10763 10752 10751 10750 ] final -132.87 input  -60.55 | X-H torsion
[ 11005 11000 10999 10996 ] final -110.10 input  -57.11 | X-H torsion

> <Gold.Protein.ActiveResidues>
 VAL166  LYS551  ARG553  GLY616  TRP617  ASP618  TYR619  PRO620  LYS621  CYS622 
 ASP623  PHE694  ASN695  SER759  ASP760  ASP761  ALA762  ILE779  LEU786  VAL792 
 PHE793  MET794  SER795  GLU796  ALA797  LYS798  CYS799  TRP800  GLU811  SER814 

> <Gold.Protein.RotatedAtoms>
  152.3547  133.6223  159.5970 H   0  0  0  0  0  0  0  0  0  0  0  0  # atno 6907 bound_to 6896
  150.7561  133.9518  159.3497 H   0  0  0  0  0  0  0  0  0  0  0  0  # atno 6908 bound_to 6896
  151.7365  135.0864  160.0360 H   0  0  0  0  0  0  0  0  0  0  0  0  # atno 6909 bound_to 6896
  145.7064  140.9096  143.0704 H   0  0  0  0  0  0  0  0  0  0  0  0  # atno 7974 bound_to 7965
  155.0624  140.3191  155.4656 H   0  0  0  0  0  0  0  0  0  0  0  0  # atno 8008 bound_to 7997
  156.2810  140.2126  156.5695 H   0  0  0  0  0  0  0  0  0  0  0  0  # atno 8009 bound_to 7997
  154.7121  140.0497  157.0548 H   0  0  0  0  0  0  0  0  0  0  0  0  # atno 8010 bound_to 7997
  139.4841  144.4622  151.8690 H   0  0  0  0  0  0  0  0  0  0  0  0  # atno 10167 bound_to 10162
  156.2062  130.6889  151.0597 H   0  0  0  0  0  0  0  0  0  0  0  0  # atno 10718 bound_to 10713
  154.8739  135.3784  154.4481 H   0  0  0  0  0  0  0  0  0  0  0  0  # atno 10763 bound_to 10752
  153.5159  135.7029  153.5761 H   0  0  0  0  0  0  0  0  0  0  0  0  # atno 10764 bound_to 10752
  153.4030  135.3943  155.1966 H   0  0  0  0  0  0  0  0  0  0  0  0  # atno 10765 bound_to 10752
  141.0811  133.9218  157.2287 H   0  0  0  0  0  0  0  0  0  0  0  0  # atno 11005 bound_to 11000
  144.6954  139.9016  143.7459 LP  0  0  0  0  0  0  0  0  0  0  0  0  # atno 17320 bound_to 7965
  146.0752  139.3740  143.0498 LP  0  0  0  0  0  0  0  0  0  0  0  0  # atno 17321 bound_to 7965
  140.4085  144.2400  150.5890 LP  0  0  0  0  0  0  0  0  0  0  0  0  # atno 17342 bound_to 10162
  140.4989  143.2324  151.8708 LP  0  0  0  0  0  0  0  0  0  0  0  0  # atno 17343 bound_to 10162
  157.7013  131.0774  150.6809 LP  0  0  0  0  0  0  0  0  0  0  0  0  # atno 17370 bound_to 10713
  156.6868  130.4583  149.5611 LP  0  0  0  0  0  0  0  0  0  0  0  0  # atno 17371 bound_to 10713
  139.9625  135.0150  156.9299 LP  0  0  0  0  0  0  0  0  0  0  0  0  # atno 17394 bound_to 11000
  140.5466  134.0667  155.7357 LP  0  0  0  0  0  0  0  0  0  0  0  0  # atno 17395 bound_to 11000

$$$$
