AV-unprocessed.smi:2083|AV-procd|sdf|8508|dock10
  -GOLD-   2272011223D 1   1.00000     0.00000
 Structure written by MMmdl.
 44 45  0  0  0  0  0  0  0  0  3 V2000
  150.5107  142.4194  157.5485 C   0  0  0  0  0  0  0  0  0  0  0  0
  150.1219  141.6736  156.3184 C   0  0  0  0  0  0  0  0  0  0  0  0
  148.9314  141.5068  155.6689 C   0  0  0  0  0  0  0  0  0  0  0  0
  149.2793  140.6803  154.5674 C   0  0  0  0  0  0  0  0  0  0  0  0
  148.2948  140.2741  153.6279 N   0  0  0  0  0  0  0  0  0  0  0  0
  147.0348  140.7234  153.4806 C   0  0  0  0  0  0  0  0  0  0  0  0
  146.6072  141.6306  154.2045 O   0  0  0  0  0  0  0  0  0  0  0  0
  146.3676  140.0703  152.4898 N   0  5  0  0  0  0  0  0  0  0  0  0
  146.6230  138.6878  152.0856 C   0  0  0  0  0  0  0  0  0  0  0  0
  146.0644  137.7015  153.1450 C   0  0  2  0  0  0  0  0  0  0  0  0
  146.7037  137.8439  154.5496 C   0  0  0  0  0  0  0  0  0  0  0  0
  146.1047  136.2982  152.6267 N   0  3  2  0  0  0  0  0  0  0  0  0
  145.2017  136.0727  151.4667 C   0  0  0  0  0  0  0  0  0  0  0  0
  145.4961  134.7205  150.7971 C   0  0  0  0  0  0  0  0  0  0  0  0
  145.4047  133.5671  151.8069 C   0  0  0  0  0  0  0  0  0  0  0  0
  146.2866  133.8313  153.0420 C   0  0  1  0  0  0  0  0  0  0  0  0
  147.7884  133.6583  152.7547 C   0  0  0  0  0  0  0  0  0  0  0  0
  145.9656  135.2137  153.6447 C   0  0  0  0  0  0  0  0  0  0  0  0
  150.5676  140.3716  154.5473 N   0  0  0  0  0  0  0  0  0  0  0  0
  151.1137  141.0061  155.6692 O   0  0  0  0  0  0  0  0  0  0  0  0
  149.6324  142.8199  158.0551 H   0  0  0  0  0  0  0  0  0  0  0  0
  151.1686  143.2528  157.3025 H   0  0  0  0  0  0  0  0  0  0  0  0
  151.0354  141.7671  158.2465 H   0  0  0  0  0  0  0  0  0  0  0  0
  147.9678  141.9122  155.9389 H   0  0  0  0  0  0  0  0  0  0  0  0
  148.5744  139.5404  152.9942 H   0  0  0  0  0  0  0  0  0  0  0  0
  146.1540  138.4566  151.1276 H   0  0  0  0  0  0  0  0  0  0  0  0
  147.6870  138.4974  151.9419 H   0  0  0  0  0  0  0  0  0  0  0  0
  145.0105  137.9622  153.2567 H   0  0  0  0  0  0  0  0  0  0  0  0
  146.5300  138.8334  154.9761 H   0  0  0  0  0  0  0  0  0  0  0  0
  147.7829  137.6808  154.5422 H   0  0  0  0  0  0  0  0  0  0  0  0
  146.2694  137.1275  155.2470 H   0  0  0  0  0  0  0  0  0  0  0  0
  144.1627  136.1165  151.7966 H   0  0  0  0  0  0  0  0  0  0  0  0
  145.3341  136.8622  150.7263 H   0  0  0  0  0  0  0  0  0  0  0  0
  144.7960  134.5525  149.9782 H   0  0  0  0  0  0  0  0  0  0  0  0
  146.4894  134.7431  150.3475 H   0  0  0  0  0  0  0  0  0  0  0  0
  144.3672  133.4555  152.1246 H   0  0  0  0  0  0  0  0  0  0  0  0
  145.6810  132.6248  151.3323 H   0  0  0  0  0  0  0  0  0  0  0  0
  146.0291  133.0804  153.7902 H   0  0  0  0  0  0  0  0  0  0  0  0
  148.1521  134.3851  152.0282 H   0  0  0  0  0  0  0  0  0  0  0  0
  147.9999  132.6631  152.3629 H   0  0  0  0  0  0  0  0  0  0  0  0
  148.3763  133.7832  153.6644 H   0  0  0  0  0  0  0  0  0  0  0  0
  146.6189  135.3958  154.4988 H   0  0  0  0  0  0  0  0  0  0  0  0
  144.9452  135.2062  154.0307 H   0  0  0  0  0  0  0  0  0  0  0  0
  147.0379  136.2036  152.2513 H   0  0  0  0  0  0  0  0  0  0  0  0
  1  2  1  0  0  0  0
  1 21  1  0  0  0  0
  1 22  1  0  0  0  0
  1 23  1  0  0  0  0
  2 20  1  0  0  0  0
  2  3  2  0  0  0  0
  3  4  1  0  0  0  0
  3 24  1  0  0  0  0
  4  5  1  0  0  0  0
  4 19  2  0  0  0  0
  5  6  1  0  0  0  0
  5 25  1  0  0  0  0
  6  7  2  0  0  0  0
  6  8  1  0  0  0  0
  8  9  1  0  0  0  0
  9 10  1  0  0  0  0
  9 26  1  0  0  0  0
  9 27  1  0  0  0  0
 10 11  1  0  0  0  0
 10 12  1  0  0  0  0
 10 28  1  0  0  0  0
 11 29  1  0  0  0  0
 11 30  1  0  0  0  0
 11 31  1  0  0  0  0
 12 18  1  0  0  0  0
 12 13  1  0  0  0  0
 12 44  1  0  0  0  0
 13 14  1  0  0  0  0
 13 32  1  0  0  0  0
 13 33  1  0  0  0  0
 14 15  1  0  0  0  0
 14 34  1  0  0  0  0
 14 35  1  0  0  0  0
 15 16  1  0  0  0  0
 15 36  1  0  0  0  0
 15 37  1  0  0  0  0
 16 17  1  0  0  0  0
 16 18  1  0  0  0  0
 16 38  1  0  0  0  0
 17 39  1  0  0  0  0
 17 40  1  0  0  0  0
 17 41  1  0  0  0  0
 18 42  1  0  0  0  0
 18 43  1  0  0  0  0
 19 20  1  0  0  0  0
M  CHG  1   8  -1
M  CHG  1  12   1
M  END
> <s_m_source_file>
AV-unprocessed.smi

> <i_m_source_file_index>
2083

> <i_lp_mmshare_version>
43012

> <i_f3d_flags>
0

> <s_epik_input>
W0NIM11jMVtjSF1jKG5vMSlbTkhdQyg9TylbTkhdW0NIMl1bQ0BIXShbQ0gzXSlOMltDSDJdW0NIMl1bQ0gyXVtDQEBIXShbQ0gzXSlbQ0gyXTI=

> <s_epik_cmdline>
J2VwaWtfcHl0aG9uJywgJy1waCcsICc3LjAnLCAnLXRuJywgJzgnLCAnLW1hJywgJzIwMCcsICctbWV0YWxfYmluZGluZycsICctaW1hZScsICc8aW5maWxlLm1hZT4nLCAnLW9tYWUnLCAnPG91dGZpbGUubWFlPic=

> <r_epik_Ionization_Penalty>
6.76934

> <r_epik_Ionization_Penalty_Charging>
6.76934

> <r_epik_Ionization_Penalty_Neutral>
5.77849e-06

> <r_epik_State_Penalty>
6.79457

> <r_epik_Charging_Adjusted_Penalty>
13.5639

> <i_epik_Tot_Q>
0

> <i_epik_Tot_abs_Q>
2

> <r_epik_Metal_State_Penalty>
2.72837

> <b_epik_Metal_Only>
1

> <s_lp_Force_Field>
OPLS_2005

> <r_lp_Energy>
20.5905

> <b_lp_Chiralities_Consistent>
1

> <s_lp_Variant>
AV-unprocessed.smi:2083-19

> <Gold.Version>
5.8.1

> <Gold.Id.Protein>
6NUR|6NUR_protein|mol2

> <Gold.PLP.Fitness>
40.6296

> <Gold.PLP.PLP>
-32.0940

> <Gold.PLP.part.hbond>
-3.9939

> <Gold.PLP.part.metal>
0.0000

> <Gold.PLP.part.buried>
-1.1015

> <Gold.PLP.part.nonpolar>
-27.8858

> <Gold.PLP.part.repulsive>
1.5638

> <Gold.PLP.ligand.clash>
0.0053

> <Gold.PLP.ligand.torsion>
0.5961

> <Gold.PLP.Chemscore.Hbond>
3.1879

> <Gold.PLP.Chemscore.CHOScore>
0.0000

> <Gold.PLP.Chemscore.Metal>
0.0000

> <Gold.Chemscore.Hbonds>
donor molecule, donor type, donor heavy atom, donor atom, acceptor molecule, acceptor atom, score
      L1  H     5    25       P1  7957  0.27
      L1  H    12    44       P1  7948  2.00
      P1  H  7989  7998       L1    19  0.85

> <Gold.PLP.Chemscore.Internal.Correction>
0.1694

> <Gold.Rescore>
     Score         DG    S(hbond)    S(metal)    S(lipo)     H(rot)  DE(clash)    DE(int)     intcor
     12.36     -15.35       2.07        0.00      58.44       1.52       0.88       2.11       ----

> <Gold.Chemscore.Fitness>
12.3625

> <Gold.Chemscore.DG>
-15.3522

> <Gold.Chemscore.ZeroCoef>
-5.4800

> <Gold.Chemscore.Hbond>
2.0730

> <Gold.Chemscore.Metal>
0.0000

> <Gold.Chemscore.Lipo>
58.4359

> <Gold.Chemscore.Internal_Hbond>
0.0000

> <Gold.Chemscore.DEClash>
0.8835

> <Gold.Chemscore.DEInternal>
2.1062

> <Gold.Chemscore.Rot>
1.5190

> <Gold.Chemscore.Internal.Correction>
   9.000000E+99

> <Gold.Chemscore.Hbonds>
donor molecule, donor type, donor heavy atom, donor atom, acceptor molecule, acceptor atom, score
      L1  H     5    25       P1  7957  0.27
      L1  H    12    44       P1  7948  0.99
      P1  H  7989  7998       L1    19  0.14

> <Gold.Chemscore.Hbond.Weighted>
-6.9239

> <Gold.Chemscore.Metal.Weighted>
-0.0000

> <Gold.Chemscore.Lipo.Weighted>
-6.8370

> <Gold.Chemscore.Internal_Hbond.Weighted>
0.0000

> <Gold.Chemscore.DEClash.Weighted>
0.8835

> <Gold.Chemscore.DEInternal.Weighted>
2.1062

> <Gold.Chemscore.Rot.Weighted>
3.8886

> <Gold.Chemscore.Internal.Correction.Weighted>
   9.000000E+99

> <Gold.Protein.RotatedTorsions>
[ 6907 6896 6895 6894 ] final   89.62 input  -60.11 | X-H torsion
[ 7974 7965 7964 7962 ] final  116.07 input  175.53 | X-H torsion
[ 8008 7997 7996 7995 ] final -147.21 input   59.86 | X-H torsion
[ 10167 10162 10161 10158 ] final  156.41 input  -65.29 | X-H torsion
[ 10718 10713 10712 10709 ] final  -53.96 input   66.30 | X-H torsion
[ 10763 10752 10751 10750 ] final  -18.82 input  -60.55 | X-H torsion
[ 11005 11000 10999 10996 ] final  179.95 input  -57.11 | X-H torsion

> <Gold.Protein.ActiveResidues>
 VAL166  LYS551  ARG553  GLY616  TRP617  ASP618  TYR619  PRO620  LYS621  CYS622 
 ASP623  PHE694  ASN695  SER759  ASP760  ASP761  ALA762  ILE779  LEU786  VAL792 
 PHE793  MET794  SER795  GLU796  ALA797  LYS798  CYS799  TRP800  GLU811  SER814 

> <Gold.Protein.RotatedAtoms>
  152.5438  134.1939  159.8684 H   0  0  0  0  0  0  0  0  0  0  0  0  # atno 6907 bound_to 6896
  151.1932  133.4648  159.2602 H   0  0  0  0  0  0  0  0  0  0  0  0  # atno 6908 bound_to 6896
  151.1062  135.0013  159.8528 H   0  0  0  0  0  0  0  0  0  0  0  0  # atno 6909 bound_to 6896
  145.1841  139.3034  143.4402 H   0  0  0  0  0  0  0  0  0  0  0  0  # atno 7974 bound_to 7965
  155.5719  140.0635  157.2804 H   0  0  0  0  0  0  0  0  0  0  0  0  # atno 8008 bound_to 7997
  154.4358  140.1867  156.0934 H   0  0  0  0  0  0  0  0  0  0  0  0  # atno 8009 bound_to 7997
  156.0370  140.3300  155.7205 H   0  0  0  0  0  0  0  0  0  0  0  0  # atno 8010 bound_to 7997
  139.4821  144.5011  151.8166 H   0  0  0  0  0  0  0  0  0  0  0  0  # atno 10167 bound_to 10162
  156.1491  130.4152  149.9975 H   0  0  0  0  0  0  0  0  0  0  0  0  # atno 10718 bound_to 10713
  153.5952  135.7001  153.5407 H   0  0  0  0  0  0  0  0  0  0  0  0  # atno 10763 bound_to 10752
  153.3144  135.4092  155.1363 H   0  0  0  0  0  0  0  0  0  0  0  0  # atno 10764 bound_to 10752
  154.8593  135.3680  154.5485 H   0  0  0  0  0  0  0  0  0  0  0  0  # atno 10765 bound_to 10752
  140.4119  134.6684  157.4618 H   0  0  0  0  0  0  0  0  0  0  0  0  # atno 11005 bound_to 11000
  146.3448  140.2031  142.8589 LP  0  0  0  0  0  0  0  0  0  0  0  0  # atno 17320 bound_to 7965
  145.0106  140.8711  143.5226 LP  0  0  0  0  0  0  0  0  0  0  0  0  # atno 17321 bound_to 7965
  140.4505  144.1862  150.5897 LP  0  0  0  0  0  0  0  0  0  0  0  0  # atno 17342 bound_to 10162
  140.4590  143.2456  151.9246 LP  0  0  0  0  0  0  0  0  0  0  0  0  # atno 17343 bound_to 10162
  156.7838  130.9231  151.3646 LP  0  0  0  0  0  0  0  0  0  0  0  0  # atno 17370 bound_to 10713
  157.6642  130.8992  149.9895 LP  0  0  0  0  0  0  0  0  0  0  0  0  # atno 17371 bound_to 10713
  140.0262  134.6474  155.9170 LP  0  0  0  0  0  0  0  0  0  0  0  0  # atno 17394 bound_to 11000
  141.1818  133.6548  156.5051 LP  0  0  0  0  0  0  0  0  0  0  0  0  # atno 17395 bound_to 11000

$$$$
