#       Name:                AV-unprocessed.smi:1603
#       Creating user name   scv26
#       Creation time:       Fri Mar 27 07:09:46 2020


#       File generated by GOLD software.
#

@<TRIPOS>MOLECULE
AV-unprocessed.smi:1603
    52    54     1
SMALL
NO_CHARGES


@<TRIPOS>ATOM
      1 ****        -1.0669   0.7772  -2.4475 O.2            1 S1                 0.0000
      2 ****        -1.5462   1.2873  -1.4342 C.2            1 S1                 0.0000
      3 ****        -1.9825   2.6900  -1.3593 C.2            1 S1                 0.0000
      4 ****        -1.8438   3.5508  -2.6120 C.3            1 S1                 0.0000
      5 ****        -2.2942   4.7904  -2.4119 F              1 S1                 0.0000
      6 ****        -0.5654   3.6356  -2.9820 F              1 S1                 0.0000
      7 ****        -2.5364   3.0238  -3.6225 F              1 S1                 0.0000
      8 ****        -2.4924   3.1818  -0.2037 C.2            1 S1                 0.0000
      9 ****        -2.6121   2.3318   0.9636 C.2            1 S1                 0.0000
     10 ****        -3.1582   2.8153   2.2765 C.3            1 S1                 0.0000
     11 ****        -2.8150   4.1773   2.8357 C.3            1 S1                 0.0000
     12 ****        -2.2873   2.9298   3.5058 C.3            1 S1                 0.0000
     13 ****        -2.2365   1.0993   0.8930 N.2            1 S1                 0.0000
     14 ****        -1.7113   0.5835  -0.2750 N.am           1 S1                 0.0000
     15 ****        -1.3137  -0.8266  -0.1744 C.3            1 S1                 0.0000
     16 ****         0.2067  -0.9875   0.0547 C.3            1 S1                 0.0000
     17 ****         0.4594  -0.7300   1.4231 O.3            1 S1                 0.0000
     18 ****         0.6887  -2.4226  -0.2552 C.3            1 S1                 0.0000
     19 ****         2.0623  -2.5273  -0.7498 N.3            1 S1                 0.0000
     20 ****         3.0556  -2.1575   0.2563 C.3            1 S1                 0.0000
     21 ****         4.4932  -2.3021  -0.2734 C.3            1 S1                 0.0000
     22 ****         4.7042  -3.6329  -0.7343 O.3            1 S1                 0.0000
     23 ****         3.7847  -4.0120  -1.7530 C.3            1 S1                 0.0000
     24 ****         2.3469  -3.8782  -1.2226 C.3            1 S1                 0.0000
     25 ****        -2.8194   4.2082  -0.1292 H              1 S1                 0.0000
     26 ****        -4.1785   2.4655   2.4220 H              1 S1                 0.0000
     27 ****        -2.0970   4.7919   2.2958 H              1 S1                 0.0000
     28 ****        -3.6062   4.7246   3.3439 H              1 S1                 0.0000
     29 ****        -2.7272   2.6469   4.4600 H              1 S1                 0.0000
     30 ****        -1.2249   2.7169   3.4008 H              1 S1                 0.0000
     31 ****        -1.8750  -1.3356   0.6120 H              1 S1                 0.0000
     32 ****        -1.6085  -1.3316  -1.0960 H              1 S1                 0.0000
     33 ****         0.7573  -0.2753  -0.5617 H              1 S1                 0.0000
     34 ****        -0.0272  -1.3528   1.9412 H              1 S1                 0.0000
     35 ****         0.5413  -3.0732   0.6085 H              1 S1                 0.0000
     36 ****         0.0373  -2.8272  -1.0308 H              1 S1                 0.0000
     37 ****         2.9052  -1.1258   0.5734 H              1 S1                 0.0000
     38 ****         2.9328  -2.7801   1.1440 H              1 S1                 0.0000
     39 ****         4.6784  -1.5957  -1.0842 H              1 S1                 0.0000
     40 ****         5.2120  -2.0799   0.5154 H              1 S1                 0.0000
     41 ****         3.9310  -3.3883  -2.6362 H              1 S1                 0.0000
     42 ****         3.9858  -5.0415  -2.0498 H              1 S1                 0.0000
     43 ****         2.1942  -4.5933  -0.4125 H              1 S1                 0.0000
     44 ****         1.6469  -4.1495  -2.0139 H              1 S1                 0.0000
     45 ****        -0.7842  -0.1820  -2.4387 LP             1 S1                 0.0000
     46 ****        -0.9603   1.3222  -3.2792 LP             1 S1                 0.0000
     47 ****        -2.3270   0.5095   1.6955 LP             1 S1                 0.0000
     48 ****         0.1676   0.1989   1.6509 LP             1 S1                 0.0000
     49 ****         1.4371  -0.8273   1.6095 LP             1 S1                 0.0000
     50 ****         2.1311  -1.8786  -1.5078 LP             1 S1                 0.0000
     51 ****         4.6023  -4.2594   0.0384 LP             1 S1                 0.0000
     52 ****         5.6327  -3.7020  -1.0992 LP             1 S1                 0.0000
@<TRIPOS>BOND
    1    1    2 2     
    2    2   14 am    
    3    2    3 1     
    4    3    4 1     
    5    3    8 2     
    6    4    5 1     
    7    4    6 1     
    8    4    7 1     
    9    8    9 1     
   10    8   25 1     
   11    9   10 1     
   12    9   13 2     
   13   10   12 1     
   14   10   11 1     
   15   10   26 1     
   16   11   12 1     
   17   11   27 1     
   18   11   28 1     
   19   12   29 1     
   20   12   30 1     
   21   13   14 1     
   22   14   15 1     
   23   15   16 1     
   24   15   31 1     
   25   15   32 1     
   26   16   17 1     
   27   16   18 1     
   28   16   33 1     
   29   17   34 1     
   30   18   19 1     
   31   18   35 1     
   32   18   36 1     
   33   19   24 1     
   34   19   20 1     
   35   20   21 1     
   36   20   37 1     
   37   20   38 1     
   38   21   22 1     
   39   21   39 1     
   40   21   40 1     
   41   22   23 1     
   42   23   24 1     
   43   23   41 1     
   44   23   42 1     
   45   24   43 1     
   46   24   44 1     
   47    1   45 1     
   48    1   46 1     
   49   13   47 1     
   50   17   48 1     
   51   17   49 1     
   52   19   50 1     
   53   22   51 1     
   54   22   52 1     
@<TRIPOS>SUBSTRUCTURE
      1 S1             1
@<TRIPOS>SET
LONE_PAIRS      STATIC     ATOMS    <user>   **** ""
8 45 46 47 48 49 50 51 52
DONOR_HYDROGENS      STATIC     ATOMS    <user>   **** ""
1 34
ATOM$BLUE        STATIC     ATOMS    COLORGROUP SYSTEM
8 45 46 47 48 49 50 51 52
ATOM$RED        STATIC     ATOMS    COLORGROUP SYSTEM
1 34
