AV-unprocessed.smi:458|AV-procd|sdf|2623|dock3
  -GOLD-   2262023 23D 1   1.00000     0.00000
 Structure written by MMmdl.
 37 39  0  0  0  0  0  0  0  0  2 V2000
  151.5203  136.5698  154.3755 O   0  0  0  0  0  0  0  0  0  0  0  0
  151.7580  137.9016  154.7736 C   0  0  0  0  0  0  0  0  0  0  0  0
  150.5868  138.7897  154.5114 C   0  0  0  0  0  0  0  0  0  0  0  0
  149.4757  138.4559  153.7963 N   0  3  0  0  0  0  0  0  0  0  0  0
  148.5892  139.5332  153.7697 C   0  0  0  0  0  0  0  0  0  0  0  0
  147.3397  139.6697  153.1725 C   0  0  0  0  0  0  0  0  0  0  0  0
  146.6920  140.9117  153.3368 C   0  0  0  0  0  0  0  0  0  0  0  0
  147.2879  141.9590  154.0691 C   0  0  0  0  0  0  0  0  0  0  0  0
  148.5551  141.8088  154.6698 C   0  0  0  0  0  0  0  0  0  0  0  0
  149.1881  140.5766  154.5057 C   0  0  0  0  0  0  0  0  0  0  0  0
  150.4182  140.0719  154.9459 N   0  0  0  0  0  0  0  0  0  0  0  0
  151.3035  140.9169  155.7638 C   0  0  0  0  0  0  0  0  0  0  0  0
  151.4796  140.3923  157.2032 C   0  0  1  0  0  0  0  0  0  0  0  0
  152.5944  139.5249  157.2753 O   0  0  0  0  0  0  0  0  0  0  0  0
  151.5780  141.5392  158.1966 C   0  0  0  0  0  0  0  0  0  0  0  0
  152.6470  141.6033  159.1177 C   0  0  0  0  0  0  0  0  0  0  0  0
  152.7365  142.6739  160.0286 C   0  0  0  0  0  0  0  0  0  0  0  0
  151.7599  143.6882  160.0217 C   0  0  0  0  0  0  0  0  0  0  0  0
  151.8466  144.7183  160.8961 F   0  0  0  0  0  0  0  0  0  0  0  0
  150.6941  143.6314  159.1033 C   0  0  0  0  0  0  0  0  0  0  0  0
  150.6036  142.5606  158.1925 C   0  0  0  0  0  0  0  0  0  0  0  0
  151.5530  136.5265  153.4318 H   0  0  0  0  0  0  0  0  0  0  0  0
  151.9994  137.9199  155.8363 H   0  0  0  0  0  0  0  0  0  0  0  0
  152.6297  138.2816  154.2401 H   0  0  0  0  0  0  0  0  0  0  0  0
  146.8821  138.8695  152.6094 H   0  0  0  0  0  0  0  0  0  0  0  0
  145.7198  141.0647  152.8911 H   0  0  0  0  0  0  0  0  0  0  0  0
  146.7630  142.8977  154.1721 H   0  0  0  0  0  0  0  0  0  0  0  0
  149.0040  142.6204  155.2231 H   0  0  0  0  0  0  0  0  0  0  0  0
  152.2643  141.0252  155.2604 H   0  0  0  0  0  0  0  0  0  0  0  0
  150.8634  141.9147  155.7863 H   0  0  0  0  0  0  0  0  0  0  0  0
  150.6074  139.7921  157.4650 H   0  0  0  0  0  0  0  0  0  0  0  0
  152.3176  138.7158  157.6781 H   0  0  0  0  0  0  0  0  0  0  0  0
  153.4044  140.8331  159.1276 H   0  0  0  0  0  0  0  0  0  0  0  0
  153.5555  142.7178  160.7313 H   0  0  0  0  0  0  0  0  0  0  0  0
  149.9462  144.4107  159.0962 H   0  0  0  0  0  0  0  0  0  0  0  0
  149.7840  142.5287  157.4897 H   0  0  0  0  0  0  0  0  0  0  0  0
  149.3349  137.5526  153.3626 H   0  0  0  0  0  0  0  0  0  0  0  0
  1  2  1  0  0  0  0
  1 22  1  0  0  0  0
  2  3  1  0  0  0  0
  2 23  1  0  0  0  0
  2 24  1  0  0  0  0
  3 11  1  0  0  0  0
  3  4  2  0  0  0  0
  4  5  1  0  0  0  0
  4 37  1  0  0  0  0
  5 10  2  0  0  0  0
  5  6  1  0  0  0  0
  6  7  2  0  0  0  0
  6 25  1  0  0  0  0
  7  8  1  0  0  0  0
  7 26  1  0  0  0  0
  8  9  2  0  0  0  0
  8 27  1  0  0  0  0
  9 10  1  0  0  0  0
  9 28  1  0  0  0  0
 10 11  1  0  0  0  0
 11 12  1  0  0  0  0
 12 13  1  0  0  0  0
 12 29  1  0  0  0  0
 12 30  1  0  0  0  0
 13 14  1  0  0  0  0
 13 15  1  0  0  0  0
 13 31  1  0  0  0  0
 14 32  1  0  0  0  0
 15 21  1  0  0  0  0
 15 16  2  0  0  0  0
 16 17  1  0  0  0  0
 16 33  1  0  0  0  0
 17 18  2  0  0  0  0
 17 34  1  0  0  0  0
 18 19  1  0  0  0  0
 18 20  1  0  0  0  0
 20 21  2  0  0  0  0
 20 35  1  0  0  0  0
 21 36  1  0  0  0  0
M  CHG  1   4   1
M  END
> <s_m_source_file>
AV-unprocessed.smi

> <i_m_source_file_index>
458

> <i_lp_mmshare_version>
43012

> <i_f3d_flags>
0

> <s_epik_input>
W2NIXTFbY0hdW2NIXVtjSF1jKGMxMiluKGMobjIpW0NIMl1bT0hdKVtDSDJdW0NASF0oW09IXSljM1tjSF1bY0hdYyhGKVtjSF1bY0hdMw==

> <s_epik_cmdline>
J2VwaWtfcHl0aG9uJywgJy1waCcsICc3LjAnLCAnLXRuJywgJzgnLCAnLW1hJywgJzIwMCcsICctbWV0YWxfYmluZGluZycsICctaW1hZScsICc8aW5maWxlLm1hZT4nLCAnLW9tYWUnLCAnPG91dGZpbGUubWFlPic=

> <r_epik_Ionization_Penalty>
1.35643

> <r_epik_Ionization_Penalty_Charging>
1.35557

> <r_epik_Ionization_Penalty_Neutral>
0.00085758

> <r_epik_State_Penalty>
1.43401

> <r_epik_Charging_Adjusted_Penalty>
2.78958

> <i_epik_Tot_Q>
1

> <i_epik_Tot_abs_Q>
1

> <r_epik_Metal_State_Penalty>
5.47166

> <b_epik_Metal_Only>
0

> <s_lp_Force_Field>
OPLS_2005

> <r_lp_Energy>
14.4758

> <b_lp_Chiralities_Consistent>
1

> <s_lp_Variant>
AV-unprocessed.smi:458-4

> <Gold.Version>
5.8.1

> <Gold.Id.Protein>
6NUR|6NUR_protein|mol2

> <Gold.PLP.Fitness>
62.1687

> <Gold.PLP.PLP>
-48.4234

> <Gold.PLP.part.hbond>
-4.9086

> <Gold.PLP.part.metal>
0.0000

> <Gold.PLP.part.buried>
1.3001

> <Gold.PLP.part.nonpolar>
-44.4048

> <Gold.PLP.part.repulsive>
0.0569

> <Gold.PLP.ligand.clash>
0.0000

> <Gold.PLP.ligand.torsion>
0.6593

> <Gold.PLP.Chemscore.Hbond>
5.0000

> <Gold.PLP.Chemscore.CHOScore>
0.0000

> <Gold.PLP.Chemscore.Metal>
0.0000

> <Gold.Chemscore.Hbonds>
donor molecule, donor type, donor heavy atom, donor atom, acceptor molecule, acceptor atom, score
      L1  H     1    22       P1  7949  0.96
      L1  H     4    37       P1  7948  2.00
      P1  H  7997  8008       L1    14  1.00
      P1  H 10752 10764       L1     1  0.70

> <Gold.PLP.Chemscore.Internal.Correction>
0.0640

> <Gold.Rescore>
     Score         DG    S(hbond)    S(metal)    S(lipo)     H(rot)  DE(clash)    DE(int)     intcor
     20.77     -22.14       3.11        0.00     115.45       2.82       0.56       0.82       ----

> <Gold.Chemscore.Fitness>
20.7660

> <Gold.Chemscore.DG>
-22.1428

> <Gold.Chemscore.ZeroCoef>
-5.4800

> <Gold.Chemscore.Hbond>
3.1074

> <Gold.Chemscore.Metal>
0.0000

> <Gold.Chemscore.Lipo>
115.4537

> <Gold.Chemscore.Internal_Hbond>
0.0000

> <Gold.Chemscore.DEClash>
0.5569

> <Gold.Chemscore.DEInternal>
0.8199

> <Gold.Chemscore.Rot>
2.8219

> <Gold.Chemscore.Internal.Correction>
   9.000000E+99

> <Gold.Chemscore.Hbonds>
donor molecule, donor type, donor heavy atom, donor atom, acceptor molecule, acceptor atom, score
      L1  H     1    22       P1  7949  0.82
      L1  H     4    37       P1  7948  0.92
      P1  H  7997  8008       L1    14  0.96
      P1  H 10752 10764       L1     1  0.06

> <Gold.Chemscore.Hbond.Weighted>
-10.3787

> <Gold.Chemscore.Metal.Weighted>
-0.0000

> <Gold.Chemscore.Lipo.Weighted>
-13.5081

> <Gold.Chemscore.Internal_Hbond.Weighted>
0.0000

> <Gold.Chemscore.DEClash.Weighted>
0.5569

> <Gold.Chemscore.DEInternal.Weighted>
0.8199

> <Gold.Chemscore.Rot.Weighted>
7.2240

> <Gold.Chemscore.Internal.Correction.Weighted>
   9.000000E+99

> <Gold.Protein.RotatedTorsions>
[ 6907 6896 6895 6894 ] final   42.58 input  -60.11 | X-H torsion
[ 7974 7965 7964 7962 ] final   57.59 input  175.53 | X-H torsion
[ 8008 7997 7996 7995 ] final  -58.77 input   59.86 | X-H torsion
[ 10167 10162 10161 10158 ] final  -56.18 input  -65.29 | X-H torsion
[ 10718 10713 10712 10709 ] final  170.98 input   66.30 | X-H torsion
[ 10763 10752 10751 10750 ] final  -57.71 input  -60.55 | X-H torsion
[ 11005 11000 10999 10996 ] final -179.21 input  -57.11 | X-H torsion

> <Gold.Protein.ActiveResidues>
 VAL166  LYS551  ARG553  GLY616  TRP617  ASP618  TYR619  PRO620  LYS621  CYS622 
 ASP623  PHE694  ASN695  SER759  ASP760  ASP761  ALA762  ILE779  LEU786  VAL792 
 PHE793  MET794  SER795  GLU796  ALA797  LYS798  CYS799  TRP800  GLU811  SER814 

> <Gold.Protein.RotatedAtoms>
  152.2097  134.8513  160.0498 H   0  0  0  0  0  0  0  0  0  0  0  0  # atno 6907 bound_to 6896
  151.9336  133.3613  159.3948 H   0  0  0  0  0  0  0  0  0  0  0  0  # atno 6908 bound_to 6896
  150.6973  134.4437  159.5348 H   0  0  0  0  0  0  0  0  0  0  0  0  # atno 6909 bound_to 6896
  145.9274  139.3779  143.0441 H   0  0  0  0  0  0  0  0  0  0  0  0  # atno 7974 bound_to 7965
  154.4323  140.1076  156.6010 H   0  0  0  0  0  0  0  0  0  0  0  0  # atno 8008 bound_to 7997
  155.5911  140.3492  155.4548 H   0  0  0  0  0  0  0  0  0  0  0  0  # atno 8009 bound_to 7997
  156.0246  140.1247  157.0312 H   0  0  0  0  0  0  0  0  0  0  0  0  # atno 8010 bound_to 7997
  140.6332  143.2469  151.5186 H   0  0  0  0  0  0  0  0  0  0  0  0  # atno 10167 bound_to 10162
  157.0002  131.0173  151.2833 H   0  0  0  0  0  0  0  0  0  0  0  0  # atno 10718 bound_to 10713
  154.2267  135.6368  153.5162 H   0  0  0  0  0  0  0  0  0  0  0  0  # atno 10763 bound_to 10752
  152.9957  135.5509  154.6056 H   0  0  0  0  0  0  0  0  0  0  0  0  # atno 10764 bound_to 10752
  154.5530  135.2903  155.0965 H   0  0  0  0  0  0  0  0  0  0  0  0  # atno 10765 bound_to 10752
  140.4212  134.6604  157.4665 H   0  0  0  0  0  0  0  0  0  0  0  0  # atno 11005 bound_to 11000
  145.8471  140.9549  143.0769 LP  0  0  0  0  0  0  0  0  0  0  0  0  # atno 17320 bound_to 7965
  144.6760  140.0358  143.7482 LP  0  0  0  0  0  0  0  0  0  0  0  0  # atno 17321 bound_to 7965
  139.5544  144.2312  152.1587 LP  0  0  0  0  0  0  0  0  0  0  0  0  # atno 17342 bound_to 10162
  140.1561  144.5069  150.6659 LP  0  0  0  0  0  0  0  0  0  0  0  0  # atno 17343 bound_to 10162
  157.5396  130.8111  149.8013 LP  0  0  0  0  0  0  0  0  0  0  0  0  # atno 17370 bound_to 10713
  156.0174  130.3808  150.2068 LP  0  0  0  0  0  0  0  0  0  0  0  0  # atno 17371 bound_to 10713
  140.0199  134.6563  155.9255 LP  0  0  0  0  0  0  0  0  0  0  0  0  # atno 17394 bound_to 11000
  141.1783  133.6543  156.4918 LP  0  0  0  0  0  0  0  0  0  0  0  0  # atno 17395 bound_to 11000

$$$$
