AV-unprocessed.smi:1244|AV-procd|sdf|5229|dock1
  -GOLD-   22720 4333D 1   1.00000     0.00000
 Structure written by MMmdl.
 55 57  0  0  0  0  0  0  0  0  2 V2000
  151.7648  145.0825  158.6992 C   0  0  0  0  0  0  0  0  0  0  0  0
  152.2110  143.6255  158.5403 C   0  0  2  0  0  0  0  0  0  0  0  0
  151.0510  142.7023  158.1215 C   0  0  0  0  0  0  0  0  0  0  0  0
  151.4677  141.3074  158.0449 N   0  0  0  0  0  0  0  0  0  0  0  0
  150.3619  140.4467  157.6231 C   0  0  0  0  0  0  0  0  0  0  0  0
  150.4851  138.9669  158.0393 C   0  0  0  0  0  0  0  0  0  0  0  0
  149.2470  138.4644  158.6259 N   0  0  0  0  0  0  0  0  0  0  0  0
  149.1389  137.3445  159.3532 C   0  0  0  0  0  0  0  0  0  0  0  0
  150.0686  136.5606  159.5444 O   0  0  0  0  0  0  0  0  0  0  0  0
  147.9036  137.2155  159.8638 N   0  0  0  0  0  0  0  0  0  0  0  0
  147.4382  136.2181  160.7651 C   0  0  0  0  0  0  0  0  0  0  0  0
  148.2374  135.7519  161.8394 C   0  0  0  0  0  0  0  0  0  0  0  0
  147.7370  134.7581  162.7027 C   0  0  0  0  0  0  0  0  0  0  0  0
  146.4497  134.2405  162.4734 C   0  0  0  0  0  0  0  0  0  0  0  0
  145.7207  134.6955  161.4329 N   0  3  0  0  0  0  0  0  0  0  0  0
  146.1498  135.6502  160.5711 C   0  0  0  0  0  0  0  0  0  0  0  0
  145.3108  136.0350  159.5040 N   0  0  0  0  0  0  0  0  0  0  0  0
  145.0811  134.9850  158.5151 C   0  0  0  0  0  0  0  0  0  0  0  0
  143.6332  135.1416  158.0450 C   0  0  0  0  0  0  0  0  0  0  0  0
  142.9503  135.7959  159.2398 C   0  0  0  0  0  0  0  0  0  0  0  0
  144.0452  136.7110  159.7848 C   0  0  0  0  0  0  0  0  0  0  0  0
  152.0321  140.9090  159.3311 C   0  0  0  0  0  0  0  0  0  0  0  0
  153.1925  141.8287  159.7571 C   0  0  2  0  0  0  0  0  0  0  0  0
  153.7355  141.4719  161.1448 C   0  0  0  0  0  0  0  0  0  0  0  0
  152.7339  143.1776  159.7881 O   0  0  0  0  0  0  0  0  0  0  0  0
  151.3680  145.4757  157.7629 H   0  0  0  0  0  0  0  0  0  0  0  0
  152.6008  145.7153  158.9977 H   0  0  0  0  0  0  0  0  0  0  0  0
  150.9879  145.1765  159.4585 H   0  0  0  0  0  0  0  0  0  0  0  0
  153.0019  143.5810  157.7894 H   0  0  0  0  0  0  0  0  0  0  0  0
  150.2291  142.8033  158.8326 H   0  0  0  0  0  0  0  0  0  0  0  0
  150.6665  143.0252  157.1532 H   0  0  0  0  0  0  0  0  0  0  0  0
  149.4182  140.8490  157.9943 H   0  0  0  0  0  0  0  0  0  0  0  0
  150.2871  140.4793  156.5353 H   0  0  0  0  0  0  0  0  0  0  0  0
  150.7352  138.3458  157.1794 H   0  0  0  0  0  0  0  0  0  0  0  0
  151.3078  138.8455  158.7456 H   0  0  0  0  0  0  0  0  0  0  0  0
  148.4297  139.0472  158.5215 H   0  0  0  0  0  0  0  0  0  0  0  0
  147.2737  137.9871  159.7008 H   0  0  0  0  0  0  0  0  0  0  0  0
  149.2325  136.1358  162.0073 H   0  0  0  0  0  0  0  0  0  0  0  0
  148.3350  134.3962  163.5262 H   0  0  0  0  0  0  0  0  0  0  0  0
  145.9867  133.4764  163.0809 H   0  0  0  0  0  0  0  0  0  0  0  0
  145.7777  135.0700  157.6809 H   0  0  0  0  0  0  0  0  0  0  0  0
  145.2214  134.0028  158.9703 H   0  0  0  0  0  0  0  0  0  0  0  0
  143.5932  135.8130  157.1858 H   0  0  0  0  0  0  0  0  0  0  0  0
  143.1753  134.1954  157.7559 H   0  0  0  0  0  0  0  0  0  0  0  0
  142.0410  136.3345  158.9712 H   0  0  0  0  0  0  0  0  0  0  0  0
  142.6921  135.0389  159.9817 H   0  0  0  0  0  0  0  0  0  0  0  0
  143.8825  136.9566  160.8343 H   0  0  0  0  0  0  0  0  0  0  0  0
  144.0464  137.6544  159.2375 H   0  0  0  0  0  0  0  0  0  0  0  0
  151.2538  140.9249  160.0958 H   0  0  0  0  0  0  0  0  0  0  0  0
  152.3990  139.8843  159.2795 H   0  0  0  0  0  0  0  0  0  0  0  0
  154.0046  141.7493  159.0321 H   0  0  0  0  0  0  0  0  0  0  0  0
  154.1119  140.4491  161.1682 H   0  0  0  0  0  0  0  0  0  0  0  0
  152.9604  141.5620  161.9065 H   0  0  0  0  0  0  0  0  0  0  0  0
  154.5553  142.1342  161.4239 H   0  0  0  0  0  0  0  0  0  0  0  0
  144.7945  134.2943  161.2849 H   0  0  0  0  0  0  0  0  0  0  0  0
  1  2  1  0  0  0  0
  1 26  1  0  0  0  0
  1 27  1  0  0  0  0
  1 28  1  0  0  0  0
  2 25  1  0  0  0  0
  2  3  1  0  0  0  0
  2 29  1  0  0  0  0
  3  4  1  0  0  0  0
  3 30  1  0  0  0  0
  3 31  1  0  0  0  0
  4  5  1  0  0  0  0
  4 22  1  0  0  0  0
  5  6  1  0  0  0  0
  5 32  1  0  0  0  0
  5 33  1  0  0  0  0
  6  7  1  0  0  0  0
  6 34  1  0  0  0  0
  6 35  1  0  0  0  0
  7  8  1  0  0  0  0
  7 36  1  0  0  0  0
  8  9  2  0  0  0  0
  8 10  1  0  0  0  0
 10 11  1  0  0  0  0
 10 37  1  0  0  0  0
 11 16  1  0  0  0  0
 11 12  2  0  0  0  0
 12 13  1  0  0  0  0
 12 38  1  0  0  0  0
 13 14  2  0  0  0  0
 13 39  1  0  0  0  0
 14 15  1  0  0  0  0
 14 40  1  0  0  0  0
 15 16  2  0  0  0  0
 15 55  1  0  0  0  0
 16 17  1  0  0  0  0
 17 21  1  0  0  0  0
 17 18  1  0  0  0  0
 18 19  1  0  0  0  0
 18 41  1  0  0  0  0
 18 42  1  0  0  0  0
 19 20  1  0  0  0  0
 19 43  1  0  0  0  0
 19 44  1  0  0  0  0
 20 21  1  0  0  0  0
 20 45  1  0  0  0  0
 20 46  1  0  0  0  0
 21 47  1  0  0  0  0
 21 48  1  0  0  0  0
 22 23  1  0  0  0  0
 22 49  1  0  0  0  0
 22 50  1  0  0  0  0
 23 24  1  0  0  0  0
 23 25  1  0  0  0  0
 23 51  1  0  0  0  0
 24 52  1  0  0  0  0
 24 53  1  0  0  0  0
 24 54  1  0  0  0  0
M  CHG  1  15   1
M  END
> <s_m_source_file>
AV-unprocessed.smi

> <i_m_source_file_index>
1244

> <i_lp_mmshare_version>
43012

> <i_f3d_flags>
0

> <s_epik_input>
W0NIM11bQ0BASF0xW0NIMl1OKFtDSDJdW0NASF0oTzEpW0NIM10pW0NIMl1bQ0gyXVtOSF1DKD1PKVtOSF1jMltjSF1bY0hdW2NIXW5jMk4zW0NIMl1bQ0gyXVtDSDJdW0NIMl0z

> <s_epik_cmdline>
J2VwaWtfcHl0aG9uJywgJy1waCcsICc3LjAnLCAnLXRuJywgJzgnLCAnLW1hJywgJzIwMCcsICctbWV0YWxfYmluZGluZycsICctaW1hZScsICc8aW5maWxlLm1hZT4nLCAnLW9tYWUnLCAnPG91dGZpbGUubWFlPic=

> <r_epik_Ionization_Penalty>
1.38385

> <r_epik_Ionization_Penalty_Charging>
1.11784

> <r_epik_Ionization_Penalty_Neutral>
0.26601

> <r_epik_State_Penalty>
1.46794

> <r_epik_Charging_Adjusted_Penalty>
2.58578

> <i_epik_Tot_Q>
1

> <i_epik_Tot_abs_Q>
1

> <r_epik_Metal_State_Penalty>
1.54908

> <b_epik_Metal_Only>
0

> <s_lp_Force_Field>
OPLS_2005

> <r_lp_Energy>
57.7362

> <b_lp_Chiralities_Consistent>
1

> <s_lp_Variant>
AV-unprocessed.smi:1244-9

> <Gold.Version>
5.8.1

> <Gold.Id.Protein>
6NUR|6NUR_protein|mol2

> <Gold.PLP.Fitness>
40.3773

> <Gold.PLP.PLP>
-39.3984

> <Gold.PLP.part.hbond>
-1.0000

> <Gold.PLP.part.metal>
0.0000

> <Gold.PLP.part.buried>
-6.8883

> <Gold.PLP.part.nonpolar>
-32.8773

> <Gold.PLP.part.repulsive>
0.9909

> <Gold.PLP.ligand.clash>
0.0000

> <Gold.PLP.ligand.torsion>
1.1055

> <Gold.PLP.Chemscore.Hbond>
1.0000

> <Gold.PLP.Chemscore.CHOScore>
0.0000

> <Gold.PLP.Chemscore.Metal>
0.0000

> <Gold.Chemscore.Hbonds>
donor molecule, donor type, donor heavy atom, donor atom, acceptor molecule, acceptor atom, score
      P1  H  6896  6908       L1     9  1.00

> <Gold.PLP.Chemscore.Internal.Correction>
0.1900

> <Gold.Rescore>
     Score         DG    S(hbond)    S(metal)    S(lipo)     H(rot)  DE(clash)    DE(int)     intcor
     15.05     -17.16       1.00        0.00     105.90       1.58       0.08       2.04       ----

> <Gold.Chemscore.Fitness>
15.0458

> <Gold.Chemscore.DG>
-17.1620

> <Gold.Chemscore.ZeroCoef>
-5.4800

> <Gold.Chemscore.Hbond>
0.9988

> <Gold.Chemscore.Metal>
0.0000

> <Gold.Chemscore.Lipo>
105.8956

> <Gold.Chemscore.Internal_Hbond>
0.0000

> <Gold.Chemscore.DEClash>
0.0782

> <Gold.Chemscore.DEInternal>
2.0379

> <Gold.Chemscore.Rot>
1.5797

> <Gold.Chemscore.Internal.Correction>
   9.000000E+99

> <Gold.Chemscore.Hbonds>
donor molecule, donor type, donor heavy atom, donor atom, acceptor molecule, acceptor atom, score
      P1  H  6896  6908       L1     9  1.00

> <Gold.Chemscore.Hbond.Weighted>
-3.3361

> <Gold.Chemscore.Metal.Weighted>
-0.0000

> <Gold.Chemscore.Lipo.Weighted>
-12.3898

> <Gold.Chemscore.Internal_Hbond.Weighted>
0.0000

> <Gold.Chemscore.DEClash.Weighted>
0.0782

> <Gold.Chemscore.DEInternal.Weighted>
2.0379

> <Gold.Chemscore.Rot.Weighted>
4.0439

> <Gold.Chemscore.Internal.Correction.Weighted>
   9.000000E+99

> <Gold.Protein.RotatedTorsions>
[ 6907 6896 6895 6894 ] final -149.60 input  -60.11 | X-H torsion
[ 7974 7965 7964 7962 ] final   52.29 input  175.53 | X-H torsion
[ 8008 7997 7996 7995 ] final   74.74 input   59.86 | X-H torsion
[ 10167 10162 10161 10158 ] final -145.59 input  -65.29 | X-H torsion
[ 10718 10713 10712 10709 ] final -116.54 input   66.30 | X-H torsion
[ 10763 10752 10751 10750 ] final  -16.03 input  -60.55 | X-H torsion
[ 11005 11000 10999 10996 ] final  -18.38 input  -57.11 | X-H torsion

> <Gold.Protein.ActiveResidues>
 VAL166  LYS551  ARG553  GLY616  TRP617  ASP618  TYR619  PRO620  LYS621  CYS622 
 ASP623  PHE694  ASN695  SER759  ASP760  ASP761  ALA762  ILE779  LEU786  VAL792 
 PHE793  MET794  SER795  GLU796  ALA797  LYS798  CYS799  TRP800  GLU811  SER814 

> <Gold.Protein.RotatedAtoms>
  151.1865  133.4693  159.2594 H   0  0  0  0  0  0  0  0  0  0  0  0  # atno 6907 bound_to 6896
  151.1206  135.0077  159.8547 H   0  0  0  0  0  0  0  0  0  0  0  0  # atno 6908 bound_to 6896
  152.5456  134.1777  159.8675 H   0  0  0  0  0  0  0  0  0  0  0  0  # atno 6909 bound_to 6896
  145.9828  139.4260  143.0121 H   0  0  0  0  0  0  0  0  0  0  0  0  # atno 7974 bound_to 7965
  155.8028  140.3476  155.5412 H   0  0  0  0  0  0  0  0  0  0  0  0  # atno 8008 bound_to 7997
  155.8521  140.0958  157.1688 H   0  0  0  0  0  0  0  0  0  0  0  0  # atno 8009 bound_to 7997
  154.4008  140.1374  156.3844 H   0  0  0  0  0  0  0  0  0  0  0  0  # atno 8010 bound_to 7997
  139.7791  143.8126  152.2636 H   0  0  0  0  0  0  0  0  0  0  0  0  # atno 10167 bound_to 10162
  156.0971  130.6141  150.9049 H   0  0  0  0  0  0  0  0  0  0  0  0  # atno 10718 bound_to 10713
  153.5523  135.7011  153.5585 H   0  0  0  0  0  0  0  0  0  0  0  0  # atno 10763 bound_to 10752
  153.3504  135.3997  155.1641 H   0  0  0  0  0  0  0  0  0  0  0  0  # atno 10764 bound_to 10752
  154.8659  135.3764  154.5035 H   0  0  0  0  0  0  0  0  0  0  0  0  # atno 10765 bound_to 10752
  140.8262  133.8031  155.9711 H   0  0  0  0  0  0  0  0  0  0  0  0  # atno 11005 bound_to 11000
  145.7744  140.9883  143.1132 LP  0  0  0  0  0  0  0  0  0  0  0  0  # atno 17320 bound_to 7965
  144.6866  139.9487  143.7477 LP  0  0  0  0  0  0  0  0  0  0  0  0  # atno 17321 bound_to 7965
  139.8184  144.7306  150.9605 LP  0  0  0  0  0  0  0  0  0  0  0  0  # atno 17342 bound_to 10162
  140.7817  143.4183  151.0882 LP  0  0  0  0  0  0  0  0  0  0  0  0  # atno 17343 bound_to 10162
  157.6134  131.0935  150.8754 LP  0  0  0  0  0  0  0  0  0  0  0  0  # atno 17370 bound_to 10713
  156.8890  130.5206  149.5287 LP  0  0  0  0  0  0  0  0  0  0  0  0  # atno 17371 bound_to 10713
  140.9046  134.2336  157.5022 LP  0  0  0  0  0  0  0  0  0  0  0  0  # atno 17394 bound_to 11000
  139.8706  134.9722  156.4765 LP  0  0  0  0  0  0  0  0  0  0  0  0  # atno 17395 bound_to 11000

$$$$
