AV-unprocessed.smi:838|AV-procd|sdf|3908|dock10
  -GOLD-   22720 1373D 1   1.00000     0.00000
 Structure written by MMmdl.
 45 46  0  0  0  0  0  0  0  0  1 V2000
  151.8915  140.8197  156.9208 C   0  0  0  0  0  0  0  0  0  0  0  0
  151.9648  139.8515  155.7381 C   0  0  0  0  0  0  0  0  0  0  0  0
  152.9937  139.8409  155.0620 O   0  0  0  0  0  0  0  0  0  0  0  0
  150.9071  139.0484  155.4734 N   0  0  0  0  0  0  0  0  0  0  0  0
  150.8945  138.0666  154.3854 C   0  0  0  0  0  0  0  0  0  0  0  0
  150.7843  136.6525  154.9875 C   0  0  0  0  0  0  0  0  0  0  0  0
  149.5643  136.5377  155.7913 N   0  0  0  0  0  0  0  0  0  0  0  0
  149.4596  135.1779  156.3209 C   0  0  0  0  0  0  0  0  0  0  0  0
  149.6521  134.0887  155.2457 C   0  0  0  0  0  0  0  0  0  0  0  0
  148.8354  134.3457  154.0630 N   0  0  0  0  0  0  0  0  0  0  0  0
  147.8632  133.5446  153.6024 C   0  0  0  0  0  0  0  0  0  0  0  0
  147.5626  132.4700  154.1236 O   0  0  0  0  0  0  0  0  0  0  0  0
  147.2733  134.0749  152.5166 N   0  0  0  0  0  0  0  0  0  0  0  0
  146.2091  133.5411  151.7365 C   0  0  0  0  0  0  0  0  0  0  0  0
  145.8472  132.2344  151.7881 N   0  0  0  0  0  0  0  0  0  0  0  0
  144.8306  131.7946  151.0191 C   0  0  0  0  0  0  0  0  0  0  0  0
  144.1096  132.6301  150.1488 C   0  0  0  0  0  0  0  0  0  0  0  0
  144.4710  133.9865  150.0835 C   0  0  0  0  0  0  0  0  0  0  0  0
  145.5334  134.4558  150.8848 C   0  0  0  0  0  0  0  0  0  0  0  0
  145.9238  135.9235  150.8181 C   0  0  0  0  0  0  0  0  0  0  0  0
  149.5796  137.5374  156.8664 C   0  0  0  0  0  0  0  0  0  0  0  0
  149.6784  138.9535  156.2679 C   0  0  0  0  0  0  0  0  0  0  0  0
  151.7616  140.2771  157.8575 H   0  0  0  0  0  0  0  0  0  0  0  0
  151.0639  141.5185  156.7971 H   0  0  0  0  0  0  0  0  0  0  0  0
  152.8099  141.4024  156.9978 H   0  0  0  0  0  0  0  0  0  0  0  0
  150.0472  138.2663  153.7277 H   0  0  0  0  0  0  0  0  0  0  0  0
  151.7828  138.1244  153.7556 H   0  0  0  0  0  0  0  0  0  0  0  0
  150.7627  135.9176  154.1821 H   0  0  0  0  0  0  0  0  0  0  0  0
  151.6601  136.4332  155.6004 H   0  0  0  0  0  0  0  0  0  0  0  0
  150.2244  135.0340  157.0857 H   0  0  0  0  0  0  0  0  0  0  0  0
  148.4978  135.0496  156.8199 H   0  0  0  0  0  0  0  0  0  0  0  0
  150.6935  134.0965  154.9238 H   0  0  0  0  0  0  0  0  0  0  0  0
  149.4798  133.0883  155.6429 H   0  0  0  0  0  0  0  0  0  0  0  0
  149.0113  135.2094  153.5714 H   0  0  0  0  0  0  0  0  0  0  0  0
  147.6238  134.9704  152.2110 H   0  0  0  0  0  0  0  0  0  0  0  0
  144.5855  130.7461  151.1007 H   0  0  0  0  0  0  0  0  0  0  0  0
  143.3008  132.2404  149.5486 H   0  0  0  0  0  0  0  0  0  0  0  0
  143.9370  134.6561  149.4253 H   0  0  0  0  0  0  0  0  0  0  0  0
  145.2992  136.4692  150.1106 H   0  0  0  0  0  0  0  0  0  0  0  0
  146.9613  136.0292  150.4996 H   0  0  0  0  0  0  0  0  0  0  0  0
  145.8111  136.3924  151.7960 H   0  0  0  0  0  0  0  0  0  0  0  0
  148.6697  137.4723  157.4609 H   0  0  0  0  0  0  0  0  0  0  0  0
  150.4171  137.3525  157.5411 H   0  0  0  0  0  0  0  0  0  0  0  0
  149.6196  139.6875  157.0696 H   0  0  0  0  0  0  0  0  0  0  0  0
  148.8185  139.1503  155.6255 H   0  0  0  0  0  0  0  0  0  0  0  0
  1  2  1  0  0  0  0
  1 23  1  0  0  0  0
  1 24  1  0  0  0  0
  1 25  1  0  0  0  0
  2  3  2  0  0  0  0
  2  4  1  0  0  0  0
  4 22  1  0  0  0  0
  4  5  1  0  0  0  0
  5  6  1  0  0  0  0
  5 26  1  0  0  0  0
  5 27  1  0  0  0  0
  6  7  1  0  0  0  0
  6 28  1  0  0  0  0
  6 29  1  0  0  0  0
  7  8  1  0  0  0  0
  7 21  1  0  0  0  0
  8  9  1  0  0  0  0
  8 30  1  0  0  0  0
  8 31  1  0  0  0  0
  9 10  1  0  0  0  0
  9 32  1  0  0  0  0
  9 33  1  0  0  0  0
 10 11  1  0  0  0  0
 10 34  1  0  0  0  0
 11 12  2  0  0  0  0
 11 13  1  0  0  0  0
 13 14  1  0  0  0  0
 13 35  1  0  0  0  0
 14 19  1  0  0  0  0
 14 15  2  0  0  0  0
 15 16  1  0  0  0  0
 16 17  2  0  0  0  0
 16 36  1  0  0  0  0
 17 18  1  0  0  0  0
 17 37  1  0  0  0  0
 18 19  2  0  0  0  0
 18 38  1  0  0  0  0
 19 20  1  0  0  0  0
 20 39  1  0  0  0  0
 20 40  1  0  0  0  0
 20 41  1  0  0  0  0
 21 22  1  0  0  0  0
 21 42  1  0  0  0  0
 21 43  1  0  0  0  0
 22 44  1  0  0  0  0
 22 45  1  0  0  0  0
M  END
> <s_m_source_file>
AV-unprocessed.smi

> <i_m_source_file_index>
838

> <i_lp_mmshare_version>
43012

> <i_f3d_flags>
0

> <s_epik_input>
W0NIM11DKD1PKU4xW0NIMl1bQ0gyXU4oW0NIMl1bQ0gyXTEpW0NIMl1bQ0gyXVtOSF1DKD1PKVtOSF1jMm5bY0hdW2NIXVtjSF1jMltDSDNd

> <s_epik_cmdline>
J2VwaWtfcHl0aG9uJywgJy1waCcsICc3LjAnLCAnLXRuJywgJzgnLCAnLW1hJywgJzIwMCcsICctbWV0YWxfYmluZGluZycsICctaW1hZScsICc8aW5maWxlLm1hZT4nLCAnLW9tYWUnLCAnPG91dGZpbGUubWFlPic=

> <r_epik_Ionization_Penalty>
0.25102

> <r_epik_Ionization_Penalty_Charging>
0

> <r_epik_Ionization_Penalty_Neutral>
0.25102

> <r_epik_State_Penalty>
0.242297

> <r_epik_Charging_Adjusted_Penalty>
0.242297

> <i_epik_Tot_Q>
0

> <i_epik_Tot_abs_Q>
0

> <r_epik_Metal_State_Penalty>
0.242294

> <b_epik_Metal_Only>
0

> <s_lp_Force_Field>
OPLS_2005

> <r_lp_Energy>
40.132

> <b_lp_Chiralities_Consistent>
1

> <s_lp_Variant>
AV-unprocessed.smi:838-1

> <Gold.Version>
5.8.1

> <Gold.Id.Protein>
6NUR|6NUR_protein|mol2

> <Gold.PLP.Fitness>
48.8749

> <Gold.PLP.PLP>
-38.8157

> <Gold.PLP.part.hbond>
-4.0000

> <Gold.PLP.part.metal>
0.0000

> <Gold.PLP.part.buried>
-5.6440

> <Gold.PLP.part.nonpolar>
-30.5413

> <Gold.PLP.part.repulsive>
0.3350

> <Gold.PLP.ligand.clash>
0.0000

> <Gold.PLP.ligand.torsion>
0.1480

> <Gold.PLP.Chemscore.Hbond>
3.4456

> <Gold.PLP.Chemscore.CHOScore>
0.0000

> <Gold.PLP.Chemscore.Metal>
0.0000

> <Gold.Chemscore.Hbonds>
donor molecule, donor type, donor heavy atom, donor atom, acceptor molecule, acceptor atom, score
      L1  H    10    34       P1  7948  0.96
      L1  H    13    35       P1  7948  1.00
      P1  H  7989  7998       L1     3  0.03
      P1  H  7997  8009       L1     3  1.00

> <Gold.PLP.Chemscore.Internal.Correction>
0.0185

> <Gold.Rescore>
     Score         DG    S(hbond)    S(metal)    S(lipo)     H(rot)  DE(clash)    DE(int)     intcor
     16.15     -17.66       2.39        0.00      69.75       1.54       0.16       1.34       ----

> <Gold.Chemscore.Fitness>
16.1512

> <Gold.Chemscore.DG>
-17.6568

> <Gold.Chemscore.ZeroCoef>
-5.4800

> <Gold.Chemscore.Hbond>
2.3861

> <Gold.Chemscore.Metal>
0.0000

> <Gold.Chemscore.Lipo>
69.7453

> <Gold.Chemscore.Internal_Hbond>
0.0000

> <Gold.Chemscore.DEClash>
0.1640

> <Gold.Chemscore.DEInternal>
1.3416

> <Gold.Chemscore.Rot>
1.5441

> <Gold.Chemscore.Internal.Correction>
   9.000000E+99

> <Gold.Chemscore.Hbonds>
donor molecule, donor type, donor heavy atom, donor atom, acceptor molecule, acceptor atom, score
      L1  H    10    34       P1  7948  0.45
      L1  H    13    35       P1  7948  0.90
      P1  H  7997  8009       L1     3  0.85

> <Gold.Chemscore.Hbond.Weighted>
-7.9696

> <Gold.Chemscore.Metal.Weighted>
-0.0000

> <Gold.Chemscore.Lipo.Weighted>
-8.1602

> <Gold.Chemscore.Internal_Hbond.Weighted>
0.0000

> <Gold.Chemscore.DEClash.Weighted>
0.1640

> <Gold.Chemscore.DEInternal.Weighted>
1.3416

> <Gold.Chemscore.Rot.Weighted>
3.9530

> <Gold.Chemscore.Internal.Correction.Weighted>
   9.000000E+99

> <Gold.Protein.RotatedTorsions>
[ 6907 6896 6895 6894 ] final    8.22 input  -60.11 | X-H torsion
[ 7974 7965 7964 7962 ] final   58.81 input  175.53 | X-H torsion
[ 8008 7997 7996 7995 ] final -141.98 input   59.86 | X-H torsion
[ 10167 10162 10161 10158 ] final   78.17 input  -65.29 | X-H torsion
[ 10718 10713 10712 10709 ] final -151.56 input   66.30 | X-H torsion
[ 10763 10752 10751 10750 ] final  154.50 input  -60.55 | X-H torsion
[ 11005 11000 10999 10996 ] final -140.28 input  -57.11 | X-H torsion

> <Gold.Protein.ActiveResidues>
 VAL166  LYS551  ARG553  GLY616  TRP617  ASP618  TYR619  PRO620  LYS621  CYS622 
 ASP623  PHE694  ASN695  SER759  ASP760  ASP761  ALA762  ILE779  LEU786  VAL792 
 PHE793  MET794  SER795  GLU796  ALA797  LYS798  CYS799  TRP800  GLU811  SER814 

> <Gold.Protein.RotatedAtoms>
  151.7026  135.0927  160.0253 H   0  0  0  0  0  0  0  0  0  0  0  0  # atno 6907 bound_to 6896
  152.3711  133.6416  159.6096 H   0  0  0  0  0  0  0  0  0  0  0  0  # atno 6908 bound_to 6896
  150.7674  133.9185  159.3432 H   0  0  0  0  0  0  0  0  0  0  0  0  # atno 6909 bound_to 6896
  145.9141  139.3677  143.0518 H   0  0  0  0  0  0  0  0  0  0  0  0  # atno 7974 bound_to 7965
  155.4867  140.0564  157.2959 H   0  0  0  0  0  0  0  0  0  0  0  0  # atno 8008 bound_to 7997
  154.4639  140.2009  156.0122 H   0  0  0  0  0  0  0  0  0  0  0  0  # atno 8009 bound_to 7997
  156.0939  140.3229  155.7856 H   0  0  0  0  0  0  0  0  0  0  0  0  # atno 8010 bound_to 7997
  139.9737  144.5876  150.7962 H   0  0  0  0  0  0  0  0  0  0  0  0  # atno 10167 bound_to 10162
  156.4608  130.8212  151.2443 H   0  0  0  0  0  0  0  0  0  0  0  0  # atno 10718 bound_to 10713
  154.1534  135.2814  155.3129 H   0  0  0  0  0  0  0  0  0  0  0  0  # atno 10763 bound_to 10752
  154.6200  135.5470  153.7569 H   0  0  0  0  0  0  0  0  0  0  0  0  # atno 10764 bound_to 10752
  153.0214  135.6437  154.1677 H   0  0  0  0  0  0  0  0  0  0  0  0  # atno 10765 bound_to 10752
  140.8438  134.2370  157.4796 H   0  0  0  0  0  0  0  0  0  0  0  0  # atno 11005 bound_to 11000
  145.8634  140.9462  143.0688 LP  0  0  0  0  0  0  0  0  0  0  0  0  # atno 17320 bound_to 7965
  144.6746  140.0560  143.7477 LP  0  0  0  0  0  0  0  0  0  0  0  0  # atno 17321 bound_to 7965
  140.7513  143.2970  151.3179 LP  0  0  0  0  0  0  0  0  0  0  0  0  # atno 17342 bound_to 10162
  139.6461  144.0448  152.2592 LP  0  0  0  0  0  0  0  0  0  0  0  0  # atno 17343 bound_to 10162
  157.7498  131.0107  150.3319 LP  0  0  0  0  0  0  0  0  0  0  0  0  # atno 17370 bound_to 10713
  156.3718  130.3865  149.7169 LP  0  0  0  0  0  0  0  0  0  0  0  0  # atno 17371 bound_to 10713
  139.8703  134.9649  156.4509 LP  0  0  0  0  0  0  0  0  0  0  0  0  # atno 17394 bound_to 11000
  140.8866  133.7878  155.9525 LP  0  0  0  0  0  0  0  0  0  0  0  0  # atno 17395 bound_to 11000

$$$$
