AV-unprocessed.smi:249|AV-procd|sdf|1907|dock7
  -GOLD-   2262020593D 1   1.00000     0.00000
 Structure written by MMmdl.
 64 67  0  0  0  0  0  0  0  0  2 V2000
  145.9597  129.8483  152.2346 C   0  0  0  0  0  0  0  0  0  0  0  0
  145.3041  131.1582  151.7711 C   0  0  0  0  0  0  0  0  0  0  0  0
  146.2693  132.1074  151.1423 N   0  3  1  0  0  0  0  0  0  0  0  0
  145.6623  133.0033  150.1170 C   0  0  0  0  0  0  0  0  0  0  0  0
  144.7824  134.0958  150.7548 C   0  0  0  0  0  0  0  0  0  0  0  0
  145.5853  134.9106  151.7862 C   0  0  1  0  0  0  0  0  0  0  0  0
  144.7726  135.9478  152.4263 N   0  0  0  0  0  0  0  0  0  0  0  0
  143.3969  136.2019  152.0044 C   0  0  0  0  0  0  0  0  0  0  0  0
  145.3455  136.8080  153.3088 C   0  0  0  0  0  0  0  0  0  0  0  0
  145.1146  136.6224  154.6354 N   0  0  0  0  0  0  0  0  0  0  0  0
  145.6441  137.4520  155.5388 C   0  0  0  0  0  0  0  0  0  0  0  0
  146.4295  138.5108  155.3386 N   0  0  0  0  0  0  0  0  0  0  0  0
  146.6852  138.6929  154.0121 C   0  0  0  0  0  0  0  0  0  0  0  0
  146.1881  137.8982  152.9392 C   0  0  0  0  0  0  0  0  0  0  0  0
  146.6745  138.3881  151.7313 N   0  0  0  0  0  0  0  0  0  0  0  0
  147.4004  139.4183  152.0690 C   0  0  0  0  0  0  0  0  0  0  0  0
  147.4770  139.6625  153.4210 N   0  0  0  0  0  0  0  0  0  0  0  0
  148.2025  140.7431  154.0663 C   0  0  0  0  0  0  0  0  0  0  0  0
  149.2116  140.2986  155.1622 C   0  0  2  0  0  0  0  0  0  0  0  0
  149.7753  141.5553  155.8693 C   0  0  0  0  0  0  0  0  0  0  0  0
  148.7683  142.2386  156.5872 O   0  0  0  0  0  0  0  0  0  0  0  0
  150.3541  139.3921  154.6132 C   0  0  1  0  0  0  0  0  0  0  0  0
  151.5982  139.3216  155.4871 C   0  0  0  0  0  0  0  0  0  0  0  0
  152.2882  138.0674  154.9722 C   0  0  0  0  0  0  0  0  0  0  0  0
  151.2259  137.1666  154.7050 O   0  0  0  0  0  0  0  0  0  0  0  0
  150.0202  137.8948  154.4926 C   0  0  0  0  0  0  0  0  0  0  0  0
  146.2539  133.9777  152.8142 C   0  0  0  0  0  0  0  0  0  0  0  0
  147.0978  132.9002  152.1024 C   0  0  1  0  0  0  0  0  0  0  0  0
  147.9019  132.0328  153.0872 C   0  0  0  0  0  0  0  0  0  0  0  0
  145.2560  129.2586  152.8226 H   0  0  0  0  0  0  0  0  0  0  0  0
  146.8306  130.0409  152.8618 H   0  0  0  0  0  0  0  0  0  0  0  0
  146.2722  129.2246  151.3978 H   0  0  0  0  0  0  0  0  0  0  0  0
  144.4728  130.9437  151.0999 H   0  0  0  0  0  0  0  0  0  0  0  0
  144.8673  131.6122  152.6582 H   0  0  0  0  0  0  0  0  0  0  0  0
  146.4696  133.4766  149.5564 H   0  0  0  0  0  0  0  0  0  0  0  0
  145.0950  132.4382  149.3793 H   0  0  0  0  0  0  0  0  0  0  0  0
  144.4040  134.7594  149.9764 H   0  0  0  0  0  0  0  0  0  0  0  0
  143.9060  133.6405  151.2158 H   0  0  0  0  0  0  0  0  0  0  0  0
  146.3798  135.3890  151.2150 H   0  0  0  0  0  0  0  0  0  0  0  0
  142.7707  136.4553  152.8607 H   0  0  0  0  0  0  0  0  0  0  0  0
  142.9600  135.3283  151.5217 H   0  0  0  0  0  0  0  0  0  0  0  0
  143.3627  137.0297  151.2954 H   0  0  0  0  0  0  0  0  0  0  0  0
  145.4042  137.2360  156.5694 H   0  0  0  0  0  0  0  0  0  0  0  0
  147.9132  140.0249  151.3365 H   0  0  0  0  0  0  0  0  0  0  0  0
  148.7217  141.3177  153.2981 H   0  0  0  0  0  0  0  0  0  0  0  0
  147.4520  141.4126  154.4870 H   0  0  0  0  0  0  0  0  0  0  0  0
  148.6741  139.7260  155.9190 H   0  0  0  0  0  0  0  0  0  0  0  0
  150.5449  141.2959  156.5950 H   0  0  0  0  0  0  0  0  0  0  0  0
  150.2297  142.2357  155.1485 H   0  0  0  0  0  0  0  0  0  0  0  0
  148.8572  143.1652  156.4239 H   0  0  0  0  0  0  0  0  0  0  0  0
  150.6594  139.7589  153.6316 H   0  0  0  0  0  0  0  0  0  0  0  0
  152.2367  140.2013  155.4027 H   0  0  0  0  0  0  0  0  0  0  0  0
  151.3243  139.1930  156.5355 H   0  0  0  0  0  0  0  0  0  0  0  0
  152.8189  138.2764  154.0423 H   0  0  0  0  0  0  0  0  0  0  0  0
  152.9982  137.6510  155.6867 H   0  0  0  0  0  0  0  0  0  0  0  0
  149.3056  137.5853  155.2556 H   0  0  0  0  0  0  0  0  0  0  0  0
  149.6053  137.6436  153.5173 H   0  0  0  0  0  0  0  0  0  0  0  0
  146.8919  134.5652  153.4758 H   0  0  0  0  0  0  0  0  0  0  0  0
  145.5077  133.5057  153.4534 H   0  0  0  0  0  0  0  0  0  0  0  0
  147.8415  133.4206  151.4963 H   0  0  0  0  0  0  0  0  0  0  0  0
  148.6412  132.6376  153.6130 H   0  0  0  0  0  0  0  0  0  0  0  0
  148.4398  131.2388  152.5683 H   0  0  0  0  0  0  0  0  0  0  0  0
  147.2694  131.5762  153.8484 H   0  0  0  0  0  0  0  0  0  0  0  0
  146.9236  131.5217  150.6429 H   0  0  0  0  0  0  0  0  0  0  0  0
  1  2  1  0  0  0  0
  1 30  1  0  0  0  0
  1 31  1  0  0  0  0
  1 32  1  0  0  0  0
  2  3  1  0  0  0  0
  2 33  1  0  0  0  0
  2 34  1  0  0  0  0
  3 28  1  0  0  0  0
  3  4  1  0  0  0  0
  3 64  1  0  0  0  0
  4  5  1  0  0  0  0
  4 35  1  0  0  0  0
  4 36  1  0  0  0  0
  5  6  1  0  0  0  0
  5 37  1  0  0  0  0
  5 38  1  0  0  0  0
  6  7  1  0  0  0  0
  6 27  1  0  0  0  0
  6 39  1  0  0  0  0
  7  8  1  0  0  0  0
  7  9  1  0  0  0  0
  8 40  1  0  0  0  0
  8 41  1  0  0  0  0
  8 42  1  0  0  0  0
  9 14  1  0  0  0  0
  9 10  2  0  0  0  0
 10 11  1  0  0  0  0
 11 12  2  0  0  0  0
 11 43  1  0  0  0  0
 12 13  1  0  0  0  0
 13 17  1  0  0  0  0
 13 14  2  0  0  0  0
 14 15  1  0  0  0  0
 15 16  2  0  0  0  0
 16 17  1  0  0  0  0
 16 44  1  0  0  0  0
 17 18  1  0  0  0  0
 18 19  1  0  0  0  0
 18 45  1  0  0  0  0
 18 46  1  0  0  0  0
 19 20  1  0  0  0  0
 19 22  1  0  0  0  0
 19 47  1  0  0  0  0
 20 21  1  0  0  0  0
 20 48  1  0  0  0  0
 20 49  1  0  0  0  0
 21 50  1  0  0  0  0
 22 26  1  0  0  0  0
 22 23  1  0  0  0  0
 22 51  1  0  0  0  0
 23 24  1  0  0  0  0
 23 52  1  0  0  0  0
 23 53  1  0  0  0  0
 24 25  1  0  0  0  0
 24 54  1  0  0  0  0
 24 55  1  0  0  0  0
 25 26  1  0  0  0  0
 26 56  1  0  0  0  0
 26 57  1  0  0  0  0
 27 28  1  0  0  0  0
 27 58  1  0  0  0  0
 27 59  1  0  0  0  0
 28 29  1  0  0  0  0
 28 60  1  0  0  0  0
 29 61  1  0  0  0  0
 29 62  1  0  0  0  0
 29 63  1  0  0  0  0
M  CHG  1   3   1
M  END
> <s_m_source_file>
AV-unprocessed.smi

> <i_m_source_file_index>
249

> <i_lp_mmshare_version>
43012

> <i_f3d_flags>
0

> <s_epik_input>
W0NIM11bQ0gyXU4xW0NIMl1bQ0gyXVtDQEhdKFtDSDJdW0NASF0xW0NIM10pTihbQ0gzXSljKG5bY0hdbjIpYyhjMjMpbltjSF1uM1tDSDJdW0NASF0oW0NIMl1bT0hdKVtDQEBIXTRbQ0gyXVtDSDJdT1tDSDJdNA==

> <s_epik_cmdline>
J2VwaWtfcHl0aG9uJywgJy1waCcsICc3LjAnLCAnLXRuJywgJzgnLCAnLW1hJywgJzIwMCcsICctbWV0YWxfYmluZGluZycsICctaW1hZScsICc8aW5maWxlLm1hZT4nLCAnLW9tYWUnLCAnPG91dGZpbGUubWFlPic=

> <r_lp_tautomer_probability>
1

> <r_epik_Ionization_Penalty>
0.00294688

> <r_epik_Ionization_Penalty_Charging>
0.00169971

> <r_epik_Ionization_Penalty_Neutral>
0.00124717

> <r_epik_State_Penalty>
-0

> <r_epik_Charging_Adjusted_Penalty>
0.00169971

> <i_epik_Tot_Q>
1

> <i_epik_Tot_abs_Q>
1

> <r_epik_Metal_State_Penalty>
-0

> <b_epik_Metal_Only>
0

> <s_lp_Force_Field>
OPLS_2005

> <r_lp_Energy>
54.7906

> <b_lp_Chiralities_Consistent>
1

> <s_lp_Variant>
AV-unprocessed.smi:249-10

> <Gold.Version>
5.8.1

> <Gold.Id.Protein>
6NUR|6NUR_protein|mol2

> <Gold.PLP.Fitness>
49.0120

> <Gold.PLP.PLP>
-44.5956

> <Gold.PLP.part.hbond>
-2.1982

> <Gold.PLP.part.metal>
0.0000

> <Gold.PLP.part.buried>
-1.6149

> <Gold.PLP.part.nonpolar>
-42.0113

> <Gold.PLP.part.repulsive>
0.5351

> <Gold.PLP.ligand.clash>
0.0000

> <Gold.PLP.ligand.torsion>
2.3684

> <Gold.PLP.Chemscore.Hbond>
2.1934

> <Gold.PLP.Chemscore.CHOScore>
0.7563

> <Gold.PLP.Chemscore.Metal>
0.0000

> <Gold.Chemscore.Hbonds>
donor molecule, donor type, donor heavy atom, donor atom, acceptor molecule, acceptor atom, score
      L1  H     3    64       P1 10747  0.62
      L1  H    21    50       P1  8028  1.00
      P1  H  7954  7966       L1    15  0.02
      P1  H 10752 10764       L1    25  0.06
      L1  C    16    44       P1  7957  0.06

> <Gold.PLP.Chemscore.Internal.Correction>
0.3044

> <Gold.Rescore>
     Score         DG    S(hbond)    S(metal)    S(lipo)     H(rot)  DE(clash)    DE(int)     intcor
     14.31     -17.90       1.95        0.00     108.60       2.65       1.26       2.32       ----

> <Gold.Chemscore.Fitness>
14.3093

> <Gold.Chemscore.DG>
-17.8962

> <Gold.Chemscore.ZeroCoef>
-5.4800

> <Gold.Chemscore.Hbond>
1.9453

> <Gold.Chemscore.Metal>
0.0000

> <Gold.Chemscore.Lipo>
108.6044

> <Gold.Chemscore.Internal_Hbond>
0.0000

> <Gold.Chemscore.DEClash>
1.2626

> <Gold.Chemscore.DEInternal>
2.3242

> <Gold.Chemscore.Rot>
2.6515

> <Gold.Chemscore.Internal.Correction>
   9.000000E+99

> <Gold.Chemscore.Hbonds>
donor molecule, donor type, donor heavy atom, donor atom, acceptor molecule, acceptor atom, score
      L1  H     3    64       P1 10747  0.58
      L1  H    21    50       P1  8028  0.98

> <Gold.Chemscore.Hbond.Weighted>
-6.4974

> <Gold.Chemscore.Metal.Weighted>
-0.0000

> <Gold.Chemscore.Lipo.Weighted>
-12.7067

> <Gold.Chemscore.Internal_Hbond.Weighted>
0.0000

> <Gold.Chemscore.DEClash.Weighted>
1.2626

> <Gold.Chemscore.DEInternal.Weighted>
2.3242

> <Gold.Chemscore.Rot.Weighted>
6.7880

> <Gold.Chemscore.Internal.Correction.Weighted>
   9.000000E+99

> <Gold.Protein.RotatedTorsions>
[ 6907 6896 6895 6894 ] final  -51.18 input  -60.11 | X-H torsion
[ 7974 7965 7964 7962 ] final  -48.71 input  175.53 | X-H torsion
[ 8008 7997 7996 7995 ] final  -91.80 input   59.86 | X-H torsion
[ 10167 10162 10161 10158 ] final  163.76 input  -65.29 | X-H torsion
[ 10718 10713 10712 10709 ] final -125.35 input   66.30 | X-H torsion
[ 10763 10752 10751 10750 ] final  -72.71 input  -60.55 | X-H torsion
[ 11005 11000 10999 10996 ] final  109.39 input  -57.11 | X-H torsion

> <Gold.Protein.ActiveResidues>
 VAL166  LYS551  ARG553  GLY616  TRP617  ASP618  TYR619  PRO620  LYS621  CYS622 
 ASP623  PHE694  ASN695  SER759  ASP760  ASP761  ALA762  ILE779  LEU786  VAL792 
 PHE793  MET794  SER795  GLU796  ALA797  LYS798  CYS799  TRP800  GLU811  SER814 

> <Gold.Protein.RotatedAtoms>
  150.8636  134.7994  159.7101 H   0  0  0  0  0  0  0  0  0  0  0  0  # atno 6907 bound_to 6896
  152.4665  134.5059  159.9749 H   0  0  0  0  0  0  0  0  0  0  0  0  # atno 6908 bound_to 6896
  151.5159  133.3437  159.2928 H   0  0  0  0  0  0  0  0  0  0  0  0  # atno 6909 bound_to 6896
  145.9483  140.7597  142.9517 H   0  0  0  0  0  0  0  0  0  0  0  0  # atno 7974 bound_to 7965
  154.7153  140.0515  157.0588 H   0  0  0  0  0  0  0  0  0  0  0  0  # atno 8008 bound_to 7997
  155.0500  140.3178  155.4676 H   0  0  0  0  0  0  0  0  0  0  0  0  # atno 8009 bound_to 7997
  156.2801  140.2117  156.5626 H   0  0  0  0  0  0  0  0  0  0  0  0  # atno 8010 bound_to 7997
  139.4878  144.4304  151.9078 H   0  0  0  0  0  0  0  0  0  0  0  0  # atno 10167 bound_to 10162
  156.1667  130.6639  151.0125 H   0  0  0  0  0  0  0  0  0  0  0  0  # atno 10718 bound_to 10713
  154.4495  135.5921  153.6182 H   0  0  0  0  0  0  0  0  0  0  0  0  # atno 10763 bound_to 10752
  152.9812  135.6017  154.3623 H   0  0  0  0  0  0  0  0  0  0  0  0  # atno 10764 bound_to 10752
  154.3482  135.2841  155.2365 H   0  0  0  0  0  0  0  0  0  0  0  0  # atno 10765 bound_to 10752
  139.8861  134.9457  156.6118 H   0  0  0  0  0  0  0  0  0  0  0  0  # atno 11005 bound_to 11000
  144.6791  140.2393  143.7346 LP  0  0  0  0  0  0  0  0  0  0  0  0  # atno 17320 bound_to 7965
  145.8206  139.2042  143.1940 LP  0  0  0  0  0  0  0  0  0  0  0  0  # atno 17321 bound_to 7965
  140.3751  144.2806  150.5915 LP  0  0  0  0  0  0  0  0  0  0  0  0  # atno 17342 bound_to 10162
  140.5284  143.2249  151.8278 LP  0  0  0  0  0  0  0  0  0  0  0  0  # atno 17343 bound_to 10162
  157.6773  131.0847  150.7461 LP  0  0  0  0  0  0  0  0  0  0  0  0  # atno 17370 bound_to 10713
  156.7522  130.4772  149.5454 LP  0  0  0  0  0  0  0  0  0  0  0  0  # atno 17371 bound_to 10713
  140.7806  133.8663  155.8564 LP  0  0  0  0  0  0  0  0  0  0  0  0  # atno 17394 bound_to 11000
  140.9763  134.1464  157.4533 LP  0  0  0  0  0  0  0  0  0  0  0  0  # atno 17395 bound_to 11000

$$$$
