AV-unprocessed.smi:42|AV-procd|sdf|387|dock4
  -GOLD-   2262016243D 1   1.00000     0.00000
 Structure written by MMmdl.
 27 28  0  0  0  0  0  0  0  0  2 V2000
  152.8913  141.7216  159.3417 C   0  0  0  0  0  0  0  0  0  0  0  0
  151.5904  140.9712  159.0376 C   0  0  0  0  0  0  0  0  0  0  0  0
  151.3427  140.8255  157.5735 C   0  0  0  0  0  0  0  0  0  0  0  0
  152.0882  140.1626  156.6864 N   0  0  0  0  0  0  0  0  0  0  0  0
  151.4282  140.2754  155.4841 N   0  0  0  0  0  0  0  0  0  0  0  0
  150.3108  140.9646  155.7419 C   0  0  0  0  0  0  0  0  0  0  0  0
  149.2560  141.4200  154.7794 C   0  0  1  0  0  0  0  0  0  0  0  0
  148.4243  140.2964  154.1591 C   0  0  0  0  0  0  0  0  0  0  0  0
  147.0802  140.9812  153.9305 C   0  0  1  0  0  0  0  0  0  0  0  0
  146.0198  140.0538  153.8387 O   0  0  0  0  0  0  0  0  0  0  0  0
  146.9400  141.9016  155.1492 C   0  0  0  0  0  0  0  0  0  0  0  0
  148.3148  142.2408  155.5701 N   0  3  0  0  0  0  0  0  0  0  0  0
  150.2078  141.3484  157.0407 O   0  0  0  0  0  0  0  0  0  0  0  0
  149.6996  142.0443  154.0026 H   0  0  0  0  0  0  0  0  0  0  0  0
  147.1223  141.5783  153.0184 H   0  0  0  0  0  0  0  0  0  0  0  0
  153.0476  141.8078  160.4171 H   0  0  0  0  0  0  0  0  0  0  0  0
  152.8695  142.7295  158.9259 H   0  0  0  0  0  0  0  0  0  0  0  0
  153.7530  141.2031  158.9201 H   0  0  0  0  0  0  0  0  0  0  0  0
  151.6185  139.9783  159.4880 H   0  0  0  0  0  0  0  0  0  0  0  0
  150.7453  141.4947  159.4860 H   0  0  0  0  0  0  0  0  0  0  0  0
  148.8682  139.8822  153.2534 H   0  0  0  0  0  0  0  0  0  0  0  0
  148.3025  139.4828  154.8770 H   0  0  0  0  0  0  0  0  0  0  0  0
  145.2572  140.4958  153.4967 H   0  0  0  0  0  0  0  0  0  0  0  0
  146.3546  142.7948  154.9299 H   0  0  0  0  0  0  0  0  0  0  0  0
  146.4584  141.3790  155.9770 H   0  0  0  0  0  0  0  0  0  0  0  0
  148.4203  142.0175  156.5501 H   0  0  0  0  0  0  0  0  0  0  0  0
  148.5048  143.2215  155.4217 H   0  0  0  0  0  0  0  0  0  0  0  0
  1  2  1  0  0  0  0
  1 16  1  0  0  0  0
  1 17  1  0  0  0  0
  1 18  1  0  0  0  0
  2  3  1  0  0  0  0
  2 19  1  0  0  0  0
  2 20  1  0  0  0  0
  3 13  1  0  0  0  0
  3  4  2  0  0  0  0
  4  5  1  0  0  0  0
  5  6  2  0  0  0  0
  6  7  1  0  0  0  0
  6 13  1  0  0  0  0
  7 14  1  0  0  0  0
  7 12  1  0  0  0  0
  7  8  1  0  0  0  0
  8  9  1  0  0  0  0
  8 21  1  0  0  0  0
  8 22  1  0  0  0  0
  9 15  1  0  0  0  0
  9 10  1  0  0  0  0
  9 11  1  0  0  0  0
 10 23  1  0  0  0  0
 11 12  1  0  0  0  0
 11 24  1  0  0  0  0
 11 25  1  0  0  0  0
 12 26  1  0  0  0  0
 12 27  1  0  0  0  0
M  CHG  1  12   1
M  END
> <s_m_source_file>
AV-unprocessed.smi

> <i_m_source_file_index>
42

> <i_lp_mmshare_version>
43012

> <i_f3d_flags>
0

> <s_epik_input>
W0NIM11bQ0gyXWMxbm5jKG8xKVtDQEhdMltDSDJdW0NAQEhdKFtPSF0pW0NIMl1bTkhdMg==

> <s_epik_cmdline>
J2VwaWtfcHl0aG9uJywgJy1waCcsICc3LjAnLCAnLXRuJywgJzgnLCAnLW1hJywgJzIwMCcsICctbWV0YWxfYmluZGluZycsICctaW1hZScsICc8aW5maWxlLm1hZT4nLCAnLW9tYWUnLCAnPG91dGZpbGUubWFlPic=

> <r_lp_tautomer_probability>
1

> <r_epik_Ionization_Penalty>
0.00247063

> <r_epik_Ionization_Penalty_Charging>
0.0024706

> <r_epik_Ionization_Penalty_Neutral>
3.27814e-08

> <r_epik_State_Penalty>
0.00171198

> <r_epik_Charging_Adjusted_Penalty>
0.00418258

> <i_epik_Tot_Q>
1

> <i_epik_Tot_abs_Q>
1

> <r_epik_Metal_State_Penalty>
-0

> <b_epik_Metal_Only>
0

> <s_lp_Force_Field>
OPLS_2005

> <r_lp_Energy>
18.1915

> <b_lp_Chiralities_Consistent>
1

> <s_lp_Variant>
AV-unprocessed.smi:42-1

> <Gold.Version>
5.8.1

> <Gold.Id.Protein>
6NUR|6NUR_protein|mol2

> <Gold.PLP.Fitness>
37.9271

> <Gold.PLP.PLP>
-24.4160

> <Gold.PLP.part.hbond>
-3.6125

> <Gold.PLP.part.metal>
0.0000

> <Gold.PLP.part.buried>
-2.7403

> <Gold.PLP.part.nonpolar>
-18.0953

> <Gold.PLP.part.repulsive>
0.1984

> <Gold.PLP.ligand.clash>
0.0000

> <Gold.PLP.ligand.torsion>
0.0584

> <Gold.PLP.Chemscore.Hbond>
4.5293

> <Gold.PLP.Chemscore.CHOScore>
0.0000

> <Gold.PLP.Chemscore.Metal>
0.0000

> <Gold.Chemscore.Hbonds>
donor molecule, donor type, donor heavy atom, donor atom, acceptor molecule, acceptor atom, score
      L1  H    10    23       P1 10175  1.00
      L1  H    12    27       P1  8028  2.00
      P1  H  7989  7998       L1     5  0.72
      P1  H  7997  8010       L1     4  0.41

> <Gold.PLP.Chemscore.Internal.Correction>
0.0402

> <Gold.Rescore>
     Score         DG    S(hbond)    S(metal)    S(lipo)     H(rot)  DE(clash)    DE(int)     intcor
     15.84     -16.24       3.19        0.00      41.43       1.86       0.28       0.12       ----

> <Gold.Chemscore.Fitness>
15.8447

> <Gold.Chemscore.DG>
-16.2430

> <Gold.Chemscore.ZeroCoef>
-5.4800

> <Gold.Chemscore.Hbond>
3.1943

> <Gold.Chemscore.Metal>
0.0000

> <Gold.Chemscore.Lipo>
41.4290

> <Gold.Chemscore.Internal_Hbond>
0.0000

> <Gold.Chemscore.DEClash>
0.2810

> <Gold.Chemscore.DEInternal>
0.1173

> <Gold.Chemscore.Rot>
1.8567

> <Gold.Chemscore.Internal.Correction>
   9.000000E+99

> <Gold.Chemscore.Hbonds>
donor molecule, donor type, donor heavy atom, donor atom, acceptor molecule, acceptor atom, score
      L1  H    10    23       P1 10175  0.94
      L1  H    12    27       P1  8028  0.95
      P1  H  7989  7998       L1     5  0.11
      P1  H  7997  8010       L1     4  0.29

> <Gold.Chemscore.Hbond.Weighted>
-10.6689

> <Gold.Chemscore.Metal.Weighted>
-0.0000

> <Gold.Chemscore.Lipo.Weighted>
-4.8472

> <Gold.Chemscore.Internal_Hbond.Weighted>
0.0000

> <Gold.Chemscore.DEClash.Weighted>
0.2810

> <Gold.Chemscore.DEInternal.Weighted>
0.1173

> <Gold.Chemscore.Rot.Weighted>
4.7531

> <Gold.Chemscore.Internal.Correction.Weighted>
   9.000000E+99

> <Gold.Protein.RotatedTorsions>
[ 6907 6896 6895 6894 ] final   24.80 input  -60.11 | X-H torsion
[ 7974 7965 7964 7962 ] final   -4.11 input  175.53 | X-H torsion
[ 8008 7997 7996 7995 ] final   78.16 input   59.86 | X-H torsion
[ 10167 10162 10161 10158 ] final   76.59 input  -65.29 | X-H torsion
[ 10718 10713 10712 10709 ] final  178.96 input   66.30 | X-H torsion
[ 10763 10752 10751 10750 ] final   42.92 input  -60.55 | X-H torsion
[ 11005 11000 10999 10996 ] final   28.55 input  -57.11 | X-H torsion

> <Gold.Protein.ActiveResidues>
 VAL166  LYS551  ARG553  GLY616  TRP617  ASP618  TYR619  PRO620  LYS621  CYS622 
 ASP623  PHE694  ASN695  SER759  ASP760  ASP761  ALA762  ILE779  LEU786  VAL792 
 PHE793  MET794  SER795  GLU796  ALA797  LYS798  CYS799  TRP800  GLU811  SER814 

> <Gold.Protein.RotatedAtoms>
  151.9629  135.0114  160.0548 H   0  0  0  0  0  0  0  0  0  0  0  0  # atno 6907 bound_to 6896
  152.1852  133.4730  159.4987 H   0  0  0  0  0  0  0  0  0  0  0  0  # atno 6908 bound_to 6896
  150.6924  134.1700  159.4251 H   0  0  0  0  0  0  0  0  0  0  0  0  # atno 6909 bound_to 6896
  146.2378  140.1822  142.8332 H   0  0  0  0  0  0  0  0  0  0  0  0  # atno 7974 bound_to 7965
  155.8519  140.3458  155.5699 H   0  0  0  0  0  0  0  0  0  0  0  0  # atno 8008 bound_to 7997
  155.8029  140.0887  157.1967 H   0  0  0  0  0  0  0  0  0  0  0  0  # atno 8009 bound_to 7997
  154.4008  140.1462  156.3283 H   0  0  0  0  0  0  0  0  0  0  0  0  # atno 8010 bound_to 7997
  139.9906  144.5760  150.7821 H   0  0  0  0  0  0  0  0  0  0  0  0  # atno 10167 bound_to 10162
  156.8829  130.9822  151.3059 H   0  0  0  0  0  0  0  0  0  0  0  0  # atno 10718 bound_to 10713
  152.9872  135.6117  154.3028 H   0  0  0  0  0  0  0  0  0  0  0  0  # atno 10763 bound_to 10752
  154.2747  135.2778  155.2725 H   0  0  0  0  0  0  0  0  0  0  0  0  # atno 10764 bound_to 10752
  154.5091  135.5846  153.6647 H   0  0  0  0  0  0  0  0  0  0  0  0  # atno 10765 bound_to 10752
  140.3143  134.2614  155.7728 H   0  0  0  0  0  0  0  0  0  0  0  0  # atno 11005 bound_to 11000
  144.9925  140.8560  143.5331 LP  0  0  0  0  0  0  0  0  0  0  0  0  # atno 17320 bound_to 7965
  145.1830  139.2341  143.5282 LP  0  0  0  0  0  0  0  0  0  0  0  0  # atno 17321 bound_to 7965
  140.7456  143.2878  151.3415 LP  0  0  0  0  0  0  0  0  0  0  0  0  # atno 17342 bound_to 10162
  139.6343  144.0661  152.2502 LP  0  0  0  0  0  0  0  0  0  0  0  0  # atno 17343 bound_to 10162
  157.6130  130.8597  149.8982 LP  0  0  0  0  0  0  0  0  0  0  0  0  # atno 17370 bound_to 10713
  156.0668  130.3691  150.0861 LP  0  0  0  0  0  0  0  0  0  0  0  0  # atno 17371 bound_to 10713
  141.2101  133.7729  156.9954 LP  0  0  0  0  0  0  0  0  0  0  0  0  # atno 17394 bound_to 11000
  140.0997  134.9543  157.1904 LP  0  0  0  0  0  0  0  0  0  0  0  0  # atno 17395 bound_to 11000

$$$$
