AV-unprocessed.smi:34|AV-procd|sdf|217|dock3
  -GOLD-   2262015523D 1   1.00000     0.00000
 Structure written by MMmdl.
 55 59  0  0  0  0  0  0  0  0  1 V2000
  153.8791  139.4869  158.9801 O   0  0  0  0  0  0  0  0  0  0  0  0
  153.8093  139.9199  160.1306 C   0  0  0  0  0  0  0  0  0  0  0  0
  154.1527  139.1064  161.2841 N   0  0  0  0  0  0  0  0  0  0  0  0
  154.6441  137.8448  161.3010 C   0  0  0  0  0  0  0  0  0  0  0  0
  154.8672  137.1333  160.1648 N   0  0  0  0  0  0  0  0  0  0  0  0
  155.3502  135.8897  160.2339 C   0  0  0  0  0  0  0  0  0  0  0  0
  155.6719  135.1801  161.3172 N   0  0  0  0  0  0  0  0  0  0  0  0
  155.4537  135.8866  162.4629 C   0  0  0  0  0  0  0  0  0  0  0  0
  154.9468  137.2143  162.5362 C   0  0  0  0  0  0  0  0  0  0  0  0
  154.8588  137.6112  163.8638 N   0  0  0  0  0  0  0  0  0  0  0  0
  155.2906  136.5755  164.5320 C   0  0  0  0  0  0  0  0  0  0  0  0
  155.6623  135.4909  163.7687 N   0  0  0  0  0  0  0  0  0  0  0  0
  156.1890  134.1798  164.2558 C   0  0  2  0  0  0  0  0  0  0  0  0
  155.2927  133.1777  163.8761 O   0  0  0  0  0  0  0  0  0  0  0  0
  155.1079  132.2419  164.9415 C   0  0  2  0  0  0  0  0  0  0  0  0
  153.6509  132.3002  165.4224 C   0  0  0  0  0  0  0  0  0  0  0  0
  153.3741  131.1700  166.2336 O   0  0  0  0  0  0  0  0  0  0  0  0
  152.4656  130.2591  165.8322 C   0  0  0  0  0  0  0  0  0  0  0  0
  152.0644  130.1619  164.6707 O   0  0  0  0  0  0  0  0  0  0  0  0
  151.9938  129.3811  166.9419 C   0  0  0  0  0  0  0  0  0  0  0  0
  152.4831  129.5965  168.2516 C   0  0  0  0  0  0  0  0  0  0  0  0
  152.0575  128.7823  169.3194 C   0  0  0  0  0  0  0  0  0  0  0  0
  151.1379  127.7425  169.0905 C   0  0  0  0  0  0  0  0  0  0  0  0
  150.6440  127.5176  167.7922 C   0  0  0  0  0  0  0  0  0  0  0  0
  151.0681  128.3310  166.7231 C   0  0  0  0  0  0  0  0  0  0  0  0
  156.1169  132.6474  166.0201 C   0  0  1  0  0  0  0  0  0  0  0  0
  157.2596  132.0015  165.7692 F   0  0  0  0  0  0  0  0  0  0  0  0
  156.2746  134.1395  165.7810 C   0  0  1  0  0  0  0  0  0  0  0  0
  157.5075  134.6003  166.2964 O   0  0  0  0  0  0  0  0  0  0  0  0
  153.2847  141.2956  160.4247 C   0  0  0  0  0  0  0  0  0  0  0  0
  152.6635  142.0481  159.4025 C   0  0  0  0  0  0  0  0  0  0  0  0
  152.1851  143.3468  159.6629 C   0  0  0  0  0  0  0  0  0  0  0  0
  152.3289  143.9070  160.9462 C   0  0  0  0  0  0  0  0  0  0  0  0
  152.9558  143.1690  161.9679 C   0  0  0  0  0  0  0  0  0  0  0  0
  153.4357  141.8704  161.7083 C   0  0  0  0  0  0  0  0  0  0  0  0
  154.0227  139.5420  162.1856 H   0  0  0  0  0  0  0  0  0  0  0  0
  155.4993  135.3920  159.2870 H   0  0  0  0  0  0  0  0  0  0  0  0
  155.3462  136.5734  165.6109 H   0  0  0  0  0  0  0  0  0  0  0  0
  157.1483  134.0345  163.7565 H   0  0  0  0  0  0  0  0  0  0  0  0
  155.3181  131.2396  164.5649 H   0  0  0  0  0  0  0  0  0  0  0  0
  153.4656  133.2168  165.9827 H   0  0  0  0  0  0  0  0  0  0  0  0
  152.9769  132.2949  164.5648 H   0  0  0  0  0  0  0  0  0  0  0  0
  153.1902  130.3886  168.4517 H   0  0  0  0  0  0  0  0  0  0  0  0
  152.4381  128.9563  170.3152 H   0  0  0  0  0  0  0  0  0  0  0  0
  150.8117  127.1183  169.9094 H   0  0  0  0  0  0  0  0  0  0  0  0
  149.9383  126.7194  167.6149 H   0  0  0  0  0  0  0  0  0  0  0  0
  150.6696  128.1307  165.7392 H   0  0  0  0  0  0  0  0  0  0  0  0
  155.8099  132.3935  167.0353 H   0  0  0  0  0  0  0  0  0  0  0  0
  155.4411  134.6861  166.2236 H   0  0  0  0  0  0  0  0  0  0  0  0
  158.0866  134.7795  165.5713 H   0  0  0  0  0  0  0  0  0  0  0  0
  152.5461  141.6331  158.4115 H   0  0  0  0  0  0  0  0  0  0  0  0
  151.7081  143.9136  158.8770 H   0  0  0  0  0  0  0  0  0  0  0  0
  151.9619  144.9030  161.1459 H   0  0  0  0  0  0  0  0  0  0  0  0
  153.0722  143.6010  162.9510 H   0  0  0  0  0  0  0  0  0  0  0  0
  153.9227  141.3261  162.5042 H   0  0  0  0  0  0  0  0  0  0  0  0
  1  2  2  0  0  0  0
  2  3  1  0  0  0  0
  2 30  1  0  0  0  0
  3  4  1  0  0  0  0
  3 36  1  0  0  0  0
  4  9  1  0  0  0  0
  4  5  2  0  0  0  0
  5  6  1  0  0  0  0
  6  7  2  0  0  0  0
  6 37  1  0  0  0  0
  7  8  1  0  0  0  0
  8 12  1  0  0  0  0
  8  9  2  0  0  0  0
  9 10  1  0  0  0  0
 10 11  2  0  0  0  0
 11 12  1  0  0  0  0
 11 38  1  0  0  0  0
 12 13  1  0  0  0  0
 13 28  1  0  0  0  0
 13 14  1  0  0  0  0
 13 39  1  0  0  0  0
 14 15  1  0  0  0  0
 15 16  1  0  0  0  0
 15 26  1  0  0  0  0
 15 40  1  0  0  0  0
 16 17  1  0  0  0  0
 16 41  1  0  0  0  0
 16 42  1  0  0  0  0
 17 18  1  0  0  0  0
 18 19  2  0  0  0  0
 18 20  1  0  0  0  0
 20 25  1  0  0  0  0
 20 21  2  0  0  0  0
 21 22  1  0  0  0  0
 21 43  1  0  0  0  0
 22 23  2  0  0  0  0
 22 44  1  0  0  0  0
 23 24  1  0  0  0  0
 23 45  1  0  0  0  0
 24 25  2  0  0  0  0
 24 46  1  0  0  0  0
 25 47  1  0  0  0  0
 26 27  1  0  0  0  0
 26 28  1  0  0  0  0
 26 48  1  0  0  0  0
 28 29  1  0  0  0  0
 28 49  1  0  0  0  0
 29 50  1  0  0  0  0
 30 35  1  0  0  0  0
 30 31  2  0  0  0  0
 31 32  1  0  0  0  0
 31 51  1  0  0  0  0
 32 33  2  0  0  0  0
 32 52  1  0  0  0  0
 33 34  1  0  0  0  0
 33 53  1  0  0  0  0
 34 35  2  0  0  0  0
 34 54  1  0  0  0  0
 35 55  1  0  0  0  0
M  END
> <s_m_source_file>
AV-unprocessed.smi

> <i_m_source_file_index>
34

> <i_lp_mmshare_version>
43012

> <i_f3d_flags>
0

> <s_epik_input>
W2NIXTFbY0hdW2NIXVtjSF1bY0hdYzFDKD1PKVtOSF1jKG5bY0hdbjIpYyhjMjMpbltjSF1uM1tDQEBIXTRPW0NASF0oW0NAQEhdKEYpW0NASF00W09IXSlbQ0gyXU9DKD1PKWM1W2NIXVtjSF1bY0hdW2NIXVtjSF01

> <s_epik_cmdline>
J2VwaWtfcHl0aG9uJywgJy1waCcsICc3LjAnLCAnLXRuJywgJzgnLCAnLW1hJywgJzIwMCcsICctbWV0YWxfYmluZGluZycsICctaW1hZScsICc8aW5maWxlLm1hZT4nLCAnLW9tYWUnLCAnPG91dGZpbGUubWFlPic=

> <r_lp_tautomer_probability>
1

> <r_epik_Ionization_Penalty>
0.00257489

> <r_epik_Ionization_Penalty_Charging>
0

> <r_epik_Ionization_Penalty_Neutral>
0.00257489

> <r_epik_State_Penalty>
0.00519398

> <r_epik_Charging_Adjusted_Penalty>
0.00519398

> <i_epik_Tot_Q>
0

> <i_epik_Tot_abs_Q>
0

> <r_epik_Metal_State_Penalty>
0.335891

> <b_epik_Metal_Only>
0

> <s_epik_Chemistry_Notes>
This compound has an ester and may undergo hydrolysis at high or low pH. This compound contains an acetal/aminal-like group ( X-CH(R)-Y where X, Y are N, S, or O) that may be acid/base labile, releasing an aldehyde.

> <s_lp_Force_Field>
OPLS_2005

> <r_lp_Energy>
51.1648

> <b_lp_Chiralities_Consistent>
1

> <s_lp_Variant>
AV-unprocessed.smi:34-3

> <Gold.Version>
5.8.1

> <Gold.Id.Protein>
6NUR|6NUR_protein|mol2

> <Gold.PLP.Fitness>
63.5005

> <Gold.PLP.PLP>
-61.8733

> <Gold.PLP.part.hbond>
-1.7624

> <Gold.PLP.part.metal>
0.0000

> <Gold.PLP.part.buried>
-8.0022

> <Gold.PLP.part.nonpolar>
-52.5214

> <Gold.PLP.part.repulsive>
0.1994

> <Gold.PLP.ligand.clash>
0.0000

> <Gold.PLP.ligand.torsion>
0.8006

> <Gold.PLP.Chemscore.Hbond>
1.0000

> <Gold.PLP.Chemscore.CHOScore>
0.0000

> <Gold.PLP.Chemscore.Metal>
0.0000

> <Gold.Chemscore.Hbonds>
donor molecule, donor type, donor heavy atom, donor atom, acceptor molecule, acceptor atom, score
      P1  H  7997  8008       L1     1  0.80

> <Gold.PLP.Chemscore.Internal.Correction>
0.2285

> <Gold.Rescore>
     Score         DG    S(hbond)    S(metal)    S(lipo)     H(rot)  DE(clash)    DE(int)     intcor
     17.20     -19.56       0.99        0.00     151.66       2.72       0.09       2.28       ----

> <Gold.Chemscore.Fitness>
17.1951

> <Gold.Chemscore.DG>
-19.5593

> <Gold.Chemscore.ZeroCoef>
-5.4800

> <Gold.Chemscore.Hbond>
0.9886

> <Gold.Chemscore.Metal>
0.0000

> <Gold.Chemscore.Lipo>
151.6616

> <Gold.Chemscore.Internal_Hbond>
0.0000

> <Gold.Chemscore.DEClash>
0.0886

> <Gold.Chemscore.DEInternal>
2.2756

> <Gold.Chemscore.Rot>
2.7215

> <Gold.Chemscore.Internal.Correction>
   9.000000E+99

> <Gold.Chemscore.Hbonds>
donor molecule, donor type, donor heavy atom, donor atom, acceptor molecule, acceptor atom, score
      P1  H  7997  8008       L1     1  0.77

> <Gold.Chemscore.Hbond.Weighted>
-3.3020

> <Gold.Chemscore.Metal.Weighted>
-0.0000

> <Gold.Chemscore.Lipo.Weighted>
-17.7444

> <Gold.Chemscore.Internal_Hbond.Weighted>
0.0000

> <Gold.Chemscore.DEClash.Weighted>
0.0886

> <Gold.Chemscore.DEInternal.Weighted>
2.2756

> <Gold.Chemscore.Rot.Weighted>
6.9670

> <Gold.Chemscore.Internal.Correction.Weighted>
   9.000000E+99

> <Gold.Protein.RotatedTorsions>
[ 6907 6896 6895 6894 ] final  -52.85 input  -60.11 | X-H torsion
[ 7974 7965 7964 7962 ] final  -42.15 input  175.53 | X-H torsion
[ 8008 7997 7996 7995 ] final  -89.70 input   59.86 | X-H torsion
[ 10167 10162 10161 10158 ] final  -37.49 input  -65.29 | X-H torsion
[ 10718 10713 10712 10709 ] final -158.07 input   66.30 | X-H torsion
[ 10763 10752 10751 10750 ] final  179.13 input  -60.55 | X-H torsion
[ 11005 11000 10999 10996 ] final -178.10 input  -57.11 | X-H torsion

> <Gold.Protein.ActiveResidues>
 VAL166  LYS551  ARG553  GLY616  TRP617  ASP618  TYR619  PRO620  LYS621  CYS622 
 ASP623  PHE694  ASN695  SER759  ASP760  ASP761  ALA762  ILE779  LEU786  VAL792 
 PHE793  MET794  SER795  GLU796  ALA797  LYS798  CYS799  TRP800  GLU811  SER814 

> <Gold.Protein.RotatedAtoms>
  150.8480  134.7796  159.6985 H   0  0  0  0  0  0  0  0  0  0  0  0  # atno 6907 bound_to 6896
  152.4552  134.5303  159.9819 H   0  0  0  0  0  0  0  0  0  0  0  0  # atno 6908 bound_to 6896
  151.5430  133.3392  159.2974 H   0  0  0  0  0  0  0  0  0  0  0  0  # atno 6909 bound_to 6896
  146.0143  140.6927  142.9209 H   0  0  0  0  0  0  0  0  0  0  0  0  # atno 7974 bound_to 7965
  154.6897  140.0539  157.0350 H   0  0  0  0  0  0  0  0  0  0  0  0  # atno 8008 bound_to 7997
  155.0835  140.3212  155.4576 H   0  0  0  0  0  0  0  0  0  0  0  0  # atno 8009 bound_to 7997
  156.2724  140.2061  156.5962 H   0  0  0  0  0  0  0  0  0  0  0  0  # atno 8010 bound_to 7997
  140.7117  143.3339  151.2508 H   0  0  0  0  0  0  0  0  0  0  0  0  # atno 10167 bound_to 10162
  156.5491  130.8597  151.2774 H   0  0  0  0  0  0  0  0  0  0  0  0  # atno 10718 bound_to 10713
  154.5166  135.2791  155.1298 H   0  0  0  0  0  0  0  0  0  0  0  0  # atno 10763 bound_to 10752
  154.2872  135.6274  153.5374 H   0  0  0  0  0  0  0  0  0  0  0  0  # atno 10764 bound_to 10752
  152.9929  135.5665  154.5645 H   0  0  0  0  0  0  0  0  0  0  0  0  # atno 10765 bound_to 10752
  140.4335  134.6497  157.4723 H   0  0  0  0  0  0  0  0  0  0  0  0  # atno 11005 bound_to 11000
  144.6965  140.3453  143.7191 LP  0  0  0  0  0  0  0  0  0  0  0  0  # atno 17320 bound_to 7965
  145.7293  139.1731  143.2439 LP  0  0  0  0  0  0  0  0  0  0  0  0  # atno 17321 bound_to 7965
  139.6828  143.9825  152.2818 LP  0  0  0  0  0  0  0  0  0  0  0  0  # atno 17342 bound_to 10162
  139.9461  144.6651  150.8218 LP  0  0  0  0  0  0  0  0  0  0  0  0  # atno 17343 bound_to 10162
  157.7391  130.9825  150.2292 LP  0  0  0  0  0  0  0  0  0  0  0  0  # atno 17370 bound_to 10713
  156.2901  130.3744  149.7850 LP  0  0  0  0  0  0  0  0  0  0  0  0  # atno 17371 bound_to 10713
  140.0118  134.6679  155.9369 LP  0  0  0  0  0  0  0  0  0  0  0  0  # atno 17394 bound_to 11000
  141.1735  133.6538  156.4742 LP  0  0  0  0  0  0  0  0  0  0  0  0  # atno 17395 bound_to 11000

$$$$
