AV-unprocessed.smi:3048|AV-procd|sdf|11628|dock6
  -GOLD-   2272017 13D 1   1.00000     0.00000
 Structure written by MMmdl.
 37 38  0  0  0  0  0  0  0  0  1 V2000
  153.3965  142.5232  163.4205 C   0  0  0  0  0  0  0  0  0  0  0  0
  152.9546  142.8858  162.0321 C   0  0  0  0  0  0  0  0  0  0  0  0
  153.0460  142.0955  160.8510 C   0  0  0  0  0  0  0  0  0  0  0  0
  152.5678  142.7107  159.7817 N   0  0  0  0  0  0  0  0  0  0  0  0
  152.1562  143.9116  160.2403 N   0  0  0  0  0  0  0  0  0  0  0  0
  151.5709  144.8732  159.3238 C   0  0  0  0  0  0  0  0  0  0  0  0
  151.5504  144.3623  157.8741 C   0  0  0  0  0  0  0  0  0  0  0  0
  150.3805  143.5270  157.6169 N   0  0  0  0  0  0  0  0  0  0  0  0
  150.6516  142.0977  157.7257 C   0  0  0  0  0  0  0  0  0  0  0  0
  150.7737  141.4500  156.3381 C   0  0  1  0  0  0  0  0  0  0  0  0
  151.2456  139.9860  156.4328 C   0  0  0  0  0  0  0  0  0  0  0  0
  151.2723  139.3361  155.0443 C   0  0  0  0  0  0  0  0  0  0  0  0
  149.9103  139.5121  154.3644 C   0  0  0  0  0  0  0  0  0  0  0  0
  149.4940  140.9912  154.3804 C   0  0  0  0  0  0  0  0  0  0  0  0
  149.4887  141.4773  155.7192 O   0  0  0  0  0  0  0  0  0  0  0  0
  152.3760  144.0436  161.5950 C   0  0  0  0  0  0  0  0  0  0  0  0
  153.3509  141.4474  163.5912 H   0  0  0  0  0  0  0  0  0  0  0  0
  152.7723  142.9951  164.1797 H   0  0  0  0  0  0  0  0  0  0  0  0
  154.4239  142.8358  163.6080 H   0  0  0  0  0  0  0  0  0  0  0  0
  153.4449  141.0980  160.7398 H   0  0  0  0  0  0  0  0  0  0  0  0
  150.5541  145.0882  159.6555 H   0  0  0  0  0  0  0  0  0  0  0  0
  152.1258  145.8099  159.3928 H   0  0  0  0  0  0  0  0  0  0  0  0
  151.5674  145.2095  157.1874 H   0  0  0  0  0  0  0  0  0  0  0  0
  152.4587  143.7900  157.6827 H   0  0  0  0  0  0  0  0  0  0  0  0
  150.0108  143.7336  156.6943 H   0  0  0  0  0  0  0  0  0  0  0  0
  151.5873  141.9534  158.2677 H   0  0  0  0  0  0  0  0  0  0  0  0
  149.8743  141.6005  158.3073 H   0  0  0  0  0  0  0  0  0  0  0  0
  151.4852  142.0179  155.7350 H   0  0  0  0  0  0  0  0  0  0  0  0
  152.2370  139.9364  156.8842 H   0  0  0  0  0  0  0  0  0  0  0  0
  150.5759  139.4248  157.0859 H   0  0  0  0  0  0  0  0  0  0  0  0
  152.0491  139.8013  154.4363 H   0  0  0  0  0  0  0  0  0  0  0  0
  151.5253  138.2782  155.1227 H   0  0  0  0  0  0  0  0  0  0  0  0
  149.9476  139.1394  153.3404 H   0  0  0  0  0  0  0  0  0  0  0  0
  149.1597  138.9181  154.8872 H   0  0  0  0  0  0  0  0  0  0  0  0
  150.1660  141.5927  153.7662 H   0  0  0  0  0  0  0  0  0  0  0  0
  148.4943  141.1039  153.9606 H   0  0  0  0  0  0  0  0  0  0  0  0
  152.1088  144.9437  162.1291 H   0  0  0  0  0  0  0  0  0  0  0  0
  1  2  1  0  0  0  0
  1 17  1  0  0  0  0
  1 18  1  0  0  0  0
  1 19  1  0  0  0  0
  2 16  2  0  0  0  0
  2  3  1  0  0  0  0
  3  4  2  0  0  0  0
  3 20  1  0  0  0  0
  4  5  1  0  0  0  0
  5  6  1  0  0  0  0
  5 16  1  0  0  0  0
  6  7  1  0  0  0  0
  6 21  1  0  0  0  0
  6 22  1  0  0  0  0
  7  8  1  0  0  0  0
  7 23  1  0  0  0  0
  7 24  1  0  0  0  0
  8  9  1  0  0  0  0
  8 25  1  0  0  0  0
  9 10  1  0  0  0  0
  9 26  1  0  0  0  0
  9 27  1  0  0  0  0
 10 15  1  0  0  0  0
 10 11  1  0  0  0  0
 10 28  1  0  0  0  0
 11 12  1  0  0  0  0
 11 29  1  0  0  0  0
 11 30  1  0  0  0  0
 12 13  1  0  0  0  0
 12 31  1  0  0  0  0
 12 32  1  0  0  0  0
 13 14  1  0  0  0  0
 13 33  1  0  0  0  0
 13 34  1  0  0  0  0
 14 15  1  0  0  0  0
 14 35  1  0  0  0  0
 14 36  1  0  0  0  0
 16 37  1  0  0  0  0
M  END
> <s_m_source_file>
AV-unprocessed.smi

> <i_m_source_file_index>
3048

> <i_lp_mmshare_version>
43012

> <i_f3d_flags>
0

> <s_epik_input>
W0NIM11jMVtjSF1ubihbY0hdMSlbQ0gyXVtDSDJdW05IXVtDSDJdW0NAQEhdMltDSDJdW0NIMl1bQ0gyXVtDSDJdTzI=

> <s_epik_cmdline>
J2VwaWtfcHl0aG9uJywgJy1waCcsICc3LjAnLCAnLXRuJywgJzgnLCAnLW1hJywgJzIwMCcsICctbWV0YWxfYmluZGluZycsICctaW1hZScsICc8aW5maWxlLm1hZT4nLCAnLW9tYWUnLCAnPG91dGZpbGUubWFlPic=

> <r_lp_tautomer_probability>
1

> <r_epik_Ionization_Penalty>
2.52229

> <r_epik_Ionization_Penalty_Charging>
0

> <r_epik_Ionization_Penalty_Neutral>
2.52229

> <r_epik_State_Penalty>
2.68614

> <r_epik_Charging_Adjusted_Penalty>
2.68614

> <i_epik_Tot_Q>
0

> <i_epik_Tot_abs_Q>
0

> <r_epik_Metal_State_Penalty>
2.68365

> <b_epik_Metal_Only>
0

> <s_lp_Force_Field>
OPLS_2005

> <r_lp_Energy>
12.9812

> <b_lp_Chiralities_Consistent>
1

> <s_lp_Variant>
AV-unprocessed.smi:3048-4

> <Gold.Version>
5.8.1

> <Gold.Id.Protein>
6NUR|6NUR_protein|mol2

> <Gold.PLP.Fitness>
47.2662

> <Gold.PLP.PLP>
-45.7746

> <Gold.PLP.part.hbond>
-1.0000

> <Gold.PLP.part.metal>
0.0000

> <Gold.PLP.part.buried>
-4.0708

> <Gold.PLP.part.nonpolar>
-39.5199

> <Gold.PLP.part.repulsive>
0.0968

> <Gold.PLP.ligand.clash>
0.0000

> <Gold.PLP.ligand.torsion>
0.7320

> <Gold.PLP.Chemscore.Hbond>
0.9760

> <Gold.PLP.Chemscore.CHOScore>
0.0000

> <Gold.PLP.Chemscore.Metal>
0.0000

> <Gold.Chemscore.Hbonds>
donor molecule, donor type, donor heavy atom, donor atom, acceptor molecule, acceptor atom, score
      L1  H     8    25       P1  8028  0.96

> <Gold.PLP.Chemscore.Internal.Correction>
0.0276

> <Gold.Rescore>
     Score         DG    S(hbond)    S(metal)    S(lipo)     H(rot)  DE(clash)    DE(int)     intcor
     16.28     -18.36       0.97        0.00     116.18       1.54       0.08       2.00       ----

> <Gold.Chemscore.Fitness>
16.2757

> <Gold.Chemscore.DG>
-18.3620

> <Gold.Chemscore.ZeroCoef>
-5.4800

> <Gold.Chemscore.Hbond>
0.9684

> <Gold.Chemscore.Metal>
0.0000

> <Gold.Chemscore.Lipo>
116.1758

> <Gold.Chemscore.Internal_Hbond>
0.0000

> <Gold.Chemscore.DEClash>
0.0848

> <Gold.Chemscore.DEInternal>
2.0015

> <Gold.Chemscore.Rot>
1.5411

> <Gold.Chemscore.Internal.Correction>
   9.000000E+99

> <Gold.Chemscore.Hbonds>
donor molecule, donor type, donor heavy atom, donor atom, acceptor molecule, acceptor atom, score
      L1  H     8    25       P1  8028  0.92

> <Gold.Chemscore.Hbond.Weighted>
-3.2346

> <Gold.Chemscore.Metal.Weighted>
-0.0000

> <Gold.Chemscore.Lipo.Weighted>
-13.5926

> <Gold.Chemscore.Internal_Hbond.Weighted>
0.0000

> <Gold.Chemscore.DEClash.Weighted>
0.0848

> <Gold.Chemscore.DEInternal.Weighted>
2.0015

> <Gold.Chemscore.Rot.Weighted>
3.9452

> <Gold.Chemscore.Internal.Correction.Weighted>
   9.000000E+99

> <Gold.Protein.RotatedTorsions>
[ 6907 6896 6895 6894 ] final  165.93 input  -60.11 | X-H torsion
[ 7974 7965 7964 7962 ] final -140.78 input  175.53 | X-H torsion
[ 8008 7997 7996 7995 ] final  -38.54 input   59.86 | X-H torsion
[ 10167 10162 10161 10158 ] final   -0.79 input  -65.29 | X-H torsion
[ 10718 10713 10712 10709 ] final  106.69 input   66.30 | X-H torsion
[ 10763 10752 10751 10750 ] final  -22.64 input  -60.55 | X-H torsion
[ 11005 11000 10999 10996 ] final   75.16 input  -57.11 | X-H torsion

> <Gold.Protein.ActiveResidues>
 VAL166  LYS551  ARG553  GLY616  TRP617  ASP618  TYR619  PRO620  LYS621  CYS622 
 ASP623  PHE694  ASN695  SER759  ASP760  ASP761  ALA762  ILE779  LEU786  VAL792 
 PHE793  MET794  SER795  GLU796  ALA797  LYS798  CYS799  TRP800  GLU811  SER814 

> <Gold.Protein.RotatedAtoms>
  151.8868  133.3507  159.3784 H   0  0  0  0  0  0  0  0  0  0  0  0  # atno 6907 bound_to 6896
  150.7113  134.4963  159.5549 H   0  0  0  0  0  0  0  0  0  0  0  0  # atno 6908 bound_to 6896
  152.2526  134.8117  160.0494 H   0  0  0  0  0  0  0  0  0  0  0  0  # atno 6909 bound_to 6896
  144.8570  140.6158  143.5353 H   0  0  0  0  0  0  0  0  0  0  0  0  # atno 7974 bound_to 7965
  154.4035  140.1575  156.2716 H   0  0  0  0  0  0  0  0  0  0  0  0  # atno 8008 bound_to 7997
  155.8948  140.3436  155.5960 H   0  0  0  0  0  0  0  0  0  0  0  0  # atno 8009 bound_to 7997
  155.7517  140.0806  157.2189 H   0  0  0  0  0  0  0  0  0  0  0  0  # atno 8010 bound_to 7997
  140.6783  143.6852  150.8073 H   0  0  0  0  0  0  0  0  0  0  0  0  # atno 10167 bound_to 10162
  157.6658  131.0856  150.6045 H   0  0  0  0  0  0  0  0  0  0  0  0  # atno 10718 bound_to 10713
  153.6551  135.6979  153.5196 H   0  0  0  0  0  0  0  0  0  0  0  0  # atno 10763 bound_to 10752
  153.2676  135.4225  155.0955 H   0  0  0  0  0  0  0  0  0  0  0  0  # atno 10764 bound_to 10752
  154.8466  135.3570  154.6095 H   0  0  0  0  0  0  0  0  0  0  0  0  # atno 10765 bound_to 10752
  139.9356  134.7494  156.1237 H   0  0  0  0  0  0  0  0  0  0  0  0  # atno 11005 bound_to 11000
  145.4387  139.1539  143.3982 LP  0  0  0  0  0  0  0  0  0  0  0  0  # atno 17320 bound_to 7965
  146.2831  140.4507  142.8768 LP  0  0  0  0  0  0  0  0  0  0  0  0  # atno 17321 bound_to 7965
  140.0548  143.5213  152.2656 LP  0  0  0  0  0  0  0  0  0  0  0  0  # atno 17342 bound_to 10162
  139.6088  144.7603  151.2999 LP  0  0  0  0  0  0  0  0  0  0  0  0  # atno 17343 bound_to 10162
  156.6346  130.4441  149.5774 LP  0  0  0  0  0  0  0  0  0  0  0  0  # atno 17370 bound_to 10713
  156.2256  130.6763  151.1412 LP  0  0  0  0  0  0  0  0  0  0  0  0  # atno 17371 bound_to 10713
  141.0968  133.6692  156.2664 LP  0  0  0  0  0  0  0  0  0  0  0  0  # atno 17394 bound_to 11000
  140.6084  134.5484  157.5529 LP  0  0  0  0  0  0  0  0  0  0  0  0  # atno 17395 bound_to 11000

$$$$
