AV-unprocessed.smi:3350|AV-procd|sdf|12940|dock9
  -GOLD-   2272019373D 1   1.00000     0.00000
 Structure written by MMmdl.
 41 42  0  0  0  0  0  0  0  0  1 V2000
  145.0899  135.6737  150.5951 C   0  0  0  0  0  0  0  0  0  0  0  0
  145.2810  135.7775  152.1164 C   0  0  1  0  0  0  0  0  0  0  0  0
  145.3599  134.3850  152.7717 C   0  0  0  0  0  0  0  0  0  0  0  0
  144.7387  133.3546  151.9577 N   0  0  0  0  0  0  0  0  0  0  0  0
  145.2841  132.1659  151.5207 C   0  0  0  0  0  0  0  0  0  0  0  0
  144.3301  131.5294  150.7795 C   0  0  0  0  0  0  0  0  0  0  0  0
  143.2203  132.4190  150.8212 C   0  0  0  0  0  0  0  0  0  0  0  0
  143.4672  133.5102  151.5279 N   0  0  0  0  0  0  0  0  0  0  0  0
  146.4893  136.5425  152.4165 N   0  0  0  0  0  0  0  0  0  0  0  0
  146.5682  137.5615  153.2825 C   0  0  0  0  0  0  0  0  0  0  0  0
  145.6099  138.0105  153.9116 O   0  0  0  0  0  0  0  0  0  0  0  0
  147.8202  138.0280  153.3812 N   0  0  0  0  0  0  0  0  0  0  0  0
  148.2522  139.1191  154.2509 C   0  0  2  0  0  0  0  0  0  0  0  0
  147.6020  140.4350  153.7950 C   0  0  0  0  0  0  0  0  0  0  0  0
  149.7899  139.2051  154.2457 C   0  0  2  0  0  0  0  0  0  0  0  0
  150.5064  137.8679  154.4479 C   0  0  0  0  0  0  0  0  0  0  0  0
  151.8500  138.2654  155.0397 C   0  0  0  0  0  0  0  0  0  0  0  0
  151.6579  139.7257  155.4581 C   0  0  0  0  0  0  0  0  0  0  0  0
  150.2613  139.9610  155.3500 O   0  0  0  0  0  0  0  0  0  0  0  0
  144.1824  135.1206  150.3514 H   0  0  0  0  0  0  0  0  0  0  0  0
  145.9292  135.1615  150.1235 H   0  0  0  0  0  0  0  0  0  0  0  0
  145.0031  136.6602  150.1386 H   0  0  0  0  0  0  0  0  0  0  0  0
  144.4150  136.2963  152.5323 H   0  0  0  0  0  0  0  0  0  0  0  0
  146.4026  134.1036  152.9248 H   0  0  0  0  0  0  0  0  0  0  0  0
  144.8932  134.3935  153.7583 H   0  0  0  0  0  0  0  0  0  0  0  0
  146.2947  131.8768  151.7692 H   0  0  0  0  0  0  0  0  0  0  0  0
  144.4128  130.5744  150.2826 H   0  0  0  0  0  0  0  0  0  0  0  0
  142.2495  132.3042  150.3622 H   0  0  0  0  0  0  0  0  0  0  0  0
  147.3367  136.2487  151.9529 H   0  0  0  0  0  0  0  0  0  0  0  0
  148.5353  137.5863  152.8222 H   0  0  0  0  0  0  0  0  0  0  0  0
  147.9311  138.9115  155.2735 H   0  0  0  0  0  0  0  0  0  0  0  0
  147.8937  141.2625  154.4421 H   0  0  0  0  0  0  0  0  0  0  0  0
  146.5138  140.3677  153.8222 H   0  0  0  0  0  0  0  0  0  0  0  0
  147.8950  140.6904  152.7761 H   0  0  0  0  0  0  0  0  0  0  0  0
  150.1407  139.6735  153.3236 H   0  0  0  0  0  0  0  0  0  0  0  0
  149.9608  137.2528  155.1652 H   0  0  0  0  0  0  0  0  0  0  0  0
  150.6024  137.2983  153.5233 H   0  0  0  0  0  0  0  0  0  0  0  0
  152.0999  137.6328  155.8921 H   0  0  0  0  0  0  0  0  0  0  0  0
  152.6538  138.1766  154.3079 H   0  0  0  0  0  0  0  0  0  0  0  0
  152.0135  139.9230  156.4696 H   0  0  0  0  0  0  0  0  0  0  0  0
  152.1866  140.3926  154.7755 H   0  0  0  0  0  0  0  0  0  0  0  0
  1  2  1  0  0  0  0
  1 20  1  0  0  0  0
  1 21  1  0  0  0  0
  1 22  1  0  0  0  0
  2  3  1  0  0  0  0
  2  9  1  0  0  0  0
  2 23  1  0  0  0  0
  3  4  1  0  0  0  0
  3 24  1  0  0  0  0
  3 25  1  0  0  0  0
  4  8  1  0  0  0  0
  4  5  1  0  0  0  0
  5  6  2  0  0  0  0
  5 26  1  0  0  0  0
  6  7  1  0  0  0  0
  6 27  1  0  0  0  0
  7  8  2  0  0  0  0
  7 28  1  0  0  0  0
  9 10  1  0  0  0  0
  9 29  1  0  0  0  0
 10 11  2  0  0  0  0
 10 12  1  0  0  0  0
 12 13  1  0  0  0  0
 12 30  1  0  0  0  0
 13 14  1  0  0  0  0
 13 15  1  0  0  0  0
 13 31  1  0  0  0  0
 14 32  1  0  0  0  0
 14 33  1  0  0  0  0
 14 34  1  0  0  0  0
 15 19  1  0  0  0  0
 15 16  1  0  0  0  0
 15 35  1  0  0  0  0
 16 17  1  0  0  0  0
 16 36  1  0  0  0  0
 16 37  1  0  0  0  0
 17 18  1  0  0  0  0
 17 38  1  0  0  0  0
 17 39  1  0  0  0  0
 18 19  1  0  0  0  0
 18 40  1  0  0  0  0
 18 41  1  0  0  0  0
M  END
> <s_m_source_file>
AV-unprocessed.smi

> <i_m_source_file_index>
3350

> <i_lp_mmshare_version>
43012

> <i_f3d_flags>
0

> <s_epik_input>
bjFbY0hdW2NIXVtjSF1uMVtDSDJdW0NAQEhdKFtDSDNdKVtOSF1DKD1PKVtOSF1bQ0BIXShbQ0gzXSlbQ0BASF0yW0NIMl1bQ0gyXVtDSDJdTzI=

> <s_epik_cmdline>
J2VwaWtfcHl0aG9uJywgJy1waCcsICc3LjAnLCAnLXRuJywgJzgnLCAnLW1hJywgJzIwMCcsICctbWV0YWxfYmluZGluZycsICctaW1hZScsICc8aW5maWxlLm1hZT4nLCAnLW9tYWUnLCAnPG91dGZpbGUubWFlPic=

> <r_lp_tautomer_probability>
1

> <r_epik_Ionization_Penalty>
6.42349e-05

> <r_epik_Ionization_Penalty_Charging>
0

> <r_epik_Ionization_Penalty_Neutral>
6.42349e-05

> <r_epik_State_Penalty>
-0

> <r_epik_Charging_Adjusted_Penalty>
0

> <i_epik_Tot_Q>
0

> <i_epik_Tot_abs_Q>
0

> <r_epik_Metal_State_Penalty>
-0

> <b_epik_Metal_Only>
0

> <s_lp_Force_Field>
OPLS_2005

> <r_lp_Energy>
16.0006

> <b_lp_Chiralities_Consistent>
1

> <s_lp_Variant>
AV-unprocessed.smi:3350-2

> <Gold.Version>
5.8.1

> <Gold.Id.Protein>
6NUR|6NUR_protein|mol2

> <Gold.PLP.Fitness>
41.2125

> <Gold.PLP.PLP>
-31.9379

> <Gold.PLP.part.hbond>
-2.0000

> <Gold.PLP.part.metal>
0.0000

> <Gold.PLP.part.buried>
-2.2984

> <Gold.PLP.part.nonpolar>
-29.3462

> <Gold.PLP.part.repulsive>
0.4522

> <Gold.PLP.ligand.clash>
0.0000

> <Gold.PLP.ligand.torsion>
0.9258

> <Gold.PLP.Chemscore.Hbond>
1.9440

> <Gold.PLP.Chemscore.CHOScore>
1.7490

> <Gold.PLP.Chemscore.Metal>
0.0000

> <Gold.Chemscore.Hbonds>
donor molecule, donor type, donor heavy atom, donor atom, acceptor molecule, acceptor atom, score
      L1  H     9    29       P1  7948  1.00
      L1  H    12    30       P1  7948  0.94
      L1  C     7    28       P1 10186  0.70
      L1  C     7    28       P1 10952  0.98

> <Gold.PLP.Chemscore.Internal.Correction>
0.0471

> <Gold.Rescore>
     Score         DG    S(hbond)    S(metal)    S(lipo)     H(rot)  DE(clash)    DE(int)     intcor
     15.79     -16.86       1.90        0.00      82.74       1.82       0.22       0.84       ----

> <Gold.Chemscore.Fitness>
15.7946

> <Gold.Chemscore.DG>
-16.8556

> <Gold.Chemscore.ZeroCoef>
-5.4800

> <Gold.Chemscore.Hbond>
1.9022

> <Gold.Chemscore.Metal>
0.0000

> <Gold.Chemscore.Lipo>
82.7392

> <Gold.Chemscore.Internal_Hbond>
0.0000

> <Gold.Chemscore.DEClash>
0.2219

> <Gold.Chemscore.DEInternal>
0.8392

> <Gold.Chemscore.Rot>
1.8197

> <Gold.Chemscore.Internal.Correction>
   9.000000E+99

> <Gold.Chemscore.Hbonds>
donor molecule, donor type, donor heavy atom, donor atom, acceptor molecule, acceptor atom, score
      L1  H     9    29       P1  7948  0.95
      L1  H    12    30       P1  7948  0.91

> <Gold.Chemscore.Hbond.Weighted>
-6.3535

> <Gold.Chemscore.Metal.Weighted>
-0.0000

> <Gold.Chemscore.Lipo.Weighted>
-9.6805

> <Gold.Chemscore.Internal_Hbond.Weighted>
0.0000

> <Gold.Chemscore.DEClash.Weighted>
0.2219

> <Gold.Chemscore.DEInternal.Weighted>
0.8392

> <Gold.Chemscore.Rot.Weighted>
4.6583

> <Gold.Chemscore.Internal.Correction.Weighted>
   9.000000E+99

> <Gold.Protein.RotatedTorsions>
[ 6907 6896 6895 6894 ] final  -47.06 input  -60.11 | X-H torsion
[ 7974 7965 7964 7962 ] final  -24.64 input  175.53 | X-H torsion
[ 8008 7997 7996 7995 ] final   76.45 input   59.86 | X-H torsion
[ 10167 10162 10161 10158 ] final  153.47 input  -65.29 | X-H torsion
[ 10718 10713 10712 10709 ] final  -93.23 input   66.30 | X-H torsion
[ 10763 10752 10751 10750 ] final   32.18 input  -60.55 | X-H torsion
[ 11005 11000 10999 10996 ] final -155.50 input  -57.11 | X-H torsion

> <Gold.Protein.ActiveResidues>
 VAL166  LYS551  ARG553  GLY616  TRP617  ASP618  TYR619  PRO620  LYS621  CYS622 
 ASP623  PHE694  ASN695  SER759  ASP760  ASP761  ALA762  ILE779  LEU786  VAL792 
 PHE793  MET794  SER795  GLU796  ALA797  LYS798  CYS799  TRP800  GLU811  SER814 

> <Gold.Protein.RotatedAtoms>
  150.9047  134.8461  159.7383 H   0  0  0  0  0  0  0  0  0  0  0  0  # atno 6907 bound_to 6896
  152.4912  134.4449  159.9565 H   0  0  0  0  0  0  0  0  0  0  0  0  # atno 6908 bound_to 6896
  151.4498  133.3581  159.2829 H   0  0  0  0  0  0  0  0  0  0  0  0  # atno 6909 bound_to 6896
  146.1542  140.4778  142.8598 H   0  0  0  0  0  0  0  0  0  0  0  0  # atno 7974 bound_to 7965
  155.8275  140.3467  155.5552 H   0  0  0  0  0  0  0  0  0  0  0  0  # atno 8008 bound_to 7997
  155.8277  140.0922  157.1831 H   0  0  0  0  0  0  0  0  0  0  0  0  # atno 8009 bound_to 7997
  154.4004  140.1418  156.3563 H   0  0  0  0  0  0  0  0  0  0  0  0  # atno 8010 bound_to 7997
  139.4827  144.5270  151.7784 H   0  0  0  0  0  0  0  0  0  0  0  0  # atno 10167 bound_to 10162
  156.0011  130.5018  150.5744 H   0  0  0  0  0  0  0  0  0  0  0  0  # atno 10718 bound_to 10713
  153.0276  135.6420  154.1315 H   0  0  0  0  0  0  0  0  0  0  0  0  # atno 10763 bound_to 10752
  154.1042  135.2857  155.3246 H   0  0  0  0  0  0  0  0  0  0  0  0  # atno 10764 bound_to 10752
  154.6377  135.5470  153.7816 H   0  0  0  0  0  0  0  0  0  0  0  0  # atno 10765 bound_to 10752
  140.6858  134.4095  157.5223 H   0  0  0  0  0  0  0  0  0  0  0  0  # atno 11005 bound_to 11000
  144.7942  140.6091  143.6521 LP  0  0  0  0  0  0  0  0  0  0  0  0  # atno 17320 bound_to 7965
  145.4749  139.1500  143.3794 LP  0  0  0  0  0  0  0  0  0  0  0  0  # atno 17321 bound_to 7965
  140.4792  144.1475  150.5930 LP  0  0  0  0  0  0  0  0  0  0  0  0  # atno 17342 bound_to 10162
  140.4297  143.2574  151.9611 LP  0  0  0  0  0  0  0  0  0  0  0  0  # atno 17343 bound_to 10162
  157.3634  131.0753  151.1617 LP  0  0  0  0  0  0  0  0  0  0  0  0  # atno 17370 bound_to 10713
  157.2394  130.6562  149.5883 LP  0  0  0  0  0  0  0  0  0  0  0  0  # atno 17371 bound_to 10713
  139.8938  134.8722  156.2206 LP  0  0  0  0  0  0  0  0  0  0  0  0  # atno 17394 bound_to 11000
  141.0281  133.7004  156.1383 LP  0  0  0  0  0  0  0  0  0  0  0  0  # atno 17395 bound_to 11000

$$$$
