#       Name:                AV-unprocessed.smi:1721
#       Creating user name   scv26
#       Creation time:       Fri Mar 27 08:14:51 2020


#       File generated by GOLD software.
#

@<TRIPOS>MOLECULE
AV-unprocessed.smi:1721
    49    51     1
SMALL
NO_CHARGES


@<TRIPOS>ATOM
      1 ****        -0.9255   5.2242  -1.4007 C.3            1 S1                 0.0000
      2 ****        -0.2255   3.9932  -1.2547 O.3            1 S1                 0.0000
      3 ****         1.0972   4.0302  -0.8557 C.ar           1 S1                 0.0000
      4 ****         1.6661   5.2388  -0.6190 N.ar           1 S1                 0.0000
      5 ****         2.9582   5.2768  -0.2335 C.ar           1 S1                 0.0000
      6 ****         3.7477   4.1238  -0.0714 C.ar           1 S1                 0.0000
      7 ****         3.1599   2.8689  -0.3158 C.ar           1 S1                 0.0000
      8 ****         1.7997   2.8116  -0.7055 C.ar           1 S1                 0.0000
      9 ****         1.1140   1.5994  -0.9935 N.am           1 S1                 0.0000
     10 ****         1.3778   0.3627  -0.5397 C.2            1 S1                 0.0000
     11 ****         2.2956   0.0631   0.2233 O.2            1 S1                 0.0000
     12 ****         0.4844  -0.5237  -1.0022 N.am           1 S1                 0.0000
     13 ****         0.4761  -1.9532  -0.6939 C.3            1 S1                 0.0000
     14 ****        -0.1703  -2.8029  -1.8053 C.3            1 S1                 0.0000
     15 ****        -1.0021  -3.8512  -1.0591 C.3            1 S1                 0.0000
     16 ****        -1.4414  -3.1292   0.1405 N.4            1 S1                 1.0000
     17 ****        -2.0718  -3.8958   1.2344 C.3            1 S1                 0.0000
     18 ****        -2.6052  -2.8985   2.2855 C.3            1 S1                 0.0000
     19 ****        -1.5208  -1.8985   2.7474 C.3            1 S1                 0.0000
     20 ****        -0.8120  -1.2265   1.5515 C.3            1 S1                 0.0000
     21 ****        -0.2985  -2.3185   0.5955 C.3            1 S1                 0.0000
     22 ****        -1.9484   5.0217  -1.7174 H              1 S1                 0.0000
     23 ****        -0.4638   5.8583  -2.1589 H              1 S1                 0.0000
     24 ****        -0.9735   5.7705  -0.4576 H              1 S1                 0.0000
     25 ****         3.3764   6.2563  -0.0550 H              1 S1                 0.0000
     26 ****         4.7822   4.2003   0.2293 H              1 S1                 0.0000
     27 ****         3.7647   1.9814  -0.2136 H              1 S1                 0.0000
     28 ****         0.2755   1.7021  -1.5464 H              1 S1                 0.0000
     29 ****        -0.2392  -0.1859  -1.6201 H              1 S1                 0.0000
     30 ****         1.5082  -2.2905  -0.5771 H              1 S1                 0.0000
     31 ****        -0.8333  -2.1879  -2.4161 H              1 S1                 0.0000
     32 ****         0.5656  -3.2535  -2.4721 H              1 S1                 0.0000
     33 ****        -1.8440  -4.2180  -1.6470 H              1 S1                 0.0000
     34 ****        -0.3818  -4.7017  -0.7716 H              1 S1                 0.0000
     35 ****        -2.8898  -4.4988   0.8385 H              1 S1                 0.0000
     36 ****        -1.3488  -4.5816   1.6789 H              1 S1                 0.0000
     37 ****        -3.4405  -2.3427   1.8574 H              1 S1                 0.0000
     38 ****        -3.0059  -3.4383   3.1441 H              1 S1                 0.0000
     39 ****        -1.9614  -1.1408   3.3957 H              1 S1                 0.0000
     40 ****        -0.7817  -2.4260   3.3519 H              1 S1                 0.0000
     41 ****        -1.5023  -0.5596   1.0329 H              1 S1                 0.0000
     42 ****         0.0135  -0.6133   1.9135 H              1 S1                 0.0000
     43 ****         0.3598  -2.9764   1.1675 H              1 S1                 0.0000
     44 ****        -2.1356  -2.4710  -0.1835 H              1 S1                 0.0000
     45 ****        -0.2537   3.5306  -2.1409 LP             1 S1                 0.0000
     46 ****        -0.7227   3.4492  -0.5788 LP             1 S1                 0.0000
     47 ****         1.1397   6.0821  -0.7278 LP             1 S1                 0.0000
     48 ****         2.9197   0.7699   0.5565 LP             1 S1                 0.0000
     49 ****         2.4174  -0.8871   0.5101 LP             1 S1                 0.0000
@<TRIPOS>BOND
    1    1    2 1     
    2    1   22 1     
    3    1   23 1     
    4    1   24 1     
    5    2    3 1     
    6    3    8 ar    
    7    3    4 ar    
    8    4    5 ar    
    9    5    6 ar    
   10    5   25 1     
   11    6    7 ar    
   12    6   26 1     
   13    7    8 ar    
   14    7   27 1     
   15    8    9 1     
   16    9   10 am    
   17    9   28 1     
   18   10   11 2     
   19   10   12 am    
   20   12   13 1     
   21   12   29 1     
   22   13   21 1     
   23   13   14 1     
   24   13   30 1     
   25   14   15 1     
   26   14   31 1     
   27   14   32 1     
   28   15   16 1     
   29   15   33 1     
   30   15   34 1     
   31   16   21 1     
   32   16   17 1     
   33   16   44 1     
   34   17   18 1     
   35   17   35 1     
   36   17   36 1     
   37   18   19 1     
   38   18   37 1     
   39   18   38 1     
   40   19   20 1     
   41   19   39 1     
   42   19   40 1     
   43   20   21 1     
   44   20   41 1     
   45   20   42 1     
   46   21   43 1     
   47    2   45 1     
   48    2   46 1     
   49    4   47 1     
   50   11   48 1     
   51   11   49 1     
@<TRIPOS>SUBSTRUCTURE
      1 S1             1
@<TRIPOS>SET
LONE_PAIRS      STATIC     ATOMS    <user>   **** ""
5 45 46 47 48 49
DONOR_HYDROGENS      STATIC     ATOMS    <user>   **** ""
3 28 29 44
ATOM$BLUE        STATIC     ATOMS    COLORGROUP SYSTEM
5 45 46 47 48 49
ATOM$RED        STATIC     ATOMS    COLORGROUP SYSTEM
3 28 29 44
