AV-unprocessed.smi:2986|AV-procd|sdf|11384|dock2
  -GOLD-   2272016303D 1   1.00000     0.00000
 Structure written by MMmdl.
 42 44  0  0  0  0  0  0  0  0  3 V2000
  150.9978  137.5066  154.4175 C   0  0  0  0  0  0  0  0  0  0  0  0
  152.2808  137.7983  154.9423 O   0  0  0  0  0  0  0  0  0  0  0  0
  152.4266  139.1646  155.2952 C   0  0  0  0  0  0  0  0  0  0  0  0
  151.9559  139.3854  156.7397 C   0  0  0  0  0  0  0  0  0  0  0  0
  151.4613  140.7522  156.9615 N   0  0  0  0  0  0  0  0  0  0  0  0
  150.5090  141.4605  156.2930 C   0  0  0  0  0  0  0  0  0  0  0  0
  149.5684  140.8990  154.9116 S   0  0  0  0  0  0  0  0  0  0  0  0
  147.9282  141.6471  155.1115 C   0  0  0  0  0  0  0  0  0  0  0  0
  147.3645  141.4441  156.5183 C   0  0  0  0  0  0  0  0  0  0  0  0
  147.0593  140.3071  156.8811 O   0  0  0  0  0  0  0  0  0  0  0  0
  147.2771  142.6100  157.2035 N   0  5  0  0  0  0  0  0  0  0  0  0
  146.7370  142.6213  158.4312 C   0  0  0  0  0  0  0  0  0  0  0  0
  146.8476  143.6714  159.3834 C   0  0  0  0  0  0  0  0  0  0  0  0
  146.1436  143.1973  160.4538 C   0  0  0  0  0  0  0  0  0  0  0  0
  145.8328  143.7660  161.7956 C   0  0  0  0  0  0  0  0  0  0  0  0
  145.6524  141.9579  160.1844 O   0  0  0  0  0  0  0  0  0  0  0  0
  146.0423  141.5935  158.8900 N   0  0  0  0  0  0  0  0  0  0  0  0
  150.4171  142.6858  156.8795 N   0  3  0  0  0  0  0  0  0  0  0  0
  151.3279  142.7677  157.9336 C   0  0  0  0  0  0  0  0  0  0  0  0
  151.6058  143.8058  158.8175 C   0  0  0  0  0  0  0  0  0  0  0  0
  152.6077  143.5658  159.7808 C   0  0  0  0  0  0  0  0  0  0  0  0
  153.2892  142.3329  159.8397 C   0  0  0  0  0  0  0  0  0  0  0  0
  152.9973  141.2866  158.9402 C   0  0  0  0  0  0  0  0  0  0  0  0
  152.0046  141.5305  157.9910 C   0  0  0  0  0  0  0  0  0  0  0  0
  150.9374  136.4477  154.1663 H   0  0  0  0  0  0  0  0  0  0  0  0
  150.8041  138.0794  153.5096 H   0  0  0  0  0  0  0  0  0  0  0  0
  150.2146  137.7258  155.1443 H   0  0  0  0  0  0  0  0  0  0  0  0
  153.4708  139.4662  155.1963 H   0  0  0  0  0  0  0  0  0  0  0  0
  151.8418  139.7884  154.6177 H   0  0  0  0  0  0  0  0  0  0  0  0
  151.1437  138.6974  156.9758 H   0  0  0  0  0  0  0  0  0  0  0  0
  152.7539  139.1707  157.4501 H   0  0  0  0  0  0  0  0  0  0  0  0
  147.9867  142.7059  154.8519 H   0  0  0  0  0  0  0  0  0  0  0  0
  147.2465  141.1875  154.3955 H   0  0  0  0  0  0  0  0  0  0  0  0
  147.3559  144.6195  159.2927 H   0  0  0  0  0  0  0  0  0  0  0  0
  146.4939  144.6018  162.0258 H   0  0  0  0  0  0  0  0  0  0  0  0
  145.9566  143.0133  162.5743 H   0  0  0  0  0  0  0  0  0  0  0  0
  144.8049  144.1268  161.8322 H   0  0  0  0  0  0  0  0  0  0  0  0
  151.0863  144.7518  158.7723 H   0  0  0  0  0  0  0  0  0  0  0  0
  152.8600  144.3433  160.4874 H   0  0  0  0  0  0  0  0  0  0  0  0
  154.0535  142.1862  160.5894 H   0  0  0  0  0  0  0  0  0  0  0  0
  153.5305  140.3487  158.9913 H   0  0  0  0  0  0  0  0  0  0  0  0
  149.7787  143.4097  156.5757 H   0  0  0  0  0  0  0  0  0  0  0  0
  1  2  1  0  0  0  0
  1 25  1  0  0  0  0
  1 26  1  0  0  0  0
  1 27  1  0  0  0  0
  2  3  1  0  0  0  0
  3  4  1  0  0  0  0
  3 28  1  0  0  0  0
  3 29  1  0  0  0  0
  4  5  1  0  0  0  0
  4 30  1  0  0  0  0
  4 31  1  0  0  0  0
  5 24  1  0  0  0  0
  5  6  1  0  0  0  0
  6  7  1  0  0  0  0
  6 18  2  0  0  0  0
  7  8  1  0  0  0  0
  8  9  1  0  0  0  0
  8 32  1  0  0  0  0
  8 33  1  0  0  0  0
  9 10  2  0  0  0  0
  9 11  1  0  0  0  0
 11 12  1  0  0  0  0
 12 17  2  0  0  0  0
 12 13  1  0  0  0  0
 13 14  2  0  0  0  0
 13 34  1  0  0  0  0
 14 15  1  0  0  0  0
 14 16  1  0  0  0  0
 15 35  1  0  0  0  0
 15 36  1  0  0  0  0
 15 37  1  0  0  0  0
 16 17  1  0  0  0  0
 18 19  1  0  0  0  0
 18 42  1  0  0  0  0
 19 24  2  0  0  0  0
 19 20  1  0  0  0  0
 20 21  2  0  0  0  0
 20 38  1  0  0  0  0
 21 22  1  0  0  0  0
 21 39  1  0  0  0  0
 22 23  2  0  0  0  0
 22 40  1  0  0  0  0
 23 24  1  0  0  0  0
 23 41  1  0  0  0  0
M  CHG  1  11  -1
M  CHG  1  18   1
M  END
> <s_m_source_file>
AV-unprocessed.smi

> <i_m_source_file_index>
2986

> <i_lp_mmshare_version>
43012

> <i_f3d_flags>
0

> <s_epik_input>
W2NIXTFbY0hdW2NIXVtjSF1jKGMxMiluKFtDSDJdW0NIMl1PW0NIM10pYyhuMilTW0NIMl1DKD1PKVtOSF1jM1tjSF1jKFtDSDNdKW9uMw==

> <s_epik_cmdline>
J2VwaWtfcHl0aG9uJywgJy1waCcsICc3LjAnLCAnLXRuJywgJzgnLCAnLW1hJywgJzIwMCcsICctbWV0YWxfYmluZGluZycsICctaW1hZScsICc8aW5maWxlLm1hZT4nLCAnLW9tYWUnLCAnPG91dGZpbGUubWFlPic=

> <r_epik_Ionization_Penalty>
5.85337

> <r_epik_Ionization_Penalty_Charging>
5.85335

> <r_epik_Ionization_Penalty_Neutral>
1.96301e-05

> <r_epik_State_Penalty>
6.06575

> <r_epik_Charging_Adjusted_Penalty>
11.9191

> <i_epik_Tot_Q>
0

> <i_epik_Tot_abs_Q>
2

> <r_epik_Metal_State_Penalty>
2.64129

> <b_epik_Metal_Only>
1

> <s_lp_Force_Field>
OPLS_2005

> <r_lp_Energy>
5.16942

> <b_lp_Chiralities_Consistent>
1

> <s_lp_Variant>
AV-unprocessed.smi:2986-4

> <Gold.Version>
5.8.1

> <Gold.Id.Protein>
6NUR|6NUR_protein|mol2

> <Gold.PLP.Fitness>
53.0994

> <Gold.PLP.PLP>
-47.1880

> <Gold.PLP.part.hbond>
-3.8491

> <Gold.PLP.part.metal>
0.0000

> <Gold.PLP.part.buried>
-6.1430

> <Gold.PLP.part.nonpolar>
-37.5777

> <Gold.PLP.part.repulsive>
0.8222

> <Gold.PLP.ligand.clash>
0.0000

> <Gold.PLP.ligand.torsion>
0.8515

> <Gold.PLP.Chemscore.Hbond>
2.4173

> <Gold.PLP.Chemscore.CHOScore>
0.0000

> <Gold.PLP.Chemscore.Metal>
0.0000

> <Gold.Chemscore.Hbonds>
donor molecule, donor type, donor heavy atom, donor atom, acceptor molecule, acceptor atom, score
      L1  H    18    42       P1  8028  2.00
      P1  H  6934  6946       L1    16  0.30
      P1  H 10752 10765       L1     2  0.12

> <Gold.PLP.Chemscore.Internal.Correction>
0.3626

> <Gold.Rescore>
     Score         DG    S(hbond)    S(metal)    S(lipo)     H(rot)  DE(clash)    DE(int)     intcor
     13.67     -16.14       1.00        0.00     112.34       2.27       0.03       2.44       ----

> <Gold.Chemscore.Fitness>
13.6709

> <Gold.Chemscore.DG>
-16.1432

> <Gold.Chemscore.ZeroCoef>
-5.4800

> <Gold.Chemscore.Hbond>
1.0001

> <Gold.Chemscore.Metal>
0.0000

> <Gold.Chemscore.Lipo>
112.3410

> <Gold.Chemscore.Internal_Hbond>
0.0000

> <Gold.Chemscore.DEClash>
0.0321

> <Gold.Chemscore.DEInternal>
2.4402

> <Gold.Chemscore.Rot>
2.2738

> <Gold.Chemscore.Internal.Correction>
   9.000000E+99

> <Gold.Chemscore.Hbonds>
donor molecule, donor type, donor heavy atom, donor atom, acceptor molecule, acceptor atom, score
      L1  H    18    42       P1  8028  1.00
      P1  H 10752 10765       L1     2  0.01

> <Gold.Chemscore.Hbond.Weighted>
-3.3402

> <Gold.Chemscore.Metal.Weighted>
-0.0000

> <Gold.Chemscore.Lipo.Weighted>
-13.1439

> <Gold.Chemscore.Internal_Hbond.Weighted>
0.0000

> <Gold.Chemscore.DEClash.Weighted>
0.0321

> <Gold.Chemscore.DEInternal.Weighted>
2.4402

> <Gold.Chemscore.Rot.Weighted>
5.8209

> <Gold.Chemscore.Internal.Correction.Weighted>
   9.000000E+99

> <Gold.Protein.RotatedTorsions>
[ 6907 6896 6895 6894 ] final  -60.01 input  -60.11 | X-H torsion
[ 7974 7965 7964 7962 ] final   46.17 input  175.53 | X-H torsion
[ 8008 7997 7996 7995 ] final -103.73 input   59.86 | X-H torsion
[ 10167 10162 10161 10158 ] final  -45.91 input  -65.29 | X-H torsion
[ 10718 10713 10712 10709 ] final   93.09 input   66.30 | X-H torsion
[ 10763 10752 10751 10750 ] final  175.82 input  -60.55 | X-H torsion
[ 11005 11000 10999 10996 ] final  -70.63 input  -57.11 | X-H torsion

> <Gold.Protein.ActiveResidues>
 VAL166  LYS551  ARG553  GLY616  TRP617  ASP618  TYR619  PRO620  LYS621  CYS622 
 ASP623  PHE694  ASN695  SER759  ASP760  ASP761  ALA762  ILE779  LEU786  VAL792 
 PHE793  MET794  SER795  GLU796  ALA797  LYS798  CYS799  TRP800  GLU811  SER814 

> <Gold.Protein.RotatedAtoms>
  150.7888  134.6894  159.6487 H   0  0  0  0  0  0  0  0  0  0  0  0  # atno 6907 bound_to 6896
  152.3989  134.6315  160.0086 H   0  0  0  0  0  0  0  0  0  0  0  0  # atno 6908 bound_to 6896
  151.6593  133.3281  159.3206 H   0  0  0  0  0  0  0  0  0  0  0  0  # atno 6909 bound_to 6896
  146.0414  139.4885  142.9776 H   0  0  0  0  0  0  0  0  0  0  0  0  # atno 7974 bound_to 7965
  154.8751  140.0421  157.1748 H   0  0  0  0  0  0  0  0  0  0  0  0  # atno 8008 bound_to 7997
  154.8698  140.2956  155.5467 H   0  0  0  0  0  0  0  0  0  0  0  0  # atno 8009 bound_to 7997
  156.2999  140.2431  156.3685 H   0  0  0  0  0  0  0  0  0  0  0  0  # atno 8010 bound_to 7997
  140.6839  143.2856  151.3707 H   0  0  0  0  0  0  0  0  0  0  0  0  # atno 10167 bound_to 10162
  157.6956  131.0466  150.3981 H   0  0  0  0  0  0  0  0  0  0  0  0  # atno 10718 bound_to 10713
  154.4727  135.2772  155.1630 H   0  0  0  0  0  0  0  0  0  0  0  0  # atno 10763 bound_to 10752
  154.3372  135.6177  153.5583 H   0  0  0  0  0  0  0  0  0  0  0  0  # atno 10764 bound_to 10752
  152.9866  135.5780  154.5112 H   0  0  0  0  0  0  0  0  0  0  0  0  # atno 10765 bound_to 10752
  141.1578  133.6795  156.6783 H   0  0  0  0  0  0  0  0  0  0  0  0  # atno 11005 bound_to 11000
  145.6878  141.0173  143.1572 LP  0  0  0  0  0  0  0  0  0  0  0  0  # atno 17320 bound_to 7965
  144.7076  139.8496  143.7425 LP  0  0  0  0  0  0  0  0  0  0  0  0  # atno 17321 bound_to 7965
  139.6181  144.0961  152.2365 LP  0  0  0  0  0  0  0  0  0  0  0  0  # atno 17342 bound_to 10162
  140.0397  144.6017  150.7421 LP  0  0  0  0  0  0  0  0  0  0  0  0  # atno 17343 bound_to 10162
  156.4377  130.3985  149.6718 LP  0  0  0  0  0  0  0  0  0  0  0  0  # atno 17370 bound_to 10713
  156.3912  130.7628  151.2629 LP  0  0  0  0  0  0  0  0  0  0  0  0  # atno 17371 bound_to 10713
  140.3122  134.8077  157.4185 LP  0  0  0  0  0  0  0  0  0  0  0  0  # atno 17394 bound_to 11000
  140.1169  134.5272  155.8217 LP  0  0  0  0  0  0  0  0  0  0  0  0  # atno 17395 bound_to 11000

$$$$
