AV-unprocessed.smi:465|AV-procd|sdf|2640|dock1
  -GOLD-   2262023 43D 1   1.00000     0.00000
 Structure written by MMmdl.
 43 45  0  0  0  0  0  0  0  0  2 V2000
  155.4264  138.0975  164.6371 C   0  0  0  0  0  0  0  0  0  0  0  0
  154.8355  138.1529  163.2434 C   0  0  0  0  0  0  0  0  0  0  0  0
  154.2858  136.9931  162.6636 C   0  0  0  0  0  0  0  0  0  0  0  0
  153.7400  137.0424  161.3665 C   0  0  0  0  0  0  0  0  0  0  0  0
  153.7346  138.2448  160.6297 C   0  0  0  0  0  0  0  0  0  0  0  0
  153.1845  138.2032  159.3669 O   0  0  0  0  0  0  0  0  0  0  0  0
  153.0825  139.4181  158.6356 C   0  0  0  0  0  0  0  0  0  0  0  0
  151.6275  139.6181  158.1917 C   0  0  0  0  0  0  0  0  0  0  0  0
  151.3500  141.0101  157.8030 N   0  0  0  0  0  0  0  0  0  0  0  0
  150.7576  141.5231  156.6837 C   0  0  0  0  0  0  0  0  0  0  0  0
  150.2269  140.7679  155.5056 C   0  0  0  0  0  0  0  0  0  0  0  0
  149.2981  141.6409  154.6496 C   0  0  0  0  0  0  0  0  0  0  0  0
  149.2820  141.1665  153.3209 O   0  0  0  0  0  0  0  0  0  0  0  0
  150.7349  142.8789  156.8280 N   0  3  0  0  0  0  0  0  0  0  0  0
  151.3377  143.2390  158.0331 C   0  0  0  0  0  0  0  0  0  0  0  0
  151.5574  144.4889  158.6036 C   0  0  0  0  0  0  0  0  0  0  0  0
  152.2140  144.5082  159.8515 C   0  0  0  0  0  0  0  0  0  0  0  0
  152.6248  143.3164  160.4831 C   0  0  0  0  0  0  0  0  0  0  0  0
  152.3941  142.0549  159.8955 C   0  0  0  0  0  0  0  0  0  0  0  0
  151.7417  142.0440  158.6623 C   0  0  0  0  0  0  0  0  0  0  0  0
  154.2888  139.4088  161.2195 C   0  0  0  0  0  0  0  0  0  0  0  0
  154.8360  139.3602  162.5166 C   0  0  0  0  0  0  0  0  0  0  0  0
  154.8371  137.4422  165.2793 H   0  0  0  0  0  0  0  0  0  0  0  0
  155.4491  139.0874  165.0941 H   0  0  0  0  0  0  0  0  0  0  0  0
  156.4461  137.7138  164.5975 H   0  0  0  0  0  0  0  0  0  0  0  0
  154.2802  136.0623  163.2120 H   0  0  0  0  0  0  0  0  0  0  0  0
  153.3173  136.1470  160.9354 H   0  0  0  0  0  0  0  0  0  0  0  0
  153.3898  140.2580  159.2608 H   0  0  0  0  0  0  0  0  0  0  0  0
  153.7324  139.3931  157.7594 H   0  0  0  0  0  0  0  0  0  0  0  0
  151.3983  138.9754  157.3419 H   0  0  0  0  0  0  0  0  0  0  0  0
  150.9368  139.3245  158.9821 H   0  0  0  0  0  0  0  0  0  0  0  0
  151.0544  140.4041  154.8970 H   0  0  0  0  0  0  0  0  0  0  0  0
  149.6928  139.8877  155.8651 H   0  0  0  0  0  0  0  0  0  0  0  0
  148.2811  141.6294  155.0426 H   0  0  0  0  0  0  0  0  0  0  0  0
  149.6352  142.6775  154.6512 H   0  0  0  0  0  0  0  0  0  0  0  0
  148.8347  140.3339  153.3030 H   0  0  0  0  0  0  0  0  0  0  0  0
  151.2461  145.4032  158.1201 H   0  0  0  0  0  0  0  0  0  0  0  0
  152.4085  145.4558  160.3330 H   0  0  0  0  0  0  0  0  0  0  0  0
  153.1274  143.3706  161.4378 H   0  0  0  0  0  0  0  0  0  0  0  0
  152.7165  141.1497  160.3878 H   0  0  0  0  0  0  0  0  0  0  0  0
  154.3085  140.3529  160.6970 H   0  0  0  0  0  0  0  0  0  0  0  0
  155.2566  140.2554  162.9511 H   0  0  0  0  0  0  0  0  0  0  0  0
  150.3418  143.5116  156.1430 H   0  0  0  0  0  0  0  0  0  0  0  0
  1  2  1  0  0  0  0
  1 23  1  0  0  0  0
  1 24  1  0  0  0  0
  1 25  1  0  0  0  0
  2 22  1  0  0  0  0
  2  3  2  0  0  0  0
  3  4  1  0  0  0  0
  3 26  1  0  0  0  0
  4  5  2  0  0  0  0
  4 27  1  0  0  0  0
  5  6  1  0  0  0  0
  5 21  1  0  0  0  0
  6  7  1  0  0  0  0
  7  8  1  0  0  0  0
  7 28  1  0  0  0  0
  7 29  1  0  0  0  0
  8  9  1  0  0  0  0
  8 30  1  0  0  0  0
  8 31  1  0  0  0  0
  9 20  1  0  0  0  0
  9 10  1  0  0  0  0
 10 11  1  0  0  0  0
 10 14  2  0  0  0  0
 11 12  1  0  0  0  0
 11 32  1  0  0  0  0
 11 33  1  0  0  0  0
 12 13  1  0  0  0  0
 12 34  1  0  0  0  0
 12 35  1  0  0  0  0
 13 36  1  0  0  0  0
 14 15  1  0  0  0  0
 14 43  1  0  0  0  0
 15 20  2  0  0  0  0
 15 16  1  0  0  0  0
 16 17  2  0  0  0  0
 16 37  1  0  0  0  0
 17 18  1  0  0  0  0
 17 38  1  0  0  0  0
 18 19  2  0  0  0  0
 18 39  1  0  0  0  0
 19 20  1  0  0  0  0
 19 40  1  0  0  0  0
 21 22  2  0  0  0  0
 21 41  1  0  0  0  0
 22 42  1  0  0  0  0
M  CHG  1  14   1
M  END
> <s_m_source_file>
AV-unprocessed.smi

> <i_m_source_file_index>
465

> <i_lp_mmshare_version>
43012

> <i_f3d_flags>
0

> <s_epik_input>
W0NIM11jMVtjSF1bY0hdYyhbY0hdW2NIXTEpT1tDSDJdW0NIMl1uKGMobjIpW0NIMl1bQ0gyXVtPSF0pYyhjMjMpW2NIXVtjSF1bY0hdW2NIXTM=

> <s_epik_cmdline>
J2VwaWtfcHl0aG9uJywgJy1waCcsICc3LjAnLCAnLXRuJywgJzgnLCAnLW1hJywgJzIwMCcsICctbWV0YWxfYmluZGluZycsICctaW1hZScsICc8aW5maWxlLm1hZT4nLCAnLW9tYWUnLCAnPG91dGZpbGUubWFlPic=

> <r_lp_tautomer_probability>
1

> <r_epik_Ionization_Penalty>
0.721766

> <r_epik_Ionization_Penalty_Charging>
0.721766

> <r_epik_Ionization_Penalty_Neutral>
5.89567e-08

> <r_epik_State_Penalty>
0.746256

> <r_epik_Charging_Adjusted_Penalty>
1.46802

> <i_epik_Tot_Q>
1

> <i_epik_Tot_abs_Q>
1

> <r_epik_Metal_State_Penalty>
4.64148

> <b_epik_Metal_Only>
0

> <s_lp_Force_Field>
OPLS_2005

> <r_lp_Energy>
20.4807

> <b_lp_Chiralities_Consistent>
1

> <s_lp_Variant>
AV-unprocessed.smi:465-2

> <Gold.Version>
5.8.1

> <Gold.Id.Protein>
6NUR|6NUR_protein|mol2

> <Gold.PLP.Fitness>
59.4477

> <Gold.PLP.PLP>
-51.9684

> <Gold.PLP.part.hbond>
-3.9678

> <Gold.PLP.part.metal>
0.0000

> <Gold.PLP.part.buried>
-5.1270

> <Gold.PLP.part.nonpolar>
-43.1437

> <Gold.PLP.part.repulsive>
0.0364

> <Gold.PLP.ligand.clash>
0.0000

> <Gold.PLP.ligand.torsion>
0.9135

> <Gold.PLP.Chemscore.Hbond>
3.0000

> <Gold.PLP.Chemscore.CHOScore>
0.0000

> <Gold.PLP.Chemscore.Metal>
0.0000

> <Gold.Chemscore.Hbonds>
donor molecule, donor type, donor heavy atom, donor atom, acceptor molecule, acceptor atom, score
      L1  H    14    43       P1  8028  1.92
      P1  H  7989  7998       L1    13  0.02
      P1  H  8011  8017       L1    13  1.00

> <Gold.PLP.Chemscore.Internal.Correction>
0.3063

> <Gold.Rescore>
     Score         DG    S(hbond)    S(metal)    S(lipo)     H(rot)  DE(clash)    DE(int)     intcor
     19.71     -20.90       1.78        0.00     132.75       2.36       0.39       0.81       ----

> <Gold.Chemscore.Fitness>
19.7087

> <Gold.Chemscore.DG>
-20.9044

> <Gold.Chemscore.ZeroCoef>
-5.4800

> <Gold.Chemscore.Hbond>
1.7804

> <Gold.Chemscore.Metal>
0.0000

> <Gold.Chemscore.Lipo>
132.7504

> <Gold.Chemscore.Internal_Hbond>
0.0000

> <Gold.Chemscore.DEClash>
0.3851

> <Gold.Chemscore.DEInternal>
0.8106

> <Gold.Chemscore.Rot>
2.3648

> <Gold.Chemscore.Internal.Correction>
   9.000000E+99

> <Gold.Chemscore.Hbonds>
donor molecule, donor type, donor heavy atom, donor atom, acceptor molecule, acceptor atom, score
      L1  H    14    43       P1  8028  0.91
      P1  H  8011  8017       L1    13  0.64

> <Gold.Chemscore.Hbond.Weighted>
-5.9466

> <Gold.Chemscore.Metal.Weighted>
-0.0000

> <Gold.Chemscore.Lipo.Weighted>
-15.5318

> <Gold.Chemscore.Internal_Hbond.Weighted>
0.0000

> <Gold.Chemscore.DEClash.Weighted>
0.3851

> <Gold.Chemscore.DEInternal.Weighted>
0.8106

> <Gold.Chemscore.Rot.Weighted>
6.0540

> <Gold.Chemscore.Internal.Correction.Weighted>
   9.000000E+99

> <Gold.Protein.RotatedTorsions>
[ 6907 6896 6895 6894 ] final  172.96 input  -60.11 | X-H torsion
[ 7974 7965 7964 7962 ] final  -97.11 input  175.53 | X-H torsion
[ 8008 7997 7996 7995 ] final -172.47 input   59.86 | X-H torsion
[ 10167 10162 10161 10158 ] final   29.10 input  -65.29 | X-H torsion
[ 10718 10713 10712 10709 ] final  128.11 input   66.30 | X-H torsion
[ 10763 10752 10751 10750 ] final   78.35 input  -60.55 | X-H torsion
[ 11005 11000 10999 10996 ] final  -11.89 input  -57.11 | X-H torsion

> <Gold.Protein.ActiveResidues>
 VAL166  LYS551  ARG553  GLY616  TRP617  ASP618  TYR619  PRO620  LYS621  CYS622 
 ASP623  PHE694  ASN695  SER759  ASP760  ASP761  ALA762  ILE779  LEU786  VAL792 
 PHE793  MET794  SER795  GLU796  ALA797  LYS798  CYS799  TRP800  GLU811  SER814 

> <Gold.Protein.RotatedAtoms>
  151.7760  133.3345  159.3457 H   0  0  0  0  0  0  0  0  0  0  0  0  # atno 6907 bound_to 6896
  150.7444  134.5975  159.6029 H   0  0  0  0  0  0  0  0  0  0  0  0  # atno 6908 bound_to 6896
  152.3309  134.7262  160.0341 H   0  0  0  0  0  0  0  0  0  0  0  0  # atno 6909 bound_to 6896
  145.3381  140.9454  143.2624 H   0  0  0  0  0  0  0  0  0  0  0  0  # atno 7974 bound_to 7965
  155.9450  140.1115  157.1024 H   0  0  0  0  0  0  0  0  0  0  0  0  # atno 8008 bound_to 7997
  154.4097  140.1211  156.5043 H   0  0  0  0  0  0  0  0  0  0  0  0  # atno 8009 bound_to 7997
  155.6914  140.3472  155.4897 H   0  0  0  0  0  0  0  0  0  0  0  0  # atno 8010 bound_to 7997
  140.4795  144.0638  150.6261 H   0  0  0  0  0  0  0  0  0  0  0  0  # atno 10167 bound_to 10162
  157.5273  131.1098  150.9063 H   0  0  0  0  0  0  0  0  0  0  0  0  # atno 10718 bound_to 10713
  153.0868  135.4880  154.8612 H   0  0  0  0  0  0  0  0  0  0  0  0  # atno 10763 bound_to 10752
  154.7220  135.3041  154.9034 H   0  0  0  0  0  0  0  0  0  0  0  0  # atno 10764 bound_to 10752
  153.9695  135.6803  153.4800 H   0  0  0  0  0  0  0  0  0  0  0  0  # atno 10765 bound_to 10752
  140.7600  133.8523  155.9116 H   0  0  0  0  0  0  0  0  0  0  0  0  # atno 11005 bound_to 11000
  144.8812  139.4902  143.6722 LP  0  0  0  0  0  0  0  0  0  0  0  0  # atno 17320 bound_to 7965
  146.3019  139.7453  142.9085 LP  0  0  0  0  0  0  0  0  0  0  0  0  # atno 17321 bound_to 7965
  140.3876  143.2769  152.0098 LP  0  0  0  0  0  0  0  0  0  0  0  0  # atno 17342 bound_to 10162
  139.4831  144.6104  151.7444 LP  0  0  0  0  0  0  0  0  0  0  0  0  # atno 17343 bound_to 10162
  156.9655  130.5471  149.5288 LP  0  0  0  0  0  0  0  0  0  0  0  0  # atno 17370 bound_to 10713
  156.0396  130.5480  150.8739 LP  0  0  0  0  0  0  0  0  0  0  0  0  # atno 17371 bound_to 10713
  140.9672  134.1579  157.4606 LP  0  0  0  0  0  0  0  0  0  0  0  0  # atno 17394 bound_to 11000
  139.8772  134.9966  156.5802 LP  0  0  0  0  0  0  0  0  0  0  0  0  # atno 17395 bound_to 11000

$$$$
