AV-unprocessed.smi:2832|AV-procd|sdf|10913|dock3
  -GOLD-   2272015363D 1   1.00000     0.00000
 Structure written by MMmdl.
 33 33  0  0  0  0  0  0  0  0  2 V2000
  148.6087  140.4149  154.0645 C   0  0  0  0  0  0  0  0  0  0  0  0
  149.7012  139.4986  154.6261 C   0  0  0  0  0  0  0  0  0  0  0  0
  150.6475  140.2403  155.5970 C   0  0  0  0  0  0  0  0  0  0  0  0
  151.5190  139.3495  156.5305 C   0  0  2  0  0  0  0  0  0  0  0  0
  150.5961  138.3585  157.2841 C   0  0  0  0  0  0  0  0  0  0  0  0
  152.3104  140.2257  157.4122 N   0  0  0  0  0  0  0  0  0  0  0  0
  151.9466  141.1501  158.3203 C   0  0  0  0  0  0  0  0  0  0  0  0
  150.7964  141.5432  158.5088 O   0  0  0  0  0  0  0  0  0  0  0  0
  153.0870  141.7305  159.1578 C   0  0  0  0  0  0  0  0  0  0  0  0
  152.6563  142.9142  159.8838 N   0  0  0  0  0  0  0  0  0  0  0  0
  152.2158  144.1219  159.3794 C   0  0  0  0  0  0  0  0  0  0  0  0
  151.9153  144.9230  160.4432 C   0  0  0  0  0  0  0  0  0  0  0  0
  152.2021  144.1065  161.5723 C   0  0  0  0  0  0  0  0  0  0  0  0
  152.6396  142.9041  161.2351 N   0  0  0  0  0  0  0  0  0  0  0  0
  152.5282  138.4790  155.7410 C   0  0  0  0  0  0  0  0  0  0  0  0
  153.3998  139.0495  155.0478 O   0  0  0  0  0  0  0  0  0  0  0  0
  152.4002  137.2362  155.8260 O   0  5  0  0  0  0  0  0  0  0  0  0
  147.9611  139.8703  153.3772 H   0  0  0  0  0  0  0  0  0  0  0  0
  149.0407  141.2552  153.5204 H   0  0  0  0  0  0  0  0  0  0  0  0
  147.9838  140.8162  154.8630 H   0  0  0  0  0  0  0  0  0  0  0  0
  149.2267  138.6526  155.1223 H   0  0  0  0  0  0  0  0  0  0  0  0
  150.2694  139.0844  153.7929 H   0  0  0  0  0  0  0  0  0  0  0  0
  151.3116  140.8675  155.0006 H   0  0  0  0  0  0  0  0  0  0  0  0
  150.0651  140.9397  156.1989 H   0  0  0  0  0  0  0  0  0  0  0  0
  150.1209  137.6600  156.5938 H   0  0  0  0  0  0  0  0  0  0  0  0
  149.7896  138.8735  157.8064 H   0  0  0  0  0  0  0  0  0  0  0  0
  151.1439  137.7641  158.0171 H   0  0  0  0  0  0  0  0  0  0  0  0
  153.3006  140.0327  157.3790 H   0  0  0  0  0  0  0  0  0  0  0  0
  153.4431  140.9902  159.8757 H   0  0  0  0  0  0  0  0  0  0  0  0
  153.9299  141.9811  158.5114 H   0  0  0  0  0  0  0  0  0  0  0  0
  152.1589  144.3106  158.3169 H   0  0  0  0  0  0  0  0  0  0  0  0
  151.5478  145.9382  160.4175 H   0  0  0  0  0  0  0  0  0  0  0  0
  152.1043  144.3497  162.6202 H   0  0  0  0  0  0  0  0  0  0  0  0
  1  2  1  0  0  0  0
  1 18  1  0  0  0  0
  1 19  1  0  0  0  0
  1 20  1  0  0  0  0
  2  3  1  0  0  0  0
  2 21  1  0  0  0  0
  2 22  1  0  0  0  0
  3  4  1  0  0  0  0
  3 23  1  0  0  0  0
  3 24  1  0  0  0  0
  4  5  1  0  0  0  0
  4  6  1  0  0  0  0
  4 15  1  0  0  0  0
  5 25  1  0  0  0  0
  5 26  1  0  0  0  0
  5 27  1  0  0  0  0
  6  7  1  0  0  0  0
  6 28  1  0  0  0  0
  7  8  2  0  0  0  0
  7  9  1  0  0  0  0
  9 10  1  0  0  0  0
  9 29  1  0  0  0  0
  9 30  1  0  0  0  0
 10 14  1  0  0  0  0
 10 11  1  0  0  0  0
 11 12  2  0  0  0  0
 11 31  1  0  0  0  0
 12 13  1  0  0  0  0
 12 32  1  0  0  0  0
 13 14  2  0  0  0  0
 13 33  1  0  0  0  0
 15 16  2  0  0  0  0
 15 17  1  0  0  0  0
M  CHG  1  17  -1
M  END
> <s_m_source_file>
AV-unprocessed.smi

> <i_m_source_file_index>
2832

> <i_lp_mmshare_version>
43012

> <i_f3d_flags>
0

> <s_epik_input>
W0NIM11bQ0gyXVtDSDJdW0NAXShbQ0gzXSkoQyg9TylbT0hdKVtOSF1DKD1PKVtDSDJdbjFbY0hdW2NIXVtjSF1uMQ==

> <s_epik_cmdline>
J2VwaWtfcHl0aG9uJywgJy1waCcsICc3LjAnLCAnLXRuJywgJzgnLCAnLW1hJywgJzIwMCcsICctbWV0YWxfYmluZGluZycsICctaW1hZScsICc8aW5maWxlLm1hZT4nLCAnLW9tYWUnLCAnPG91dGZpbGUubWFlPic=

> <r_lp_tautomer_probability>
1

> <r_epik_Ionization_Penalty>
0.000287256

> <r_epik_Ionization_Penalty_Charging>
0.00026921

> <r_epik_Ionization_Penalty_Neutral>
1.80463e-05

> <r_epik_State_Penalty>
-0

> <r_epik_Charging_Adjusted_Penalty>
0.00026921

> <i_epik_Tot_Q>
-1

> <i_epik_Tot_abs_Q>
1

> <r_epik_Metal_State_Penalty>
-0

> <b_epik_Metal_Only>
0

> <s_lp_Force_Field>
OPLS_2005

> <r_lp_Energy>
2.74442

> <b_lp_Chiralities_Consistent>
1

> <s_lp_Variant>
AV-unprocessed.smi:2832-2

> <Gold.Version>
5.8.1

> <Gold.Id.Protein>
6NUR|6NUR_protein|mol2

> <Gold.PLP.Fitness>
47.2170

> <Gold.PLP.PLP>
-36.8032

> <Gold.PLP.part.hbond>
-2.0000

> <Gold.PLP.part.metal>
0.0000

> <Gold.PLP.part.buried>
-5.4136

> <Gold.PLP.part.nonpolar>
-30.2106

> <Gold.PLP.part.repulsive>
0.2353

> <Gold.PLP.ligand.clash>
0.0000

> <Gold.PLP.ligand.torsion>
0.2637

> <Gold.PLP.Chemscore.Hbond>
3.6000

> <Gold.PLP.Chemscore.CHOScore>
0.0000

> <Gold.PLP.Chemscore.Metal>
0.0000

> <Gold.Chemscore.Hbonds>
donor molecule, donor type, donor heavy atom, donor atom, acceptor molecule, acceptor atom, score
      P1  H  7997  8010       L1    16  2.00
      P1  H 10752 10765       L1    17  1.59

> <Gold.PLP.Chemscore.Internal.Correction>
0.1412

> <Gold.Rescore>
     Score         DG    S(hbond)    S(metal)    S(lipo)     H(rot)  DE(clash)    DE(int)     intcor
     13.70     -14.05       1.87        0.00      73.94       2.47       0.00       0.34       ----

> <Gold.Chemscore.Fitness>
13.6997

> <Gold.Chemscore.DG>
-14.0452

> <Gold.Chemscore.ZeroCoef>
-5.4800

> <Gold.Chemscore.Hbond>
1.8694

> <Gold.Chemscore.Metal>
0.0000

> <Gold.Chemscore.Lipo>
73.9426

> <Gold.Chemscore.Internal_Hbond>
0.0000

> <Gold.Chemscore.DEClash>
0.0038

> <Gold.Chemscore.DEInternal>
0.3418

> <Gold.Chemscore.Rot>
2.4726

> <Gold.Chemscore.Internal.Correction>
   9.000000E+99

> <Gold.Chemscore.Hbonds>
donor molecule, donor type, donor heavy atom, donor atom, acceptor molecule, acceptor atom, score
      P1  H  7997  8010       L1    16  0.94
      P1  H 10752 10765       L1    17  0.73

> <Gold.Chemscore.Hbond.Weighted>
-6.2437

> <Gold.Chemscore.Metal.Weighted>
-0.0000

> <Gold.Chemscore.Lipo.Weighted>
-8.6513

> <Gold.Chemscore.Internal_Hbond.Weighted>
0.0000

> <Gold.Chemscore.DEClash.Weighted>
0.0038

> <Gold.Chemscore.DEInternal.Weighted>
0.3418

> <Gold.Chemscore.Rot.Weighted>
6.3297

> <Gold.Chemscore.Internal.Correction.Weighted>
   9.000000E+99

> <Gold.Protein.RotatedTorsions>
[ 6907 6896 6895 6894 ] final   27.79 input  -60.11 | X-H torsion
[ 7974 7965 7964 7962 ] final   59.77 input  175.53 | X-H torsion
[ 8008 7997 7996 7995 ] final  105.07 input   59.86 | X-H torsion
[ 10167 10162 10161 10158 ] final  -52.06 input  -65.29 | X-H torsion
[ 10718 10713 10712 10709 ] final   25.13 input   66.30 | X-H torsion
[ 10763 10752 10751 10750 ] final -155.60 input  -60.55 | X-H torsion
[ 11005 11000 10999 10996 ] final  -71.87 input  -57.11 | X-H torsion

> <Gold.Protein.ActiveResidues>
 VAL166  LYS551  ARG553  GLY616  TRP617  ASP618  TYR619  PRO620  LYS621  CYS622 
 ASP623  PHE694  ASN695  SER759  ASP760  ASP761  ALA762  ILE779  LEU786  VAL792 
 PHE793  MET794  SER795  GLU796  ALA797  LYS798  CYS799  TRP800  GLU811  SER814 

> <Gold.Protein.RotatedAtoms>
  152.0075  134.9894  160.0566 H   0  0  0  0  0  0  0  0  0  0  0  0  # atno 6907 bound_to 6896
  152.1460  133.4488  159.4798 H   0  0  0  0  0  0  0  0  0  0  0  0  # atno 6908 bound_to 6896
  150.6870  134.2165  159.4423 H   0  0  0  0  0  0  0  0  0  0  0  0  # atno 6909 bound_to 6896
  145.9034  139.3599  143.0579 H   0  0  0  0  0  0  0  0  0  0  0  0  # atno 7974 bound_to 7965
  156.1628  140.3137  155.8836 H   0  0  0  0  0  0  0  0  0  0  0  0  # atno 8008 bound_to 7997
  155.3748  140.0484  157.3062 H   0  0  0  0  0  0  0  0  0  0  0  0  # atno 8009 bound_to 7997
  154.5163  140.2182  155.9071 H   0  0  0  0  0  0  0  0  0  0  0  0  # atno 8010 bound_to 7997
  140.6557  143.2597  151.4594 H   0  0  0  0  0  0  0  0  0  0  0  0  # atno 10167 bound_to 10162
  157.1891  130.6838  149.6143 H   0  0  0  0  0  0  0  0  0  0  0  0  # atno 10718 bound_to 10713
  154.7775  135.3164  154.8060 H   0  0  0  0  0  0  0  0  0  0  0  0  # atno 10763 bound_to 10752
  153.8780  135.6838  153.4773 H   0  0  0  0  0  0  0  0  0  0  0  0  # atno 10764 bound_to 10752
  153.1403  135.4742  154.9421 H   0  0  0  0  0  0  0  0  0  0  0  0  # atno 10765 bound_to 10752
  141.1599  133.6830  156.6971 H   0  0  0  0  0  0  0  0  0  0  0  0  # atno 11005 bound_to 11000
  145.8762  140.9390  143.0625 LP  0  0  0  0  0  0  0  0  0  0  0  0  # atno 17320 bound_to 7965
  144.6737  140.0720  143.7472 LP  0  0  0  0  0  0  0  0  0  0  0  0  # atno 17321 bound_to 7965
  139.5779  144.1777  152.1928 LP  0  0  0  0  0  0  0  0  0  0  0  0  # atno 17342 bound_to 10162
  140.1093  144.5471  150.6935 LP  0  0  0  0  0  0  0  0  0  0  0  0  # atno 17343 bound_to 10162
  155.9714  130.4620  150.6131 LP  0  0  0  0  0  0  0  0  0  0  0  0  # atno 17370 bound_to 10713
  157.3878  131.0791  151.1421 LP  0  0  0  0  0  0  0  0  0  0  0  0  # atno 17371 bound_to 10713
  140.2986  134.8182  157.4078 LP  0  0  0  0  0  0  0  0  0  0  0  0  # atno 17394 bound_to 11000
  140.1282  134.5130  155.8127 LP  0  0  0  0  0  0  0  0  0  0  0  0  # atno 17395 bound_to 11000

$$$$
