AV-unprocessed.smi:927|AV-procd|sdf|4187|dock6
  -GOLD-   22720 2 93D 1   1.00000     0.00000
 Structure written by MMmdl.
 21 21  0  0  0  0  0  0  0  0  2 V2000
  143.3087  133.8361  148.0569 N   0  3  0  0  0  0  0  0  0  0  0  0
  143.9676  132.6157  148.5551 C   0  0  0  0  0  0  0  0  0  0  0  0
  143.7108  132.3991  150.0571 C   0  0  2  0  0  0  0  0  0  0  0  0
  142.3159  132.3040  150.2712 O   0  0  0  0  0  0  0  0  0  0  0  0
  144.3328  133.5106  150.8878 C   0  0  0  0  0  0  0  0  0  0  0  0
  143.5470  134.2508  151.7959 C   0  0  0  0  0  0  0  0  0  0  0  0
  144.1658  135.2686  152.5494 C   0  0  0  0  0  0  0  0  0  0  0  0
  145.4775  135.5720  152.4489 N   0  0  0  0  0  0  0  0  0  0  0  0
  146.2260  134.8597  151.5800 C   0  0  0  0  0  0  0  0  0  0  0  0
  145.7058  133.8223  150.7806 C   0  0  0  0  0  0  0  0  0  0  0  0
  142.6515  134.1718  148.7465 H   0  0  0  0  0  0  0  0  0  0  0  0
  142.8186  133.6214  147.1999 H   0  0  0  0  0  0  0  0  0  0  0  0
  143.5836  131.7693  147.9843 H   0  0  0  0  0  0  0  0  0  0  0  0
  145.0371  132.6795  148.3498 H   0  0  0  0  0  0  0  0  0  0  0  0
  144.1522  131.4499  150.3655 H   0  0  0  0  0  0  0  0  0  0  0  0
  141.9055  133.0811  149.9217 H   0  0  0  0  0  0  0  0  0  0  0  0
  142.4927  134.0484  151.9168 H   0  0  0  0  0  0  0  0  0  0  0  0
  143.5916  135.8535  153.2526 H   0  0  0  0  0  0  0  0  0  0  0  0
  147.2719  135.1229  151.5209 H   0  0  0  0  0  0  0  0  0  0  0  0
  146.3501  133.2812  150.1031 H   0  0  0  0  0  0  0  0  0  0  0  0
  144.0033  134.5468  147.8772 H   0  0  0  0  0  0  0  0  0  0  0  0
  1  2  1  0  0  0  0
  1 11  1  0  0  0  0
  1 12  1  0  0  0  0
  1 21  1  0  0  0  0
  2  3  1  0  0  0  0
  2 13  1  0  0  0  0
  2 14  1  0  0  0  0
  3  4  1  0  0  0  0
  3  5  1  0  0  0  0
  3 15  1  0  0  0  0
  4 16  1  0  0  0  0
  5 10  1  0  0  0  0
  5  6  2  0  0  0  0
  6  7  1  0  0  0  0
  6 17  1  0  0  0  0
  7  8  2  0  0  0  0
  7 18  1  0  0  0  0
  8  9  1  0  0  0  0
  9 10  2  0  0  0  0
  9 19  1  0  0  0  0
 10 20  1  0  0  0  0
M  CHG  1   1   1
M  END
> <s_m_source_file>
AV-unprocessed.smi

> <i_m_source_file_index>
927

> <i_lp_mmshare_version>
43012

> <i_f3d_flags>
0

> <s_epik_input>
W05IMl1bQ0gyXVtDQEhdKFtPSF0pYzFbY0hdW2NIXW5bY0hdW2NIXTE=

> <s_epik_cmdline>
J2VwaWtfcHl0aG9uJywgJy1waCcsICc3LjAnLCAnLXRuJywgJzgnLCAnLW1hJywgJzIwMCcsICctbWV0YWxfYmluZGluZycsICctaW1hZScsICc8aW5maWxlLm1hZT4nLCAnLW9tYWUnLCAnPG91dGZpbGUubWFlPic=

> <r_epik_Ionization_Penalty>
0.0159363

> <r_epik_Ionization_Penalty_Charging>
0.0140431

> <r_epik_Ionization_Penalty_Neutral>
0.00189321

> <r_epik_State_Penalty>
0.0109628

> <r_epik_Charging_Adjusted_Penalty>
0.0250059

> <i_epik_Tot_Q>
1

> <i_epik_Tot_abs_Q>
1

> <r_epik_Metal_State_Penalty>
0.0113463

> <b_epik_Metal_Only>
0

> <s_lp_Force_Field>
OPLS_2005

> <r_lp_Energy>
4.52457

> <b_lp_Chiralities_Consistent>
1

> <s_lp_Variant>
AV-unprocessed.smi:927-1

> <Gold.Version>
5.8.1

> <Gold.Id.Protein>
6NUR|6NUR_protein|mol2

> <Gold.PLP.Fitness>
39.2627

> <Gold.PLP.PLP>
-21.4152

> <Gold.PLP.part.hbond>
-4.8281

> <Gold.PLP.part.metal>
0.0000

> <Gold.PLP.part.buried>
-2.1525

> <Gold.PLP.part.nonpolar>
-15.6057

> <Gold.PLP.part.repulsive>
0.3185

> <Gold.PLP.ligand.clash>
0.0000

> <Gold.PLP.ligand.torsion>
0.0411

> <Gold.PLP.Chemscore.Hbond>
4.9760

> <Gold.PLP.Chemscore.CHOScore>
0.9983

> <Gold.PLP.Chemscore.Metal>
0.0000

> <Gold.Chemscore.Hbonds>
donor molecule, donor type, donor heavy atom, donor atom, acceptor molecule, acceptor atom, score
      L1  H     1    11       P1 10186  2.00
      L1  H     1    12       P1 10195  1.00
      L1  H     1    21       P1  7921  0.63
      L1  H     4    16       P1 10186  1.00
      L1  C     9    19       P1  7948  0.90

> <Gold.PLP.Chemscore.Internal.Correction>
0.0066

> <Gold.Rescore>
     Score         DG    S(hbond)    S(metal)    S(lipo)     H(rot)  DE(clash)    DE(int)     intcor
     19.14     -19.31       3.79        0.00      51.62       1.90       0.09       0.07       ----

> <Gold.Chemscore.Fitness>
19.1446

> <Gold.Chemscore.DG>
-19.3121

> <Gold.Chemscore.ZeroCoef>
-5.4800

> <Gold.Chemscore.Hbond>
3.7880

> <Gold.Chemscore.Metal>
0.0000

> <Gold.Chemscore.Lipo>
51.6192

> <Gold.Chemscore.Internal_Hbond>
0.0000

> <Gold.Chemscore.DEClash>
0.0926

> <Gold.Chemscore.DEInternal>
0.0749

> <Gold.Chemscore.Rot>
1.8981

> <Gold.Chemscore.Internal.Correction>
   9.000000E+99

> <Gold.Chemscore.Hbonds>
donor molecule, donor type, donor heavy atom, donor atom, acceptor molecule, acceptor atom, score
      L1  H     1    11       P1 10186  0.99
      L1  H     1    12       P1 10195  0.96
      L1  H     1    21       P1  7921  0.61
      L1  H     4    16       P1 10186  1.00

> <Gold.Chemscore.Hbond.Weighted>
-12.6518

> <Gold.Chemscore.Metal.Weighted>
-0.0000

> <Gold.Chemscore.Lipo.Weighted>
-6.0395

> <Gold.Chemscore.Internal_Hbond.Weighted>
0.0000

> <Gold.Chemscore.DEClash.Weighted>
0.0926

> <Gold.Chemscore.DEInternal.Weighted>
0.0749

> <Gold.Chemscore.Rot.Weighted>
4.8592

> <Gold.Chemscore.Internal.Correction.Weighted>
   9.000000E+99

> <Gold.Protein.RotatedTorsions>
[ 6907 6896 6895 6894 ] final  -63.07 input  -60.11 | X-H torsion
[ 7974 7965 7964 7962 ] final  128.45 input  175.53 | X-H torsion
[ 8008 7997 7996 7995 ] final   29.28 input   59.86 | X-H torsion
[ 10167 10162 10161 10158 ] final -105.43 input  -65.29 | X-H torsion
[ 10718 10713 10712 10709 ] final -179.11 input   66.30 | X-H torsion
[ 10763 10752 10751 10750 ] final   85.32 input  -60.55 | X-H torsion
[ 11005 11000 10999 10996 ] final  -66.73 input  -57.11 | X-H torsion

> <Gold.Protein.ActiveResidues>
 VAL166  LYS551  ARG553  GLY616  TRP617  ASP618  TYR619  PRO620  LYS621  CYS622 
 ASP623  PHE694  ASN695  SER759  ASP760  ASP761  ALA762  ILE779  LEU786  VAL792 
 PHE793  MET794  SER795  GLU796  ALA797  LYS798  CYS799  TRP800  GLU811  SER814 

> <Gold.Protein.RotatedAtoms>
  150.7673  134.6485  159.6275 H   0  0  0  0  0  0  0  0  0  0  0  0  # atno 6907 bound_to 6896
  152.3711  134.6729  160.0184 H   0  0  0  0  0  0  0  0  0  0  0  0  # atno 6908 bound_to 6896
  151.7089  133.3275  159.3322 H   0  0  0  0  0  0  0  0  0  0  0  0  # atno 6909 bound_to 6896
  145.0394  139.3976  143.5109 H   0  0  0  0  0  0  0  0  0  0  0  0  # atno 7974 bound_to 7965
  155.0721  140.3201  155.4627 H   0  0  0  0  0  0  0  0  0  0  0  0  # atno 8008 bound_to 7997
  156.2788  140.2110  156.5793 H   0  0  0  0  0  0  0  0  0  0  0  0  # atno 8009 bound_to 7997
  154.7047  140.0504  157.0479 H   0  0  0  0  0  0  0  0  0  0  0  0  # atno 8010 bound_to 7997
  140.1986  143.3836  152.1148 H   0  0  0  0  0  0  0  0  0  0  0  0  # atno 10167 bound_to 10162
  156.8542  130.9729  151.3089 H   0  0  0  0  0  0  0  0  0  0  0  0  # atno 10718 bound_to 10713
  153.1463  135.4622  154.9571 H   0  0  0  0  0  0  0  0  0  0  0  0  # atno 10763 bound_to 10752
  154.7789  135.3182  154.8035 H   0  0  0  0  0  0  0  0  0  0  0  0  # atno 10764 bound_to 10752
  153.8548  135.6918  153.4843 H   0  0  0  0  0  0  0  0  0  0  0  0  # atno 10765 bound_to 10752
  141.1490  133.6705  156.6184 H   0  0  0  0  0  0  0  0  0  0  0  0  # atno 11005 bound_to 11000
  146.3507  139.9987  142.8678 LP  0  0  0  0  0  0  0  0  0  0  0  0  # atno 17320 bound_to 7965
  145.1667  140.9700  143.4345 LP  0  0  0  0  0  0  0  0  0  0  0  0  # atno 17321 bound_to 7965
  139.5226  144.7061  151.5349 LP  0  0  0  0  0  0  0  0  0  0  0  0  # atno 17342 bound_to 10162
  140.6406  143.8897  150.6688 LP  0  0  0  0  0  0  0  0  0  0  0  0  # atno 17343 bound_to 10162
  157.6286  130.8711  149.9233 LP  0  0  0  0  0  0  0  0  0  0  0  0  # atno 17370 bound_to 10713
  156.0811  130.3673  150.0578 LP  0  0  0  0  0  0  0  0  0  0  0  0  # atno 17371 bound_to 10713
  140.3559  134.7728  157.4500 LP  0  0  0  0  0  0  0  0  0  0  0  0  # atno 17394 bound_to 11000
  140.0823  134.5714  155.8528 LP  0  0  0  0  0  0  0  0  0  0  0  0  # atno 17395 bound_to 11000

$$$$
