#       Name:                AV-unprocessed.smi:2139
#       Creating user name   scv26
#       Creation time:       Fri Mar 27 11:47:51 2020


#       File generated by GOLD software.
#

@<TRIPOS>MOLECULE
AV-unprocessed.smi:2139
    46    47     1
SMALL
NO_CHARGES


@<TRIPOS>ATOM
      1 ****        -2.8352  -1.5489  -0.7290 C.3            1 S1                 0.0000
      2 ****        -3.2492  -1.5357   0.7496 C.3            1 S1                 0.0000
      3 ****        -2.6916  -0.3380   1.5428 C.3            1 S1                 0.0000
      4 ****        -3.2191  -0.3173   2.9840 C.3            1 S1                 0.0000
      5 ****        -1.2300  -0.3702   1.5681 N.am           1 S1                 0.0000
      6 ****        -0.4114   0.5402   1.0145 C.2            1 S1                 0.0000
      7 ****        -0.8071   1.5202   0.3826 O.2            1 S1                 0.0000
      8 ****         1.0599   0.2620   1.1853 C.ar           1 S1                 0.0000
      9 ****         1.5458  -0.1471   2.4490 C.ar           1 S1                 0.0000
     10 ****         2.9239  -0.3602   2.6286 C.ar           1 S1                 0.0000
     11 ****         3.7774  -0.1473   1.5330 C.ar           1 S1                 0.0000
     12 ****         3.3363   0.2444   0.3210 N.ar           1 S1                 0.0000
     13 ****         2.0083   0.4491   0.1356 C.ar           1 S1                 0.0000
     14 ****         1.6043   0.8108  -1.1649 N.3            1 S1                 0.0000
     15 ****         2.4932   1.6762  -1.9323 C.3            1 S1                 0.0000
     16 ****         1.7761   2.1567  -3.2058 C.3            1 S1                 0.0000
     17 ****         1.3268   1.0310  -3.9560 O.3            1 S1                 0.0000
     18 ****         0.4051   0.2288  -3.2220 C.3            1 S1                 0.0000
     19 ****         1.0835  -0.3020  -1.9479 C.3            1 S1                 0.0000
     20 ****        -3.3191  -2.3697  -1.2584 H              1 S1                 0.0000
     21 ****        -1.7591  -1.6763  -0.8413 H              1 S1                 0.0000
     22 ****        -3.1173  -0.6201  -1.2258 H              1 S1                 0.0000
     23 ****        -4.3385  -1.5205   0.8023 H              1 S1                 0.0000
     24 ****        -2.9371  -2.4693   1.2193 H              1 S1                 0.0000
     25 ****        -3.0401   0.5753   1.0576 H              1 S1                 0.0000
     26 ****        -4.3081  -0.2677   3.0026 H              1 S1                 0.0000
     27 ****        -2.8420   0.5500   3.5270 H              1 S1                 0.0000
     28 ****        -2.9174  -1.2107   3.5317 H              1 S1                 0.0000
     29 ****        -0.8053  -1.1493   2.0498 H              1 S1                 0.0000
     30 ****         0.8744  -0.2884   3.2838 H              1 S1                 0.0000
     31 ****         3.3174  -0.6713   3.5850 H              1 S1                 0.0000
     32 ****         4.8425  -0.2961   1.6313 H              1 S1                 0.0000
     33 ****         2.7955   2.5305  -1.3259 H              1 S1                 0.0000
     34 ****         3.3979   1.1301  -2.2026 H              1 S1                 0.0000
     35 ****         0.9315   2.8008  -2.9564 H              1 S1                 0.0000
     36 ****         2.4563   2.7459  -3.8208 H              1 S1                 0.0000
     37 ****        -0.4838   0.8114  -2.9737 H              1 S1                 0.0000
     38 ****         0.0779  -0.6014  -3.8482 H              1 S1                 0.0000
     39 ****         1.9051  -0.9696  -2.2110 H              1 S1                 0.0000
     40 ****         0.3742  -0.8861  -1.3628 H              1 S1                 0.0000
     41 ****        -1.7877   1.6725   0.2585 LP             1 S1                 0.0000
     42 ****        -0.1480   2.1637  -0.0065 LP             1 S1                 0.0000
     43 ****         3.9798   0.3823  -0.4318 LP             1 S1                 0.0000
     44 ****         0.8367   1.4197  -0.9646 LP             1 S1                 0.0000
     45 ****         2.1179   0.4705  -4.2008 LP             1 S1                 0.0000
     46 ****         0.8786   1.3567  -4.7885 LP             1 S1                 0.0000
@<TRIPOS>BOND
    1    1    2 1     
    2    1   20 1     
    3    1   21 1     
    4    1   22 1     
    5    2    3 1     
    6    2   23 1     
    7    2   24 1     
    8    3    4 1     
    9    3    5 1     
   10    3   25 1     
   11    4   26 1     
   12    4   27 1     
   13    4   28 1     
   14    5    6 am    
   15    5   29 1     
   16    6    7 2     
   17    6    8 1     
   18    8   13 ar    
   19    8    9 ar    
   20    9   10 ar    
   21    9   30 1     
   22   10   11 ar    
   23   10   31 1     
   24   11   12 ar    
   25   11   32 1     
   26   12   13 ar    
   27   13   14 1     
   28   14   19 1     
   29   14   15 1     
   30   15   16 1     
   31   15   33 1     
   32   15   34 1     
   33   16   17 1     
   34   16   35 1     
   35   16   36 1     
   36   17   18 1     
   37   18   19 1     
   38   18   37 1     
   39   18   38 1     
   40   19   39 1     
   41   19   40 1     
   42    7   41 1     
   43    7   42 1     
   44   12   43 1     
   45   14   44 1     
   46   17   45 1     
   47   17   46 1     
@<TRIPOS>SUBSTRUCTURE
      1 S1             1
@<TRIPOS>SET
LONE_PAIRS      STATIC     ATOMS    <user>   **** ""
6 41 42 43 44 45 46
DONOR_HYDROGENS      STATIC     ATOMS    <user>   **** ""
1 29
ATOM$BLUE        STATIC     ATOMS    COLORGROUP SYSTEM
6 41 42 43 44 45 46
ATOM$RED        STATIC     ATOMS    COLORGROUP SYSTEM
1 29
