AV-unprocessed.smi:2790|AV-procd|sdf|10769|dock3
  -GOLD-   2272015203D 1   1.00000     0.00000
 Structure written by MMmdl.
 45 46  0  0  0  0  0  0  0  0  3 V2000
  145.8314  135.8870  150.6094 C   0  0  0  0  0  0  0  0  0  0  0  0
  146.1517  136.1407  152.0299 N   0  3  0  0  0  0  0  0  0  0  0  0
  145.6573  135.0575  152.9115 C   0  0  0  0  0  0  0  0  0  0  0  0
  145.7348  137.4961  152.4717 C   0  0  0  0  0  0  0  0  0  0  0  0
  146.7051  138.5539  151.9354 C   0  0  0  0  0  0  0  0  0  0  0  0
  146.9337  138.5796  150.7224 O   0  0  0  0  0  0  0  0  0  0  0  0
  147.1649  139.3447  152.9436 N   0  5  0  0  0  0  0  0  0  0  0  0
  148.5144  139.2513  153.5060 C   0  0  0  0  0  0  0  0  0  0  0  0
  148.7069  140.2395  154.7239 C   0  0  0  0  0  0  0  0  0  0  0  0
  150.1417  140.0653  155.3044 C   0  0  0  0  0  0  0  0  0  0  0  0
  150.5714  140.7906  156.4475 C   0  0  0  0  0  0  0  0  0  0  0  0
  151.8726  140.5937  156.9485 C   0  0  0  0  0  0  0  0  0  0  0  0
  152.7599  139.7420  156.3965 N   0  0  0  0  0  0  0  0  0  0  0  0
  152.3656  139.0515  155.3086 C   0  0  0  0  0  0  0  0  0  0  0  0
  151.0851  139.1693  154.7344 C   0  0  0  0  0  0  0  0  0  0  0  0
  148.4591  141.7374  154.3084 C   0  0  0  0  0  0  0  0  0  0  0  0
  146.9918  142.1404  154.0442 C   0  0  0  0  0  0  0  0  0  0  0  0
  146.1032  141.8207  155.2486 C   0  0  0  0  0  0  0  0  0  0  0  0
  146.2145  140.3388  155.6151 C   0  0  0  0  0  0  0  0  0  0  0  0
  147.6813  139.9253  155.8722 C   0  0  0  0  0  0  0  0  0  0  0  0
  144.7541  135.9133  150.4405 H   0  0  0  0  0  0  0  0  0  0  0  0
  146.2047  134.9105  150.2992 H   0  0  0  0  0  0  0  0  0  0  0  0
  146.2994  136.6364  149.9701 H   0  0  0  0  0  0  0  0  0  0  0  0
  144.5673  135.0248  152.9181 H   0  0  0  0  0  0  0  0  0  0  0  0
  146.0030  135.1938  153.9366 H   0  0  0  0  0  0  0  0  0  0  0  0
  146.0247  134.0892  152.5711 H   0  0  0  0  0  0  0  0  0  0  0  0
  144.7366  137.7286  152.0960 H   0  0  0  0  0  0  0  0  0  0  0  0
  145.6755  137.5408  153.5604 H   0  0  0  0  0  0  0  0  0  0  0  0
  148.7246  138.2328  153.8313 H   0  0  0  0  0  0  0  0  0  0  0  0
  149.2835  139.4702  152.7636 H   0  0  0  0  0  0  0  0  0  0  0  0
  149.9154  141.4793  156.9573 H   0  0  0  0  0  0  0  0  0  0  0  0
  152.2078  141.1335  157.8218 H   0  0  0  0  0  0  0  0  0  0  0  0
  153.0901  138.3705  154.8873 H   0  0  0  0  0  0  0  0  0  0  0  0
  150.8520  138.5611  153.8750 H   0  0  0  0  0  0  0  0  0  0  0  0
  148.8025  142.3776  155.1225 H   0  0  0  0  0  0  0  0  0  0  0  0
  149.0581  142.0284  153.4434 H   0  0  0  0  0  0  0  0  0  0  0  0
  146.9412  143.2081  153.8287 H   0  0  0  0  0  0  0  0  0  0  0  0
  146.6086  141.6385  153.1554 H   0  0  0  0  0  0  0  0  0  0  0  0
  146.4016  142.4339  156.0998 H   0  0  0  0  0  0  0  0  0  0  0  0
  145.0664  142.0759  155.0284 H   0  0  0  0  0  0  0  0  0  0  0  0
  145.6191  140.1396  156.5066 H   0  0  0  0  0  0  0  0  0  0  0  0
  145.7785  139.7292  154.8231 H   0  0  0  0  0  0  0  0  0  0  0  0
  147.6917  138.8720  156.1574 H   0  0  0  0  0  0  0  0  0  0  0  0
  148.0028  140.4619  156.7665 H   0  0  0  0  0  0  0  0  0  0  0  0
  147.1602  136.1372  152.0991 H   0  0  0  0  0  0  0  0  0  0  0  0
  1  2  1  0  0  0  0
  1 21  1  0  0  0  0
  1 22  1  0  0  0  0
  1 23  1  0  0  0  0
  2  3  1  0  0  0  0
  2  4  1  0  0  0  0
  2 45  1  0  0  0  0
  3 24  1  0  0  0  0
  3 25  1  0  0  0  0
  3 26  1  0  0  0  0
  4  5  1  0  0  0  0
  4 27  1  0  0  0  0
  4 28  1  0  0  0  0
  5  6  2  0  0  0  0
  5  7  1  0  0  0  0
  7  8  1  0  0  0  0
  8  9  1  0  0  0  0
  8 29  1  0  0  0  0
  8 30  1  0  0  0  0
  9 20  1  0  0  0  0
  9 10  1  0  0  0  0
  9 16  1  0  0  0  0
 10 15  1  0  0  0  0
 10 11  2  0  0  0  0
 11 12  1  0  0  0  0
 11 31  1  0  0  0  0
 12 13  2  0  0  0  0
 12 32  1  0  0  0  0
 13 14  1  0  0  0  0
 14 15  2  0  0  0  0
 14 33  1  0  0  0  0
 15 34  1  0  0  0  0
 16 17  1  0  0  0  0
 16 35  1  0  0  0  0
 16 36  1  0  0  0  0
 17 18  1  0  0  0  0
 17 37  1  0  0  0  0
 17 38  1  0  0  0  0
 18 19  1  0  0  0  0
 18 39  1  0  0  0  0
 18 40  1  0  0  0  0
 19 20  1  0  0  0  0
 19 41  1  0  0  0  0
 19 42  1  0  0  0  0
 20 43  1  0  0  0  0
 20 44  1  0  0  0  0
M  CHG  1   2   1
M  CHG  1   7  -1
M  END
> <s_m_source_file>
AV-unprocessed.smi

> <i_m_source_file_index>
2790

> <i_lp_mmshare_version>
43012

> <i_f3d_flags>
0

> <s_epik_input>
W0NIM11OKFtDSDNdKVtDSDJdQyg9TylbTkhdW0NIMl1DMShbQ0gyXVtDSDJdW0NIMl1bQ0gyXVtDSDJdMSljMltjSF1bY0hdbltjSF1bY0hdMg==

> <s_epik_cmdline>
J2VwaWtfcHl0aG9uJywgJy1waCcsICc3LjAnLCAnLXRuJywgJzgnLCAnLW1hJywgJzIwMCcsICctbWV0YWxfYmluZGluZycsICctaW1hZScsICc8aW5maWxlLm1hZT4nLCAnLW9tYWUnLCAnPG91dGZpbGUubWFlPic=

> <r_epik_Ionization_Penalty>
6.38592

> <r_epik_Ionization_Penalty_Charging>
6.21784

> <r_epik_Ionization_Penalty_Neutral>
0.168075

> <r_epik_State_Penalty>
6.29446

> <r_epik_Charging_Adjusted_Penalty>
12.5123

> <i_epik_Tot_Q>
0

> <i_epik_Tot_abs_Q>
2

> <r_epik_Metal_State_Penalty>
2.27801

> <b_epik_Metal_Only>
1

> <s_lp_Force_Field>
OPLS_2005

> <r_lp_Energy>
25.1562

> <b_lp_Chiralities_Consistent>
1

> <s_lp_Variant>
AV-unprocessed.smi:2790-4

> <Gold.Version>
5.8.1

> <Gold.Id.Protein>
6NUR|6NUR_protein|mol2

> <Gold.PLP.Fitness>
45.4227

> <Gold.PLP.PLP>
-35.2976

> <Gold.PLP.part.hbond>
-3.0000

> <Gold.PLP.part.metal>
0.0000

> <Gold.PLP.part.buried>
-1.7171

> <Gold.PLP.part.nonpolar>
-31.9954

> <Gold.PLP.part.repulsive>
1.0569

> <Gold.PLP.ligand.clash>
0.0000

> <Gold.PLP.ligand.torsion>
0.9613

> <Gold.PLP.Chemscore.Hbond>
3.9920

> <Gold.PLP.Chemscore.CHOScore>
0.0000

> <Gold.PLP.Chemscore.Metal>
0.0000

> <Gold.Chemscore.Hbonds>
donor molecule, donor type, donor heavy atom, donor atom, acceptor molecule, acceptor atom, score
      L1  H     2    45       P1  7948  2.00
      P1  H  7954  7966       L1     6  0.90
      P1  H  7997  8009       L1    13  1.00

> <Gold.PLP.Chemscore.Internal.Correction>
0.0716

> <Gold.Rescore>
     Score         DG    S(hbond)    S(metal)    S(lipo)     H(rot)  DE(clash)    DE(int)     intcor
     15.87     -20.65       2.90        0.00      81.89       1.59       1.52       3.26       ----

> <Gold.Chemscore.Fitness>
15.8737

> <Gold.Chemscore.DG>
-20.6531

> <Gold.Chemscore.ZeroCoef>
-5.4800

> <Gold.Chemscore.Hbond>
2.8957

> <Gold.Chemscore.Metal>
0.0000

> <Gold.Chemscore.Lipo>
81.8941

> <Gold.Chemscore.Internal_Hbond>
0.0000

> <Gold.Chemscore.DEClash>
1.5181

> <Gold.Chemscore.DEInternal>
3.2612

> <Gold.Chemscore.Rot>
1.5938

> <Gold.Chemscore.Internal.Correction>
   9.000000E+99

> <Gold.Chemscore.Hbonds>
donor molecule, donor type, donor heavy atom, donor atom, acceptor molecule, acceptor atom, score
      L1  H     2    45       P1  7948  1.00
      P1  H  7954  7966       L1     6  0.88
      P1  H  7997  8009       L1    13  0.90

> <Gold.Chemscore.Hbond.Weighted>
-9.6717

> <Gold.Chemscore.Metal.Weighted>
-0.0000

> <Gold.Chemscore.Lipo.Weighted>
-9.5816

> <Gold.Chemscore.Internal_Hbond.Weighted>
0.0000

> <Gold.Chemscore.DEClash.Weighted>
1.5181

> <Gold.Chemscore.DEInternal.Weighted>
3.2612

> <Gold.Chemscore.Rot.Weighted>
4.0802

> <Gold.Chemscore.Internal.Correction.Weighted>
   9.000000E+99

> <Gold.Protein.RotatedTorsions>
[ 6907 6896 6895 6894 ] final  151.87 input  -60.11 | X-H torsion
[ 7974 7965 7964 7962 ] final  -57.74 input  175.53 | X-H torsion
[ 8008 7997 7996 7995 ] final -172.35 input   59.86 | X-H torsion
[ 10167 10162 10161 10158 ] final  158.16 input  -65.29 | X-H torsion
[ 10718 10713 10712 10709 ] final  157.41 input   66.30 | X-H torsion
[ 10763 10752 10751 10750 ] final   75.50 input  -60.55 | X-H torsion
[ 11005 11000 10999 10996 ] final   36.12 input  -57.11 | X-H torsion

> <Gold.Protein.ActiveResidues>
 VAL166  LYS551  ARG553  GLY616  TRP617  ASP618  TYR619  PRO620  LYS621  CYS622 
 ASP623  PHE694  ASN695  SER759  ASP760  ASP761  ALA762  ILE779  LEU786  VAL792 
 PHE793  MET794  SER795  GLU796  ALA797  LYS798  CYS799  TRP800  GLU811  SER814 

> <Gold.Protein.RotatedAtoms>
  152.0946  133.4218  159.4558 H   0  0  0  0  0  0  0  0  0  0  0  0  # atno 6907 bound_to 6896
  150.6863  134.2832  159.4645 H   0  0  0  0  0  0  0  0  0  0  0  0  # atno 6908 bound_to 6896
  152.0686  134.9547  160.0625 H   0  0  0  0  0  0  0  0  0  0  0  0  # atno 6909 bound_to 6896
  145.8475  140.8375  143.0003 H   0  0  0  0  0  0  0  0  0  0  0  0  # atno 7974 bound_to 7965
  155.9434  140.1113  157.1037 H   0  0  0  0  0  0  0  0  0  0  0  0  # atno 8008 bound_to 7997
  154.4094  140.1214  156.5023 H   0  0  0  0  0  0  0  0  0  0  0  0  # atno 8009 bound_to 7997
  155.6933  140.3472  155.4905 H   0  0  0  0  0  0  0  0  0  0  0  0  # atno 8010 bound_to 7997
  139.4825  144.4850  151.8390 H   0  0  0  0  0  0  0  0  0  0  0  0  # atno 10167 bound_to 10162
  157.1919  131.0656  151.2074 H   0  0  0  0  0  0  0  0  0  0  0  0  # atno 10718 bound_to 10713
  153.0659  135.4986  154.8199 H   0  0  0  0  0  0  0  0  0  0  0  0  # atno 10763 bound_to 10752
  154.6953  135.2992  154.9423 H   0  0  0  0  0  0  0  0  0  0  0  0  # atno 10764 bound_to 10752
  154.0164  135.6747  153.4822 H   0  0  0  0  0  0  0  0  0  0  0  0  # atno 10765 bound_to 10752
  140.2357  134.3474  155.7945 H   0  0  0  0  0  0  0  0  0  0  0  0  # atno 11005 bound_to 11000
  144.6730  140.0903  143.7465 LP  0  0  0  0  0  0  0  0  0  0  0  0  # atno 17320 bound_to 7965
  145.9396  139.2660  143.1277 LP  0  0  0  0  0  0  0  0  0  0  0  0  # atno 17321 bound_to 7965
  140.4330  144.2090  150.5888 LP  0  0  0  0  0  0  0  0  0  0  0  0  # atno 17342 bound_to 10162
  140.4761  143.2395  151.9022 LP  0  0  0  0  0  0  0  0  0  0  0  0  # atno 17343 bound_to 10162
  157.3852  130.7252  149.6658 LP  0  0  0  0  0  0  0  0  0  0  0  0  # atno 17370 bound_to 10713
  155.9710  130.4161  150.4216 LP  0  0  0  0  0  0  0  0  0  0  0  0  # atno 17371 bound_to 10713
  141.2214  133.7270  156.8804 LP  0  0  0  0  0  0  0  0  0  0  0  0  # atno 17394 bound_to 11000
  140.1704  134.9104  157.2826 LP  0  0  0  0  0  0  0  0  0  0  0  0  # atno 17395 bound_to 11000

$$$$
