AV-unprocessed.smi:711|AV-procd|sdf|3464|dock2
  -GOLD-   22720 0453D 1   1.00000     0.00000
 Structure written by MMmdl.
 29 30  0  0  0  0  0  0  0  0  1 V2000
  148.5302  138.6702  154.1232 O   0  0  0  0  0  0  0  0  0  0  0  0
  149.2328  139.4731  154.7339 C   0  0  0  0  0  0  0  0  0  0  0  0
  150.4224  139.0440  155.3297 N   0  0  0  0  0  0  0  0  0  0  0  0
  151.3075  139.8473  156.0493 C   0  0  0  0  0  0  0  0  0  0  0  0
  152.3186  139.3479  156.5426 O   0  0  0  0  0  0  0  0  0  0  0  0
  150.9662  141.2156  156.1767 N   0  0  0  0  0  0  0  0  0  0  0  0
  151.8324  142.0861  156.9392 C   0  0  0  0  0  0  0  0  0  0  0  0
  151.0797  142.9607  157.9668 C   0  0  2  0  0  0  0  0  0  0  0  0
  150.9228  144.2535  157.4174 O   0  0  0  0  0  0  0  0  0  0  0  0
  151.7465  142.9868  159.3382 C   0  0  0  0  0  0  0  0  0  0  0  0
  152.4315  141.8477  159.8175 C   0  0  0  0  0  0  0  0  0  0  0  0
  153.0288  141.8599  161.0926 C   0  0  0  0  0  0  0  0  0  0  0  0
  152.9446  143.0108  161.8985 C   0  0  0  0  0  0  0  0  0  0  0  0
  153.5177  143.0226  163.1252 F   0  0  0  0  0  0  0  0  0  0  0  0
  152.2616  144.1485  161.4291 C   0  0  0  0  0  0  0  0  0  0  0  0
  151.6624  144.1384  160.1546 C   0  0  0  0  0  0  0  0  0  0  0  0
  150.9956  145.2373  159.7258 F   0  0  0  0  0  0  0  0  0  0  0  0
  149.7929  141.6823  155.6053 C   0  0  0  0  0  0  0  0  0  0  0  0
  148.9376  140.8941  154.9106 C   0  0  0  0  0  0  0  0  0  0  0  0
  147.4920  141.5528  154.2327 Cl  0  0  0  0  0  0  0  0  0  0  0  0
  150.6592  138.0672  155.2348 H   0  0  0  0  0  0  0  0  0  0  0  0
  152.6244  141.4909  157.3980 H   0  0  0  0  0  0  0  0  0  0  0  0
  152.3293  142.7114  156.1951 H   0  0  0  0  0  0  0  0  0  0  0  0
  150.0698  142.5658  158.0815 H   0  0  0  0  0  0  0  0  0  0  0  0
  150.1826  144.2417  156.8300 H   0  0  0  0  0  0  0  0  0  0  0  0
  152.4939  140.9557  159.2115 H   0  0  0  0  0  0  0  0  0  0  0  0
  153.5487  140.9844  161.4531 H   0  0  0  0  0  0  0  0  0  0  0  0
  152.1935  145.0301  162.0493 H   0  0  0  0  0  0  0  0  0  0  0  0
  149.5446  142.7277  155.7237 H   0  0  0  0  0  0  0  0  0  0  0  0
  1  2  2  0  0  0  0
  2 19  1  0  0  0  0
  2  3  1  0  0  0  0
  3 21  1  0  0  0  0
  3  4  1  0  0  0  0
  4  5  2  0  0  0  0
  4  6  1  0  0  0  0
  6  7  1  0  0  0  0
  6 18  1  0  0  0  0
  7  8  1  0  0  0  0
  7 22  1  0  0  0  0
  7 23  1  0  0  0  0
  8  9  1  0  0  0  0
  8 10  1  0  0  0  0
  8 24  1  0  0  0  0
  9 25  1  0  0  0  0
 10 16  1  0  0  0  0
 10 11  2  0  0  0  0
 11 12  1  0  0  0  0
 11 26  1  0  0  0  0
 12 13  2  0  0  0  0
 12 27  1  0  0  0  0
 13 14  1  0  0  0  0
 13 15  1  0  0  0  0
 15 16  2  0  0  0  0
 15 28  1  0  0  0  0
 16 17  1  0  0  0  0
 18 19  2  0  0  0  0
 18 29  1  0  0  0  0
 19 20  1  0  0  0  0
M  END
> <s_m_source_file>
AV-unprocessed.smi

> <i_m_source_file_index>
711

> <i_lp_mmshare_version>
43012

> <i_f3d_flags>
0

> <s_epik_input>
Tz1jMVtuSF1jKD1PKW4oW2NIXWMxQ2wpW0NIMl1bQ0BIXShbT0hdKWMyW2NIXVtjSF1jKEYpW2NIXWMyRg==

> <s_epik_cmdline>
J2VwaWtfcHl0aG9uJywgJy1waCcsICc3LjAnLCAnLXRuJywgJzgnLCAnLW1hJywgJzIwMCcsICctbWV0YWxfYmluZGluZycsICctaW1hZScsICc8aW5maWxlLm1hZT4nLCAnLW9tYWUnLCAnPG91dGZpbGUubWFlPic=

> <r_lp_tautomer_probability>
0.999537

> <r_epik_Ionization_Penalty>
0.0292058

> <r_epik_Ionization_Penalty_Charging>
0.0292057

> <r_epik_Ionization_Penalty_Neutral>
9.07348e-08

> <r_epik_State_Penalty>
0.0240115

> <r_epik_Charging_Adjusted_Penalty>
0.0532172

> <i_epik_Tot_Q>
0

> <i_epik_Tot_abs_Q>
0

> <r_epik_Metal_State_Penalty>
2.21956

> <b_epik_Metal_Only>
0

> <s_lp_Force_Field>
OPLS_2005

> <r_lp_Energy>
11.2971

> <b_lp_Chiralities_Consistent>
1

> <s_lp_Variant>
AV-unprocessed.smi:711-1

> <Gold.Version>
5.8.1

> <Gold.Id.Protein>
6NUR|6NUR_protein|mol2

> <Gold.PLP.Fitness>
55.1717

> <Gold.PLP.PLP>
-49.0629

> <Gold.PLP.part.hbond>
-2.0000

> <Gold.PLP.part.metal>
0.0000

> <Gold.PLP.part.buried>
-7.7781

> <Gold.PLP.part.nonpolar>
-39.3180

> <Gold.PLP.part.repulsive>
0.8314

> <Gold.PLP.ligand.clash>
0.0000

> <Gold.PLP.ligand.torsion>
1.4574

> <Gold.PLP.Chemscore.Hbond>
2.0000

> <Gold.PLP.Chemscore.CHOScore>
1.0000

> <Gold.PLP.Chemscore.Metal>
0.0000

> <Gold.Chemscore.Hbonds>
donor molecule, donor type, donor heavy atom, donor atom, acceptor molecule, acceptor atom, score
      L1  H     9    25       P1  8028  1.00
      P1  H  7997  8008       L1     5  0.54
      L1  C    18    29       P1  8028  1.00

> <Gold.PLP.Chemscore.Internal.Correction>
0.0236

> <Gold.Rescore>
     Score         DG    S(hbond)    S(metal)    S(lipo)     H(rot)  DE(clash)    DE(int)     intcor
     13.00     -17.74       1.92        0.00     101.65       2.37       1.43       3.31       ----

> <Gold.Chemscore.Fitness>
12.9993

> <Gold.Chemscore.DG>
-17.7382

> <Gold.Chemscore.ZeroCoef>
-5.4800

> <Gold.Chemscore.Hbond>
1.9220

> <Gold.Chemscore.Metal>
0.0000

> <Gold.Chemscore.Lipo>
101.6546

> <Gold.Chemscore.Internal_Hbond>
0.0000

> <Gold.Chemscore.DEClash>
1.4285

> <Gold.Chemscore.DEInternal>
3.3104

> <Gold.Chemscore.Rot>
2.3652

> <Gold.Chemscore.Internal.Correction>
   9.000000E+99

> <Gold.Chemscore.Hbonds>
donor molecule, donor type, donor heavy atom, donor atom, acceptor molecule, acceptor atom, score
      L1  H     9    25       P1  8028  0.96
      P1  H  7997  8008       L1     5  0.51

> <Gold.Chemscore.Hbond.Weighted>
-6.4194

> <Gold.Chemscore.Metal.Weighted>
-0.0000

> <Gold.Chemscore.Lipo.Weighted>
-11.8936

> <Gold.Chemscore.Internal_Hbond.Weighted>
0.0000

> <Gold.Chemscore.DEClash.Weighted>
1.4285

> <Gold.Chemscore.DEInternal.Weighted>
3.3104

> <Gold.Chemscore.Rot.Weighted>
6.0548

> <Gold.Chemscore.Internal.Correction.Weighted>
   9.000000E+99

> <Gold.Protein.RotatedTorsions>
[ 6907 6896 6895 6894 ] final -160.21 input  -60.11 | X-H torsion
[ 7974 7965 7964 7962 ] final  152.27 input  175.53 | X-H torsion
[ 8008 7997 7996 7995 ] final  -32.06 input   59.86 | X-H torsion
[ 10167 10162 10161 10158 ] final -146.95 input  -65.29 | X-H torsion
[ 10718 10713 10712 10709 ] final   61.19 input   66.30 | X-H torsion
[ 10763 10752 10751 10750 ] final  170.25 input  -60.55 | X-H torsion
[ 11005 11000 10999 10996 ] final    9.19 input  -57.11 | X-H torsion

> <Gold.Protein.ActiveResidues>
 VAL166  LYS551  ARG553  GLY616  TRP617  ASP618  TYR619  PRO620  LYS621  CYS622 
 ASP623  PHE694  ASN695  SER759  ASP760  ASP761  ALA762  ILE779  LEU786  VAL792 
 PHE793  MET794  SER795  GLU796  ALA797  LYS798  CYS799  TRP800  GLU811  SER814 

> <Gold.Protein.RotatedAtoms>
  151.3455  133.3945  159.2674 H   0  0  0  0  0  0  0  0  0  0  0  0  # atno 6907 bound_to 6896
  150.9843  134.9193  159.7873 H   0  0  0  0  0  0  0  0  0  0  0  0  # atno 6908 bound_to 6896
  152.5227  134.3419  159.9272 H   0  0  0  0  0  0  0  0  0  0  0  0  # atno 6909 bound_to 6896
  144.8234  139.6647  143.6090 H   0  0  0  0  0  0  0  0  0  0  0  0  # atno 7974 bound_to 7965
  154.4192  140.1748  156.1666 H   0  0  0  0  0  0  0  0  0  0  0  0  # atno 8008 bound_to 7997
  155.9795  140.3379  155.6625 H   0  0  0  0  0  0  0  0  0  0  0  0  # atno 8009 bound_to 7997
  155.6519  140.0691  157.2574 H   0  0  0  0  0  0  0  0  0  0  0  0  # atno 8010 bound_to 7997
  139.7666  143.8299  152.2617 H   0  0  0  0  0  0  0  0  0  0  0  0  # atno 10167 bound_to 10162
  157.5809  130.8981  149.9430 H   0  0  0  0  0  0  0  0  0  0  0  0  # atno 10718 bound_to 10713
  154.3948  135.2754  155.2133 H   0  0  0  0  0  0  0  0  0  0  0  0  # atno 10763 bound_to 10752
  154.4183  135.6006  153.5998 H   0  0  0  0  0  0  0  0  0  0  0  0  # atno 10764 bound_to 10752
  152.9831  135.5966  154.4208 H   0  0  0  0  0  0  0  0  0  0  0  0  # atno 10765 bound_to 10752
  140.5285  134.0489  155.7866 H   0  0  0  0  0  0  0  0  0  0  0  0  # atno 11005 bound_to 11000
  146.2539  139.6260  142.9408 LP  0  0  0  0  0  0  0  0  0  0  0  0  # atno 17320 bound_to 7965
  145.5054  141.0437  143.2517 LP  0  0  0  0  0  0  0  0  0  0  0  0  # atno 17321 bound_to 7965
  139.8321  144.7249  150.9438 LP  0  0  0  0  0  0  0  0  0  0  0  0  # atno 17342 bound_to 10162
  140.7811  143.4061  151.1069 LP  0  0  0  0  0  0  0  0  0  0  0  0  # atno 17343 bound_to 10162
  156.0855  130.3668  150.0496 LP  0  0  0  0  0  0  0  0  0  0  0  0  # atno 17370 bound_to 10713
  156.8635  130.9500  151.3616 LP  0  0  0  0  0  0  0  0  0  0  0  0  # atno 17371 bound_to 10713
  141.1294  133.9327  157.2567 LP  0  0  0  0  0  0  0  0  0  0  0  0  # atno 17394 bound_to 11000
  139.9567  135.0164  156.9147 LP  0  0  0  0  0  0  0  0  0  0  0  0  # atno 17395 bound_to 11000

$$$$
