AV-unprocessed.smi:229|AV-procd|sdf|1760|dock7
  -GOLD-   2262020293D 1   1.00000     0.00000
 Structure written by MMmdl.
 58 62  0  0  0  0  0  0  0  0  1 V2000
  151.6340  131.5907  157.5756 C   0  0  0  0  0  0  0  0  0  0  0  0
  150.6714  131.7038  156.3869 C   0  0  0  0  0  0  0  0  0  0  0  0
  149.9958  133.0799  156.2931 C   0  0  1  0  0  0  0  0  0  0  0  0
  151.0248  134.2140  156.1519 C   0  0  0  0  0  0  0  0  0  0  0  0
  150.3360  135.4854  155.9603 N   0  0  0  0  0  0  0  0  0  0  0  0
  151.0376  136.6339  156.1323 C   0  0  0  0  0  0  0  0  0  0  0  0
  152.3895  136.5903  156.2762 N   0  0  0  0  0  0  0  0  0  0  0  0
  153.0880  137.7168  156.4467 C   0  0  0  0  0  0  0  0  0  0  0  0
  152.6433  138.9735  156.5082 N   0  0  0  0  0  0  0  0  0  0  0  0
  151.2877  139.0235  156.3716 C   0  0  0  0  0  0  0  0  0  0  0  0
  150.4163  137.9141  156.1802 C   0  0  0  0  0  0  0  0  0  0  0  0
  149.1008  138.3567  156.0969 N   0  0  0  0  0  0  0  0  0  0  0  0
  149.1906  139.6527  156.2218 C   0  0  0  0  0  0  0  0  0  0  0  0
  150.4671  140.1366  156.3963 N   0  0  0  0  0  0  0  0  0  0  0  0
  150.8566  141.5244  156.5744 C   0  0  0  0  0  0  0  0  0  0  0  0
  150.1897  142.1691  157.8056 C   0  0  2  0  0  0  0  0  0  0  0  0
  149.0693  142.9255  157.3851 O   0  0  0  0  0  0  0  0  0  0  0  0
  151.1741  143.0533  158.5988 C   0  0  1  0  0  0  0  0  0  0  0  0
  151.7938  144.2468  157.8633 C   0  0  0  0  0  0  0  0  0  0  0  0
  152.1330  145.1612  159.0188 C   0  0  0  0  0  0  0  0  0  0  0  0
  150.9415  144.9410  159.9472 C   0  0  0  0  0  0  0  0  0  0  0  0
  150.5622  143.5783  159.7742 O   0  0  0  0  0  0  0  0  0  0  0  0
  149.4295  135.4712  154.8186 C   0  0  0  0  0  0  0  0  0  0  0  0
  148.4230  134.3033  154.9333 C   0  0  2  0  0  0  0  0  0  0  0  0
  147.6171  134.1462  153.6473 C   0  0  0  0  0  0  0  0  0  0  0  0
  146.3368  134.9137  153.9395 C   0  0  0  0  0  0  0  0  0  0  0  0
  146.0788  134.5646  155.2862 O   0  0  0  0  0  0  0  0  0  0  0  0
  147.3177  134.5574  155.9857 C   0  0  0  0  0  0  0  0  0  0  0  0
  149.1336  133.0809  155.1531 O   0  0  0  0  0  0  0  0  0  0  0  0
  152.1026  130.6069  157.6031 H   0  0  0  0  0  0  0  0  0  0  0  0
  151.1135  131.7370  158.5223 H   0  0  0  0  0  0  0  0  0  0  0  0
  152.4277  132.3354  157.5110 H   0  0  0  0  0  0  0  0  0  0  0  0
  151.2272  131.5103  155.4687 H   0  0  0  0  0  0  0  0  0  0  0  0
  149.9120  130.9242  156.4559 H   0  0  0  0  0  0  0  0  0  0  0  0
  149.4160  133.2429  157.2020 H   0  0  0  0  0  0  0  0  0  0  0  0
  151.6493  134.2542  157.0456 H   0  0  0  0  0  0  0  0  0  0  0  0
  151.6818  134.0257  155.3014 H   0  0  0  0  0  0  0  0  0  0  0  0
  154.1561  137.5935  156.5494 H   0  0  0  0  0  0  0  0  0  0  0  0
  148.3219  140.2948  156.2001 H   0  0  0  0  0  0  0  0  0  0  0  0
  151.9424  141.5638  156.6691 H   0  0  0  0  0  0  0  0  0  0  0  0
  150.6032  142.0754  155.6678 H   0  0  0  0  0  0  0  0  0  0  0  0
  149.8308  141.3751  158.4619 H   0  0  0  0  0  0  0  0  0  0  0  0
  149.3484  143.5205  156.7062 H   0  0  0  0  0  0  0  0  0  0  0  0
  151.9877  142.4229  158.9615 H   0  0  0  0  0  0  0  0  0  0  0  0
  152.6634  143.9727  157.2658 H   0  0  0  0  0  0  0  0  0  0  0  0
  151.0738  144.7402  157.2101 H   0  0  0  0  0  0  0  0  0  0  0  0
  153.0535  144.8306  159.5021 H   0  0  0  0  0  0  0  0  0  0  0  0
  152.2563  146.2030  158.7213 H   0  0  0  0  0  0  0  0  0  0  0  0
  151.1753  145.1623  160.9887 H   0  0  0  0  0  0  0  0  0  0  0  0
  150.1050  145.5731  159.6458 H   0  0  0  0  0  0  0  0  0  0  0  0
  148.8940  136.4139  154.7122 H   0  0  0  0  0  0  0  0  0  0  0  0
  150.0311  135.3547  153.9159 H   0  0  0  0  0  0  0  0  0  0  0  0
  148.1345  134.5038  152.7567 H   0  0  0  0  0  0  0  0  0  0  0  0
  147.3697  133.0961  153.4848 H   0  0  0  0  0  0  0  0  0  0  0  0
  146.4932  135.9904  153.8577 H   0  0  0  0  0  0  0  0  0  0  0  0
  145.5135  134.6298  153.2840 H   0  0  0  0  0  0  0  0  0  0  0  0
  147.2787  133.7902  156.7585 H   0  0  0  0  0  0  0  0  0  0  0  0
  147.4534  135.5194  156.4818 H   0  0  0  0  0  0  0  0  0  0  0  0
  1  2  1  0  0  0  0
  1 30  1  0  0  0  0
  1 31  1  0  0  0  0
  1 32  1  0  0  0  0
  2  3  1  0  0  0  0
  2 33  1  0  0  0  0
  2 34  1  0  0  0  0
  3 29  1  0  0  0  0
  3  4  1  0  0  0  0
  3 35  1  0  0  0  0
  4  5  1  0  0  0  0
  4 36  1  0  0  0  0
  4 37  1  0  0  0  0
  5  6  1  0  0  0  0
  5 23  1  0  0  0  0
  6 11  1  0  0  0  0
  6  7  2  0  0  0  0
  7  8  1  0  0  0  0
  8  9  2  0  0  0  0
  8 38  1  0  0  0  0
  9 10  1  0  0  0  0
 10 14  1  0  0  0  0
 10 11  2  0  0  0  0
 11 12  1  0  0  0  0
 12 13  2  0  0  0  0
 13 14  1  0  0  0  0
 13 39  1  0  0  0  0
 14 15  1  0  0  0  0
 15 16  1  0  0  0  0
 15 40  1  0  0  0  0
 15 41  1  0  0  0  0
 16 17  1  0  0  0  0
 16 18  1  0  0  0  0
 16 42  1  0  0  0  0
 17 43  1  0  0  0  0
 18 22  1  0  0  0  0
 18 19  1  0  0  0  0
 18 44  1  0  0  0  0
 19 20  1  0  0  0  0
 19 45  1  0  0  0  0
 19 46  1  0  0  0  0
 20 21  1  0  0  0  0
 20 47  1  0  0  0  0
 20 48  1  0  0  0  0
 21 22  1  0  0  0  0
 21 49  1  0  0  0  0
 21 50  1  0  0  0  0
 23 24  1  0  0  0  0
 23 51  1  0  0  0  0
 23 52  1  0  0  0  0
 24 28  1  0  0  0  0
 24 25  1  0  0  0  0
 24 29  1  0  0  0  0
 25 26  1  0  0  0  0
 25 53  1  0  0  0  0
 25 54  1  0  0  0  0
 26 27  1  0  0  0  0
 26 55  1  0  0  0  0
 26 56  1  0  0  0  0
 27 28  1  0  0  0  0
 28 57  1  0  0  0  0
 28 58  1  0  0  0  0
M  END
> <s_m_source_file>
AV-unprocessed.smi

> <i_m_source_file_index>
229

> <i_lp_mmshare_version>
43012

> <i_f3d_flags>
0

> <s_epik_input>
W0NIMl0xT1tDSDJdW0NIMl1bQ0BdMTJbQ0gyXU4oW0NIMl1bQ0BIXShPMilbQ0gyXVtDSDNdKWMobltjSF1uMyljKGMzNCluW2NIXW40W0NIMl1bQ0BIXShbT0hdKVtDQEBIXTVbQ0gyXVtDSDJdW0NIMl1PNQ==

> <s_epik_cmdline>
J2VwaWtfcHl0aG9uJywgJy1waCcsICc3LjAnLCAnLXRuJywgJzgnLCAnLW1hJywgJzIwMCcsICctbWV0YWxfYmluZGluZycsICctaW1hZScsICc8aW5maWxlLm1hZT4nLCAnLW9tYWUnLCAnPG91dGZpbGUubWFlPic=

> <r_lp_tautomer_probability>
1

> <r_epik_Ionization_Penalty>
0.00318402

> <r_epik_Ionization_Penalty_Charging>
0

> <r_epik_Ionization_Penalty_Neutral>
0.00318402

> <r_epik_State_Penalty>
0.00215642

> <r_epik_Charging_Adjusted_Penalty>
0.00215642

> <i_epik_Tot_Q>
0

> <i_epik_Tot_abs_Q>
0

> <r_epik_Metal_State_Penalty>
-0

> <b_epik_Metal_Only>
0

> <s_lp_Force_Field>
OPLS_2005

> <r_lp_Energy>
56.4449

> <b_lp_Chiralities_Consistent>
1

> <s_lp_Variant>
AV-unprocessed.smi:229-14

> <Gold.Version>
5.8.1

> <Gold.Id.Protein>
6NUR|6NUR_protein|mol2

> <Gold.PLP.Fitness>
46.0602

> <Gold.PLP.PLP>
-38.3775

> <Gold.PLP.part.hbond>
-3.5669

> <Gold.PLP.part.metal>
0.0000

> <Gold.PLP.part.buried>
-4.7947

> <Gold.PLP.part.nonpolar>
-30.6637

> <Gold.PLP.part.repulsive>
0.1448

> <Gold.PLP.ligand.clash>
0.0000

> <Gold.PLP.ligand.torsion>
0.7351

> <Gold.PLP.Chemscore.Hbond>
2.9200

> <Gold.PLP.Chemscore.CHOScore>
0.0000

> <Gold.PLP.Chemscore.Metal>
0.0000

> <Gold.Chemscore.Hbonds>
donor molecule, donor type, donor heavy atom, donor atom, acceptor molecule, acceptor atom, score
      L1  H    17    43       P1  8028  0.91
      P1  H  7997  8009       L1     9  0.96
      P1  H 10752 10765       L1     7  0.91

> <Gold.PLP.Chemscore.Internal.Correction>
0.3929

> <Gold.Rescore>
     Score         DG    S(hbond)    S(metal)    S(lipo)     H(rot)  DE(clash)    DE(int)     intcor
     18.28     -18.93       2.33        0.00     102.26       2.46       0.00       0.65       ----

> <Gold.Chemscore.Fitness>
18.2760

> <Gold.Chemscore.DG>
-18.9324

> <Gold.Chemscore.ZeroCoef>
-5.4800

> <Gold.Chemscore.Hbond>
2.3303

> <Gold.Chemscore.Metal>
0.0000

> <Gold.Chemscore.Lipo>
102.2606

> <Gold.Chemscore.Internal_Hbond>
0.0000

> <Gold.Chemscore.DEClash>
0.0048

> <Gold.Chemscore.DEInternal>
0.6515

> <Gold.Chemscore.Rot>
2.4591

> <Gold.Chemscore.Internal.Correction>
   9.000000E+99

> <Gold.Chemscore.Hbonds>
donor molecule, donor type, donor heavy atom, donor atom, acceptor molecule, acceptor atom, score
      L1  H    17    43       P1  8028  0.86
      P1  H  7997  8009       L1     9  0.40
      P1  H 10752 10765       L1     7  0.53

> <Gold.Chemscore.Hbond.Weighted>
-7.7832

> <Gold.Chemscore.Metal.Weighted>
-0.0000

> <Gold.Chemscore.Lipo.Weighted>
-11.9645

> <Gold.Chemscore.Internal_Hbond.Weighted>
0.0000

> <Gold.Chemscore.DEClash.Weighted>
0.0048

> <Gold.Chemscore.DEInternal.Weighted>
0.6515

> <Gold.Chemscore.Rot.Weighted>
6.2953

> <Gold.Chemscore.Internal.Correction.Weighted>
   9.000000E+99

> <Gold.Protein.RotatedTorsions>
[ 6907 6896 6895 6894 ] final   -5.45 input  -60.11 | X-H torsion
[ 7974 7965 7964 7962 ] final  -43.35 input  175.53 | X-H torsion
[ 8008 7997 7996 7995 ] final -161.92 input   59.86 | X-H torsion
[ 10167 10162 10161 10158 ] final    9.55 input  -65.29 | X-H torsion
[ 10718 10713 10712 10709 ] final  131.06 input   66.30 | X-H torsion
[ 10763 10752 10751 10750 ] final -125.58 input  -60.55 | X-H torsion
[ 11005 11000 10999 10996 ] final  -38.32 input  -57.11 | X-H torsion

> <Gold.Protein.ActiveResidues>
 VAL166  LYS551  ARG553  GLY616  TRP617  ASP618  TYR619  PRO620  LYS621  CYS622 
 ASP623  PHE694  ASN695  SER759  ASP760  ASP761  ALA762  ILE779  LEU786  VAL792 
 PHE793  MET794  SER795  GLU796  ALA797  LYS798  CYS799  TRP800  GLU811  SER814 

> <Gold.Protein.RotatedAtoms>
  151.4814  135.1052  159.9778 H   0  0  0  0  0  0  0  0  0  0  0  0  # atno 6907 bound_to 6896
  152.4777  133.8175  159.7046 H   0  0  0  0  0  0  0  0  0  0  0  0  # atno 6908 bound_to 6896
  150.8827  133.7288  159.2954 H   0  0  0  0  0  0  0  0  0  0  0  0  # atno 6909 bound_to 6896
  146.0027  140.7055  142.9262 H   0  0  0  0  0  0  0  0  0  0  0  0  # atno 7974 bound_to 7965
  155.7992  140.0889  157.1966 H   0  0  0  0  0  0  0  0  0  0  0  0  # atno 8008 bound_to 7997
  154.3982  140.1475  156.3313 H   0  0  0  0  0  0  0  0  0  0  0  0  # atno 8009 bound_to 7997
  155.8480  140.3436  155.5677 H   0  0  0  0  0  0  0  0  0  0  0  0  # atno 8010 bound_to 7997
  140.6248  143.8126  150.7219 H   0  0  0  0  0  0  0  0  0  0  0  0  # atno 10167 bound_to 10162
  157.5004  131.1094  150.9435 H   0  0  0  0  0  0  0  0  0  0  0  0  # atno 10718 bound_to 10713
  154.8737  135.4024  154.3291 H   0  0  0  0  0  0  0  0  0  0  0  0  # atno 10763 bound_to 10752
  153.4108  135.7020  153.6366 H   0  0  0  0  0  0  0  0  0  0  0  0  # atno 10764 bound_to 10752
  153.5070  135.3715  155.2538 H   0  0  0  0  0  0  0  0  0  0  0  0  # atno 10765 bound_to 10752
  141.0019  133.6951  156.2037 H   0  0  0  0  0  0  0  0  0  0  0  0  # atno 11005 bound_to 11000
  144.6925  140.3262  143.7224 LP  0  0  0  0  0  0  0  0  0  0  0  0  # atno 17320 bound_to 7965
  145.7462  139.1779  143.2347 LP  0  0  0  0  0  0  0  0  0  0  0  0  # atno 17321 bound_to 7965
  140.1724  143.4183  152.1991 LP  0  0  0  0  0  0  0  0  0  0  0  0  # atno 17342 bound_to 10162
  139.5470  144.7306  151.4552 LP  0  0  0  0  0  0  0  0  0  0  0  0  # atno 17343 bound_to 10162
  157.0108  130.5636  149.5320 LP  0  0  0  0  0  0  0  0  0  0  0  0  # atno 17370 bound_to 10713
  156.0225  130.5320  150.8316 LP  0  0  0  0  0  0  0  0  0  0  0  0  # atno 17371 bound_to 10713
  140.6876  134.4700  157.5589 LP  0  0  0  0  0  0  0  0  0  0  0  0  # atno 17394 bound_to 11000
  139.9043  134.8485  156.1769 LP  0  0  0  0  0  0  0  0  0  0  0  0  # atno 17395 bound_to 11000

$$$$
