#       Name:                AV-unprocessed.smi:557
#       Creating user name   scv26
#       Creation time:       Thu Mar 26 23:41:01 2020


#       File generated by GOLD software.
#

@<TRIPOS>MOLECULE
AV-unprocessed.smi:557
    50    52     1
SMALL
NO_CHARGES


@<TRIPOS>ATOM
      1 ****        -7.8620  -4.2456   2.7419 C.3            1 S1                 0.0000
      2 ****        -7.0186  -3.6538   1.7259 N.pl3          1 S1                 0.0000
      3 ****        -5.9361  -2.8160   1.8869 C.2            1 S1                 0.0000
      4 ****        -5.4596  -2.5183   0.6413 C.2            1 S1                 0.0000
      5 ****        -4.2913  -1.6512   0.2641 C.3            1 S1                 0.0000
      6 ****        -2.9673  -2.4201   0.3635 C.3            1 S1                 0.0000
      7 ****        -1.8442  -1.5613  -0.0019 N.am           1 S1                 0.0000
      8 ****        -0.5438  -1.8972  -0.0387 C.2            1 S1                 0.0000
      9 ****        -0.1544  -3.0259   0.2534 O.2            1 S1                 0.0000
     10 ****         0.2787  -0.9025  -0.4126 N.am           1 S1                 0.0000
     11 ****         1.7303  -1.0041  -0.5258 C.3            1 S1                 0.0000
     12 ****         2.3172  -0.0466  -1.5562 C.3            1 S1                 0.0000
     13 ****         3.7855   0.0203  -1.1343 C.3            1 S1                 0.0000
     14 ****         3.7878  -0.0935   0.3418 N.4            1 S1                 1.0000
     15 ****         4.9625  -0.8022   0.9056 C.3            1 S1                 0.0000
     16 ****         4.8730  -0.8607   2.4411 C.3            1 S1                 0.0000
     17 ****         3.5225  -1.4101   2.9459 C.3            1 S1                 0.0000
     18 ****         2.5618  -1.7597   1.7981 C.3            1 S1                 0.0000
     19 ****         2.4563  -0.6086   0.7720 C.3            1 S1                 0.0000
     20 ****        -6.3360  -3.2304  -0.2264 C.2            1 S1                 0.0000
     21 ****        -7.2659  -3.9094   0.4249 N.2            1 S1                 0.0000
     22 ****        -7.4629  -4.0281   3.7330 H              1 S1                 0.0000
     23 ****        -7.9026  -5.3269   2.6064 H              1 S1                 0.0000
     24 ****        -8.8697  -3.8364   2.6671 H              1 S1                 0.0000
     25 ****        -5.5962  -2.5053   2.8640 H              1 S1                 0.0000
     26 ****        -4.4119  -1.2709  -0.7509 H              1 S1                 0.0000
     27 ****        -4.2478  -0.7714   0.9072 H              1 S1                 0.0000
     28 ****        -2.8263  -2.7873   1.3816 H              1 S1                 0.0000
     29 ****        -2.9934  -3.2883  -0.2972 H              1 S1                 0.0000
     30 ****        -2.0757  -0.6093  -0.2476 H              1 S1                 0.0000
     31 ****        -0.1354  -0.0091  -0.6363 H              1 S1                 0.0000
     32 ****         2.0153  -2.0179  -0.8150 H              1 S1                 0.0000
     33 ****         2.1872  -0.3921  -2.5822 H              1 S1                 0.0000
     34 ****         1.8586   0.9396  -1.4685 H              1 S1                 0.0000
     35 ****         4.3232  -0.8220  -1.5730 H              1 S1                 0.0000
     36 ****         4.2749   0.9367  -1.4647 H              1 S1                 0.0000
     37 ****         5.0198  -1.8112   0.4937 H              1 S1                 0.0000
     38 ****         5.8754  -0.2874   0.6042 H              1 S1                 0.0000
     39 ****         5.6909  -1.4670   2.8316 H              1 S1                 0.0000
     40 ****         5.0233   0.1407   2.8464 H              1 S1                 0.0000
     41 ****         3.6850  -2.2905   3.5685 H              1 S1                 0.0000
     42 ****         3.0540  -0.6667   3.5919 H              1 S1                 0.0000
     43 ****         2.9093  -2.6684   1.3046 H              1 S1                 0.0000
     44 ****         1.5772  -1.9960   2.2017 H              1 S1                 0.0000
     45 ****         1.9416   0.2352   1.2347 H              1 S1                 0.0000
     46 ****        -6.3222  -3.2752  -1.3053 H              1 S1                 0.0000
     47 ****         3.8333   0.8502   0.6989 H              1 S1                 0.0000
     48 ****        -0.8129  -3.7263   0.5287 LP             1 S1                 0.0000
     49 ****         0.8208  -3.2437   0.2157 LP             1 S1                 0.0000
     50 ****        -7.9890  -4.4828   0.0397 LP             1 S1                 0.0000
@<TRIPOS>BOND
    1    1    2 1     
    2    1   22 1     
    3    1   23 1     
    4    1   24 1     
    5    2   21 1     
    6    2    3 1     
    7    3    4 2     
    8    3   25 1     
    9    4    5 1     
   10    4   20 1     
   11    5    6 1     
   12    5   26 1     
   13    5   27 1     
   14    6    7 1     
   15    6   28 1     
   16    6   29 1     
   17    7    8 am    
   18    7   30 1     
   19    8    9 2     
   20    8   10 am    
   21   10   11 1     
   22   10   31 1     
   23   11   19 1     
   24   11   12 1     
   25   11   32 1     
   26   12   13 1     
   27   12   33 1     
   28   12   34 1     
   29   13   14 1     
   30   13   35 1     
   31   13   36 1     
   32   14   19 1     
   33   14   15 1     
   34   14   47 1     
   35   15   16 1     
   36   15   37 1     
   37   15   38 1     
   38   16   17 1     
   39   16   39 1     
   40   16   40 1     
   41   17   18 1     
   42   17   41 1     
   43   17   42 1     
   44   18   19 1     
   45   18   43 1     
   46   18   44 1     
   47   19   45 1     
   48   20   21 2     
   49   20   46 1     
   50    9   48 1     
   51    9   49 1     
   52   21   50 1     
@<TRIPOS>SUBSTRUCTURE
      1 S1             1
@<TRIPOS>SET
LONE_PAIRS      STATIC     ATOMS    <user>   **** ""
3 48 49 50
DONOR_HYDROGENS      STATIC     ATOMS    <user>   **** ""
3 30 31 47
ATOM$BLUE        STATIC     ATOMS    COLORGROUP SYSTEM
3 48 49 50
ATOM$RED        STATIC     ATOMS    COLORGROUP SYSTEM
3 30 31 47
