AV-unprocessed.smi:500|AV-procd|sdf|2734|dock2
  -GOLD-   2262023183D 1   1.00000     0.00000
 Structure written by MMmdl.
 45 47  0  0  0  0  0  0  0  0  1 V2000
  148.0312  141.6819  154.0853 C   0  0  0  0  0  0  0  0  0  0  0  0
  148.8442  140.4182  154.3982 C   0  0  0  0  0  0  0  0  0  0  0  0
  150.1978  140.7219  154.7056 O   0  0  0  0  0  0  0  0  0  0  0  0
  150.4127  141.1360  156.0459 C   0  0  0  0  0  0  0  0  0  0  0  0
  151.8049  140.6677  156.4869 C   0  0  0  0  0  0  0  0  0  0  0  0
  152.1041  141.0754  157.8517 N   0  0  0  0  0  0  0  0  0  0  0  0
  152.4638  140.3012  158.9094 C   0  0  0  0  0  0  0  0  0  0  0  0
  152.6153  138.8030  158.8128 C   0  0  2  0  0  0  0  0  0  0  0  0
  151.3142  138.1154  158.3768 C   0  0  0  0  0  0  0  0  0  0  0  0
  153.0445  138.2991  160.1150 N   0  0  0  0  0  0  0  0  0  0  0  0
  154.2278  138.5602  160.6936 C   0  0  0  0  0  0  0  0  0  0  0  0
  155.1058  139.2418  160.1643 O   0  0  0  0  0  0  0  0  0  0  0  0
  154.4335  137.9695  162.0292 C   0  0  0  0  0  0  0  0  0  0  0  0
  153.8039  136.9340  162.6688 C   0  0  0  0  0  0  0  0  0  0  0  0
  154.4113  136.8175  163.9495 C   0  0  0  0  0  0  0  0  0  0  0  0
  155.3660  137.7918  164.0025 C   0  0  0  0  0  0  0  0  0  0  0  0
  155.3900  138.5036  162.8433 O   0  0  0  0  0  0  0  0  0  0  0  0
  152.6903  140.9575  160.0508 N   0  0  0  0  0  0  0  0  0  0  0  0
  152.4464  142.2709  159.7052 C   0  0  0  0  0  0  0  0  0  0  0  0
  152.5116  143.4504  160.4810 C   0  0  0  0  0  0  0  0  0  0  0  0
  152.2111  144.7015  159.9040 C   0  0  0  0  0  0  0  0  0  0  0  0
  151.8422  144.7903  158.5462 C   0  0  0  0  0  0  0  0  0  0  0  0
  151.7721  143.6271  157.7556 C   0  0  0  0  0  0  0  0  0  0  0  0
  152.0742  142.3801  158.3361 C   0  0  0  0  0  0  0  0  0  0  0  0
  146.9779  141.4365  153.9470 H   0  0  0  0  0  0  0  0  0  0  0  0
  148.3730  142.1713  153.1738 H   0  0  0  0  0  0  0  0  0  0  0  0
  148.0999  142.4022  154.9007 H   0  0  0  0  0  0  0  0  0  0  0  0
  148.4120  139.9317  155.2727 H   0  0  0  0  0  0  0  0  0  0  0  0
  148.7809  139.6980  153.5812 H   0  0  0  0  0  0  0  0  0  0  0  0
  150.3469  142.2228  156.1171 H   0  0  0  0  0  0  0  0  0  0  0  0
  149.6510  140.7173  156.7026 H   0  0  0  0  0  0  0  0  0  0  0  0
  151.9018  139.5855  156.4027 H   0  0  0  0  0  0  0  0  0  0  0  0
  152.5615  141.0846  155.8219 H   0  0  0  0  0  0  0  0  0  0  0  0
  153.3753  138.5421  158.0779 H   0  0  0  0  0  0  0  0  0  0  0  0
  150.9878  138.4799  157.4024 H   0  0  0  0  0  0  0  0  0  0  0  0
  150.5068  138.2983  159.0868 H   0  0  0  0  0  0  0  0  0  0  0  0
  151.4485  137.0363  158.2971 H   0  0  0  0  0  0  0  0  0  0  0  0
  152.3829  137.7317  160.6245 H   0  0  0  0  0  0  0  0  0  0  0  0
  153.0017  136.3327  162.2663 H   0  0  0  0  0  0  0  0  0  0  0  0
  154.1778  136.1119  164.7332 H   0  0  0  0  0  0  0  0  0  0  0  0
  156.0797  138.1040  164.7506 H   0  0  0  0  0  0  0  0  0  0  0  0
  152.7929  143.3923  161.5221 H   0  0  0  0  0  0  0  0  0  0  0  0
  152.2633  145.5967  160.5061 H   0  0  0  0  0  0  0  0  0  0  0  0
  151.6131  145.7523  158.1115 H   0  0  0  0  0  0  0  0  0  0  0  0
  151.4889  143.6949  156.7158 H   0  0  0  0  0  0  0  0  0  0  0  0
  1  2  1  0  0  0  0
  1 25  1  0  0  0  0
  1 26  1  0  0  0  0
  1 27  1  0  0  0  0
  2  3  1  0  0  0  0
  2 28  1  0  0  0  0
  2 29  1  0  0  0  0
  3  4  1  0  0  0  0
  4  5  1  0  0  0  0
  4 30  1  0  0  0  0
  4 31  1  0  0  0  0
  5  6  1  0  0  0  0
  5 32  1  0  0  0  0
  5 33  1  0  0  0  0
  6 24  1  0  0  0  0
  6  7  1  0  0  0  0
  7  8  1  0  0  0  0
  7 18  2  0  0  0  0
  8  9  1  0  0  0  0
  8 10  1  0  0  0  0
  8 34  1  0  0  0  0
  9 35  1  0  0  0  0
  9 36  1  0  0  0  0
  9 37  1  0  0  0  0
 10 11  1  0  0  0  0
 10 38  1  0  0  0  0
 11 12  2  0  0  0  0
 11 13  1  0  0  0  0
 13 17  1  0  0  0  0
 13 14  2  0  0  0  0
 14 15  1  0  0  0  0
 14 39  1  0  0  0  0
 15 16  2  0  0  0  0
 15 40  1  0  0  0  0
 16 17  1  0  0  0  0
 16 41  1  0  0  0  0
 18 19  1  0  0  0  0
 19 24  2  0  0  0  0
 19 20  1  0  0  0  0
 20 21  2  0  0  0  0
 20 42  1  0  0  0  0
 21 22  1  0  0  0  0
 21 43  1  0  0  0  0
 22 23  2  0  0  0  0
 22 44  1  0  0  0  0
 23 24  1  0  0  0  0
 23 45  1  0  0  0  0
M  END
> <s_m_source_file>
AV-unprocessed.smi

> <i_m_source_file_index>
500

> <i_lp_mmshare_version>
43012

> <i_f3d_flags>
0

> <s_epik_input>
W0NIM11bQ0gyXU9bQ0gyXVtDSDJdbihjKGMxMilbY0hdW2NIXVtjSF1bY0hdMiljKG4xKVtDQEhdKFtDSDNdKVtOSF1DKD1PKWMzW2NIXVtjSF1bY0hdbzM=

> <s_epik_cmdline>
J2VwaWtfcHl0aG9uJywgJy1waCcsICc3LjAnLCAnLXRuJywgJzgnLCAnLW1hJywgJzIwMCcsICctbWV0YWxfYmluZGluZycsICctaW1hZScsICc8aW5maWxlLm1hZT4nLCAnLW9tYWUnLCAnPG91dGZpbGUubWFlPic=

> <r_epik_Ionization_Penalty>
0.109801

> <r_epik_Ionization_Penalty_Charging>
0

> <r_epik_Ionization_Penalty_Neutral>
0.109801

> <r_epik_State_Penalty>
0.0995533

> <r_epik_Charging_Adjusted_Penalty>
0.0995533

> <i_epik_Tot_Q>
0

> <i_epik_Tot_abs_Q>
0

> <r_epik_Metal_State_Penalty>
0.0918163

> <b_epik_Metal_Only>
0

> <s_lp_Force_Field>
OPLS_2005

> <r_lp_Energy>
8.25657

> <b_lp_Chiralities_Consistent>
1

> <s_lp_Variant>
AV-unprocessed.smi:500-1

> <Gold.Version>
5.8.1

> <Gold.Id.Protein>
6NUR|6NUR_protein|mol2

> <Gold.PLP.Fitness>
53.6975

> <Gold.PLP.PLP>
-52.1504

> <Gold.PLP.part.hbond>
-1.0000

> <Gold.PLP.part.metal>
0.0000

> <Gold.PLP.part.buried>
-7.3066

> <Gold.PLP.part.nonpolar>
-43.5711

> <Gold.PLP.part.repulsive>
0.1863

> <Gold.PLP.ligand.clash>
0.0000

> <Gold.PLP.ligand.torsion>
0.5695

> <Gold.PLP.Chemscore.Hbond>
0.8480

> <Gold.PLP.Chemscore.CHOScore>
0.0000

> <Gold.PLP.Chemscore.Metal>
0.0000

> <Gold.Chemscore.Hbonds>
donor molecule, donor type, donor heavy atom, donor atom, acceptor molecule, acceptor atom, score
      P1  H  7989  7998       L1     3  0.83

> <Gold.PLP.Chemscore.Internal.Correction>
0.1422

> <Gold.Rescore>
     Score         DG    S(hbond)    S(metal)    S(lipo)     H(rot)  DE(clash)    DE(int)     intcor
     19.01     -19.83       0.91        0.00     138.62       1.92       0.03       0.78       ----

> <Gold.Chemscore.Fitness>
19.0146

> <Gold.Chemscore.DG>
-19.8276

> <Gold.Chemscore.ZeroCoef>
-5.4800

> <Gold.Chemscore.Hbond>
0.9081

> <Gold.Chemscore.Metal>
0.0000

> <Gold.Chemscore.Lipo>
138.6201

> <Gold.Chemscore.Internal_Hbond>
0.0000

> <Gold.Chemscore.DEClash>
0.0327

> <Gold.Chemscore.DEInternal>
0.7803

> <Gold.Chemscore.Rot>
1.9156

> <Gold.Chemscore.Internal.Correction>
   9.000000E+99

> <Gold.Chemscore.Hbonds>
donor molecule, donor type, donor heavy atom, donor atom, acceptor molecule, acceptor atom, score
      P1  H  7989  7998       L1     3  0.78

> <Gold.Chemscore.Hbond.Weighted>
-3.0331

> <Gold.Chemscore.Metal.Weighted>
-0.0000

> <Gold.Chemscore.Lipo.Weighted>
-16.2186

> <Gold.Chemscore.Internal_Hbond.Weighted>
0.0000

> <Gold.Chemscore.DEClash.Weighted>
0.0327

> <Gold.Chemscore.DEInternal.Weighted>
0.7803

> <Gold.Chemscore.Rot.Weighted>
4.9041

> <Gold.Chemscore.Internal.Correction.Weighted>
   9.000000E+99

> <Gold.Protein.RotatedTorsions>
[ 6907 6896 6895 6894 ] final   80.50 input  -60.11 | X-H torsion
[ 7974 7965 7964 7962 ] final   52.04 input  175.53 | X-H torsion
[ 8008 7997 7996 7995 ] final  127.04 input   59.86 | X-H torsion
[ 10167 10162 10161 10158 ] final  -10.56 input  -65.29 | X-H torsion
[ 10718 10713 10712 10709 ] final   40.79 input   66.30 | X-H torsion
[ 10763 10752 10751 10750 ] final   42.99 input  -60.55 | X-H torsion
[ 11005 11000 10999 10996 ] final  -96.25 input  -57.11 | X-H torsion

> <Gold.Protein.ActiveResidues>
 VAL166  LYS551  ARG553  GLY616  TRP617  ASP618  TYR619  PRO620  LYS621  CYS622 
 ASP623  PHE694  ASN695  SER759  ASP760  ASP761  ALA762  ILE779  LEU786  VAL792 
 PHE793  MET794  SER795  GLU796  ALA797  LYS798  CYS799  TRP800  GLU811  SER814 

> <Gold.Protein.RotatedAtoms>
  152.5237  134.3349  159.9195 H   0  0  0  0  0  0  0  0  0  0  0  0  # atno 6907 bound_to 6896
  151.3298  133.3999  159.2669 H   0  0  0  0  0  0  0  0  0  0  0  0  # atno 6908 bound_to 6896
  150.9890  134.9246  159.7946 H   0  0  0  0  0  0  0  0  0  0  0  0  # atno 6909 bound_to 6896
  145.9853  139.4283  143.0107 H   0  0  0  0  0  0  0  0  0  0  0  0  # atno 7974 bound_to 7965
  156.2880  140.2678  156.2208 H   0  0  0  0  0  0  0  0  0  0  0  0  # atno 8008 bound_to 7997
  155.0169  140.0387  157.2440 H   0  0  0  0  0  0  0  0  0  0  0  0  # atno 8009 bound_to 7997
  154.7469  140.2735  155.6330 H   0  0  0  0  0  0  0  0  0  0  0  0  # atno 8010 bound_to 7997
  140.7117  143.5735  150.9067 H   0  0  0  0  0  0  0  0  0  0  0  0  # atno 10167 bound_to 10162
  157.3862  130.7781  149.7232 H   0  0  0  0  0  0  0  0  0  0  0  0  # atno 10718 bound_to 10713
  152.9870  135.6115  154.3038 H   0  0  0  0  0  0  0  0  0  0  0  0  # atno 10763 bound_to 10752
  154.2757  135.2778  155.2721 H   0  0  0  0  0  0  0  0  0  0  0  0  # atno 10764 bound_to 10752
  154.5082  135.5848  153.6641 H   0  0  0  0  0  0  0  0  0  0  0  0  # atno 10765 bound_to 10752
  141.1417  133.8084  157.0546 H   0  0  0  0  0  0  0  0  0  0  0  0  # atno 11005 bound_to 11000
  145.7710  140.9896  143.1150 LP  0  0  0  0  0  0  0  0  0  0  0  0  # atno 17320 bound_to 7965
  144.6873  139.9447  143.7476 LP  0  0  0  0  0  0  0  0  0  0  0  0  # atno 17321 bound_to 7965
  139.9461  143.6326  152.3041 LP  0  0  0  0  0  0  0  0  0  0  0  0  # atno 17342 bound_to 10162
  139.6828  144.7654  151.1578 LP  0  0  0  0  0  0  0  0  0  0  0  0  # atno 17343 bound_to 10162
  155.9787  130.4048  150.3632 LP  0  0  0  0  0  0  0  0  0  0  0  0  # atno 17370 bound_to 10713
  157.1742  131.0376  151.2780 LP  0  0  0  0  0  0  0  0  0  0  0  0  # atno 17371 bound_to 10713
  140.0610  134.9755  157.1304 LP  0  0  0  0  0  0  0  0  0  0  0  0  # atno 17394 bound_to 11000
  140.3848  134.2247  155.7169 LP  0  0  0  0  0  0  0  0  0  0  0  0  # atno 17395 bound_to 11000

$$$$
