#       Name:                AV-unprocessed.smi:260
#       Creating user name   scv26
#       Creation time:       Thu Mar 26 21:15:11 2020


#       File generated by GOLD software.
#

@<TRIPOS>MOLECULE
AV-unprocessed.smi:260
    62    65     1
SMALL
NO_CHARGES


@<TRIPOS>ATOM
      1 ****        -4.9947   4.0754  -3.1420 C.3            1 S1                 0.0000
      2 ****        -4.8015   3.6947  -1.7514 N.am           1 S1                 0.0000
      3 ****        -4.7038   2.4276  -1.3183 C.2            1 S1                 0.0000
      4 ****        -4.7678   1.4681  -2.0885 O.2            1 S1                 0.0000
      5 ****        -4.4969   2.2149   0.2052 C.3            1 S1                 0.0000
      6 ****        -5.3821   3.1831   1.0211 C.3            1 S1                 0.0000
      7 ****        -4.7514   0.7475   0.6187 C.3            1 S1                 0.0000
      8 ****        -3.4270   0.0146   0.3630 C.3            1 S1                 0.0000
      9 ****        -2.4081   1.0523   0.3096 N.pl3          1 S1                 0.0000
     10 ****        -1.1122   0.7887   0.6204 C.ar           1 S1                 0.0000
     11 ****        -0.3315   1.8040   1.0776 N.ar           1 S1                 0.0000
     12 ****         0.9474   1.5875   1.3975 C.ar           1 S1                 0.0000
     13 ****         1.6419   0.4507   1.3342 N.ar           1 S1                 0.0000
     14 ****         0.8715  -0.5712   0.8647 C.ar           1 S1                 0.0000
     15 ****        -0.4997  -0.4927   0.4849 C.ar           1 S1                 0.0000
     16 ****        -0.9323  -1.7402   0.0459 N.2            1 S1                 0.0000
     17 ****         0.1146  -2.5089   0.1687 C.2            1 S1                 0.0000
     18 ****         1.2412  -1.8874   0.6549 N.pl3          1 S1                 0.0000
     19 ****         2.5384  -2.4954   0.8936 C.3            1 S1                 0.0000
     20 ****         3.5475  -2.1980  -0.2328 C.3            1 S1                 0.0000
     21 ****         3.0446  -2.7037  -1.4552 O.3            1 S1                 0.0000
     22 ****         4.9239  -2.8330   0.0386 C.3            1 S1                 0.0000
     23 ****         5.9866  -2.5212  -1.0136 C.3            1 S1                 0.0000
     24 ****         7.2721  -2.8098  -0.2652 C.3            1 S1                 0.0000
     25 ****         6.9116  -2.5039   1.1910 C.3            1 S1                 0.0000
     26 ****         5.5035  -2.2882   1.2159 O.3            1 S1                 0.0000
     27 ****        -3.0062   2.3567   0.5630 C.3            1 S1                 0.0000
     28 ****        -5.0553   5.1605  -3.2253 H              1 S1                 0.0000
     29 ****        -5.9187   3.6507  -3.5363 H              1 S1                 0.0000
     30 ****        -4.1625   3.7317  -3.7575 H              1 S1                 0.0000
     31 ****        -4.7379   4.4394  -1.0727 H              1 S1                 0.0000
     32 ****        -5.3028   2.9870   2.0909 H              1 S1                 0.0000
     33 ****        -6.4340   3.0833   0.7500 H              1 S1                 0.0000
     34 ****        -5.0934   4.2240   0.8708 H              1 S1                 0.0000
     35 ****        -4.9789   0.6950   1.6843 H              1 S1                 0.0000
     36 ****        -5.5896   0.2810   0.0992 H              1 S1                 0.0000
     37 ****        -3.2288  -0.7162   1.1479 H              1 S1                 0.0000
     38 ****        -3.4521  -0.5071  -0.5943 H              1 S1                 0.0000
     39 ****         1.4914   2.4485   1.7564 H              1 S1                 0.0000
     40 ****         0.0941  -3.5557  -0.0968 H              1 S1                 0.0000
     41 ****         2.9147  -2.1231   1.8471 H              1 S1                 0.0000
     42 ****         2.4031  -3.5712   1.0122 H              1 S1                 0.0000
     43 ****         3.6625  -1.1182  -0.3381 H              1 S1                 0.0000
     44 ****         2.9538  -3.6409  -1.3775 H              1 S1                 0.0000
     45 ****         4.8309  -3.9139   0.1630 H              1 S1                 0.0000
     46 ****         5.8798  -3.1193  -1.9191 H              1 S1                 0.0000
     47 ****         5.9470  -1.4674  -1.2936 H              1 S1                 0.0000
     48 ****         7.5368  -3.8628  -0.3695 H              1 S1                 0.0000
     49 ****         8.1100  -2.2137  -0.6280 H              1 S1                 0.0000
     50 ****         7.1764  -3.3375   1.8425 H              1 S1                 0.0000
     51 ****         7.4224  -1.6127   1.5566 H              1 S1                 0.0000
     52 ****        -2.5142   3.1307  -0.0282 H              1 S1                 0.0000
     53 ****        -2.8836   2.6140   1.6161 H              1 S1                 0.0000
     54 ****        -4.8962   1.6212  -3.0684 LP             1 S1                 0.0000
     55 ****        -4.6914   0.5363  -1.7338 LP             1 S1                 0.0000
     56 ****        -0.7182   2.7210   1.1752 LP             1 S1                 0.0000
     57 ****         2.6025   0.3598   1.5969 LP             1 S1                 0.0000
     58 ****        -1.8408  -1.9909  -0.2884 LP             1 S1                 0.0000
     59 ****         3.6795  -2.4867  -2.1967 LP             1 S1                 0.0000
     60 ****         2.1534  -2.2934  -1.6488 LP             1 S1                 0.0000
     61 ****         5.1111  -2.7359   2.0193 LP             1 S1                 0.0000
     62 ****         5.3166  -1.3066   1.2568 LP             1 S1                 0.0000
@<TRIPOS>BOND
    1    1    2 1     
    2    1   28 1     
    3    1   29 1     
    4    1   30 1     
    5    2    3 am    
    6    2   31 1     
    7    3    4 2     
    8    3    5 1     
    9    5   27 1     
   10    5    6 1     
   11    5    7 1     
   12    6   32 1     
   13    6   33 1     
   14    6   34 1     
   15    7    8 1     
   16    7   35 1     
   17    7   36 1     
   18    8    9 1     
   19    8   37 1     
   20    8   38 1     
   21    9   10 1     
   22    9   27 1     
   23   10   15 ar    
   24   10   11 ar    
   25   11   12 ar    
   26   12   13 ar    
   27   12   39 1     
   28   13   14 ar    
   29   14   18 1     
   30   14   15 ar    
   31   15   16 1     
   32   16   17 2     
   33   17   18 1     
   34   17   40 1     
   35   18   19 1     
   36   19   20 1     
   37   19   41 1     
   38   19   42 1     
   39   20   21 1     
   40   20   22 1     
   41   20   43 1     
   42   21   44 1     
   43   22   26 1     
   44   22   23 1     
   45   22   45 1     
   46   23   24 1     
   47   23   46 1     
   48   23   47 1     
   49   24   25 1     
   50   24   48 1     
   51   24   49 1     
   52   25   26 1     
   53   25   50 1     
   54   25   51 1     
   55   27   52 1     
   56   27   53 1     
   57    4   54 1     
   58    4   55 1     
   59   11   56 1     
   60   13   57 1     
   61   16   58 1     
   62   21   59 1     
   63   21   60 1     
   64   26   61 1     
   65   26   62 1     
@<TRIPOS>SUBSTRUCTURE
      1 S1             1
@<TRIPOS>SET
LONE_PAIRS      STATIC     ATOMS    <user>   **** ""
9 54 55 56 57 58 59 60 61 62
DONOR_HYDROGENS      STATIC     ATOMS    <user>   **** ""
2 31 44
ATOM$BLUE        STATIC     ATOMS    COLORGROUP SYSTEM
9 54 55 56 57 58 59 60 61 62
ATOM$RED        STATIC     ATOMS    COLORGROUP SYSTEM
2 31 44
