AV-unprocessed.smi:240|AV-procd|sdf|1831|dock7
  -GOLD-   2262020433D 1   1.00000     0.00000
 Structure written by MMmdl.
 55 59  0  0  0  0  0  0  0  0  1 V2000
  150.4889  139.8620  154.4767 O   0  0  0  0  0  0  0  0  0  0  0  0
  150.2671  140.6280  155.6430 C   0  0  1  0  0  0  0  0  0  0  0  0
  148.9948  141.4662  155.5263 C   0  0  0  0  0  0  0  0  0  0  0  0
  148.6130  141.7828  156.9757 C   0  0  0  0  0  0  0  0  0  0  0  0
  149.2195  140.6622  157.8365 C   0  0  0  0  0  0  0  0  0  0  0  0
  149.9985  139.7475  156.8713 C   0  0  2  0  0  0  0  0  0  0  0  0
  151.2372  139.0142  157.4704 C   0  0  1  0  0  0  0  0  0  0  0  0
  152.3886  139.9677  157.8810 C   0  0  0  0  0  0  0  0  0  0  0  0
  153.4854  139.2230  158.3980 O   0  0  0  0  0  0  0  0  0  0  0  0
  153.1297  138.4988  159.5676 C   0  0  0  0  0  0  0  0  0  0  0  0
  152.0385  137.4821  159.2094 C   0  0  0  0  0  0  0  0  0  0  0  0
  150.8913  138.1564  158.6128 N   0  0  0  0  0  0  0  0  0  0  0  0
  149.8662  137.2893  158.4495 C   0  0  0  0  0  0  0  0  0  0  0  0
  149.6064  136.8779  157.1841 N   0  0  0  0  0  0  0  0  0  0  0  0
  148.6106  136.0173  156.9528 C   0  0  0  0  0  0  0  0  0  0  0  0
  147.7664  135.4631  157.8256 N   0  0  0  0  0  0  0  0  0  0  0  0
  148.0166  135.8869  159.0981 C   0  0  0  0  0  0  0  0  0  0  0  0
  149.0396  136.7918  159.4975 C   0  0  0  0  0  0  0  0  0  0  0  0
  148.9902  136.9842  160.8729 N   0  0  0  0  0  0  0  0  0  0  0  0
  148.0003  136.2299  161.2647 C   0  0  0  0  0  0  0  0  0  0  0  0
  147.3506  135.5449  160.2624 N   0  0  0  0  0  0  0  0  0  0  0  0
  146.2167  134.6448  160.4100 C   0  0  0  0  0  0  0  0  0  0  0  0
  146.4529  133.5117  161.4370 C   0  0  1  0  0  0  0  0  0  0  0  0
  146.3980  134.0503  162.7470 O   0  0  0  0  0  0  0  0  0  0  0  0
  145.4179  132.3979  161.3346 C   0  0  0  0  0  0  0  0  0  0  0  0
  146.1914  131.1739  161.8053 C   0  0  0  0  0  0  0  0  0  0  0  0
  147.4703  131.3696  161.2270 O   0  0  0  0  0  0  0  0  0  0  0  0
  147.7895  132.7572  161.2741 C   0  0  0  0  0  0  0  0  0  0  0  0
  149.7967  139.2230  154.3999 H   0  0  0  0  0  0  0  0  0  0  0  0
  151.1121  141.2957  155.8057 H   0  0  0  0  0  0  0  0  0  0  0  0
  149.1341  142.3633  154.9221 H   0  0  0  0  0  0  0  0  0  0  0  0
  148.1998  140.8772  155.0657 H   0  0  0  0  0  0  0  0  0  0  0  0
  149.0409  142.7417  157.2706 H   0  0  0  0  0  0  0  0  0  0  0  0
  147.5320  141.8563  157.0994 H   0  0  0  0  0  0  0  0  0  0  0  0
  149.8630  141.0987  158.5988 H   0  0  0  0  0  0  0  0  0  0  0  0
  148.4458  140.1000  158.3607 H   0  0  0  0  0  0  0  0  0  0  0  0
  149.2862  138.9940  156.5314 H   0  0  0  0  0  0  0  0  0  0  0  0
  151.6402  138.3683  156.6906 H   0  0  0  0  0  0  0  0  0  0  0  0
  152.7576  140.5270  157.0231 H   0  0  0  0  0  0  0  0  0  0  0  0
  152.0696  140.6987  158.6241 H   0  0  0  0  0  0  0  0  0  0  0  0
  154.0113  137.9852  159.9512 H   0  0  0  0  0  0  0  0  0  0  0  0
  152.7900  139.1808  160.3490 H   0  0  0  0  0  0  0  0  0  0  0  0
  152.4342  136.7456  158.5083 H   0  0  0  0  0  0  0  0  0  0  0  0
  151.7317  136.9414  160.1060 H   0  0  0  0  0  0  0  0  0  0  0  0
  148.4707  135.7309  155.9209 H   0  0  0  0  0  0  0  0  0  0  0  0
  147.7139  136.1566  162.3038 H   0  0  0  0  0  0  0  0  0  0  0  0
  145.3457  135.2356  160.6967 H   0  0  0  0  0  0  0  0  0  0  0  0
  145.9893  134.2231  159.4300 H   0  0  0  0  0  0  0  0  0  0  0  0
  147.0812  133.6521  163.2641 H   0  0  0  0  0  0  0  0  0  0  0  0
  144.5127  132.5838  161.9144 H   0  0  0  0  0  0  0  0  0  0  0  0
  145.1208  132.2511  160.2952 H   0  0  0  0  0  0  0  0  0  0  0  0
  146.2782  131.1580  162.8928 H   0  0  0  0  0  0  0  0  0  0  0  0
  145.7405  130.2363  161.4794 H   0  0  0  0  0  0  0  0  0  0  0  0
  148.3020  133.0143  160.3477 H   0  0  0  0  0  0  0  0  0  0  0  0
  148.4800  132.9554  162.0956 H   0  0  0  0  0  0  0  0  0  0  0  0
  1  2  1  0  0  0  0
  1 29  1  0  0  0  0
  2  6  1  0  0  0  0
  2  3  1  0  0  0  0
  2 30  1  0  0  0  0
  3  4  1  0  0  0  0
  3 31  1  0  0  0  0
  3 32  1  0  0  0  0
  4  5  1  0  0  0  0
  4 33  1  0  0  0  0
  4 34  1  0  0  0  0
  5  6  1  0  0  0  0
  5 35  1  0  0  0  0
  5 36  1  0  0  0  0
  6  7  1  0  0  0  0
  6 37  1  0  0  0  0
  7 12  1  0  0  0  0
  7  8  1  0  0  0  0
  7 38  1  0  0  0  0
  8  9  1  0  0  0  0
  8 39  1  0  0  0  0
  8 40  1  0  0  0  0
  9 10  1  0  0  0  0
 10 11  1  0  0  0  0
 10 41  1  0  0  0  0
 10 42  1  0  0  0  0
 11 12  1  0  0  0  0
 11 43  1  0  0  0  0
 11 44  1  0  0  0  0
 12 13  1  0  0  0  0
 13 18  1  0  0  0  0
 13 14  2  0  0  0  0
 14 15  1  0  0  0  0
 15 16  2  0  0  0  0
 15 45  1  0  0  0  0
 16 17  1  0  0  0  0
 17 21  1  0  0  0  0
 17 18  2  0  0  0  0
 18 19  1  0  0  0  0
 19 20  2  0  0  0  0
 20 21  1  0  0  0  0
 20 46  1  0  0  0  0
 21 22  1  0  0  0  0
 22 23  1  0  0  0  0
 22 47  1  0  0  0  0
 22 48  1  0  0  0  0
 23 28  1  0  0  0  0
 23 24  1  0  0  0  0
 23 25  1  0  0  0  0
 24 49  1  0  0  0  0
 25 26  1  0  0  0  0
 25 50  1  0  0  0  0
 25 51  1  0  0  0  0
 26 27  1  0  0  0  0
 26 52  1  0  0  0  0
 26 53  1  0  0  0  0
 27 28  1  0  0  0  0
 28 54  1  0  0  0  0
 28 55  1  0  0  0  0
M  END
> <s_m_source_file>
AV-unprocessed.smi

> <i_m_source_file_index>
240

> <i_lp_mmshare_version>
43012

> <i_f3d_flags>
0

> <s_epik_input>
W09IXVtDQEBIXTFbQ0gyXVtDSDJdW0NIMl1bQ0BIXTFbQ0BASF0yW0NIMl1PW0NIMl1bQ0gyXU4yYyhuW2NIXW4zKWMoYzM0KW5bY0hdbjRbQ0gyXVtDQEBdNShbT0hdKVtDSDJdW0NIMl1PW0NIMl01

> <s_epik_cmdline>
J2VwaWtfcHl0aG9uJywgJy1waCcsICc3LjAnLCAnLXRuJywgJzgnLCAnLW1hJywgJzIwMCcsICctbWV0YWxfYmluZGluZycsICctaW1hZScsICc8aW5maWxlLm1hZT4nLCAnLW9tYWUnLCAnPG91dGZpbGUubWFlPic=

> <r_lp_tautomer_probability>
1

> <r_epik_Ionization_Penalty>
0.000130618

> <r_epik_Ionization_Penalty_Charging>
0

> <r_epik_Ionization_Penalty_Neutral>
0.000130618

> <r_epik_State_Penalty>
-0

> <r_epik_Charging_Adjusted_Penalty>
0

> <i_epik_Tot_Q>
0

> <i_epik_Tot_abs_Q>
0

> <r_epik_Metal_State_Penalty>
-0

> <b_epik_Metal_Only>
0

> <s_lp_Force_Field>
OPLS_2005

> <r_lp_Energy>
62.0257

> <b_lp_Chiralities_Consistent>
1

> <s_lp_Variant>
AV-unprocessed.smi:240-8

> <Gold.Version>
5.8.1

> <Gold.Id.Protein>
6NUR|6NUR_protein|mol2

> <Gold.PLP.Fitness>
40.0883

> <Gold.PLP.PLP>
-32.9962

> <Gold.PLP.part.hbond>
-3.2225

> <Gold.PLP.part.metal>
0.0000

> <Gold.PLP.part.buried>
-6.5904

> <Gold.PLP.part.nonpolar>
-23.6184

> <Gold.PLP.part.repulsive>
0.0000

> <Gold.PLP.ligand.clash>
0.0000

> <Gold.PLP.ligand.torsion>
0.7070

> <Gold.PLP.Chemscore.Hbond>
2.7668

> <Gold.PLP.Chemscore.CHOScore>
0.0000

> <Gold.PLP.Chemscore.Metal>
0.0000

> <Gold.Chemscore.Hbonds>
donor molecule, donor type, donor heavy atom, donor atom, acceptor molecule, acceptor atom, score
      P1  H  6931  6943       L1    19  0.85
      P1  H  7989  7998       L1     1  1.00
      P1  H  7997  8010       L1     9  0.95

> <Gold.PLP.Chemscore.Internal.Correction>
0.2057

> <Gold.Rescore>
     Score         DG    S(hbond)    S(metal)    S(lipo)     H(rot)  DE(clash)    DE(int)     intcor
     11.34     -13.43       2.29        0.00      68.39       3.00       0.17       1.93       ----

> <Gold.Chemscore.Fitness>
11.3363

> <Gold.Chemscore.DG>
-13.4345

> <Gold.Chemscore.ZeroCoef>
-5.4800

> <Gold.Chemscore.Hbond>
2.2883

> <Gold.Chemscore.Metal>
0.0000

> <Gold.Chemscore.Lipo>
68.3893

> <Gold.Chemscore.Internal_Hbond>
0.0000

> <Gold.Chemscore.DEClash>
0.1692

> <Gold.Chemscore.DEInternal>
1.9290

> <Gold.Chemscore.Rot>
3.0039

> <Gold.Chemscore.Internal.Correction>
   9.000000E+99

> <Gold.Chemscore.Hbonds>
donor molecule, donor type, donor heavy atom, donor atom, acceptor molecule, acceptor atom, score
      P1  H  6931  6943       L1    19  0.55
      P1  H  7989  7998       L1     1  0.45
      P1  H  7997  8010       L1     9  0.22

> <Gold.Chemscore.Hbond.Weighted>
-7.6428

> <Gold.Chemscore.Metal.Weighted>
-0.0000

> <Gold.Chemscore.Lipo.Weighted>
-8.0015

> <Gold.Chemscore.Internal_Hbond.Weighted>
0.0000

> <Gold.Chemscore.DEClash.Weighted>
0.1692

> <Gold.Chemscore.DEInternal.Weighted>
1.9290

> <Gold.Chemscore.Rot.Weighted>
7.6899

> <Gold.Chemscore.Internal.Correction.Weighted>
   9.000000E+99

> <Gold.Protein.RotatedTorsions>
[ 6907 6896 6895 6894 ] final  -36.64 input  -60.11 | X-H torsion
[ 7974 7965 7964 7962 ] final   95.74 input  175.53 | X-H torsion
[ 8008 7997 7996 7995 ] final    4.93 input   59.86 | X-H torsion
[ 10167 10162 10161 10158 ] final  128.76 input  -65.29 | X-H torsion
[ 10718 10713 10712 10709 ] final  -63.88 input   66.30 | X-H torsion
[ 10763 10752 10751 10750 ] final   79.86 input  -60.55 | X-H torsion
[ 11005 11000 10999 10996 ] final   -9.23 input  -57.11 | X-H torsion

> <Gold.Protein.ActiveResidues>
 VAL166  LYS551  ARG553  GLY616  TRP617  ASP618  TYR619  PRO620  LYS621  CYS622 
 ASP623  PHE694  ASN695  SER759  ASP760  ASP761  ALA762  ILE779  LEU786  VAL792 
 PHE793  MET794  SER795  GLU796  ALA797  LYS798  CYS799  TRP800  GLU811  SER814 

> <Gold.Protein.RotatedAtoms>
  151.0246  134.9495  159.8077 H   0  0  0  0  0  0  0  0  0  0  0  0  # atno 6907 bound_to 6896
  152.5332  134.2859  159.9035 H   0  0  0  0  0  0  0  0  0  0  0  0  # atno 6908 bound_to 6896
  151.2867  133.4142  159.2664 H   0  0  0  0  0  0  0  0  0  0  0  0  # atno 6909 bound_to 6896
  145.4482  139.2295  143.3054 H   0  0  0  0  0  0  0  0  0  0  0  0  # atno 7974 bound_to 7965
  154.7220  140.2713  155.6532 H   0  0  0  0  0  0  0  0  0  0  0  0  # atno 8008 bound_to 7997
  156.2826  140.2732  156.1820 H   0  0  0  0  0  0  0  0  0  0  0  0  # atno 8009 bound_to 7997
  155.0494  140.0371  157.2528 H   0  0  0  0  0  0  0  0  0  0  0  0  # atno 8010 bound_to 7997
  139.5511  144.6813  151.4322 H   0  0  0  0  0  0  0  0  0  0  0  0  # atno 10167 bound_to 10162
  156.0763  130.4226  150.1341 H   0  0  0  0  0  0  0  0  0  0  0  0  # atno 10718 bound_to 10713
  153.0987  135.4824  154.8826 H   0  0  0  0  0  0  0  0  0  0  0  0  # atno 10763 bound_to 10752
  154.7353  135.3069  154.8823 H   0  0  0  0  0  0  0  0  0  0  0  0  # atno 10764 bound_to 10752
  153.9447  135.6830  153.4797 H   0  0  0  0  0  0  0  0  0  0  0  0  # atno 10765 bound_to 10752
  140.7319  133.8742  155.8899 H   0  0  0  0  0  0  0  0  0  0  0  0  # atno 11005 bound_to 11000
  146.2519  140.5238  142.8890 LP  0  0  0  0  0  0  0  0  0  0  0  0  # atno 17320 bound_to 7965
  144.8078  140.6331  143.6435 LP  0  0  0  0  0  0  0  0  0  0  0  0  # atno 17321 bound_to 7965
  140.6773  143.8160  150.7075 LP  0  0  0  0  0  0  0  0  0  0  0  0  # atno 17342 bound_to 10162
  140.1603  143.4281  152.2071 LP  0  0  0  0  0  0  0  0  0  0  0  0  # atno 17343 bound_to 10162
  156.9381  130.9735  151.3521 LP  0  0  0  0  0  0  0  0  0  0  0  0  # atno 17370 bound_to 10713
  157.5860  130.8410  149.8590 LP  0  0  0  0  0  0  0  0  0  0  0  0  # atno 17371 bound_to 10713
  140.9913  134.1274  157.4405 LP  0  0  0  0  0  0  0  0  0  0  0  0  # atno 17394 bound_to 11000
  139.8824  135.0041  156.6230 LP  0  0  0  0  0  0  0  0  0  0  0  0  # atno 17395 bound_to 11000

$$$$
