#       Name:                AV-unprocessed.smi:189
#       Creating user name   scv26
#       Creation time:       Thu Mar 26 19:30:03 2020


#       File generated by GOLD software.
#

@<TRIPOS>MOLECULE
AV-unprocessed.smi:189
    61    65     1
SMALL
NO_CHARGES


@<TRIPOS>ATOM
      1 ****        -2.7108  -0.3864   3.3588 C.3            1 S1                 0.0000
      2 ****        -2.8811   0.5207   2.1318 C.3            1 S1                 0.0000
      3 ****        -4.3195   0.5332   1.5597 C.3            1 S1                 0.0000
      4 ****        -4.1299   0.1252   0.0986 C.3            1 S1                 0.0000
      5 ****        -5.0687   0.7074  -0.9644 C.3            1 S1                 0.0000
      6 ****        -4.6209   0.2114  -2.3565 C.3            1 S1                 0.0000
      7 ****        -3.1254   0.4934  -2.6338 C.3            1 S1                 0.0000
      8 ****        -2.2069  -0.0200  -1.5044 C.3            1 S1                 0.0000
      9 ****        -2.6975   0.5550  -0.1666 C.3            1 S1                 0.0000
     10 ****        -2.0018   0.1181   1.0294 N.3            1 S1                 0.0000
     11 ****        -0.7074   0.5010   1.1125 C.ar           1 S1                 0.0000
     12 ****        -0.3810   1.8093   1.2857 N.ar           1 S1                 0.0000
     13 ****         0.9035   2.1718   1.3558 C.ar           1 S1                 0.0000
     14 ****         1.9939   1.4054   1.2733 N.ar           1 S1                 0.0000
     15 ****         1.6659   0.0938   1.0905 C.ar           1 S1                 0.0000
     16 ****         0.3497  -0.4381   1.0001 C.ar           1 S1                 0.0000
     17 ****         0.3995  -1.8131   0.8145 N.2            1 S1                 0.0000
     18 ****         1.6768  -2.0813   0.7985 C.2            1 S1                 0.0000
     19 ****         2.5094  -0.9949   0.9524 N.pl3          1 S1                 0.0000
     20 ****         3.9638  -1.0126   0.9723 C.3            1 S1                 0.0000
     21 ****         4.5980  -0.9671  -0.4373 C.3            1 S1                 0.0000
     22 ****         4.2053  -2.1229  -1.1579 O.3            1 S1                 0.0000
     23 ****         4.2195   0.2660  -1.2523 C.3            1 S1                 0.0000
     24 ****         5.4560   0.4977  -2.1091 C.3            1 S1                 0.0000
     25 ****         6.5135   0.2087  -1.2107 O.3            1 S1                 0.0000
     26 ****         6.1386  -0.9102  -0.4133 C.3            1 S1                 0.0000
     27 ****        -3.3746  -0.0782   4.1667 H              1 S1                 0.0000
     28 ****        -1.6894  -0.3487   3.7384 H              1 S1                 0.0000
     29 ****        -2.9383  -1.4250   3.1162 H              1 S1                 0.0000
     30 ****        -2.6407   1.5407   2.4347 H              1 S1                 0.0000
     31 ****        -4.9925  -0.1496   2.0797 H              1 S1                 0.0000
     32 ****        -4.7410   1.5364   1.6332 H              1 S1                 0.0000
     33 ****        -4.1847  -0.9646   0.0516 H              1 S1                 0.0000
     34 ****        -6.0981   0.4067  -0.7685 H              1 S1                 0.0000
     35 ****        -5.0448   1.7974  -0.9309 H              1 S1                 0.0000
     36 ****        -4.7989  -0.8623  -2.4276 H              1 S1                 0.0000
     37 ****        -5.2353   0.6733  -3.1298 H              1 S1                 0.0000
     38 ****        -2.8329   0.0433  -3.5827 H              1 S1                 0.0000
     39 ****        -2.9816   1.5685  -2.7486 H              1 S1                 0.0000
     40 ****        -2.2210  -1.1104  -1.4749 H              1 S1                 0.0000
     41 ****        -1.1757   0.2774  -1.6978 H              1 S1                 0.0000
     42 ****        -2.6501   1.6452  -0.2149 H              1 S1                 0.0000
     43 ****         1.0835   3.2272   1.4981 H              1 S1                 0.0000
     44 ****         2.0506  -3.0866   0.6688 H              1 S1                 0.0000
     45 ****         4.3083  -0.1656   1.5669 H              1 S1                 0.0000
     46 ****         4.2873  -1.9093   1.5026 H              1 S1                 0.0000
     47 ****         4.6067  -2.0930  -2.0130 H              1 S1                 0.0000
     48 ****         3.3042   0.1485  -1.8341 H              1 S1                 0.0000
     49 ****         4.0872   1.1261  -0.5951 H              1 S1                 0.0000
     50 ****         5.4867  -0.1940  -2.9524 H              1 S1                 0.0000
     51 ****         5.5204   1.5163  -2.4922 H              1 S1                 0.0000
     52 ****         6.5322  -0.7737   0.5943 H              1 S1                 0.0000
     53 ****         6.5907  -1.8171  -0.8187 H              1 S1                 0.0000
     54 ****        -1.8612  -0.8719   1.0422 LP             1 S1                 0.0000
     55 ****        -1.1009   2.4993   1.3606 LP             1 S1                 0.0000
     56 ****         2.9309   1.7488   1.3374 LP             1 S1                 0.0000
     57 ****        -0.3653  -2.4498   0.7160 LP             1 S1                 0.0000
     58 ****         3.2099  -2.1396  -1.2526 LP             1 S1                 0.0000
     59 ****         4.5076  -2.9428  -0.6716 LP             1 S1                 0.0000
     60 ****         6.6821   1.0000  -0.6229 LP             1 S1                 0.0000
     61 ****         7.3433  -0.0071  -1.7252 LP             1 S1                 0.0000
@<TRIPOS>BOND
    1    1    2 1     
    2    1   27 1     
    3    1   28 1     
    4    1   29 1     
    5    2   10 1     
    6    2    3 1     
    7    2   30 1     
    8    3    4 1     
    9    3   31 1     
   10    3   32 1     
   11    4    9 1     
   12    4    5 1     
   13    4   33 1     
   14    5    6 1     
   15    5   34 1     
   16    5   35 1     
   17    6    7 1     
   18    6   36 1     
   19    6   37 1     
   20    7    8 1     
   21    7   38 1     
   22    7   39 1     
   23    8    9 1     
   24    8   40 1     
   25    8   41 1     
   26    9   10 1     
   27    9   42 1     
   28   10   11 1     
   29   11   16 ar    
   30   11   12 ar    
   31   12   13 ar    
   32   13   14 ar    
   33   13   43 1     
   34   14   15 ar    
   35   15   19 1     
   36   15   16 ar    
   37   16   17 1     
   38   17   18 2     
   39   18   19 1     
   40   18   44 1     
   41   19   20 1     
   42   20   21 1     
   43   20   45 1     
   44   20   46 1     
   45   21   26 1     
   46   21   22 1     
   47   21   23 1     
   48   22   47 1     
   49   23   24 1     
   50   23   48 1     
   51   23   49 1     
   52   24   25 1     
   53   24   50 1     
   54   24   51 1     
   55   25   26 1     
   56   26   52 1     
   57   26   53 1     
   58   10   54 1     
   59   12   55 1     
   60   14   56 1     
   61   17   57 1     
   62   22   58 1     
   63   22   59 1     
   64   25   60 1     
   65   25   61 1     
@<TRIPOS>SUBSTRUCTURE
      1 S1             1
@<TRIPOS>SET
LONE_PAIRS      STATIC     ATOMS    <user>   **** ""
8 54 55 56 57 58 59 60 61
DONOR_HYDROGENS      STATIC     ATOMS    <user>   **** ""
1 47
ATOM$BLUE        STATIC     ATOMS    COLORGROUP SYSTEM
8 54 55 56 57 58 59 60 61
ATOM$RED        STATIC     ATOMS    COLORGROUP SYSTEM
1 47
