AV-unprocessed.smi:284|AV-procd|sdf|2158|dock6
  -GOLD-   2262021503D 1   1.00000     0.00000
 Structure written by MMmdl.
 60 62  0  0  0  0  0  0  0  0  1 V2000
  151.5123  144.6992  157.9574 C   0  0  0  0  0  0  0  0  0  0  0  0
  151.7543  143.2051  158.1027 C   0  0  0  0  0  0  0  0  0  0  0  0
  151.2519  142.3065  157.2247 C   0  0  0  0  0  0  0  0  0  0  0  0
  151.4539  140.9431  157.3288 N   0  0  0  0  0  0  0  0  0  0  0  0
  150.8715  139.9817  156.3202 C   0  0  1  0  0  0  0  0  0  0  0  0
  149.6155  139.3138  156.8690 C   0  0  0  0  0  0  0  0  0  0  0  0
  148.8617  139.0481  155.5851 C   0  0  1  0  0  0  0  0  0  0  0  0
  147.4838  138.8427  155.8245 O   0  0  0  0  0  0  0  0  0  0  0  0
  149.1982  140.2859  154.7330 C   0  0  1  0  0  0  0  0  0  0  0  0
  148.2623  141.4999  154.9099 C   0  0  0  0  0  0  0  0  0  0  0  0
  148.7014  142.5913  154.1281 O   0  0  0  0  0  0  0  0  0  0  0  0
  150.5024  140.6804  155.1669 O   0  0  0  0  0  0  0  0  0  0  0  0
  152.1844  140.4263  158.4169 C   0  0  0  0  0  0  0  0  0  0  0  0
  152.3494  139.2110  158.5472 O   0  0  0  0  0  0  0  0  0  0  0  0
  152.7207  141.3376  159.3540 N   0  0  0  0  0  0  0  0  0  0  0  0
  153.5118  140.8006  160.4838 C   0  0  0  0  0  0  0  0  0  0  0  0
  154.7747  140.0432  160.0447 C   0  0  0  0  0  0  0  0  0  0  0  0
  154.8955  139.6490  158.8840 O   0  0  0  0  0  0  0  0  0  0  0  0
  155.7085  139.8915  161.0013 N   0  0  0  0  0  0  0  0  0  0  0  0
  156.9566  139.2165  160.9246 C   0  0  0  0  0  0  0  0  0  0  0  0
  157.8660  139.4135  161.9815 C   0  0  0  0  0  0  0  0  0  0  0  0
  159.1121  138.7578  161.9893 C   0  0  0  0  0  0  0  0  0  0  0  0
  159.4756  137.8770  160.9410 C   0  0  0  0  0  0  0  0  0  0  0  0
  160.8255  137.1348  160.9165 C   0  0  0  0  0  0  0  0  0  0  0  0
  160.9145  136.2701  159.6419 C   0  0  0  0  0  0  0  0  0  0  0  0
  161.0233  136.2010  162.1321 C   0  0  0  0  0  0  0  0  0  0  0  0
  161.9820  138.1565  160.9213 C   0  0  0  0  0  0  0  0  0  0  0  0
  158.5489  137.6736  159.8912 C   0  0  0  0  0  0  0  0  0  0  0  0
  157.3029  138.3287  159.8805 C   0  0  0  0  0  0  0  0  0  0  0  0
  152.5521  142.7397  159.2400 C   0  0  0  0  0  0  0  0  0  0  0  0
  153.0599  143.5027  160.0640 O   0  0  0  0  0  0  0  0  0  0  0  0
  150.9252  144.9308  157.0681 H   0  0  0  0  0  0  0  0  0  0  0  0
  152.4596  145.2340  157.8791 H   0  0  0  0  0  0  0  0  0  0  0  0
  150.9719  145.0834  158.8232 H   0  0  0  0  0  0  0  0  0  0  0  0
  150.6585  142.6815  156.4048 H   0  0  0  0  0  0  0  0  0  0  0  0
  151.6572  139.2750  156.0476 H   0  0  0  0  0  0  0  0  0  0  0  0
  149.8575  138.4170  157.4401 H   0  0  0  0  0  0  0  0  0  0  0  0
  149.0735  140.0145  157.5066 H   0  0  0  0  0  0  0  0  0  0  0  0
  149.2733  138.1587  155.1054 H   0  0  0  0  0  0  0  0  0  0  0  0
  147.2105  139.4208  156.5209 H   0  0  0  0  0  0  0  0  0  0  0  0
  149.2522  140.0210  153.6761 H   0  0  0  0  0  0  0  0  0  0  0  0
  147.2302  141.2518  154.6610 H   0  0  0  0  0  0  0  0  0  0  0  0
  148.2704  141.8242  155.9510 H   0  0  0  0  0  0  0  0  0  0  0  0
  148.5589  143.3875  154.6171 H   0  0  0  0  0  0  0  0  0  0  0  0
  153.8117  141.5896  161.1750 H   0  0  0  0  0  0  0  0  0  0  0  0
  152.8980  140.1366  161.0951 H   0  0  0  0  0  0  0  0  0  0  0  0
  155.5221  140.3584  161.8770 H   0  0  0  0  0  0  0  0  0  0  0  0
  157.6125  140.0764  162.7960 H   0  0  0  0  0  0  0  0  0  0  0  0
  159.7711  138.9503  162.8213 H   0  0  0  0  0  0  0  0  0  0  0  0
  161.8538  135.7174  159.6022 H   0  0  0  0  0  0  0  0  0  0  0  0
  160.8594  136.8707  158.7339 H   0  0  0  0  0  0  0  0  0  0  0  0
  160.1042  135.5412  159.6028 H   0  0  0  0  0  0  0  0  0  0  0  0
  160.2589  135.4240  162.1743 H   0  0  0  0  0  0  0  0  0  0  0  0
  160.9987  136.7532  163.0724 H   0  0  0  0  0  0  0  0  0  0  0  0
  161.9876  135.6934  162.0866 H   0  0  0  0  0  0  0  0  0  0  0  0
  162.9519  137.6578  160.9275 H   0  0  0  0  0  0  0  0  0  0  0  0
  161.9385  138.7968  161.8031 H   0  0  0  0  0  0  0  0  0  0  0  0
  161.9640  138.8039  160.0446 H   0  0  0  0  0  0  0  0  0  0  0  0
  158.7830  137.0008  159.0797 H   0  0  0  0  0  0  0  0  0  0  0  0
  156.6228  138.1214  159.0688 H   0  0  0  0  0  0  0  0  0  0  0  0
  1  2  1  0  0  0  0
  1 32  1  0  0  0  0
  1 33  1  0  0  0  0
  1 34  1  0  0  0  0
  2 30  1  0  0  0  0
  2  3  2  0  0  0  0
  3  4  1  0  0  0  0
  3 35  1  0  0  0  0
  4  5  1  0  0  0  0
  4 13  1  0  0  0  0
  5 12  1  0  0  0  0
  5  6  1  0  0  0  0
  5 36  1  0  0  0  0
  6  7  1  0  0  0  0
  6 37  1  0  0  0  0
  6 38  1  0  0  0  0
  7  8  1  0  0  0  0
  7  9  1  0  0  0  0
  7 39  1  0  0  0  0
  8 40  1  0  0  0  0
  9 10  1  0  0  0  0
  9 12  1  0  0  0  0
  9 41  1  0  0  0  0
 10 11  1  0  0  0  0
 10 42  1  0  0  0  0
 10 43  1  0  0  0  0
 11 44  1  0  0  0  0
 13 14  2  0  0  0  0
 13 15  1  0  0  0  0
 15 16  1  0  0  0  0
 15 30  1  0  0  0  0
 16 17  1  0  0  0  0
 16 45  1  0  0  0  0
 16 46  1  0  0  0  0
 17 18  2  0  0  0  0
 17 19  1  0  0  0  0
 19 20  1  0  0  0  0
 19 47  1  0  0  0  0
 20 29  1  0  0  0  0
 20 21  2  0  0  0  0
 21 22  1  0  0  0  0
 21 48  1  0  0  0  0
 22 23  2  0  0  0  0
 22 49  1  0  0  0  0
 23 24  1  0  0  0  0
 23 28  1  0  0  0  0
 24 25  1  0  0  0  0
 24 26  1  0  0  0  0
 24 27  1  0  0  0  0
 25 50  1  0  0  0  0
 25 51  1  0  0  0  0
 25 52  1  0  0  0  0
 26 53  1  0  0  0  0
 26 54  1  0  0  0  0
 26 55  1  0  0  0  0
 27 56  1  0  0  0  0
 27 57  1  0  0  0  0
 27 58  1  0  0  0  0
 28 29  2  0  0  0  0
 28 59  1  0  0  0  0
 29 60  1  0  0  0  0
 30 31  2  0  0  0  0
M  END
> <s_m_source_file>
AV-unprocessed.smi

> <i_m_source_file_index>
284

> <i_lp_mmshare_version>
43012

> <i_f3d_flags>
0

> <s_epik_input>
W09IXVtDSDJdW0NAQEhdKE8xKVtDQEhdKFtPSF0pW0NIMl1bQ0BIXTFuKFtjSF1jMltDSDNdKWMoPU8pbihjMj1PKVtDSDJdQyg9TylbTkhdYzNbY0hdW2NIXWMoQyhbQ0gzXSkoW0NIM10pW0NIM10pW2NIXVtjSF0z

> <s_epik_cmdline>
J2VwaWtfcHl0aG9uJywgJy1waCcsICc3LjAnLCAnLXRuJywgJzgnLCAnLW1hJywgJzIwMCcsICctbWV0YWxfYmluZGluZycsICctaW1hZScsICc8aW5maWxlLm1hZT4nLCAnLW9tYWUnLCAnPG91dGZpbGUubWFlPic=

> <r_lp_tautomer_probability>
1

> <r_epik_Ionization_Penalty>
4.92358e-06

> <r_epik_Ionization_Penalty_Charging>
1.29777e-07

> <r_epik_Ionization_Penalty_Neutral>
4.79381e-06

> <r_epik_State_Penalty>
-0

> <r_epik_Charging_Adjusted_Penalty>
1.29777e-07

> <i_epik_Tot_Q>
0

> <i_epik_Tot_abs_Q>
0

> <r_epik_Metal_State_Penalty>
-0

> <b_epik_Metal_Only>
0

> <s_epik_Chemistry_Notes>
This compound contains an acetal/aminal-like group ( X-CH(R)-Y where X, Y are N, S, or O) that may be acid/base labile, releasing an aldehyde.

> <s_lp_Force_Field>
OPLS_2005

> <r_lp_Energy>
41.7726

> <b_lp_Chiralities_Consistent>
1

> <s_lp_Variant>
AV-unprocessed.smi:284-2

> <Gold.Version>
5.8.1

> <Gold.Id.Protein>
6NUR|6NUR_protein|mol2

> <Gold.PLP.Fitness>
49.3286

> <Gold.PLP.PLP>
-40.7369

> <Gold.PLP.part.hbond>
-4.4252

> <Gold.PLP.part.metal>
0.0000

> <Gold.PLP.part.buried>
-5.5133

> <Gold.PLP.part.nonpolar>
-30.4741

> <Gold.PLP.part.repulsive>
0.0916

> <Gold.PLP.ligand.clash>
0.0000

> <Gold.PLP.ligand.torsion>
0.7511

> <Gold.PLP.Chemscore.Hbond>
2.9865

> <Gold.PLP.Chemscore.CHOScore>
0.3337

> <Gold.PLP.Chemscore.Metal>
0.0000

> <Gold.Chemscore.Hbonds>
donor molecule, donor type, donor heavy atom, donor atom, acceptor molecule, acceptor atom, score
      L1  H    11    44       P1  8028  1.00
      P1  H  7989  7998       L1    12  0.90
      P1  H  7997  8010       L1    18  1.00
      P1  H  8011  8017       L1    11  0.08
      L1  C     3    35       P1  8028  0.33

> <Gold.PLP.Chemscore.Internal.Correction>
0.1334

> <Gold.Rescore>
     Score         DG    S(hbond)    S(metal)    S(lipo)     H(rot)  DE(clash)    DE(int)     intcor
      8.73     -14.57       2.89        0.00      66.76       3.27       0.05       5.78       ----

> <Gold.Chemscore.Fitness>
8.7324

> <Gold.Chemscore.DG>
-14.5684

> <Gold.Chemscore.ZeroCoef>
-5.4800

> <Gold.Chemscore.Hbond>
2.8916

> <Gold.Chemscore.Metal>
0.0000

> <Gold.Chemscore.Lipo>
66.7572

> <Gold.Chemscore.Internal_Hbond>
0.0000

> <Gold.Chemscore.DEClash>
0.0534

> <Gold.Chemscore.DEInternal>
5.7826

> <Gold.Chemscore.Rot>
3.2735

> <Gold.Chemscore.Internal.Correction>
   9.000000E+99

> <Gold.Chemscore.Hbonds>
donor molecule, donor type, donor heavy atom, donor atom, acceptor molecule, acceptor atom, score
      L1  H    11    44       P1  8028  1.00
      P1  H  7989  7998       L1    12  0.50
      P1  H  7997  8010       L1    18  0.95
      P1  H  8011  8017       L1    11  0.10

> <Gold.Chemscore.Hbond.Weighted>
-9.6578

> <Gold.Chemscore.Metal.Weighted>
-0.0000

> <Gold.Chemscore.Lipo.Weighted>
-7.8106

> <Gold.Chemscore.Internal_Hbond.Weighted>
0.0000

> <Gold.Chemscore.DEClash.Weighted>
0.0534

> <Gold.Chemscore.DEInternal.Weighted>
5.7826

> <Gold.Chemscore.Rot.Weighted>
8.3801

> <Gold.Chemscore.Internal.Correction.Weighted>
   9.000000E+99

> <Gold.Protein.RotatedTorsions>
[ 6907 6896 6895 6894 ] final -112.58 input  -60.11 | X-H torsion
[ 7974 7965 7964 7962 ] final -120.71 input  175.53 | X-H torsion
[ 8008 7997 7996 7995 ] final  -19.88 input   59.86 | X-H torsion
[ 10167 10162 10161 10158 ] final -126.97 input  -65.29 | X-H torsion
[ 10718 10713 10712 10709 ] final  100.08 input   66.30 | X-H torsion
[ 10763 10752 10751 10750 ] final -118.73 input  -60.55 | X-H torsion
[ 11005 11000 10999 10996 ] final  133.45 input  -57.11 | X-H torsion

> <Gold.Protein.ActiveResidues>
 VAL166  LYS551  ARG553  GLY616  TRP617  ASP618  TYR619  PRO620  LYS621  CYS622 
 ASP623  PHE694  ASN695  SER759  ASP760  ASP761  ALA762  ILE779  LEU786  VAL792 
 PHE793  MET794  SER795  GLU796  ALA797  LYS798  CYS799  TRP800  GLU811  SER814 

> <Gold.Protein.RotatedAtoms>
  150.7769  133.9068  159.3357 H   0  0  0  0  0  0  0  0  0  0  0  0  # atno 6907 bound_to 6896
  151.6941  135.0939  160.0248 H   0  0  0  0  0  0  0  0  0  0  0  0  # atno 6908 bound_to 6896
  152.3807  133.6504  159.6195 H   0  0  0  0  0  0  0  0  0  0  0  0  # atno 6909 bound_to 6896
  145.0484  140.8199  143.4224 H   0  0  0  0  0  0  0  0  0  0  0  0  # atno 7974 bound_to 7965
  154.4807  140.2077  155.9771 H   0  0  0  0  0  0  0  0  0  0  0  0  # atno 8008 bound_to 7997
  156.1160  140.3221  155.8109 H   0  0  0  0  0  0  0  0  0  0  0  0  # atno 8009 bound_to 7997
  155.4552  140.0520  157.2987 H   0  0  0  0  0  0  0  0  0  0  0  0  # atno 8010 bound_to 7997
  139.9659  143.5899  152.2429 H   0  0  0  0  0  0  0  0  0  0  0  0  # atno 10167 bound_to 10162
  157.6862  131.0688  150.5047 H   0  0  0  0  0  0  0  0  0  0  0  0  # atno 10718 bound_to 10713
  154.8596  135.4263  154.2186 H   0  0  0  0  0  0  0  0  0  0  0  0  # atno 10763 bound_to 10752
  153.3196  135.6981  153.7048 H   0  0  0  0  0  0  0  0  0  0  0  0  # atno 10764 bound_to 10752
  153.6108  135.3519  155.2952 H   0  0  0  0  0  0  0  0  0  0  0  0  # atno 10765 bound_to 10752
  139.9853  134.9534  156.9727 H   0  0  0  0  0  0  0  0  0  0  0  0  # atno 11005 bound_to 11000
  145.1559  139.2487  143.5417 LP  0  0  0  0  0  0  0  0  0  0  0  0  # atno 17320 bound_to 7965
  146.3516  140.1273  142.8598 LP  0  0  0  0  0  0  0  0  0  0  0  0  # atno 17321 bound_to 7965
  139.6518  144.7661  151.2132 LP  0  0  0  0  0  0  0  0  0  0  0  0  # atno 17342 bound_to 10162
  140.7538  143.6148  150.8570 LP  0  0  0  0  0  0  0  0  0  0  0  0  # atno 17343 bound_to 10162
  156.5367  130.4198  149.6174 LP  0  0  0  0  0  0  0  0  0  0  0  0  # atno 17370 bound_to 10713
  156.3022  130.7183  151.2057 LP  0  0  0  0  0  0  0  0  0  0  0  0  # atno 17371 bound_to 10713
  140.5015  134.1092  155.7251 LP  0  0  0  0  0  0  0  0  0  0  0  0  # atno 17394 bound_to 11000
  141.1519  133.8954  157.2077 LP  0  0  0  0  0  0  0  0  0  0  0  0  # atno 17395 bound_to 11000

$$$$
