AV-unprocessed.smi:364|AV-procd|sdf|2425|dock2
  -GOLD-   2262022363D 1   1.00000     0.00000
 Structure written by MMmdl.
 37 38  0  0  0  0  0  0  0  0  1 V2000
  153.1398  142.7349  160.7481 C   0  0  0  0  0  0  0  0  0  0  0  0
  152.0389  142.7040  159.6788 C   0  0  2  0  0  0  0  0  0  0  0  0
  151.7454  141.2653  159.2125 C   0  0  0  0  0  0  0  0  0  0  0  0
  150.6453  141.2305  158.1395 C   0  0  0  0  0  0  0  0  0  0  0  0
  151.0023  142.1271  156.9374 C   0  0  1  0  0  0  0  0  0  0  0  0
  149.9120  142.1473  155.9689 N   0  0  0  0  0  0  0  0  0  0  0  0
  149.6916  141.2276  155.0145 C   0  0  0  0  0  0  0  0  0  0  0  0
  150.4044  140.2357  154.8669 O   0  0  0  0  0  0  0  0  0  0  0  0
  148.4920  141.4323  154.0726 C   0  0  0  0  0  0  0  0  0  0  0  0
  147.2607  141.9111  154.7275 N   0  0  0  0  0  0  0  0  0  0  0  0
  146.5190  142.9028  154.0636 C   0  0  0  0  0  0  0  0  0  0  0  0
  145.3865  143.3860  154.5941 C   0  0  0  0  0  0  0  0  0  0  0  0
  144.9794  142.8227  155.8880 C   0  0  0  0  0  0  0  0  0  0  0  0
  145.6521  141.9171  156.4947 N   0  0  0  0  0  0  0  0  0  0  0  0
  146.8408  141.4111  155.9355 C   0  0  0  0  0  0  0  0  0  0  0  0
  147.4890  140.5362  156.5097 O   0  0  0  0  0  0  0  0  0  0  0  0
  151.2987  143.5645  157.4009 C   0  0  0  0  0  0  0  0  0  0  0  0
  152.3984  143.5945  158.4742 C   0  0  0  0  0  0  0  0  0  0  0  0
  154.0821  142.3489  160.3581 H   0  0  0  0  0  0  0  0  0  0  0  0
  152.8648  142.1304  161.6127 H   0  0  0  0  0  0  0  0  0  0  0  0
  153.3163  143.7517  161.1001 H   0  0  0  0  0  0  0  0  0  0  0  0
  151.1298  143.1022  160.1320 H   0  0  0  0  0  0  0  0  0  0  0  0
  152.6546  140.8138  158.8133 H   0  0  0  0  0  0  0  0  0  0  0  0
  151.4444  140.6513  160.0621 H   0  0  0  0  0  0  0  0  0  0  0  0
  150.4910  140.2023  157.8102 H   0  0  0  0  0  0  0  0  0  0  0  0
  149.7019  141.5582  158.5784 H   0  0  0  0  0  0  0  0  0  0  0  0
  151.9002  141.7339  156.4562 H   0  0  0  0  0  0  0  0  0  0  0  0
  149.2760  142.9303  156.0189 H   0  0  0  0  0  0  0  0  0  0  0  0
  148.7887  142.1210  153.2798 H   0  0  0  0  0  0  0  0  0  0  0  0
  148.2995  140.4862  153.5644 H   0  0  0  0  0  0  0  0  0  0  0  0
  146.9214  143.2310  153.1161 H   0  0  0  0  0  0  0  0  0  0  0  0
  144.7693  144.1454  154.1372 H   0  0  0  0  0  0  0  0  0  0  0  0
  144.0548  143.2298  156.3047 H   0  0  0  0  0  0  0  0  0  0  0  0
  151.6003  144.1766  156.5501 H   0  0  0  0  0  0  0  0  0  0  0  0
  150.3914  144.0191  157.8017 H   0  0  0  0  0  0  0  0  0  0  0  0
  152.5573  144.6218  158.8035 H   0  0  0  0  0  0  0  0  0  0  0  0
  153.3408  143.2617  158.0367 H   0  0  0  0  0  0  0  0  0  0  0  0
  1  2  1  0  0  0  0
  1 19  1  0  0  0  0
  1 20  1  0  0  0  0
  1 21  1  0  0  0  0
  2 18  1  0  0  0  0
  2  3  1  0  0  0  0
  2 22  1  0  0  0  0
  3  4  1  0  0  0  0
  3 23  1  0  0  0  0
  3 24  1  0  0  0  0
  4  5  1  0  0  0  0
  4 25  1  0  0  0  0
  4 26  1  0  0  0  0
  5  6  1  0  0  0  0
  5 17  1  0  0  0  0
  5 27  1  0  0  0  0
  6  7  1  0  0  0  0
  6 28  1  0  0  0  0
  7  8  2  0  0  0  0
  7  9  1  0  0  0  0
  9 10  1  0  0  0  0
  9 29  1  0  0  0  0
  9 30  1  0  0  0  0
 10 15  1  0  0  0  0
 10 11  1  0  0  0  0
 11 12  2  0  0  0  0
 11 31  1  0  0  0  0
 12 13  1  0  0  0  0
 12 32  1  0  0  0  0
 13 14  2  0  0  0  0
 13 33  1  0  0  0  0
 14 15  1  0  0  0  0
 15 16  2  0  0  0  0
 17 18  1  0  0  0  0
 17 34  1  0  0  0  0
 17 35  1  0  0  0  0
 18 36  1  0  0  0  0
 18 37  1  0  0  0  0
M  END
> <s_m_source_file>
AV-unprocessed.smi

> <i_m_source_file_index>
364

> <i_lp_mmshare_version>
43012

> <i_f3d_flags>
0

> <s_epik_input>
W0NIM11bQ0BASF0xW0NIMl1bQ0gyXVtDQEhdKFtDSDJdW0NIMl0xKVtOSF1DKD1PKVtDSDJdbjJbY0hdW2NIXVtjSF1uYzI9Tw==

> <s_epik_cmdline>
J2VwaWtfcHl0aG9uJywgJy1waCcsICc3LjAnLCAnLXRuJywgJzgnLCAnLW1hJywgJzIwMCcsICctbWV0YWxfYmluZGluZycsICctaW1hZScsICc8aW5maWxlLm1hZT4nLCAnLW9tYWUnLCAnPG91dGZpbGUubWFlPic=

> <r_lp_tautomer_probability>
1

> <r_epik_Ionization_Penalty>
7.65306e-06

> <r_epik_Ionization_Penalty_Charging>
1.81354e-08

> <r_epik_Ionization_Penalty_Neutral>
7.63492e-06

> <r_epik_State_Penalty>
-0

> <r_epik_Charging_Adjusted_Penalty>
1.81354e-08

> <i_epik_Tot_Q>
0

> <i_epik_Tot_abs_Q>
0

> <r_epik_Metal_State_Penalty>
-0

> <b_epik_Metal_Only>
0

> <s_lp_Force_Field>
OPLS_2005

> <r_lp_Energy>
10.9522

> <b_lp_Chiralities_Consistent>
1

> <s_lp_Variant>
AV-unprocessed.smi:364-1

> <Gold.Version>
5.8.1

> <Gold.Id.Protein>
6NUR|6NUR_protein|mol2

> <Gold.PLP.Fitness>
44.4830

> <Gold.PLP.PLP>
-40.1661

> <Gold.PLP.part.hbond>
-2.0000

> <Gold.PLP.part.metal>
0.0000

> <Gold.PLP.part.buried>
-4.1796

> <Gold.PLP.part.nonpolar>
-34.9455

> <Gold.PLP.part.repulsive>
0.2827

> <Gold.PLP.ligand.clash>
0.0000

> <Gold.PLP.ligand.torsion>
0.8434

> <Gold.PLP.Chemscore.Hbond>
2.0000

> <Gold.PLP.Chemscore.CHOScore>
0.0000

> <Gold.PLP.Chemscore.Metal>
0.0000

> <Gold.Chemscore.Hbonds>
donor molecule, donor type, donor heavy atom, donor atom, acceptor molecule, acceptor atom, score
      L1  H     6    28       P1  8028  1.00
      P1  H  7989  7998       L1     8  1.00

> <Gold.PLP.Chemscore.Internal.Correction>
0.0037

> <Gold.Rescore>
     Score         DG    S(hbond)    S(metal)    S(lipo)     H(rot)  DE(clash)    DE(int)     intcor
     15.66     -17.60       1.60        0.00      90.80       1.50       0.14       1.80       ----

> <Gold.Chemscore.Fitness>
15.6560

> <Gold.Chemscore.DG>
-17.6032

> <Gold.Chemscore.ZeroCoef>
-5.4800

> <Gold.Chemscore.Hbond>
1.5969

> <Gold.Chemscore.Metal>
0.0000

> <Gold.Chemscore.Lipo>
90.8013

> <Gold.Chemscore.Internal_Hbond>
0.0000

> <Gold.Chemscore.DEClash>
0.1424

> <Gold.Chemscore.DEInternal>
1.8048

> <Gold.Chemscore.Rot>
1.4977

> <Gold.Chemscore.Internal.Correction>
   9.000000E+99

> <Gold.Chemscore.Hbonds>
donor molecule, donor type, donor heavy atom, donor atom, acceptor molecule, acceptor atom, score
      L1  H     6    28       P1  8028  0.94
      P1  H  7989  7998       L1     8  0.25

> <Gold.Chemscore.Hbond.Weighted>
-5.3335

> <Gold.Chemscore.Metal.Weighted>
-0.0000

> <Gold.Chemscore.Lipo.Weighted>
-10.6238

> <Gold.Chemscore.Internal_Hbond.Weighted>
0.0000

> <Gold.Chemscore.DEClash.Weighted>
0.1424

> <Gold.Chemscore.DEInternal.Weighted>
1.8048

> <Gold.Chemscore.Rot.Weighted>
3.8341

> <Gold.Chemscore.Internal.Correction.Weighted>
   9.000000E+99

> <Gold.Protein.RotatedTorsions>
[ 6907 6896 6895 6894 ] final   61.18 input  -60.11 | X-H torsion
[ 7974 7965 7964 7962 ] final  -36.36 input  175.53 | X-H torsion
[ 8008 7997 7996 7995 ] final   73.10 input   59.86 | X-H torsion
[ 10167 10162 10161 10158 ] final  145.51 input  -65.29 | X-H torsion
[ 10718 10713 10712 10709 ] final  114.17 input   66.30 | X-H torsion
[ 10763 10752 10751 10750 ] final   86.92 input  -60.55 | X-H torsion
[ 11005 11000 10999 10996 ] final -150.85 input  -57.11 | X-H torsion

> <Gold.Protein.ActiveResidues>
 VAL166  LYS551  ARG553  GLY616  TRP617  ASP618  TYR619  PRO620  LYS621  CYS622 
 ASP623  PHE694  ASN695  SER759  ASP760  ASP761  ALA762  ILE779  LEU786  VAL792 
 PHE793  MET794  SER795  GLU796  ALA797  LYS798  CYS799  TRP800  GLU811  SER814 

> <Gold.Protein.RotatedAtoms>
  152.4067  134.6195  160.0046 H   0  0  0  0  0  0  0  0  0  0  0  0  # atno 6907 bound_to 6896
  151.6385  133.3322  159.3132 H   0  0  0  0  0  0  0  0  0  0  0  0  # atno 6908 bound_to 6896
  150.7961  134.7063  159.6623 H   0  0  0  0  0  0  0  0  0  0  0  0  # atno 6909 bound_to 6896
  146.0668  140.6269  142.8971 H   0  0  0  0  0  0  0  0  0  0  0  0  # atno 7974 bound_to 7965
  155.7787  140.3482  155.5286 H   0  0  0  0  0  0  0  0  0  0  0  0  # atno 8008 bound_to 7997
  155.8750  140.0993  157.1545 H   0  0  0  0  0  0  0  0  0  0  0  0  # atno 8009 bound_to 7997
  154.4020  140.1333  156.4113 H   0  0  0  0  0  0  0  0  0  0  0  0  # atno 8010 bound_to 7997
  139.4925  144.5896  151.6708 H   0  0  0  0  0  0  0  0  0  0  0  0  # atno 10167 bound_to 10162
  157.6296  131.0994  150.7147 H   0  0  0  0  0  0  0  0  0  0  0  0  # atno 10718 bound_to 10713
  153.1617  135.4563  154.9781 H   0  0  0  0  0  0  0  0  0  0  0  0  # atno 10763 bound_to 10752
  154.7902  135.3218  154.7797 H   0  0  0  0  0  0  0  0  0  0  0  0  # atno 10764 bound_to 10752
  153.8285  135.6940  153.4872 H   0  0  0  0  0  0  0  0  0  0  0  0  # atno 10765 bound_to 10752
  140.7358  134.3570  157.5158 H   0  0  0  0  0  0  0  0  0  0  0  0  # atno 11005 bound_to 11000
  144.7207  140.4364  143.7010 LP  0  0  0  0  0  0  0  0  0  0  0  0  # atno 17320 bound_to 7965
  145.6462  139.1557  143.2887 LP  0  0  0  0  0  0  0  0  0  0  0  0  # atno 17321 bound_to 7965
  140.5520  144.0410  150.6131 LP  0  0  0  0  0  0  0  0  0  0  0  0  # atno 17342 bound_to 10162
  140.3467  143.2987  152.0531 LP  0  0  0  0  0  0  0  0  0  0  0  0  # atno 17343 bound_to 10162
  156.7489  130.4762  149.5461 LP  0  0  0  0  0  0  0  0  0  0  0  0  # atno 17370 bound_to 10713
  156.1491  130.6297  151.0571 LP  0  0  0  0  0  0  0  0  0  0  0  0  # atno 17371 bound_to 10713
  139.8816  134.9048  156.2886 LP  0  0  0  0  0  0  0  0  0  0  0  0  # atno 17394 bound_to 11000
  140.9881  133.7226  156.0772 LP  0  0  0  0  0  0  0  0  0  0  0  0  # atno 17395 bound_to 11000

$$$$
