AV-unprocessed.smi:356|AV-procd|sdf|2414|dock1
  -GOLD-   2262022343D 1   1.00000     0.00000
 Structure written by MMmdl.
 43 45  0  0  0  0  0  0  0  0  3 V2000
  149.7745  141.4009  155.1612 C   0  0  0  0  0  0  0  0  0  0  0  0
  150.5540  141.8295  156.3591 C   0  0  0  0  0  0  0  0  0  0  0  0
  150.5738  143.0827  156.8946 N   0  3  0  0  0  0  0  0  0  0  0  0
  151.4119  143.1067  158.0100 C   0  0  0  0  0  0  0  0  0  0  0  0
  151.7476  144.1427  158.8762 C   0  0  0  0  0  0  0  0  0  0  0  0
  152.6369  143.8276  159.9246 C   0  0  0  0  0  0  0  0  0  0  0  0
  153.1566  142.5261  160.0808 C   0  0  0  0  0  0  0  0  0  0  0  0
  152.8101  141.4840  159.1956 C   0  0  0  0  0  0  0  0  0  0  0  0
  151.9299  141.8041  158.1622 C   0  0  0  0  0  0  0  0  0  0  0  0
  151.3761  141.0515  157.1207 N   0  0  0  0  0  0  0  0  0  0  0  0
  151.7249  139.6276  156.9971 C   0  0  0  0  0  0  0  0  0  0  0  0
  151.1431  138.7628  158.1338 C   0  0  2  0  0  0  0  0  0  0  0  0
  152.1888  138.3924  159.0125 O   0  0  0  0  0  0  0  0  0  0  0  0
  150.4684  137.4900  157.5825 C   0  0  0  0  0  0  0  0  0  0  0  0
  149.2691  137.0796  158.3575 N   0  3  0  0  0  0  0  0  0  0  0  0
  149.5265  136.8979  159.8083 C   0  0  0  0  0  0  0  0  0  0  0  0
  148.2457  136.4428  160.5288 C   0  0  0  0  0  0  0  0  0  0  0  0
  147.2074  137.3874  160.3020 O   0  0  0  0  0  0  0  0  0  0  0  0
  146.8889  137.5051  158.9212 C   0  0  0  0  0  0  0  0  0  0  0  0
  148.1240  137.9981  158.1489 C   0  0  0  0  0  0  0  0  0  0  0  0
  149.2153  142.2404  154.7477 H   0  0  0  0  0  0  0  0  0  0  0  0
  149.0697  140.6147  155.4323 H   0  0  0  0  0  0  0  0  0  0  0  0
  150.4452  141.0189  154.3913 H   0  0  0  0  0  0  0  0  0  0  0  0
  151.3501  145.1403  158.7593 H   0  0  0  0  0  0  0  0  0  0  0  0
  152.9252  144.5997  160.6234 H   0  0  0  0  0  0  0  0  0  0  0  0
  153.8345  142.3231  160.8973 H   0  0  0  0  0  0  0  0  0  0  0  0
  153.2126  140.4904  159.3250 H   0  0  0  0  0  0  0  0  0  0  0  0
  151.3825  139.2740  156.0237 H   0  0  0  0  0  0  0  0  0  0  0  0
  152.8131  139.5528  156.9829 H   0  0  0  0  0  0  0  0  0  0  0  0
  150.4276  139.3638  158.6935 H   0  0  0  0  0  0  0  0  0  0  0  0
  152.3922  139.1242  159.5743 H   0  0  0  0  0  0  0  0  0  0  0  0
  150.1852  137.6317  156.5381 H   0  0  0  0  0  0  0  0  0  0  0  0
  151.2008  136.6807  157.5895 H   0  0  0  0  0  0  0  0  0  0  0  0
  150.3089  136.1580  159.9718 H   0  0  0  0  0  0  0  0  0  0  0  0
  149.8793  137.8364  160.2384 H   0  0  0  0  0  0  0  0  0  0  0  0
  147.9360  135.4539  160.1862 H   0  0  0  0  0  0  0  0  0  0  0  0
  148.4246  136.3661  161.6015 H   0  0  0  0  0  0  0  0  0  0  0  0
  146.5420  136.5463  158.5320 H   0  0  0  0  0  0  0  0  0  0  0  0
  146.0664  138.2114  158.8066 H   0  0  0  0  0  0  0  0  0  0  0  0
  148.3950  139.0026  158.4792 H   0  0  0  0  0  0  0  0  0  0  0  0
  147.8881  138.0623  157.0857 H   0  0  0  0  0  0  0  0  0  0  0  0
  148.9793  136.1843  157.9907 H   0  0  0  0  0  0  0  0  0  0  0  0
  150.0493  143.8639  156.5221 H   0  0  0  0  0  0  0  0  0  0  0  0
  1  2  1  0  0  0  0
  1 21  1  0  0  0  0
  1 22  1  0  0  0  0
  1 23  1  0  0  0  0
  2 10  1  0  0  0  0
  2  3  2  0  0  0  0
  3  4  1  0  0  0  0
  3 43  1  0  0  0  0
  4  9  2  0  0  0  0
  4  5  1  0  0  0  0
  5  6  2  0  0  0  0
  5 24  1  0  0  0  0
  6  7  1  0  0  0  0
  6 25  1  0  0  0  0
  7  8  2  0  0  0  0
  7 26  1  0  0  0  0
  8  9  1  0  0  0  0
  8 27  1  0  0  0  0
  9 10  1  0  0  0  0
 10 11  1  0  0  0  0
 11 12  1  0  0  0  0
 11 28  1  0  0  0  0
 11 29  1  0  0  0  0
 12 13  1  0  0  0  0
 12 14  1  0  0  0  0
 12 30  1  0  0  0  0
 13 31  1  0  0  0  0
 14 15  1  0  0  0  0
 14 32  1  0  0  0  0
 14 33  1  0  0  0  0
 15 20  1  0  0  0  0
 15 16  1  0  0  0  0
 15 42  1  0  0  0  0
 16 17  1  0  0  0  0
 16 34  1  0  0  0  0
 16 35  1  0  0  0  0
 17 18  1  0  0  0  0
 17 36  1  0  0  0  0
 17 37  1  0  0  0  0
 18 19  1  0  0  0  0
 19 20  1  0  0  0  0
 19 38  1  0  0  0  0
 19 39  1  0  0  0  0
 20 40  1  0  0  0  0
 20 41  1  0  0  0  0
M  CHG  1   3   1
M  CHG  1  15   1
M  END
> <s_m_source_file>
AV-unprocessed.smi

> <i_m_source_file_index>
356

> <i_lp_mmshare_version>
43012

> <i_f3d_flags>
0

> <s_epik_input>
W2NIXTFbY0hdW2NIXVtjSF1jKGMxMiluKGMobjIpW0NIM10pW0NIMl1bQ0BIXShbT0hdKVtDSDJdTjNbQ0gyXVtDSDJdT1tDSDJdW0NIMl0z

> <s_epik_cmdline>
J2VwaWtfcHl0aG9uJywgJy1waCcsICc3LjAnLCAnLXRuJywgJzgnLCAnLW1hJywgJzIwMCcsICctbWV0YWxfYmluZGluZycsICctaW1hZScsICc8aW5maWxlLm1hZT4nLCAnLW9tYWUnLCAnPG91dGZpbGUubWFlPic=

> <r_epik_Ionization_Penalty>
1.81899

> <r_epik_Ionization_Penalty_Charging>
1.81898

> <r_epik_Ionization_Penalty_Neutral>
1.42224e-05

> <r_epik_State_Penalty>
1.87399

> <r_epik_Charging_Adjusted_Penalty>
3.69296

> <i_epik_Tot_Q>
2

> <i_epik_Tot_abs_Q>
2

> <r_epik_Metal_State_Penalty>
5.87601

> <b_epik_Metal_Only>
0

> <s_lp_Force_Field>
OPLS_2005

> <r_lp_Energy>
28.369

> <b_lp_Chiralities_Consistent>
1

> <s_lp_Variant>
AV-unprocessed.smi:356-7

> <Gold.Version>
5.8.1

> <Gold.Id.Protein>
6NUR|6NUR_protein|mol2

> <Gold.PLP.Fitness>
43.7149

> <Gold.PLP.PLP>
-37.1322

> <Gold.PLP.part.hbond>
-2.0000

> <Gold.PLP.part.metal>
0.0000

> <Gold.PLP.part.buried>
-4.2417

> <Gold.PLP.part.nonpolar>
-31.2020

> <Gold.PLP.part.repulsive>
0.1515

> <Gold.PLP.ligand.clash>
0.0000

> <Gold.PLP.ligand.torsion>
1.2478

> <Gold.PLP.Chemscore.Hbond>
3.0000

> <Gold.PLP.Chemscore.CHOScore>
0.0000

> <Gold.PLP.Chemscore.Metal>
0.0000

> <Gold.Chemscore.Hbonds>
donor molecule, donor type, donor heavy atom, donor atom, acceptor molecule, acceptor atom, score
      L1  H     3    43       P1  8028  2.00
      P1  H  6934  6947       L1    18  1.00

> <Gold.PLP.Chemscore.Internal.Correction>
0.0782

> <Gold.Rescore>
     Score         DG    S(hbond)    S(metal)    S(lipo)     H(rot)  DE(clash)    DE(int)     intcor
     16.38     -17.71       1.87        0.00      97.93       2.13       0.01       1.32       ----

> <Gold.Chemscore.Fitness>
16.3803

> <Gold.Chemscore.DG>
-17.7092

> <Gold.Chemscore.ZeroCoef>
-5.4800

> <Gold.Chemscore.Hbond>
1.8655

> <Gold.Chemscore.Metal>
0.0000

> <Gold.Chemscore.Lipo>
97.9333

> <Gold.Chemscore.Internal_Hbond>
0.0000

> <Gold.Chemscore.DEClash>
0.0130

> <Gold.Chemscore.DEInternal>
1.3160

> <Gold.Chemscore.Rot>
2.1327

> <Gold.Chemscore.Internal.Correction>
   9.000000E+99

> <Gold.Chemscore.Hbonds>
donor molecule, donor type, donor heavy atom, donor atom, acceptor molecule, acceptor atom, score
      L1  H     3    43       P1  8028  1.00
      P1  H  6934  6947       L1    18  0.49

> <Gold.Chemscore.Hbond.Weighted>
-6.2307

> <Gold.Chemscore.Metal.Weighted>
-0.0000

> <Gold.Chemscore.Lipo.Weighted>
-11.4582

> <Gold.Chemscore.Internal_Hbond.Weighted>
0.0000

> <Gold.Chemscore.DEClash.Weighted>
0.0130

> <Gold.Chemscore.DEInternal.Weighted>
1.3160

> <Gold.Chemscore.Rot.Weighted>
5.4596

> <Gold.Chemscore.Internal.Correction.Weighted>
   9.000000E+99

> <Gold.Protein.RotatedTorsions>
[ 6907 6896 6895 6894 ] final  119.08 input  -60.11 | X-H torsion
[ 7974 7965 7964 7962 ] final  -18.32 input  175.53 | X-H torsion
[ 8008 7997 7996 7995 ] final   92.79 input   59.86 | X-H torsion
[ 10167 10162 10161 10158 ] final  -43.95 input  -65.29 | X-H torsion
[ 10718 10713 10712 10709 ] final -174.86 input   66.30 | X-H torsion
[ 10763 10752 10751 10750 ] final   14.88 input  -60.55 | X-H torsion
[ 11005 11000 10999 10996 ] final  -86.53 input  -57.11 | X-H torsion

> <Gold.Protein.ActiveResidues>
 VAL166  LYS551  ARG553  GLY616  TRP617  ASP618  TYR619  PRO620  LYS621  CYS622 
 ASP623  PHE694  ASN695  SER759  ASP760  ASP761  ALA762  ILE779  LEU786  VAL792 
 PHE793  MET794  SER795  GLU796  ALA797  LYS798  CYS799  TRP800  GLU811  SER814 

> <Gold.Protein.RotatedAtoms>
  152.4497  133.7605  159.6743 H   0  0  0  0  0  0  0  0  0  0  0  0  # atno 6907 bound_to 6896
  150.8406  133.7932  159.3068 H   0  0  0  0  0  0  0  0  0  0  0  0  # atno 6908 bound_to 6896
  151.5558  135.1069  160.0012 H   0  0  0  0  0  0  0  0  0  0  0  0  # atno 6909 bound_to 6896
  146.1898  140.3905  142.8462 H   0  0  0  0  0  0  0  0  0  0  0  0  # atno 7974 bound_to 7965
  156.0393  140.3321  155.7226 H   0  0  0  0  0  0  0  0  0  0  0  0  # atno 8008 bound_to 7997
  155.5768  140.0633  157.2811 H   0  0  0  0  0  0  0  0  0  0  0  0  # atno 8009 bound_to 7997
  154.4386  140.1851  156.0924 H   0  0  0  0  0  0  0  0  0  0  0  0  # atno 8010 bound_to 7997
  140.6915  143.2955  151.3426 H   0  0  0  0  0  0  0  0  0  0  0  0  # atno 10167 bound_to 10162
  156.7914  130.9519  151.3120 H   0  0  0  0  0  0  0  0  0  0  0  0  # atno 10718 bound_to 10713
  153.1579  135.6790  153.8785 H   0  0  0  0  0  0  0  0  0  0  0  0  # atno 10763 bound_to 10752
  153.8190  135.3132  155.3409 H   0  0  0  0  0  0  0  0  0  0  0  0  # atno 10764 bound_to 10752
  154.7911  135.4834  154.0143 H   0  0  0  0  0  0  0  0  0  0  0  0  # atno 10765 bound_to 10752
  141.1629  133.7459  156.9174 H   0  0  0  0  0  0  0  0  0  0  0  0  # atno 11005 bound_to 11000
  144.8464  140.6936  143.6196 LP  0  0  0  0  0  0  0  0  0  0  0  0  # atno 17320 bound_to 7965
  145.3829  139.1633  143.4271 LP  0  0  0  0  0  0  0  0  0  0  0  0  # atno 17321 bound_to 7965
  139.6323  144.0698  152.2486 LP  0  0  0  0  0  0  0  0  0  0  0  0  # atno 17342 bound_to 10162
  140.0176  144.6177  150.7593 LP  0  0  0  0  0  0  0  0  0  0  0  0  # atno 17343 bound_to 10162
  157.6599  130.8956  149.9807 LP  0  0  0  0  0  0  0  0  0  0  0  0  # atno 17370 bound_to 10713
  156.1157  130.3648  149.9973 LP  0  0  0  0  0  0  0  0  0  0  0  0  # atno 17371 bound_to 10713
  140.1475  134.9252  157.2548 LP  0  0  0  0  0  0  0  0  0  0  0  0  # atno 17394 bound_to 11000
  140.2763  134.3402  155.7357 LP  0  0  0  0  0  0  0  0  0  0  0  0  # atno 17395 bound_to 11000

$$$$
