AV-unprocessed.smi:148|AV-procd|sdf|1224|dock10
  -GOLD-   2262018423D 1   1.00000     0.00000
 Structure written by MMmdl.
 63 67  0  0  0  0  0  0  0  0  1 V2000
  147.7832  138.8265  153.5273 O   0  0  0  0  0  0  0  0  0  0  0  0
  149.1217  138.9488  153.9596 C   0  0  0  0  0  0  0  0  0  0  0  0
  149.4681  137.9223  155.0698 C   0  0  2  0  0  0  0  0  0  0  0  0
  148.6205  138.1623  156.3465 C   0  0  0  0  0  0  0  0  0  0  0  0
  148.4782  136.9839  157.1842 N   0  0  0  0  0  0  0  0  0  0  0  0
  149.4632  136.3818  157.9354 C   0  0  0  0  0  0  0  0  0  0  0  0
  149.0863  135.3275  158.6064 N   0  0  0  0  0  0  0  0  0  0  0  0
  147.7427  135.1900  158.2847 C   0  0  0  0  0  0  0  0  0  0  0  0
  146.7327  134.2621  158.6480 C   0  0  0  0  0  0  0  0  0  0  0  0
  146.9786  133.2359  159.4910 N   0  0  0  0  0  0  0  0  0  0  0  0
  147.5911  132.1218  158.7639 C   0  0  0  0  0  0  0  0  0  0  0  0
  147.5961  130.8420  159.6052 C   0  0  0  0  0  0  0  0  0  0  0  0
  148.3038  131.1020  160.9356 C   0  0  0  0  0  0  0  0  0  0  0  0
  147.6370  132.2781  161.6608 C   0  0  0  0  0  0  0  0  0  0  0  0
  147.5853  133.5680  160.7967 C   0  0  2  0  0  0  0  0  0  0  0  0
  146.8424  134.7152  161.5689 C   0  0  1  0  0  0  0  0  0  0  0  0
  147.1740  134.8181  163.0702 C   0  0  0  0  0  0  0  0  0  0  0  0
  146.7228  136.2119  163.5216 C   0  0  0  0  0  0  0  0  0  0  0  0
  146.5566  137.0415  162.2438 C   0  0  0  0  0  0  0  0  0  0  0  0
  147.0825  136.1691  161.0989 C   0  0  1  0  0  0  0  0  0  0  0  0
  148.4621  136.4317  160.9223 O   0  0  0  0  0  0  0  0  0  0  0  0
  145.4886  134.4346  158.1280 N   0  0  0  0  0  0  0  0  0  0  0  0
  145.2535  135.4496  157.2902 C   0  0  0  0  0  0  0  0  0  0  0  0
  146.0989  136.3877  156.8555 N   0  0  0  0  0  0  0  0  0  0  0  0
  147.3439  136.2181  157.3866 C   0  0  0  0  0  0  0  0  0  0  0  0
  150.9822  137.9256  155.4210 C   0  0  1  0  0  0  0  0  0  0  0  0
  151.9124  137.6629  154.2477 C   0  0  0  0  0  0  0  0  0  0  0  0
  153.2543  138.1628  154.7708 C   0  0  0  0  0  0  0  0  0  0  0  0
  152.9482  139.2266  155.6638 O   0  0  0  0  0  0  0  0  0  0  0  0
  151.5467  139.2644  155.9106 C   0  0  0  0  0  0  0  0  0  0  0  0
  147.2766  139.5242  153.9145 H   0  0  0  0  0  0  0  0  0  0  0  0
  149.7928  138.8393  153.1073 H   0  0  0  0  0  0  0  0  0  0  0  0
  149.2275  139.9737  154.3116 H   0  0  0  0  0  0  0  0  0  0  0  0
  149.2084  136.9306  154.6967 H   0  0  0  0  0  0  0  0  0  0  0  0
  149.0657  138.9409  156.9658 H   0  0  0  0  0  0  0  0  0  0  0  0
  147.6249  138.5147  156.0739 H   0  0  0  0  0  0  0  0  0  0  0  0
  150.4757  136.7560  157.9763 H   0  0  0  0  0  0  0  0  0  0  0  0
  147.0516  131.9404  157.8327 H   0  0  0  0  0  0  0  0  0  0  0  0
  148.6152  132.3830  158.4926 H   0  0  0  0  0  0  0  0  0  0  0  0
  146.5718  130.5133  159.7859 H   0  0  0  0  0  0  0  0  0  0  0  0
  148.0939  130.0377  159.0633 H   0  0  0  0  0  0  0  0  0  0  0  0
  148.2732  130.2082  161.5592 H   0  0  0  0  0  0  0  0  0  0  0  0
  149.3565  131.3260  160.7580 H   0  0  0  0  0  0  0  0  0  0  0  0
  146.6247  131.9921  161.9506 H   0  0  0  0  0  0  0  0  0  0  0  0
  148.1863  132.4508  162.5855 H   0  0  0  0  0  0  0  0  0  0  0  0
  148.6156  133.8739  160.6132 H   0  0  0  0  0  0  0  0  0  0  0  0
  145.7705  134.5193  161.5030 H   0  0  0  0  0  0  0  0  0  0  0  0
  146.6960  134.0344  163.6588 H   0  0  0  0  0  0  0  0  0  0  0  0
  148.2513  134.7295  163.2182 H   0  0  0  0  0  0  0  0  0  0  0  0
  145.7761  136.1578  164.0604 H   0  0  0  0  0  0  0  0  0  0  0  0
  147.4565  136.6563  164.1946 H   0  0  0  0  0  0  0  0  0  0  0  0
  145.4957  137.2393  162.0854 H   0  0  0  0  0  0  0  0  0  0  0  0
  147.0561  138.0097  162.3037 H   0  0  0  0  0  0  0  0  0  0  0  0
  146.5599  136.4177  160.1779 H   0  0  0  0  0  0  0  0  0  0  0  0
  148.8209  135.7746  160.3457 H   0  0  0  0  0  0  0  0  0  0  0  0
  144.2436  135.5188  156.9141 H   0  0  0  0  0  0  0  0  0  0  0  0
  151.1758  137.1700  156.1845 H   0  0  0  0  0  0  0  0  0  0  0  0
  151.9525  136.6142  153.9522 H   0  0  0  0  0  0  0  0  0  0  0  0
  151.6063  138.2507  153.3808 H   0  0  0  0  0  0  0  0  0  0  0  0
  153.7616  137.3761  155.3305 H   0  0  0  0  0  0  0  0  0  0  0  0
  153.9172  138.4914  153.9701 H   0  0  0  0  0  0  0  0  0  0  0  0
  151.1235  140.0937  155.3416 H   0  0  0  0  0  0  0  0  0  0  0  0
  151.3474  139.4416  156.9676 H   0  0  0  0  0  0  0  0  0  0  0  0
  1  2  1  0  0  0  0
  1 31  1  0  0  0  0
  2  3  1  0  0  0  0
  2 32  1  0  0  0  0
  2 33  1  0  0  0  0
  3  4  1  0  0  0  0
  3 26  1  0  0  0  0
  3 34  1  0  0  0  0
  4  5  1  0  0  0  0
  4 35  1  0  0  0  0
  4 36  1  0  0  0  0
  5 25  1  0  0  0  0
  5  6  1  0  0  0  0
  6  7  2  0  0  0  0
  6 37  1  0  0  0  0
  7  8  1  0  0  0  0
  8 25  2  0  0  0  0
  8  9  1  0  0  0  0
  9 10  1  0  0  0  0
  9 22  2  0  0  0  0
 10 15  1  0  0  0  0
 10 11  1  0  0  0  0
 11 12  1  0  0  0  0
 11 38  1  0  0  0  0
 11 39  1  0  0  0  0
 12 13  1  0  0  0  0
 12 40  1  0  0  0  0
 12 41  1  0  0  0  0
 13 14  1  0  0  0  0
 13 42  1  0  0  0  0
 13 43  1  0  0  0  0
 14 15  1  0  0  0  0
 14 44  1  0  0  0  0
 14 45  1  0  0  0  0
 15 16  1  0  0  0  0
 15 46  1  0  0  0  0
 16 20  1  0  0  0  0
 16 17  1  0  0  0  0
 16 47  1  0  0  0  0
 17 18  1  0  0  0  0
 17 48  1  0  0  0  0
 17 49  1  0  0  0  0
 18 19  1  0  0  0  0
 18 50  1  0  0  0  0
 18 51  1  0  0  0  0
 19 20  1  0  0  0  0
 19 52  1  0  0  0  0
 19 53  1  0  0  0  0
 20 21  1  0  0  0  0
 20 54  1  0  0  0  0
 21 55  1  0  0  0  0
 22 23  1  0  0  0  0
 23 24  2  0  0  0  0
 23 56  1  0  0  0  0
 24 25  1  0  0  0  0
 26 30  1  0  0  0  0
 26 27  1  0  0  0  0
 26 57  1  0  0  0  0
 27 28  1  0  0  0  0
 27 58  1  0  0  0  0
 27 59  1  0  0  0  0
 28 29  1  0  0  0  0
 28 60  1  0  0  0  0
 28 61  1  0  0  0  0
 29 30  1  0  0  0  0
 30 62  1  0  0  0  0
 30 63  1  0  0  0  0
M  END
> <s_m_source_file>
AV-unprocessed.smi

> <i_m_source_file_index>
148

> <i_lp_mmshare_version>
43012

> <i_f3d_flags>
0

> <s_epik_input>
W0NIMl0xT1tDSDJdW0NIMl1bQ0BIXTFbQ0BIXShbQ0gyXVtPSF0pW0NIMl1uKFtjSF1uMiljKGMyMyluW2NIXW5jM040W0NIMl1bQ0gyXVtDSDJdW0NIMl1bQ0BIXTRbQ0BASF01W0NIMl1bQ0gyXVtDSDJdW0NASF01W09IXQ==

> <s_epik_cmdline>
J2VwaWtfcHl0aG9uJywgJy1waCcsICc3LjAnLCAnLXRuJywgJzgnLCAnLW1hJywgJzIwMCcsICctbWV0YWxfYmluZGluZycsICctaW1hZScsICc8aW5maWxlLm1hZT4nLCAnLW9tYWUnLCAnPG91dGZpbGUubWFlPic=

> <r_lp_tautomer_probability>
1

> <r_epik_Ionization_Penalty>
0.00556303

> <r_epik_Ionization_Penalty_Charging>
0

> <r_epik_Ionization_Penalty_Neutral>
0.00556303

> <r_epik_State_Penalty>
0.00401767

> <r_epik_Charging_Adjusted_Penalty>
0.00401767

> <i_epik_Tot_Q>
0

> <i_epik_Tot_abs_Q>
0

> <r_epik_Metal_State_Penalty>
-0

> <b_epik_Metal_Only>
0

> <s_lp_Force_Field>
OPLS_2005

> <r_lp_Energy>
70.7604

> <b_lp_Chiralities_Consistent>
1

> <s_lp_Variant>
AV-unprocessed.smi:148-23

> <Gold.Version>
5.8.1

> <Gold.Id.Protein>
6NUR|6NUR_protein|mol2

> <Gold.PLP.Fitness>
44.4623

> <Gold.PLP.PLP>
-36.7992

> <Gold.PLP.part.hbond>
-3.2697

> <Gold.PLP.part.metal>
0.0000

> <Gold.PLP.part.buried>
-4.0236

> <Gold.PLP.part.nonpolar>
-30.9684

> <Gold.PLP.part.repulsive>
0.0000

> <Gold.PLP.ligand.clash>
0.0000

> <Gold.PLP.ligand.torsion>
1.0101

> <Gold.PLP.Chemscore.Hbond>
3.0000

> <Gold.PLP.Chemscore.CHOScore>
0.0000

> <Gold.PLP.Chemscore.Metal>
0.0000

> <Gold.Chemscore.Hbonds>
donor molecule, donor type, donor heavy atom, donor atom, acceptor molecule, acceptor atom, score
      P1  H  6896  6907       L1     7  1.00
      P1  H  6931  6943       L1    21  0.73
      P1  H  7997  8010       L1    29  1.00

> <Gold.PLP.Chemscore.Internal.Correction>
0.6834

> <Gold.Rescore>
     Score         DG    S(hbond)    S(metal)    S(lipo)     H(rot)  DE(clash)    DE(int)     intcor
     16.25     -19.78       2.90        0.00     111.93       3.32       2.65       0.88       ----

> <Gold.Chemscore.Fitness>
16.2486

> <Gold.Chemscore.DG>
-19.7767

> <Gold.Chemscore.ZeroCoef>
-5.4800

> <Gold.Chemscore.Hbond>
2.9043

> <Gold.Chemscore.Metal>
0.0000

> <Gold.Chemscore.Lipo>
111.9342

> <Gold.Chemscore.Internal_Hbond>
0.0000

> <Gold.Chemscore.DEClash>
2.6475

> <Gold.Chemscore.DEInternal>
0.8805

> <Gold.Chemscore.Rot>
3.3203

> <Gold.Chemscore.Internal.Correction>
   9.000000E+99

> <Gold.Chemscore.Hbonds>
donor molecule, donor type, donor heavy atom, donor atom, acceptor molecule, acceptor atom, score
      P1  H  6896  6907       L1     7  0.76
      P1  H  6931  6943       L1    21  0.59
      P1  H  7997  8010       L1    29  0.74

> <Gold.Chemscore.Hbond.Weighted>
-9.7004

> <Gold.Chemscore.Metal.Weighted>
-0.0000

> <Gold.Chemscore.Lipo.Weighted>
-13.0963

> <Gold.Chemscore.Internal_Hbond.Weighted>
0.0000

> <Gold.Chemscore.DEClash.Weighted>
2.6475

> <Gold.Chemscore.DEInternal.Weighted>
0.8805

> <Gold.Chemscore.Rot.Weighted>
8.5000

> <Gold.Chemscore.Internal.Correction.Weighted>
   9.000000E+99

> <Gold.Protein.RotatedTorsions>
[ 6907 6896 6895 6894 ] final  -79.35 input  -60.11 | X-H torsion
[ 7974 7965 7964 7962 ] final   12.59 input  175.53 | X-H torsion
[ 8008 7997 7996 7995 ] final   98.50 input   59.86 | X-H torsion
[ 10167 10162 10161 10158 ] final  -58.23 input  -65.29 | X-H torsion
[ 10718 10713 10712 10709 ] final   58.58 input   66.30 | X-H torsion
[ 10763 10752 10751 10750 ] final  165.74 input  -60.55 | X-H torsion
[ 11005 11000 10999 10996 ] final -117.56 input  -57.11 | X-H torsion

> <Gold.Protein.ActiveResidues>
 VAL166  LYS551  ARG553  GLY616  TRP617  ASP618  TYR619  PRO620  LYS621  CYS622 
 ASP623  PHE694  ASN695  SER759  ASP760  ASP761  ALA762  ILE779  LEU786  VAL792 
 PHE793  MET794  SER795  GLU796  ALA797  LYS798  CYS799  TRP800  GLU811  SER814 

> <Gold.Protein.RotatedAtoms>
  150.6952  134.4134  159.5171 H   0  0  0  0  0  0  0  0  0  0  0  0  # atno 6907 bound_to 6896
  152.1888  134.8687  160.0528 H   0  0  0  0  0  0  0  0  0  0  0  0  # atno 6908 bound_to 6896
  151.9650  133.3672  159.4086 H   0  0  0  0  0  0  0  0  0  0  0  0  # atno 6909 bound_to 6896
  146.2348  139.9314  142.8496 H   0  0  0  0  0  0  0  0  0  0  0  0  # atno 7974 bound_to 7965
  156.1010  140.3243  155.7943 H   0  0  0  0  0  0  0  0  0  0  0  0  # atno 8008 bound_to 7997
  155.4836  140.0556  157.2981 H   0  0  0  0  0  0  0  0  0  0  0  0  # atno 8009 bound_to 7997
  154.4697  140.2005  156.0041 H   0  0  0  0  0  0  0  0  0  0  0  0  # atno 8010 bound_to 7997
  140.6210  143.2419  151.5481 H   0  0  0  0  0  0  0  0  0  0  0  0  # atno 10167 bound_to 10162
  157.5608  130.8834  149.9107 H   0  0  0  0  0  0  0  0  0  0  0  0  # atno 10718 bound_to 10713
  154.3285  135.2755  155.2483 H   0  0  0  0  0  0  0  0  0  0  0  0  # atno 10763 bound_to 10752
  154.4805  135.5859  153.6390 H   0  0  0  0  0  0  0  0  0  0  0  0  # atno 10764 bound_to 10752
  152.9869  135.6110  154.3476 H   0  0  0  0  0  0  0  0  0  0  0  0  # atno 10765 bound_to 10752
  141.0346  133.9929  157.3090 H   0  0  0  0  0  0  0  0  0  0  0  0  # atno 11005 bound_to 11000
  145.2040  140.9867  143.4139 LP  0  0  0  0  0  0  0  0  0  0  0  0  # atno 17320 bound_to 7965
  144.9748  139.3842  143.6291 LP  0  0  0  0  0  0  0  0  0  0  0  0  # atno 17321 bound_to 7965
  139.5438  144.2574  152.1404 LP  0  0  0  0  0  0  0  0  0  0  0  0  # atno 17342 bound_to 10162
  140.1795  144.4858  150.6536 LP  0  0  0  0  0  0  0  0  0  0  0  0  # atno 17343 bound_to 10162
  156.0660  130.3692  150.0877 LP  0  0  0  0  0  0  0  0  0  0  0  0  # atno 17370 bound_to 10713
  156.9041  130.9630  151.3572 LP  0  0  0  0  0  0  0  0  0  0  0  0  # atno 17371 bound_to 10713
  139.9232  135.0201  156.8139 LP  0  0  0  0  0  0  0  0  0  0  0  0  # atno 17394 bound_to 11000
  140.6345  133.9875  155.7677 LP  0  0  0  0  0  0  0  0  0  0  0  0  # atno 17395 bound_to 11000

$$$$
