AV-unprocessed.smi:2083|AV-procd|sdf|8497|dock4
  -GOLD-   2272011203D 1   1.00000     0.00000
 Structure written by MMmdl.
 45 46  0  0  0  0  0  0  0  0  2 V2000
  148.6578  124.3052  149.6599 C   0  0  0  0  0  0  0  0  0  0  0  0
  148.2411  125.4851  150.4693 C   0  0  0  0  0  0  0  0  0  0  0  0
  148.3289  126.8329  150.2619 C   0  0  0  0  0  0  0  0  0  0  0  0
  147.7438  127.3760  151.4363 C   0  0  0  0  0  0  0  0  0  0  0  0
  147.6427  128.7790  151.6161 N   0  0  0  0  0  0  0  0  0  0  0  0
  146.7835  129.4434  152.4075 C   0  0  0  0  0  0  0  0  0  0  0  0
  145.9244  128.9217  153.1185 O   0  0  0  0  0  0  0  0  0  0  0  0
  146.9733  130.7690  152.3282 N   0  0  0  0  0  0  0  0  0  0  0  0
  146.2394  131.7791  153.0876 C   0  0  0  0  0  0  0  0  0  0  0  0
  145.2466  132.5923  152.2111 C   0  0  1  0  0  0  0  0  0  0  0  0
  144.5197  131.6697  151.2073 C   0  0  0  0  0  0  0  0  0  0  0  0
  144.2333  133.3786  152.9913 N   0  3  2  0  0  0  0  0  0  0  0  0
  143.2181  134.0131  152.1022 C   0  0  0  0  0  0  0  0  0  0  0  0
  142.0691  134.6357  152.9079 C   0  0  0  0  0  0  0  0  0  0  0  0
  142.6045  135.6742  153.8972 C   0  0  0  0  0  0  0  0  0  0  0  0
  143.6636  135.0324  154.8048 C   0  0  2  0  0  0  0  0  0  0  0  0
  144.2394  136.0522  155.7980 C   0  0  0  0  0  0  0  0  0  0  0  0
  144.7772  134.3743  153.9626 C   0  0  0  0  0  0  0  0  0  0  0  0
  147.3329  126.4446  152.2831 N   0  0  0  0  0  0  0  0  0  0  0  0
  147.6502  125.2277  151.6678 O   0  0  0  0  0  0  0  0  0  0  0  0
  148.8998  124.5997  148.6385 H   0  0  0  0  0  0  0  0  0  0  0  0
  147.8605  123.5629  149.6172 H   0  0  0  0  0  0  0  0  0  0  0  0
  149.5388  123.8320  150.0934 H   0  0  0  0  0  0  0  0  0  0  0  0
  148.7473  127.3439  149.4075 H   0  0  0  0  0  0  0  0  0  0  0  0
  148.2999  129.3349  151.0894 H   0  0  0  0  0  0  0  0  0  0  0  0
  147.7003  131.1049  151.7133 H   0  0  0  0  0  0  0  0  0  0  0  0
  145.7190  131.3252  153.9330 H   0  0  0  0  0  0  0  0  0  0  0  0
  147.0044  132.4326  153.5065 H   0  0  0  0  0  0  0  0  0  0  0  0
  145.8481  133.3052  151.6443 H   0  0  0  0  0  0  0  0  0  0  0  0
  145.2195  131.1666  150.5406 H   0  0  0  0  0  0  0  0  0  0  0  0
  143.8277  132.2105  150.5640 H   0  0  0  0  0  0  0  0  0  0  0  0
  143.9484  130.8996  151.7271 H   0  0  0  0  0  0  0  0  0  0  0  0
  143.6995  134.7791  151.4923 H   0  0  0  0  0  0  0  0  0  0  0  0
  142.7977  133.2871  151.4081 H   0  0  0  0  0  0  0  0  0  0  0  0
  141.3507  135.1022  152.2330 H   0  0  0  0  0  0  0  0  0  0  0  0
  141.5286  133.8551  153.4449 H   0  0  0  0  0  0  0  0  0  0  0  0
  143.0373  136.5144  153.3520 H   0  0  0  0  0  0  0  0  0  0  0  0
  141.7852  136.0765  154.4941 H   0  0  0  0  0  0  0  0  0  0  0  0
  143.1766  134.2484  155.3870 H   0  0  0  0  0  0  0  0  0  0  0  0
  144.7413  136.8706  155.2809 H   0  0  0  0  0  0  0  0  0  0  0  0
  144.9645  135.5859  156.4655 H   0  0  0  0  0  0  0  0  0  0  0  0
  143.4530  136.4836  156.4181 H   0  0  0  0  0  0  0  0  0  0  0  0
  145.4572  133.8909  154.6631 H   0  0  0  0  0  0  0  0  0  0  0  0
  145.3475  135.1335  153.4248 H   0  0  0  0  0  0  0  0  0  0  0  0
  143.7411  132.7008  153.5558 H   0  0  0  0  0  0  0  0  0  0  0  0
  1  2  1  0  0  0  0
  1 21  1  0  0  0  0
  1 22  1  0  0  0  0
  1 23  1  0  0  0  0
  2 20  1  0  0  0  0
  2  3  2  0  0  0  0
  3  4  1  0  0  0  0
  3 24  1  0  0  0  0
  4  5  1  0  0  0  0
  4 19  2  0  0  0  0
  5  6  1  0  0  0  0
  5 25  1  0  0  0  0
  6  7  2  0  0  0  0
  6  8  1  0  0  0  0
  8  9  1  0  0  0  0
  8 26  1  0  0  0  0
  9 10  1  0  0  0  0
  9 27  1  0  0  0  0
  9 28  1  0  0  0  0
 10 11  1  0  0  0  0
 10 12  1  0  0  0  0
 10 29  1  0  0  0  0
 11 30  1  0  0  0  0
 11 31  1  0  0  0  0
 11 32  1  0  0  0  0
 12 18  1  0  0  0  0
 12 13  1  0  0  0  0
 12 45  1  0  0  0  0
 13 14  1  0  0  0  0
 13 33  1  0  0  0  0
 13 34  1  0  0  0  0
 14 15  1  0  0  0  0
 14 35  1  0  0  0  0
 14 36  1  0  0  0  0
 15 16  1  0  0  0  0
 15 37  1  0  0  0  0
 15 38  1  0  0  0  0
 16 17  1  0  0  0  0
 16 18  1  0  0  0  0
 16 39  1  0  0  0  0
 17 40  1  0  0  0  0
 17 41  1  0  0  0  0
 17 42  1  0  0  0  0
 18 43  1  0  0  0  0
 18 44  1  0  0  0  0
 19 20  1  0  0  0  0
M  CHG  1  12   1
M  END
> <s_m_source_file>
AV-unprocessed.smi

> <i_m_source_file_index>
2083

> <i_lp_mmshare_version>
43012

> <i_f3d_flags>
0

> <s_epik_input>
W0NIM11jMVtjSF1jKG5vMSlbTkhdQyg9TylbTkhdW0NIMl1bQ0BIXShbQ0gzXSlOMltDSDJdW0NIMl1bQ0gyXVtDQEBIXShbQ0gzXSlbQ0gyXTI=

> <s_epik_cmdline>
J2VwaWtfcHl0aG9uJywgJy1waCcsICc3LjAnLCAnLXRuJywgJzgnLCAnLW1hJywgJzIwMCcsICctbWV0YWxfYmluZGluZycsICctaW1hZScsICc8aW5maWxlLm1hZT4nLCAnLW9tYWUnLCAnPG91dGZpbGUubWFlPic=

> <r_epik_Ionization_Penalty>
0.00216453

> <r_epik_Ionization_Penalty_Charging>
0.00212879

> <r_epik_Ionization_Penalty_Neutral>
3.57418e-05

> <r_epik_State_Penalty>
0.00146033

> <r_epik_Charging_Adjusted_Penalty>
0.00358912

> <i_epik_Tot_Q>
1

> <i_epik_Tot_abs_Q>
1

> <r_epik_Metal_State_Penalty>
0.0215827

> <b_epik_Metal_Only>
0

> <s_lp_Force_Field>
OPLS_2005

> <r_lp_Energy>
20.5585

> <b_lp_Chiralities_Consistent>
1

> <s_lp_Variant>
AV-unprocessed.smi:2083-8

> <Gold.Version>
5.8.1

> <Gold.Id.Protein>
6NUR|6NUR_protein|mol2

> <Gold.PLP.Fitness>
45.9672

> <Gold.PLP.PLP>
-34.9356

> <Gold.PLP.part.hbond>
-4.2572

> <Gold.PLP.part.metal>
0.0000

> <Gold.PLP.part.buried>
-6.6334

> <Gold.PLP.part.nonpolar>
-24.0683

> <Gold.PLP.part.repulsive>
0.2593

> <Gold.PLP.ligand.clash>
0.0000

> <Gold.PLP.ligand.torsion>
0.3624

> <Gold.PLP.Chemscore.Hbond>
3.9000

> <Gold.PLP.Chemscore.CHOScore>
0.0000

> <Gold.PLP.Chemscore.Metal>
0.0000

> <Gold.Chemscore.Hbonds>
donor molecule, donor type, donor heavy atom, donor atom, acceptor molecule, acceptor atom, score
      L1  H     5    25       P1 10747  0.95
      L1  H     8    26       P1 10747  1.00
      L1  H    12    45       P1 10957  2.00

> <Gold.PLP.Chemscore.Internal.Correction>
0.0563

> <Gold.Rescore>
     Score         DG    S(hbond)    S(metal)    S(lipo)     H(rot)  DE(clash)    DE(int)     intcor
     16.55     -17.19       2.44        0.00      64.34       1.55       0.04       0.60       ----

> <Gold.Chemscore.Fitness>
16.5478

> <Gold.Chemscore.DG>
-17.1854

> <Gold.Chemscore.ZeroCoef>
-5.4800

> <Gold.Chemscore.Hbond>
2.4368

> <Gold.Chemscore.Metal>
0.0000

> <Gold.Chemscore.Lipo>
64.3384

> <Gold.Chemscore.Internal_Hbond>
0.0000

> <Gold.Chemscore.DEClash>
0.0407

> <Gold.Chemscore.DEInternal>
0.5969

> <Gold.Chemscore.Rot>
1.5474

> <Gold.Chemscore.Internal.Correction>
   9.000000E+99

> <Gold.Chemscore.Hbonds>
donor molecule, donor type, donor heavy atom, donor atom, acceptor molecule, acceptor atom, score
      L1  H     5    25       P1 10747  0.21
      L1  H     8    26       P1 10747  0.96
      L1  H    12    45       P1 10957  0.60

> <Gold.Chemscore.Hbond.Weighted>
-8.1390

> <Gold.Chemscore.Metal.Weighted>
-0.0000

> <Gold.Chemscore.Lipo.Weighted>
-7.5276

> <Gold.Chemscore.Internal_Hbond.Weighted>
0.0000

> <Gold.Chemscore.DEClash.Weighted>
0.0407

> <Gold.Chemscore.DEInternal.Weighted>
0.5969

> <Gold.Chemscore.Rot.Weighted>
3.9612

> <Gold.Chemscore.Internal.Correction.Weighted>
   9.000000E+99

> <Gold.Protein.RotatedTorsions>
[ 6907 6896 6895 6894 ] final   19.47 input  -60.11 | X-H torsion
[ 7974 7965 7964 7962 ] final  -98.88 input  175.53 | X-H torsion
[ 8008 7997 7996 7995 ] final  112.34 input   59.86 | X-H torsion
[ 10167 10162 10161 10158 ] final  173.93 input  -65.29 | X-H torsion
[ 10718 10713 10712 10709 ] final  153.19 input   66.30 | X-H torsion
[ 10763 10752 10751 10750 ] final  -67.36 input  -60.55 | X-H torsion
[ 11005 11000 10999 10996 ] final   15.21 input  -57.11 | X-H torsion

> <Gold.Protein.ActiveResidues>
 VAL166  LYS551  ARG553  GLY616  TRP617  ASP618  TYR619  PRO620  LYS621  CYS622 
 ASP623  PHE694  ASN695  SER759  ASP760  ASP761  ALA762  ILE779  LEU786  VAL792 
 PHE793  MET794  SER795  GLU796  ALA797  LYS798  CYS799  TRP800  GLU811  SER814 

> <Gold.Protein.RotatedAtoms>
  151.8814  135.0452  160.0488 H   0  0  0  0  0  0  0  0  0  0  0  0  # atno 6907 bound_to 6896
  152.2509  133.5210  159.5333 H   0  0  0  0  0  0  0  0  0  0  0  0  # atno 6908 bound_to 6896
  150.7083  134.0877  159.3963 H   0  0  0  0  0  0  0  0  0  0  0  0  # atno 6909 bound_to 6896
  145.3148  140.9408  143.2749 H   0  0  0  0  0  0  0  0  0  0  0  0  # atno 7974 bound_to 7965
  156.2185  140.3001  155.9897 H   0  0  0  0  0  0  0  0  0  0  0  0  # atno 8008 bound_to 7997
  155.2542  140.0427  157.3007 H   0  0  0  0  0  0  0  0  0  0  0  0  # atno 8009 bound_to 7997
  154.5805  140.2374  155.8069 H   0  0  0  0  0  0  0  0  0  0  0  0  # atno 8010 bound_to 7997
  139.5124  144.3205  152.0207 H   0  0  0  0  0  0  0  0  0  0  0  0  # atno 10167 bound_to 10162
  157.2480  131.0773  151.1749 H   0  0  0  0  0  0  0  0  0  0  0  0  # atno 10718 bound_to 10713
  154.3733  135.6090  153.5752 H   0  0  0  0  0  0  0  0  0  0  0  0  # atno 10763 bound_to 10752
  152.9789  135.5843  154.4496 H   0  0  0  0  0  0  0  0  0  0  0  0  # atno 10764 bound_to 10752
  154.4253  135.2846  155.1926 H   0  0  0  0  0  0  0  0  0  0  0  0  # atno 10765 bound_to 10752
  140.4609  134.1128  155.7716 H   0  0  0  0  0  0  0  0  0  0  0  0  # atno 11005 bound_to 11000
  144.8986  139.4679  143.6643 LP  0  0  0  0  0  0  0  0  0  0  0  0  # atno 17320 bound_to 7965
  146.3104  139.7727  142.9024 LP  0  0  0  0  0  0  0  0  0  0  0  0  # atno 17321 bound_to 7965
  140.2647  144.4029  150.6173 LP  0  0  0  0  0  0  0  0  0  0  0  0  # atno 17342 bound_to 10162
  140.6132  143.2170  151.6844 LP  0  0  0  0  0  0  0  0  0  0  0  0  # atno 17343 bound_to 10162
  157.3308  130.6984  149.6323 LP  0  0  0  0  0  0  0  0  0  0  0  0  # atno 17370 bound_to 10713
  155.9667  130.4308  150.4892 LP  0  0  0  0  0  0  0  0  0  0  0  0  # atno 17371 bound_to 10713
  141.1621  133.8772  157.1817 LP  0  0  0  0  0  0  0  0  0  0  0  0  # atno 17394 bound_to 11000
  139.9946  135.0052  157.0053 LP  0  0  0  0  0  0  0  0  0  0  0  0  # atno 17395 bound_to 11000

$$$$
