AV-unprocessed.smi:3165|AV-procd|sdf|12091|dock4
  -GOLD-   2272017523D 1   1.00000     0.00000
 Structure written by MMmdl.
 37 38  0  0  0  0  0  0  0  0  1 V2000
  152.0029  139.7288  156.0191 C   0  0  0  0  0  0  0  0  0  0  0  0
  150.6691  140.4930  156.0820 C   0  0  2  0  0  0  0  0  0  0  0  0
  149.9910  140.6357  154.6974 C   0  0  0  0  0  0  0  0  0  0  0  0
  148.6637  141.2210  154.7710 N   0  0  0  0  0  0  0  0  0  0  0  0
  147.8003  141.5147  153.7364 C   0  0  0  0  0  0  0  0  0  0  0  0
  146.6693  142.0447  154.2885 C   0  0  0  0  0  0  0  0  0  0  0  0
  146.9373  142.0306  155.6860 C   0  0  0  0  0  0  0  0  0  0  0  0
  148.1305  141.5355  155.9718 N   0  0  0  0  0  0  0  0  0  0  0  0
  150.8961  141.7964  156.7135 N   0  0  0  0  0  0  0  0  0  0  0  0
  151.6928  141.7740  157.9393 C   0  0  0  0  0  0  0  0  0  0  0  0
  151.2833  142.9167  158.8793 C   0  0  1  0  0  0  0  0  0  0  0  0
  152.2012  142.9915  160.1149 C   0  0  0  0  0  0  0  0  0  0  0  0
  151.8296  144.1928  160.9916 C   0  0  0  0  0  0  0  0  0  0  0  0
  151.8193  145.4681  160.1425 C   0  0  0  0  0  0  0  0  0  0  0  0
  150.9368  145.2744  158.8993 C   0  0  0  0  0  0  0  0  0  0  0  0
  151.3851  144.1437  158.1584 O   0  0  0  0  0  0  0  0  0  0  0  0
  151.8660  138.7047  155.6718 H   0  0  0  0  0  0  0  0  0  0  0  0
  152.4683  139.6718  157.0037 H   0  0  0  0  0  0  0  0  0  0  0  0
  152.7078  140.2181  155.3458 H   0  0  0  0  0  0  0  0  0  0  0  0
  150.0032  139.9117  156.7211 H   0  0  0  0  0  0  0  0  0  0  0  0
  150.5852  141.2679  154.0376 H   0  0  0  0  0  0  0  0  0  0  0  0
  149.9191  139.6606  154.2124 H   0  0  0  0  0  0  0  0  0  0  0  0
  148.0616  141.3252  152.7056 H   0  0  0  0  0  0  0  0  0  0  0  0
  145.7845  142.3883  153.7737 H   0  0  0  0  0  0  0  0  0  0  0  0
  146.3039  142.3611  156.4960 H   0  0  0  0  0  0  0  0  0  0  0  0
  151.3283  142.4265  156.0449 H   0  0  0  0  0  0  0  0  0  0  0  0
  151.5470  140.8262  158.4567 H   0  0  0  0  0  0  0  0  0  0  0  0
  152.7561  141.8475  157.7080 H   0  0  0  0  0  0  0  0  0  0  0  0
  150.2524  142.7645  159.2056 H   0  0  0  0  0  0  0  0  0  0  0  0
  152.1301  142.0715  160.6961 H   0  0  0  0  0  0  0  0  0  0  0  0
  153.2407  143.0800  159.7961 H   0  0  0  0  0  0  0  0  0  0  0  0
  150.8436  144.0354  161.4312 H   0  0  0  0  0  0  0  0  0  0  0  0
  152.5310  144.2916  161.8203 H   0  0  0  0  0  0  0  0  0  0  0  0
  151.4623  146.3124  160.7329 H   0  0  0  0  0  0  0  0  0  0  0  0
  152.8366  145.7097  159.8318 H   0  0  0  0  0  0  0  0  0  0  0  0
  149.8900  145.1477  159.1802 H   0  0  0  0  0  0  0  0  0  0  0  0
  150.9898  146.1567  158.2615 H   0  0  0  0  0  0  0  0  0  0  0  0
  1  2  1  0  0  0  0
  1 17  1  0  0  0  0
  1 18  1  0  0  0  0
  1 19  1  0  0  0  0
  2  3  1  0  0  0  0
  2  9  1  0  0  0  0
  2 20  1  0  0  0  0
  3  4  1  0  0  0  0
  3 21  1  0  0  0  0
  3 22  1  0  0  0  0
  4  8  1  0  0  0  0
  4  5  1  0  0  0  0
  5  6  2  0  0  0  0
  5 23  1  0  0  0  0
  6  7  1  0  0  0  0
  6 24  1  0  0  0  0
  7  8  2  0  0  0  0
  7 25  1  0  0  0  0
  9 10  1  0  0  0  0
  9 26  1  0  0  0  0
 10 11  1  0  0  0  0
 10 27  1  0  0  0  0
 10 28  1  0  0  0  0
 11 16  1  0  0  0  0
 11 12  1  0  0  0  0
 11 29  1  0  0  0  0
 12 13  1  0  0  0  0
 12 30  1  0  0  0  0
 12 31  1  0  0  0  0
 13 14  1  0  0  0  0
 13 32  1  0  0  0  0
 13 33  1  0  0  0  0
 14 15  1  0  0  0  0
 14 34  1  0  0  0  0
 14 35  1  0  0  0  0
 15 16  1  0  0  0  0
 15 36  1  0  0  0  0
 15 37  1  0  0  0  0
M  END
> <s_m_source_file>
AV-unprocessed.smi

> <i_m_source_file_index>
3165

> <i_lp_mmshare_version>
43012

> <i_f3d_flags>
0

> <s_epik_input>
bjFbY0hdW2NIXVtjSF1uMVtDSDJdW0NAQEhdKFtDSDNdKVtOSF1bQ0gyXVtDQEBIXTJbQ0gyXVtDSDJdW0NIMl1bQ0gyXU8y

> <s_epik_cmdline>
J2VwaWtfcHl0aG9uJywgJy1waCcsICc3LjAnLCAnLXRuJywgJzgnLCAnLW1hJywgJzIwMCcsICctbWV0YWxfYmluZGluZycsICctaW1hZScsICc8aW5maWxlLm1hZT4nLCAnLW9tYWUnLCAnPG91dGZpbGUubWFlPic=

> <r_lp_tautomer_probability>
1

> <r_epik_Ionization_Penalty>
2.51982

> <r_epik_Ionization_Penalty_Charging>
0

> <r_epik_Ionization_Penalty_Neutral>
2.51982

> <r_epik_State_Penalty>
2.68614

> <r_epik_Charging_Adjusted_Penalty>
2.68614

> <i_epik_Tot_Q>
0

> <i_epik_Tot_abs_Q>
0

> <r_epik_Metal_State_Penalty>
2.6861

> <b_epik_Metal_Only>
0

> <s_lp_Force_Field>
OPLS_2005

> <r_lp_Energy>
13.227

> <b_lp_Chiralities_Consistent>
1

> <s_lp_Variant>
AV-unprocessed.smi:3165-7

> <Gold.Version>
5.8.1

> <Gold.Id.Protein>
6NUR|6NUR_protein|mol2

> <Gold.PLP.Fitness>
40.0867

> <Gold.PLP.PLP>
-37.6194

> <Gold.PLP.part.hbond>
0.0000

> <Gold.PLP.part.metal>
0.0000

> <Gold.PLP.part.buried>
-3.9278

> <Gold.PLP.part.nonpolar>
-33.8658

> <Gold.PLP.part.repulsive>
0.2390

> <Gold.PLP.ligand.clash>
0.0000

> <Gold.PLP.ligand.torsion>
0.2792

> <Gold.PLP.Chemscore.Hbond>
0.0000

> <Gold.PLP.Chemscore.CHOScore>
0.9966

> <Gold.PLP.Chemscore.Metal>
0.0000

> <Gold.Chemscore.Hbonds>
donor molecule, donor type, donor heavy atom, donor atom, acceptor molecule, acceptor atom, score
      L1  C     5    23       P1  7957  1.00

> <Gold.PLP.Chemscore.Internal.Correction>
0.0360

> <Gold.Rescore>
     Score         DG    S(hbond)    S(metal)    S(lipo)     H(rot)  DE(clash)    DE(int)     intcor
     13.08     -13.42       0.00        0.00     102.24       1.57       0.02       0.31       ----

> <Gold.Chemscore.Fitness>
13.0775

> <Gold.Chemscore.DG>
-13.4151

> <Gold.Chemscore.ZeroCoef>
-5.4800

> <Gold.Chemscore.Hbond>
0.0000

> <Gold.Chemscore.Metal>
0.0000

> <Gold.Chemscore.Lipo>
102.2426

> <Gold.Chemscore.Internal_Hbond>
0.0000

> <Gold.Chemscore.DEClash>
0.0243

> <Gold.Chemscore.DEInternal>
0.3133

> <Gold.Chemscore.Rot>
1.5731

> <Gold.Chemscore.Internal.Correction>
   9.000000E+99

> <Gold.Chemscore.Hbond.Weighted>
-0.0000

> <Gold.Chemscore.Metal.Weighted>
-0.0000

> <Gold.Chemscore.Lipo.Weighted>
-11.9624

> <Gold.Chemscore.Internal_Hbond.Weighted>
0.0000

> <Gold.Chemscore.DEClash.Weighted>
0.0243

> <Gold.Chemscore.DEInternal.Weighted>
0.3133

> <Gold.Chemscore.Rot.Weighted>
4.0273

> <Gold.Chemscore.Internal.Correction.Weighted>
   9.000000E+99

> <Gold.Protein.RotatedTorsions>
[ 6907 6896 6895 6894 ] final -111.94 input  -60.11 | X-H torsion
[ 7974 7965 7964 7962 ] final    6.31 input  175.53 | X-H torsion
[ 8008 7997 7996 7995 ] final -176.58 input   59.86 | X-H torsion
[ 10167 10162 10161 10158 ] final  -70.43 input  -65.29 | X-H torsion
[ 10718 10713 10712 10709 ] final   69.19 input   66.30 | X-H torsion
[ 10763 10752 10751 10750 ] final   28.68 input  -60.55 | X-H torsion
[ 11005 11000 10999 10996 ] final -121.75 input  -57.11 | X-H torsion

> <Gold.Protein.ActiveResidues>
 VAL166  LYS551  ARG553  GLY616  TRP617  ASP618  TYR619  PRO620  LYS621  CYS622 
 ASP623  PHE694  ASN695  SER759  ASP760  ASP761  ALA762  ILE779  LEU786  VAL792 
 PHE793  MET794  SER795  GLU796  ALA797  LYS798  CYS799  TRP800  GLU811  SER814 

> <Gold.Protein.RotatedAtoms>
  150.7724  133.9162  159.3384 H   0  0  0  0  0  0  0  0  0  0  0  0  # atno 6907 bound_to 6896
  151.7045  135.0922  160.0266 H   0  0  0  0  0  0  0  0  0  0  0  0  # atno 6908 bound_to 6896
  152.3747  133.6427  159.6150 H   0  0  0  0  0  0  0  0  0  0  0  0  # atno 6909 bound_to 6896
  146.2435  140.0253  142.8394 H   0  0  0  0  0  0  0  0  0  0  0  0  # atno 7974 bound_to 7965
  155.9965  140.1212  157.0588 H   0  0  0  0  0  0  0  0  0  0  0  0  # atno 8008 bound_to 7997
  154.4228  140.1115  156.5707 H   0  0  0  0  0  0  0  0  0  0  0  0  # atno 8009 bound_to 7997
  155.6271  140.3472  155.4673 H   0  0  0  0  0  0  0  0  0  0  0  0  # atno 8010 bound_to 7997
  140.5353  143.2318  151.7189 H   0  0  0  0  0  0  0  0  0  0  0  0  # atno 10167 bound_to 10162
  157.6332  130.9413  150.0480 H   0  0  0  0  0  0  0  0  0  0  0  0  # atno 10718 bound_to 10713
  153.0476  135.6507  154.0775 H   0  0  0  0  0  0  0  0  0  0  0  0  # atno 10763 bound_to 10752
  154.0470  135.2899  155.3348 H   0  0  0  0  0  0  0  0  0  0  0  0  # atno 10764 bound_to 10752
  154.6745  135.5343  153.8247 H   0  0  0  0  0  0  0  0  0  0  0  0  # atno 10765 bound_to 10752
  141.0046  134.0352  157.3493 H   0  0  0  0  0  0  0  0  0  0  0  0  # atno 11005 bound_to 11000
  145.1204  140.9459  143.4604 LP  0  0  0  0  0  0  0  0  0  0  0  0  # atno 17320 bound_to 7965
  145.0487  139.3199  143.5939 LP  0  0  0  0  0  0  0  0  0  0  0  0  # atno 17321 bound_to 7965
  139.4968  144.4052  152.0139 LP  0  0  0  0  0  0  0  0  0  0  0  0  # atno 17342 bound_to 10162
  140.3157  144.3486  150.6022 LP  0  0  0  0  0  0  0  0  0  0  0  0  # atno 17343 bound_to 10162
  156.1551  130.3643  149.9381 LP  0  0  0  0  0  0  0  0  0  0  0  0  # atno 17370 bound_to 10713
  156.7392  130.9073  151.3631 LP  0  0  0  0  0  0  0  0  0  0  0  0  # atno 17371 bound_to 10713
  139.9057  135.0178  156.7473 LP  0  0  0  0  0  0  0  0  0  0  0  0  # atno 17394 bound_to 11000
  140.6833  133.9455  155.7923 LP  0  0  0  0  0  0  0  0  0  0  0  0  # atno 17395 bound_to 11000

$$$$
