AV-unprocessed.smi:37|AV-procd|sdf|307|dock7
  -GOLD-   2262016123D 1   1.00000     0.00000
 Structure written by MMmdl.
 44 45  0  0  0  0  0  0  0  0  1 V2000
  146.7917  134.3380  161.7881 C   0  0  0  0  0  0  0  0  0  0  0  0
  147.9537  135.3334  161.9242 C   0  0  0  0  0  0  0  0  0  0  0  0
  148.0141  136.3622  160.7929 C   0  0  0  0  0  0  0  0  0  0  0  0
  147.1472  137.2242  160.6365 O   0  0  0  0  0  0  0  0  0  0  0  0
  149.1020  136.2000  160.0239 O   0  0  0  0  0  0  0  0  0  0  0  0
  149.4327  137.1878  159.0618 C   0  0  0  0  0  0  0  0  0  0  0  0
  149.3145  136.5923  157.6540 C   0  0  2  0  0  0  0  0  0  0  0  0
  150.0253  135.3548  157.5874 O   0  0  0  0  0  0  0  0  0  0  0  0
  150.7312  135.2612  156.3860 C   0  0  1  0  0  0  0  0  0  0  0  0
  150.4387  133.9203  155.7489 N   0  0  0  0  0  0  0  0  0  0  0  0
  149.6978  133.8582  154.5767 C   0  0  0  0  0  0  0  0  0  0  0  0
  149.4212  132.6970  153.9371 C   0  0  0  0  0  0  0  0  0  0  0  0
  148.6902  132.7181  152.8097 F   0  0  0  0  0  0  0  0  0  0  0  0
  149.9119  131.4249  154.4585 C   0  0  0  0  0  0  0  0  0  0  0  0
  149.7079  130.3219  153.9555 O   0  0  0  0  0  0  0  0  0  0  0  0
  150.6736  131.5361  155.6254 N   0  0  0  0  0  0  0  0  0  0  0  0
  150.9702  132.7267  156.2917 C   0  0  0  0  0  0  0  0  0  0  0  0
  151.6705  132.7016  157.3023 O   0  0  0  0  0  0  0  0  0  0  0  0
  150.3164  136.4494  155.5151 C   0  0  2  0  0  0  0  0  0  0  0  0
  151.8189  137.0859  154.3752 Br  0  0  0  0  0  0  0  0  0  0  0  0
  149.9436  137.4708  156.5664 C   0  0  1  0  0  0  0  0  0  0  0  0
  149.0205  138.3997  156.0132 O   0  0  0  0  0  0  0  0  0  0  0  0
  149.3915  139.2186  155.0129 C   0  0  0  0  0  0  0  0  0  0  0  0
  150.5483  139.4886  154.6894 O   0  0  0  0  0  0  0  0  0  0  0  0
  148.1985  139.8253  154.2781 C   0  0  0  0  0  0  0  0  0  0  0  0
  148.2626  141.3581  154.2370 C   0  0  0  0  0  0  0  0  0  0  0  0
  151.0457  130.6825  156.0159 H   0  0  0  0  0  0  0  0  0  0  0  0
  146.8003  133.6233  162.6111 H   0  0  0  0  0  0  0  0  0  0  0  0
  146.8602  133.7707  160.8591 H   0  0  0  0  0  0  0  0  0  0  0  0
  145.8273  134.8472  161.8040 H   0  0  0  0  0  0  0  0  0  0  0  0
  147.8717  135.8657  162.8721 H   0  0  0  0  0  0  0  0  0  0  0  0
  148.8992  134.7910  161.9484 H   0  0  0  0  0  0  0  0  0  0  0  0
  148.7396  138.0229  159.1688 H   0  0  0  0  0  0  0  0  0  0  0  0
  150.4390  137.5724  159.2336 H   0  0  0  0  0  0  0  0  0  0  0  0
  148.2695  136.4007  157.4048 H   0  0  0  0  0  0  0  0  0  0  0  0
  151.7950  135.2756  156.6271 H   0  0  0  0  0  0  0  0  0  0  0  0
  149.3111  134.7712  154.1466 H   0  0  0  0  0  0  0  0  0  0  0  0
  149.4693  136.2068  154.8744 H   0  0  0  0  0  0  0  0  0  0  0  0
  150.8519  137.9448  156.9423 H   0  0  0  0  0  0  0  0  0  0  0  0
  148.1674  139.4247  153.2647 H   0  0  0  0  0  0  0  0  0  0  0  0
  147.2807  139.5068  154.7729 H   0  0  0  0  0  0  0  0  0  0  0  0
  147.3804  141.7656  153.7434 H   0  0  0  0  0  0  0  0  0  0  0  0
  149.1376  141.7080  153.6882 H   0  0  0  0  0  0  0  0  0  0  0  0
  148.3040  141.7805  155.2417 H   0  0  0  0  0  0  0  0  0  0  0  0
  1  2  1  0  0  0  0
  1 28  1  0  0  0  0
  1 29  1  0  0  0  0
  1 30  1  0  0  0  0
  2  3  1  0  0  0  0
  2 31  1  0  0  0  0
  2 32  1  0  0  0  0
  3  4  2  0  0  0  0
  3  5  1  0  0  0  0
  5  6  1  0  0  0  0
  6  7  1  0  0  0  0
  6 33  1  0  0  0  0
  6 34  1  0  0  0  0
  7 21  1  0  0  0  0
  7  8  1  0  0  0  0
  7 35  1  0  0  0  0
  8  9  1  0  0  0  0
  9 10  1  0  0  0  0
  9 19  1  0  0  0  0
  9 36  1  0  0  0  0
 10 17  1  0  0  0  0
 10 11  1  0  0  0  0
 11 12  2  0  0  0  0
 11 37  1  0  0  0  0
 12 13  1  0  0  0  0
 12 14  1  0  0  0  0
 14 15  2  0  0  0  0
 14 16  1  0  0  0  0
 16 27  1  0  0  0  0
 16 17  1  0  0  0  0
 17 18  2  0  0  0  0
 19 20  1  0  0  0  0
 19 21  1  0  0  0  0
 19 38  1  0  0  0  0
 21 22  1  0  0  0  0
 21 39  1  0  0  0  0
 22 23  1  0  0  0  0
 23 24  2  0  0  0  0
 23 25  1  0  0  0  0
 25 26  1  0  0  0  0
 25 40  1  0  0  0  0
 25 41  1  0  0  0  0
 26 42  1  0  0  0  0
 26 43  1  0  0  0  0
 26 44  1  0  0  0  0
M  END
> <s_m_source_file>
AV-unprocessed.smi

> <i_m_source_file_index>
37

> <i_lp_mmshare_version>
43012

> <i_f3d_flags>
0

> <s_epik_input>
W0NIM11bQ0gyXUMoPU8pT1tDSDJdW0NAQEhdMU9bQ0BASF0objJbY0hdYyhGKWMoPU8pW25IXWMyPU8pW0NAQEhdKEJyKVtDQEhdMU9DKD1PKVtDSDJdW0NIM10=

> <s_epik_cmdline>
J2VwaWtfcHl0aG9uJywgJy1waCcsICc3LjAnLCAnLXRuJywgJzgnLCAnLW1hJywgJzIwMCcsICctbWV0YWxfYmluZGluZycsICctaW1hZScsICc8aW5maWxlLm1hZT4nLCAnLW9tYWUnLCAnPG91dGZpbGUubWFlPic=

> <r_lp_tautomer_probability>
0.999537

> <r_epik_Ionization_Penalty>
0.104106

> <r_epik_Ionization_Penalty_Charging>
0.104106

> <r_epik_Ionization_Penalty_Neutral>
3.94675e-16

> <r_epik_State_Penalty>
0.0940182

> <r_epik_Charging_Adjusted_Penalty>
0.198124

> <i_epik_Tot_Q>
0

> <i_epik_Tot_abs_Q>
0

> <r_epik_Metal_State_Penalty>
3.05314

> <b_epik_Metal_Only>
0

> <s_epik_Chemistry_Notes>
This compound has an ester and may undergo hydrolysis at high or low pH. This compound contains an acetal/aminal-like group ( X-CH(R)-Y where X, Y are N, S, or O) that may be acid/base labile, releasing an aldehyde.

> <s_lp_Force_Field>
OPLS_2005

> <r_lp_Energy>
20.0289

> <b_lp_Chiralities_Consistent>
1

> <s_lp_Variant>
AV-unprocessed.smi:37-5

> <Gold.Version>
5.8.1

> <Gold.Id.Protein>
6NUR|6NUR_protein|mol2

> <Gold.PLP.Fitness>
49.3553

> <Gold.PLP.PLP>
-39.2170

> <Gold.PLP.part.hbond>
-4.3001

> <Gold.PLP.part.metal>
0.0000

> <Gold.PLP.part.buried>
-2.6263

> <Gold.PLP.part.nonpolar>
-33.2234

> <Gold.PLP.part.repulsive>
0.1633

> <Gold.PLP.ligand.clash>
0.0000

> <Gold.PLP.ligand.torsion>
1.0479

> <Gold.PLP.Chemscore.Hbond>
3.1608

> <Gold.PLP.Chemscore.CHOScore>
0.8570

> <Gold.PLP.Chemscore.Metal>
0.0000

> <Gold.Chemscore.Hbonds>
donor molecule, donor type, donor heavy atom, donor atom, acceptor molecule, acceptor atom, score
      P1  H  6896  6907       L1     8  0.38
      P1  H  6896  6909       L1    18  0.86
      P1  H  6934  6947       L1     4  1.00
      P1  H  7989  7998       L1    24  0.78
      L1  C    11    37       P1  7948  0.56

> <Gold.PLP.Chemscore.Internal.Correction>
0.1807

> <Gold.Rescore>
     Score         DG    S(hbond)    S(metal)    S(lipo)     H(rot)  DE(clash)    DE(int)     intcor
     11.20     -14.38       3.08        0.00      61.01       3.33       0.59       2.59       ----

> <Gold.Chemscore.Fitness>
11.1951

> <Gold.Chemscore.DG>
-14.3766

> <Gold.Chemscore.ZeroCoef>
-5.4800

> <Gold.Chemscore.Hbond>
3.0789

> <Gold.Chemscore.Metal>
0.0000

> <Gold.Chemscore.Lipo>
61.0144

> <Gold.Chemscore.Internal_Hbond>
0.0000

> <Gold.Chemscore.DEClash>
0.5928

> <Gold.Chemscore.DEInternal>
2.5888

> <Gold.Chemscore.Rot>
3.3303

> <Gold.Chemscore.Internal.Correction>
   9.000000E+99

> <Gold.Chemscore.Hbonds>
donor molecule, donor type, donor heavy atom, donor atom, acceptor molecule, acceptor atom, score
      P1  H  6896  6907       L1     8  0.33
      P1  H  6896  6909       L1    18  0.81
      P1  H  6934  6947       L1     4  1.00
      P1  H  7989  7998       L1    24  0.77

> <Gold.Chemscore.Hbond.Weighted>
-10.2835

> <Gold.Chemscore.Metal.Weighted>
-0.0000

> <Gold.Chemscore.Lipo.Weighted>
-7.1387

> <Gold.Chemscore.Internal_Hbond.Weighted>
0.0000

> <Gold.Chemscore.DEClash.Weighted>
0.5928

> <Gold.Chemscore.DEInternal.Weighted>
2.5888

> <Gold.Chemscore.Rot.Weighted>
8.5256

> <Gold.Chemscore.Internal.Correction.Weighted>
   9.000000E+99

> <Gold.Protein.RotatedTorsions>
[ 6907 6896 6895 6894 ] final  -62.26 input  -60.11 | X-H torsion
[ 7974 7965 7964 7962 ] final -157.49 input  175.53 | X-H torsion
[ 8008 7997 7996 7995 ] final -161.37 input   59.86 | X-H torsion
[ 10167 10162 10161 10158 ] final  -18.34 input  -65.29 | X-H torsion
[ 10718 10713 10712 10709 ] final   53.39 input   66.30 | X-H torsion
[ 10763 10752 10751 10750 ] final  -48.37 input  -60.55 | X-H torsion
[ 11005 11000 10999 10996 ] final -143.01 input  -57.11 | X-H torsion

> <Gold.Protein.ActiveResidues>
 VAL166  LYS551  ARG553  GLY616  TRP617  ASP618  TYR619  PRO620  LYS621  CYS622 
 ASP623  PHE694  ASN695  SER759  ASP760  ASP761  ALA762  ILE779  LEU786  VAL792 
 PHE793  MET794  SER795  GLU796  ALA797  LYS798  CYS799  TRP800  GLU811  SER814 

> <Gold.Protein.RotatedAtoms>
  150.7728  134.6594  159.6331 H   0  0  0  0  0  0  0  0  0  0  0  0  # atno 6907 bound_to 6896
  152.3787  134.6621  160.0160 H   0  0  0  0  0  0  0  0  0  0  0  0  # atno 6908 bound_to 6896
  151.6958  133.3274  159.3290 H   0  0  0  0  0  0  0  0  0  0  0  0  # atno 6909 bound_to 6896
  144.7546  140.3961  143.6022 H   0  0  0  0  0  0  0  0  0  0  0  0  # atno 7974 bound_to 7965
  155.7912  140.0878  157.2008 H   0  0  0  0  0  0  0  0  0  0  0  0  # atno 8008 bound_to 7997
  154.3985  140.1489  156.3223 H   0  0  0  0  0  0  0  0  0  0  0  0  # atno 8009 bound_to 7997
  155.8557  140.3432  155.5725 H   0  0  0  0  0  0  0  0  0  0  0  0  # atno 8010 bound_to 7997
  140.7257  143.4926  150.9972 H   0  0  0  0  0  0  0  0  0  0  0  0  # atno 10167 bound_to 10162
  157.5163  130.8534  149.8499 H   0  0  0  0  0  0  0  0  0  0  0  0  # atno 10718 bound_to 10713
  154.0767  135.6597  153.4832 H   0  0  0  0  0  0  0  0  0  0  0  0  # atno 10763 bound_to 10752
  153.0371  135.5170  154.7514 H   0  0  0  0  0  0  0  0  0  0  0  0  # atno 10764 bound_to 10752
  154.6596  135.3013  154.9851 H   0  0  0  0  0  0  0  0  0  0  0  0  # atno 10765 bound_to 10752
  140.8168  134.2679  157.4918 H   0  0  0  0  0  0  0  0  0  0  0  0  # atno 11005 bound_to 11000
  145.6824  139.1621  143.2693 LP  0  0  0  0  0  0  0  0  0  0  0  0  # atno 17320 bound_to 7965
  146.1540  140.6885  142.9309 LP  0  0  0  0  0  0  0  0  0  0  0  0  # atno 17321 bound_to 7965
  139.8631  143.7289  152.3172 LP  0  0  0  0  0  0  0  0  0  0  0  0  # atno 17342 bound_to 10162
  139.7511  144.7534  151.0505 LP  0  0  0  0  0  0  0  0  0  0  0  0  # atno 17343 bound_to 10162
  156.0322  130.3761  150.1656 LP  0  0  0  0  0  0  0  0  0  0  0  0  # atno 17370 bound_to 10713
  156.9844  130.9874  151.3429 LP  0  0  0  0  0  0  0  0  0  0  0  0  # atno 17371 bound_to 10713
  139.8710  134.9513  156.4082 LP  0  0  0  0  0  0  0  0  0  0  0  0  # atno 17394 bound_to 11000
  140.9141  133.7691  155.9827 LP  0  0  0  0  0  0  0  0  0  0  0  0  # atno 17395 bound_to 11000

$$$$
