AV-unprocessed.smi:3195|AV-procd|sdf|12220|dock5
  -GOLD-   2272018 53D 1   1.00000     0.00000
 Structure written by MMmdl.
 29 30  0  0  0  0  0  0  0  0  2 V2000
  152.4995  138.8097  155.1731 C   0  0  0  0  0  0  0  0  0  0  0  0
  151.1614  139.3965  155.6546 C   0  0  2  0  0  0  0  0  0  0  0  0
  151.2645  139.8279  157.1340 C   0  0  0  0  0  0  0  0  0  0  0  0
  150.5039  139.3184  157.9588 O   0  0  0  0  0  0  0  0  0  0  0  0
  152.2033  140.7457  157.4356 N   0  0  0  0  0  0  0  0  0  0  0  0
  152.5103  141.3299  158.6957 C   0  0  0  0  0  0  0  0  0  0  0  0
  151.8463  142.4051  159.1902 N   0  0  0  0  0  0  0  0  0  0  0  0
  152.1956  142.9021  160.3944 C   0  0  0  0  0  0  0  0  0  0  0  0
  153.2266  142.3611  161.1821 C   0  0  0  0  0  0  0  0  0  0  0  0
  153.9244  141.2475  160.6835 C   0  0  0  0  0  0  0  0  0  0  0  0
  153.5665  140.7224  159.4253 C   0  0  0  0  0  0  0  0  0  0  0  0
  154.2485  139.6394  158.9402 O   0  5  0  0  0  0  0  0  0  0  0  0
  149.9819  138.4219  155.4233 C   0  0  0  0  0  0  0  0  0  0  0  0
  149.1053  139.1188  154.3973 C   0  0  0  0  0  0  0  0  0  0  0  0
  149.4646  140.5830  154.5898 C   0  0  0  0  0  0  0  0  0  0  0  0
  150.8628  140.5272  154.8286 O   0  0  0  0  0  0  0  0  0  0  0  0
  152.7672  137.9109  155.7299 H   0  0  0  0  0  0  0  0  0  0  0  0
  153.3119  139.5282  155.2896 H   0  0  0  0  0  0  0  0  0  0  0  0
  152.4501  138.5408  154.1175 H   0  0  0  0  0  0  0  0  0  0  0  0
  152.7680  141.0771  156.6663 H   0  0  0  0  0  0  0  0  0  0  0  0
  151.6348  143.7577  160.7398 H   0  0  0  0  0  0  0  0  0  0  0  0
  153.4753  142.7886  162.1419 H   0  0  0  0  0  0  0  0  0  0  0  0
  154.7232  140.8037  161.2597 H   0  0  0  0  0  0  0  0  0  0  0  0
  150.3052  137.4426  155.0684 H   0  0  0  0  0  0  0  0  0  0  0  0
  149.4064  138.2546  156.3355 H   0  0  0  0  0  0  0  0  0  0  0  0
  149.3851  138.7997  153.3926 H   0  0  0  0  0  0  0  0  0  0  0  0
  148.0424  138.9187  154.5348 H   0  0  0  0  0  0  0  0  0  0  0  0
  149.2278  141.1949  153.7194 H   0  0  0  0  0  0  0  0  0  0  0  0
  148.9536  141.0026  155.4580 H   0  0  0  0  0  0  0  0  0  0  0  0
  1  2  1  0  0  0  0
  1 17  1  0  0  0  0
  1 18  1  0  0  0  0
  1 19  1  0  0  0  0
  2 16  1  0  0  0  0
  2  3  1  0  0  0  0
  2 13  1  0  0  0  0
  3  4  2  0  0  0  0
  3  5  1  0  0  0  0
  5 20  1  0  0  0  0
  5  6  1  0  0  0  0
  6 11  2  0  0  0  0
  6  7  1  0  0  0  0
  7  8  2  0  0  0  0
  8 21  1  0  0  0  0
  8  9  1  0  0  0  0
  9 22  1  0  0  0  0
  9 10  2  0  0  0  0
 10 11  1  0  0  0  0
 10 23  1  0  0  0  0
 11 12  1  0  0  0  0
 13 14  1  0  0  0  0
 13 24  1  0  0  0  0
 13 25  1  0  0  0  0
 14 15  1  0  0  0  0
 14 26  1  0  0  0  0
 14 27  1  0  0  0  0
 15 16  1  0  0  0  0
 15 28  1  0  0  0  0
 15 29  1  0  0  0  0
M  CHG  1  12  -1
M  END
> <s_m_source_file>
AV-unprocessed.smi

> <i_m_source_file_index>
3195

> <i_lp_mmshare_version>
43012

> <i_f3d_flags>
0

> <s_epik_input>
TzFbQ0gyXVtDSDJdW0NIMl1bQ0BAXTEoW0NIM10pQyg9TylbTkhdYzJuW2NIXVtjSF1bY0hdYzJbT0hd

> <s_epik_cmdline>
J2VwaWtfcHl0aG9uJywgJy1waCcsICc3LjAnLCAnLXRuJywgJzgnLCAnLW1hJywgJzIwMCcsICctbWV0YWxfYmluZGluZycsICctaW1hZScsICc8aW5maWxlLm1hZT4nLCAnLW9tYWUnLCAnPG91dGZpbGUubWFlPic=

> <r_epik_Ionization_Penalty>
4.16712

> <r_epik_Ionization_Penalty_Charging>
2.09898

> <r_epik_Ionization_Penalty_Neutral>
2.06814

> <r_epik_State_Penalty>
2.6848

> <r_epik_Charging_Adjusted_Penalty>
4.78378

> <i_epik_Tot_Q>
-1

> <i_epik_Tot_abs_Q>
1

> <r_epik_Metal_State_Penalty>
0.595229

> <b_epik_Metal_Only>
0

> <s_lp_Force_Field>
OPLS_2005

> <r_lp_Energy>
19.5699

> <b_lp_Chiralities_Consistent>
1

> <s_lp_Variant>
AV-unprocessed.smi:3195-8

> <Gold.Version>
5.8.1

> <Gold.Id.Protein>
6NUR|6NUR_protein|mol2

> <Gold.PLP.Fitness>
37.9295

> <Gold.PLP.PLP>
-30.4248

> <Gold.PLP.part.hbond>
-1.9491

> <Gold.PLP.part.metal>
0.0000

> <Gold.PLP.part.buried>
-2.3242

> <Gold.PLP.part.nonpolar>
-25.5936

> <Gold.PLP.part.repulsive>
0.1936

> <Gold.PLP.ligand.clash>
0.0000

> <Gold.PLP.ligand.torsion>
0.7642

> <Gold.PLP.Chemscore.Hbond>
3.0000

> <Gold.PLP.Chemscore.CHOScore>
0.0000

> <Gold.PLP.Chemscore.Metal>
0.0000

> <Gold.Chemscore.Hbonds>
donor molecule, donor type, donor heavy atom, donor atom, acceptor molecule, acceptor atom, score
      P1  H  7989  7998       L1    16  1.00
      P1  H  7997  8009       L1    12  2.00

> <Gold.PLP.Chemscore.Internal.Correction>
0.0332

> <Gold.Rescore>
     Score         DG    S(hbond)    S(metal)    S(lipo)     H(rot)  DE(clash)    DE(int)     intcor
     16.54     -17.33       1.82        0.00      71.10       1.00       0.02       0.78       ----

> <Gold.Chemscore.Fitness>
16.5370

> <Gold.Chemscore.DG>
-17.3298

> <Gold.Chemscore.ZeroCoef>
-5.4800

> <Gold.Chemscore.Hbond>
1.8236

> <Gold.Chemscore.Metal>
0.0000

> <Gold.Chemscore.Lipo>
71.1027

> <Gold.Chemscore.Internal_Hbond>
0.0000

> <Gold.Chemscore.DEClash>
0.0174

> <Gold.Chemscore.DEInternal>
0.7754

> <Gold.Chemscore.Rot>
1.0000

> <Gold.Chemscore.Internal.Correction>
   9.000000E+99

> <Gold.Chemscore.Hbonds>
donor molecule, donor type, donor heavy atom, donor atom, acceptor molecule, acceptor atom, score
      P1  H  7989  7998       L1    16  0.65
      P1  H  7997  8009       L1    12  0.82

> <Gold.Chemscore.Hbond.Weighted>
-6.0908

> <Gold.Chemscore.Metal.Weighted>
-0.0000

> <Gold.Chemscore.Lipo.Weighted>
-8.3190

> <Gold.Chemscore.Internal_Hbond.Weighted>
0.0000

> <Gold.Chemscore.DEClash.Weighted>
0.0174

> <Gold.Chemscore.DEInternal.Weighted>
0.7754

> <Gold.Chemscore.Rot.Weighted>
2.5600

> <Gold.Chemscore.Internal.Correction.Weighted>
   9.000000E+99

> <Gold.Protein.RotatedTorsions>
[ 6907 6896 6895 6894 ] final   92.70 input  -60.11 | X-H torsion
[ 7974 7965 7964 7962 ] final  152.85 input  175.53 | X-H torsion
[ 8008 7997 7996 7995 ] final  113.97 input   59.86 | X-H torsion
[ 10167 10162 10161 10158 ] final -120.47 input  -65.29 | X-H torsion
[ 10718 10713 10712 10709 ] final -112.51 input   66.30 | X-H torsion
[ 10763 10752 10751 10750 ] final  -57.01 input  -60.55 | X-H torsion
[ 11005 11000 10999 10996 ] final  -75.46 input  -57.11 | X-H torsion

> <Gold.Protein.ActiveResidues>
 VAL166  LYS551  ARG553  GLY616  TRP617  ASP618  TYR619  PRO620  LYS621  CYS622 
 ASP623  PHE694  ASN695  SER759  ASP760  ASP761  ALA762  ILE779  LEU786  VAL792 
 PHE793  MET794  SER795  GLU796  ALA797  LYS798  CYS799  TRP800  GLU811  SER814 

> <Gold.Protein.RotatedAtoms>
  152.5453  134.1462  159.8499 H   0  0  0  0  0  0  0  0  0  0  0  0  # atno 6907 bound_to 6896
  151.1493  133.4911  159.2603 H   0  0  0  0  0  0  0  0  0  0  0  0  # atno 6908 bound_to 6896
  151.1489  135.0228  159.8714 H   0  0  0  0  0  0  0  0  0  0  0  0  # atno 6909 bound_to 6896
  144.8194  139.6723  143.6107 H   0  0  0  0  0  0  0  0  0  0  0  0  # atno 7974 bound_to 7965
  156.2292  140.2968  156.0145 H   0  0  0  0  0  0  0  0  0  0  0  0  # atno 8008 bound_to 7997
  155.2272  140.0417  157.2974 H   0  0  0  0  0  0  0  0  0  0  0  0  # atno 8009 bound_to 7997
  154.5967  140.2416  155.7855 H   0  0  0  0  0  0  0  0  0  0  0  0  # atno 8010 bound_to 7997
  140.0355  143.5205  152.2155 H   0  0  0  0  0  0  0  0  0  0  0  0  # atno 10167 bound_to 10162
  156.0710  130.5924  150.8518 H   0  0  0  0  0  0  0  0  0  0  0  0  # atno 10718 bound_to 10713
  154.2156  135.6387  153.5129 H   0  0  0  0  0  0  0  0  0  0  0  0  # atno 10763 bound_to 10752
  152.9980  135.5484  154.6168 H   0  0  0  0  0  0  0  0  0  0  0  0  # atno 10764 bound_to 10752
  154.5616  135.2909  155.0887 H   0  0  0  0  0  0  0  0  0  0  0  0  # atno 10765 bound_to 10752
  141.1645  133.6947  156.7520 H   0  0  0  0  0  0  0  0  0  0  0  0  # atno 11005 bound_to 11000
  146.2499  139.6177  142.9434 LP  0  0  0  0  0  0  0  0  0  0  0  0  # atno 17320 bound_to 7965
  145.5140  141.0434  143.2472 LP  0  0  0  0  0  0  0  0  0  0  0  0  # atno 17321 bound_to 7965
  139.6048  144.7593  151.3088 LP  0  0  0  0  0  0  0  0  0  0  0  0  # atno 17342 bound_to 10162
  140.7283  143.6939  150.7900 LP  0  0  0  0  0  0  0  0  0  0  0  0  # atno 17343 bound_to 10162
  157.5780  131.0946  150.9315 LP  0  0  0  0  0  0  0  0  0  0  0  0  # atno 17370 bound_to 10713
  156.9517  130.5422  149.5282 LP  0  0  0  0  0  0  0  0  0  0  0  0  # atno 17371 bound_to 10713
  140.2597  134.8476  157.3747 LP  0  0  0  0  0  0  0  0  0  0  0  0  # atno 17394 bound_to 11000
  140.1623  134.4713  155.7886 LP  0  0  0  0  0  0  0  0  0  0  0  0  # atno 17395 bound_to 11000

$$$$
