AV-unprocessed.smi:1227|AV-procd|sdf|5146|dock1
  -GOLD-   22720 4213D 1   1.00000     0.00000
 Structure written by MMmdl.
 44 45  0  0  0  0  0  0  0  0  1 V2000
  151.4886  138.2984  154.4615 C   0  0  0  0  0  0  0  0  0  0  0  0
  150.2069  138.3112  153.8425 O   0  0  0  0  0  0  0  0  0  0  0  0
  149.4379  139.4554  153.9394 C   0  0  0  0  0  0  0  0  0  0  0  0
  149.9387  140.5107  154.6295 N   0  0  0  0  0  0  0  0  0  0  0  0
  149.1898  141.6274  154.7297 C   0  0  0  0  0  0  0  0  0  0  0  0
  147.9116  141.7503  154.1562 C   0  0  0  0  0  0  0  0  0  0  0  0
  147.3890  140.6575  153.4402 C   0  0  0  0  0  0  0  0  0  0  0  0
  148.1668  139.4793  153.3176 C   0  0  0  0  0  0  0  0  0  0  0  0
  147.7430  138.3055  152.6318 N   0  0  0  0  0  0  0  0  0  0  0  0
  146.5200  137.9655  152.1898 C   0  0  0  0  0  0  0  0  0  0  0  0
  145.5016  138.6480  152.2972 O   0  0  0  0  0  0  0  0  0  0  0  0
  146.5428  136.7664  151.5915 N   0  0  0  0  0  0  0  0  0  0  0  0
  145.3849  136.0980  151.0104 C   0  0  0  0  0  0  0  0  0  0  0  0
  144.7758  135.0670  151.9795 C   0  0  0  0  0  0  0  0  0  0  0  0
  145.4626  133.7709  151.8774 N   0  0  0  0  0  0  0  0  0  0  0  0
  145.2135  133.0139  150.6408 C   0  0  0  0  0  0  0  0  0  0  0  0
  144.4706  131.6878  150.8954 C   0  0  0  0  0  0  0  0  0  0  0  0
  145.3801  130.5397  151.3578 C   0  0  0  0  0  0  0  0  0  0  0  0
  146.0637  130.7798  152.7115 C   0  0  0  0  0  0  0  0  0  0  0  0
  147.0049  131.9957  152.7076 C   0  0  0  0  0  0  0  0  0  0  0  0
  146.2553  133.3229  152.8804 C   0  0  0  0  0  0  0  0  0  0  0  0
  146.4155  133.9480  153.9297 O   0  0  0  0  0  0  0  0  0  0  0  0
  151.9595  137.3296  154.2954 H   0  0  0  0  0  0  0  0  0  0  0  0
  151.4118  138.4475  155.5394 H   0  0  0  0  0  0  0  0  0  0  0  0
  152.1442  139.0615  154.0397 H   0  0  0  0  0  0  0  0  0  0  0  0
  149.6206  142.4457  155.2877 H   0  0  0  0  0  0  0  0  0  0  0  0
  147.3421  142.6612  154.2666 H   0  0  0  0  0  0  0  0  0  0  0  0
  146.4028  140.7490  153.0148 H   0  0  0  0  0  0  0  0  0  0  0  0
  148.4811  137.6498  152.4208 H   0  0  0  0  0  0  0  0  0  0  0  0
  147.4238  136.2760  151.5406 H   0  0  0  0  0  0  0  0  0  0  0  0
  144.6500  136.8643  150.7627 H   0  0  0  0  0  0  0  0  0  0  0  0
  145.6631  135.6205  150.0694 H   0  0  0  0  0  0  0  0  0  0  0  0
  144.8130  135.4433  153.0023 H   0  0  0  0  0  0  0  0  0  0  0  0
  143.7114  134.9465  151.7701 H   0  0  0  0  0  0  0  0  0  0  0  0
  144.6050  133.6044  149.9554 H   0  0  0  0  0  0  0  0  0  0  0  0
  146.1504  132.8393  150.1104 H   0  0  0  0  0  0  0  0  0  0  0  0
  143.6590  131.8399  151.6084 H   0  0  0  0  0  0  0  0  0  0  0  0
  143.9933  131.3790  149.9648 H   0  0  0  0  0  0  0  0  0  0  0  0
  144.7861  129.6275  151.4233 H   0  0  0  0  0  0  0  0  0  0  0  0
  146.1376  130.3471  150.5970 H   0  0  0  0  0  0  0  0  0  0  0  0
  145.3113  130.8834  153.4950 H   0  0  0  0  0  0  0  0  0  0  0  0
  146.6409  129.8917  152.9704 H   0  0  0  0  0  0  0  0  0  0  0  0
  147.7060  131.8974  153.5376 H   0  0  0  0  0  0  0  0  0  0  0  0
  147.6174  132.0186  151.8056 H   0  0  0  0  0  0  0  0  0  0  0  0
  1  2  1  0  0  0  0
  1 23  1  0  0  0  0
  1 24  1  0  0  0  0
  1 25  1  0  0  0  0
  2  3  1  0  0  0  0
  3  8  1  0  0  0  0
  3  4  2  0  0  0  0
  4  5  1  0  0  0  0
  5  6  2  0  0  0  0
  5 26  1  0  0  0  0
  6  7  1  0  0  0  0
  6 27  1  0  0  0  0
  7  8  2  0  0  0  0
  7 28  1  0  0  0  0
  8  9  1  0  0  0  0
  9 10  1  0  0  0  0
  9 29  1  0  0  0  0
 10 11  2  0  0  0  0
 10 12  1  0  0  0  0
 12 13  1  0  0  0  0
 12 30  1  0  0  0  0
 13 14  1  0  0  0  0
 13 31  1  0  0  0  0
 13 32  1  0  0  0  0
 14 15  1  0  0  0  0
 14 33  1  0  0  0  0
 14 34  1  0  0  0  0
 15 21  1  0  0  0  0
 15 16  1  0  0  0  0
 16 17  1  0  0  0  0
 16 35  1  0  0  0  0
 16 36  1  0  0  0  0
 17 18  1  0  0  0  0
 17 37  1  0  0  0  0
 17 38  1  0  0  0  0
 18 19  1  0  0  0  0
 18 39  1  0  0  0  0
 18 40  1  0  0  0  0
 19 20  1  0  0  0  0
 19 41  1  0  0  0  0
 19 42  1  0  0  0  0
 20 21  1  0  0  0  0
 20 43  1  0  0  0  0
 20 44  1  0  0  0  0
 21 22  2  0  0  0  0
M  END
> <s_m_source_file>
AV-unprocessed.smi

> <i_m_source_file_index>
1227

> <i_lp_mmshare_version>
43012

> <i_f3d_flags>
0

> <s_epik_input>
W0NIM11PYzFuW2NIXVtjSF1bY0hdYzFbTkhdQyg9TylbTkhdW0NIMl1bQ0gyXU4yW0NIMl1bQ0gyXVtDSDJdW0NIMl1bQ0gyXUMyPU8=

> <s_epik_cmdline>
J2VwaWtfcHl0aG9uJywgJy1waCcsICc3LjAnLCAnLXRuJywgJzgnLCAnLW1hJywgJzIwMCcsICctbWV0YWxfYmluZGluZycsICctaW1hZScsICc8aW5maWxlLm1hZT4nLCAnLW9tYWUnLCAnPG91dGZpbGUubWFlPic=

> <r_lp_tautomer_probability>
1

> <r_epik_Ionization_Penalty>
8.86757e-05

> <r_epik_Ionization_Penalty_Charging>
0

> <r_epik_Ionization_Penalty_Neutral>
8.86757e-05

> <r_epik_State_Penalty>
-0

> <r_epik_Charging_Adjusted_Penalty>
0

> <i_epik_Tot_Q>
0

> <i_epik_Tot_abs_Q>
0

> <r_epik_Metal_State_Penalty>
-0

> <b_epik_Metal_Only>
0

> <s_lp_Force_Field>
OPLS_2005

> <r_lp_Energy>
20.5681

> <b_lp_Chiralities_Consistent>
1

> <s_lp_Variant>
AV-unprocessed.smi:1227-1

> <Gold.Version>
5.8.1

> <Gold.Id.Protein>
6NUR|6NUR_protein|mol2

> <Gold.PLP.Fitness>
45.4900

> <Gold.PLP.PLP>
-34.7664

> <Gold.PLP.part.hbond>
-3.6442

> <Gold.PLP.part.metal>
0.0000

> <Gold.PLP.part.buried>
1.2876

> <Gold.PLP.part.nonpolar>
-37.8095

> <Gold.PLP.part.repulsive>
5.5911

> <Gold.PLP.ligand.clash>
0.0000

> <Gold.PLP.ligand.torsion>
0.4492

> <Gold.PLP.Chemscore.Hbond>
2.8553

> <Gold.PLP.Chemscore.CHOScore>
1.0000

> <Gold.PLP.Chemscore.Metal>
0.0000

> <Gold.Chemscore.Hbonds>
donor molecule, donor type, donor heavy atom, donor atom, acceptor molecule, acceptor atom, score
      L1  H     9    29       P1  7948  1.00
      L1  H    12    30       P1  7948  0.99
      P1  H  7989  7998       L1     4  0.76
      L1  C     5    26       P1  8028  1.00

> <Gold.PLP.Chemscore.Internal.Correction>
0.0562

> <Gold.Rescore>
     Score         DG    S(hbond)    S(metal)    S(lipo)     H(rot)  DE(clash)    DE(int)     intcor
     13.62     -16.96       1.93        0.00      82.05       1.79       1.71       1.63       ----

> <Gold.Chemscore.Fitness>
13.6222

> <Gold.Chemscore.DG>
-16.9583

> <Gold.Chemscore.ZeroCoef>
-5.4800

> <Gold.Chemscore.Hbond>
1.9336

> <Gold.Chemscore.Metal>
0.0000

> <Gold.Chemscore.Lipo>
82.0493

> <Gold.Chemscore.Internal_Hbond>
0.0000

> <Gold.Chemscore.DEClash>
1.7107

> <Gold.Chemscore.DEInternal>
1.6254

> <Gold.Chemscore.Rot>
1.7890

> <Gold.Chemscore.Internal.Correction>
   9.000000E+99

> <Gold.Chemscore.Hbonds>
donor molecule, donor type, donor heavy atom, donor atom, acceptor molecule, acceptor atom, score
      L1  H     9    29       P1  7948  0.92
      L1  H    12    30       P1  7948  0.87
      P1  H  7989  7998       L1     4  0.12

> <Gold.Chemscore.Hbond.Weighted>
-6.4584

> <Gold.Chemscore.Metal.Weighted>
-0.0000

> <Gold.Chemscore.Lipo.Weighted>
-9.5998

> <Gold.Chemscore.Internal_Hbond.Weighted>
0.0000

> <Gold.Chemscore.DEClash.Weighted>
1.7107

> <Gold.Chemscore.DEInternal.Weighted>
1.6254

> <Gold.Chemscore.Rot.Weighted>
4.5799

> <Gold.Chemscore.Internal.Correction.Weighted>
   9.000000E+99

> <Gold.Protein.RotatedTorsions>
[ 6907 6896 6895 6894 ] final -123.82 input  -60.11 | X-H torsion
[ 7974 7965 7964 7962 ] final -169.16 input  175.53 | X-H torsion
[ 8008 7997 7996 7995 ] final   45.32 input   59.86 | X-H torsion
[ 10167 10162 10161 10158 ] final -157.08 input  -65.29 | X-H torsion
[ 10718 10713 10712 10709 ] final  -28.37 input   66.30 | X-H torsion
[ 10763 10752 10751 10750 ] final  135.38 input  -60.55 | X-H torsion
[ 11005 11000 10999 10996 ] final    5.72 input  -57.11 | X-H torsion

> <Gold.Protein.ActiveResidues>
 VAL166  LYS551  ARG553  GLY616  TRP617  ASP618  TYR619  PRO620  LYS621  CYS622 
 ASP623  PHE694  ASN695  SER759  ASP760  ASP761  ALA762  ILE779  LEU786  VAL792 
 PHE793  MET794  SER795  GLU796  ALA797  LYS798  CYS799  TRP800  GLU811  SER814 

> <Gold.Protein.RotatedAtoms>
  150.8707  133.7509  159.2961 H   0  0  0  0  0  0  0  0  0  0  0  0  # atno 6907 bound_to 6896
  151.5122  135.1064  159.9866 H   0  0  0  0  0  0  0  0  0  0  0  0  # atno 6908 bound_to 6896
  152.4693  133.7949  159.6977 H   0  0  0  0  0  0  0  0  0  0  0  0  # atno 6909 bound_to 6896
  144.7190  140.2263  143.6310 H   0  0  0  0  0  0  0  0  0  0  0  0  # atno 7974 bound_to 7965
  155.3340  140.3404  155.4239 H   0  0  0  0  0  0  0  0  0  0  0  0  # atno 8008 bound_to 7997
  156.1847  140.1676  156.8244 H   0  0  0  0  0  0  0  0  0  0  0  0  # atno 8009 bound_to 7997
  154.5373  140.0732  156.8433 H   0  0  0  0  0  0  0  0  0  0  0  0  # atno 8010 bound_to 7997
  139.6799  143.9599  152.2331 H   0  0  0  0  0  0  0  0  0  0  0  0  # atno 10167 bound_to 10162
  156.4261  130.4436  149.7150 H   0  0  0  0  0  0  0  0  0  0  0  0  # atno 10718 bound_to 10713
  153.8391  135.3094  155.3425 H   0  0  0  0  0  0  0  0  0  0  0  0  # atno 10763 bound_to 10752
  154.7940  135.4766  154.0122 H   0  0  0  0  0  0  0  0  0  0  0  0  # atno 10764 bound_to 10752
  153.1587  135.6857  153.8866 H   0  0  0  0  0  0  0  0  0  0  0  0  # atno 10765 bound_to 10752
  140.5676  134.0133  155.7996 H   0  0  0  0  0  0  0  0  0  0  0  0  # atno 11005 bound_to 11000
  145.8453  139.2149  143.1803 LP  0  0  0  0  0  0  0  0  0  0  0  0  # atno 17320 bound_to 7965
  146.0309  140.8258  142.9876 LP  0  0  0  0  0  0  0  0  0  0  0  0  # atno 17321 bound_to 7965
  139.9386  144.6696  150.8289 LP  0  0  0  0  0  0  0  0  0  0  0  0  # atno 17342 bound_to 10162
  140.7648  143.3260  151.2516 LP  0  0  0  0  0  0  0  0  0  0  0  0  # atno 17343 bound_to 10162
  156.4071  130.7703  151.2715 LP  0  0  0  0  0  0  0  0  0  0  0  0  # atno 17370 bound_to 10713
  157.7508  131.0222  150.3784 LP  0  0  0  0  0  0  0  0  0  0  0  0  # atno 17371 bound_to 10713
  141.1076  133.9668  157.2969 LP  0  0  0  0  0  0  0  0  0  0  0  0  # atno 17394 bound_to 11000
  139.9377  135.0194  156.8610 LP  0  0  0  0  0  0  0  0  0  0  0  0  # atno 17395 bound_to 11000

$$$$
