AV-unprocessed.smi:1762|AV-procd|sdf|7114|dock7
  -GOLD-   22720 8343D 1   1.00000     0.00000
 Structure written by MMmdl.
 53 54  0  0  0  0  0  0  0  0  2 V2000
  147.2965  130.5061  153.3422 C   0  0  0  0  0  0  0  0  0  0  0  0
  146.5925  131.7470  152.7828 C   0  0  1  0  0  0  0  0  0  0  0  0
  147.5069  132.9915  152.8125 C   0  0  0  0  0  0  0  0  0  0  0  0
  146.8474  134.1723  152.1828 N   0  3  2  0  0  0  0  0  0  0  0  0
  145.8026  134.8437  153.0355 C   0  0  1  0  0  0  0  0  0  0  0  0
  146.4306  135.4486  154.3095 C   0  0  0  0  0  0  0  0  0  0  0  0
  145.9111  135.2519  155.4086 O   0  0  0  0  0  0  0  0  0  0  0  0
  147.5406  136.1860  154.1450 N   0  0  0  0  0  0  0  0  0  0  0  0
  148.2654  136.8547  155.2194 C   0  0  0  0  0  0  0  0  0  0  0  0
  149.3151  137.8344  154.6676 C   0  0  0  0  0  0  0  0  0  0  0  0
  148.7177  139.1871  154.3283 C   0  0  0  0  0  0  0  0  0  0  0  0
  147.5941  139.2879  153.4803 C   0  0  0  0  0  0  0  0  0  0  0  0
  147.0828  140.5686  153.1937 C   0  0  0  0  0  0  0  0  0  0  0  0
  147.7119  141.6932  153.7618 C   0  0  0  0  0  0  0  0  0  0  0  0
  148.8290  141.4862  154.5954 C   0  0  0  0  0  0  0  0  0  0  0  0
  149.3270  140.2625  154.8770 N   0  0  0  0  0  0  0  0  0  0  0  0
  144.9537  135.9171  152.2743 C   0  0  0  0  0  0  0  0  0  0  0  0
  145.7456  137.1801  151.8765 C   0  0  0  0  0  0  0  0  0  0  0  0
  143.6627  136.3141  153.0177 C   0  0  0  0  0  0  0  0  0  0  0  0
  146.4344  133.7888  150.8046 C   0  0  0  0  0  0  0  0  0  0  0  0
  145.5177  132.5489  150.8196 C   0  0  1  0  0  0  0  0  0  0  0  0
  145.1235  132.1076  149.4061 C   0  0  0  0  0  0  0  0  0  0  0  0
  146.2163  131.4725  151.4372 O   0  0  0  0  0  0  0  0  0  0  0  0
  147.5907  130.6572  154.3810 H   0  0  0  0  0  0  0  0  0  0  0  0
  148.1947  130.2689  152.7712 H   0  0  0  0  0  0  0  0  0  0  0  0
  146.6402  129.6362  153.3069 H   0  0  0  0  0  0  0  0  0  0  0  0
  145.6947  131.9211  153.3771 H   0  0  0  0  0  0  0  0  0  0  0  0
  147.8390  133.1953  153.8298 H   0  0  0  0  0  0  0  0  0  0  0  0
  148.4184  132.7792  152.2516 H   0  0  0  0  0  0  0  0  0  0  0  0
  145.1040  134.0713  153.3583 H   0  0  0  0  0  0  0  0  0  0  0  0
  147.9087  136.2952  153.2110 H   0  0  0  0  0  0  0  0  0  0  0  0
  147.5649  137.3721  155.8775 H   0  0  0  0  0  0  0  0  0  0  0  0
  148.7541  136.0911  155.8252 H   0  0  0  0  0  0  0  0  0  0  0  0
  150.1177  137.9680  155.3944 H   0  0  0  0  0  0  0  0  0  0  0  0
  149.7812  137.4242  153.7704 H   0  0  0  0  0  0  0  0  0  0  0  0
  147.1339  138.4069  153.0573 H   0  0  0  0  0  0  0  0  0  0  0  0
  146.2241  140.6862  152.5491 H   0  0  0  0  0  0  0  0  0  0  0  0
  147.3477  142.6904  153.5637 H   0  0  0  0  0  0  0  0  0  0  0  0
  149.3365  142.3255  155.0473 H   0  0  0  0  0  0  0  0  0  0  0  0
  144.5904  135.4588  151.3557 H   0  0  0  0  0  0  0  0  0  0  0  0
  146.0512  137.7578  152.7488 H   0  0  0  0  0  0  0  0  0  0  0  0
  145.1387  137.8363  151.2522 H   0  0  0  0  0  0  0  0  0  0  0  0
  146.6443  136.9391  151.3094 H   0  0  0  0  0  0  0  0  0  0  0  0
  143.8687  136.8882  153.9216 H   0  0  0  0  0  0  0  0  0  0  0  0
  143.0854  135.4342  153.3027 H   0  0  0  0  0  0  0  0  0  0  0  0
  143.0240  136.9307  152.3845 H   0  0  0  0  0  0  0  0  0  0  0  0
  145.9802  134.6111  150.2567 H   0  0  0  0  0  0  0  0  0  0  0  0
  147.3382  133.5519  150.2408 H   0  0  0  0  0  0  0  0  0  0  0  0
  144.6055  132.7592  151.3798 H   0  0  0  0  0  0  0  0  0  0  0  0
  144.5737  132.8941  148.8884 H   0  0  0  0  0  0  0  0  0  0  0  0
  144.4864  131.2234  149.4380 H   0  0  0  0  0  0  0  0  0  0  0  0
  146.0019  131.8638  148.8081 H   0  0  0  0  0  0  0  0  0  0  0  0
  147.5696  134.8702  152.0713 H   0  0  0  0  0  0  0  0  0  0  0  0
  1  2  1  0  0  0  0
  1 24  1  0  0  0  0
  1 25  1  0  0  0  0
  1 26  1  0  0  0  0
  2 23  1  0  0  0  0
  2  3  1  0  0  0  0
  2 27  1  0  0  0  0
  3  4  1  0  0  0  0
  3 28  1  0  0  0  0
  3 29  1  0  0  0  0
  4  5  1  0  0  0  0
  4 20  1  0  0  0  0
  4 53  1  0  0  0  0
  5  6  1  0  0  0  0
  5 17  1  0  0  0  0
  5 30  1  0  0  0  0
  6  7  2  0  0  0  0
  6  8  1  0  0  0  0
  8  9  1  0  0  0  0
  8 31  1  0  0  0  0
  9 10  1  0  0  0  0
  9 32  1  0  0  0  0
  9 33  1  0  0  0  0
 10 11  1  0  0  0  0
 10 34  1  0  0  0  0
 10 35  1  0  0  0  0
 11 16  1  0  0  0  0
 11 12  2  0  0  0  0
 12 13  1  0  0  0  0
 12 36  1  0  0  0  0
 13 14  2  0  0  0  0
 13 37  1  0  0  0  0
 14 15  1  0  0  0  0
 14 38  1  0  0  0  0
 15 16  2  0  0  0  0
 15 39  1  0  0  0  0
 17 18  1  0  0  0  0
 17 19  1  0  0  0  0
 17 40  1  0  0  0  0
 18 41  1  0  0  0  0
 18 42  1  0  0  0  0
 18 43  1  0  0  0  0
 19 44  1  0  0  0  0
 19 45  1  0  0  0  0
 19 46  1  0  0  0  0
 20 21  1  0  0  0  0
 20 47  1  0  0  0  0
 20 48  1  0  0  0  0
 21 22  1  0  0  0  0
 21 23  1  0  0  0  0
 21 49  1  0  0  0  0
 22 50  1  0  0  0  0
 22 51  1  0  0  0  0
 22 52  1  0  0  0  0
M  CHG  1   4   1
M  END
> <s_m_source_file>
AV-unprocessed.smi

> <i_m_source_file_index>
1762

> <i_lp_mmshare_version>
43012

> <i_f3d_flags>
0

> <s_epik_input>
W0NIM11bQ0BASF0xW0NIMl1OKFtDSDJdW0NASF0oTzEpW0NIM10pW0NAQEhdKFtDSF0oW0NIM10pW0NIM10pQyg9TylbTkhdW0NIMl1bQ0gyXWMyW2NIXVtjSF1bY0hdW2NIXW4y

> <s_epik_cmdline>
J2VwaWtfcHl0aG9uJywgJy1waCcsICc3LjAnLCAnLXRuJywgJzgnLCAnLW1hJywgJzIwMCcsICctbWV0YWxfYmluZGluZycsICctaW1hZScsICc8aW5maWxlLm1hZT4nLCAnLW9tYWUnLCAnPG91dGZpbGUubWFlPic=

> <r_epik_Ionization_Penalty>
2.27005

> <r_epik_Ionization_Penalty_Charging>
2.24983

> <r_epik_Ionization_Penalty_Neutral>
0.0202209

> <r_epik_State_Penalty>
2.40228

> <r_epik_Charging_Adjusted_Penalty>
4.65211

> <i_epik_Tot_Q>
1

> <i_epik_Tot_abs_Q>
1

> <r_epik_Metal_State_Penalty>
2.40762

> <b_epik_Metal_Only>
0

> <s_lp_Force_Field>
OPLS_2005

> <r_lp_Energy>
25.1603

> <b_lp_Chiralities_Consistent>
1

> <s_lp_Variant>
AV-unprocessed.smi:1762-16

> <Gold.Version>
5.8.1

> <Gold.Id.Protein>
6NUR|6NUR_protein|mol2

> <Gold.PLP.Fitness>
46.1508

> <Gold.PLP.PLP>
-35.6572

> <Gold.PLP.part.hbond>
-2.0000

> <Gold.PLP.part.metal>
0.0000

> <Gold.PLP.part.buried>
-4.6744

> <Gold.PLP.part.nonpolar>
-30.3033

> <Gold.PLP.part.repulsive>
0.6747

> <Gold.PLP.ligand.clash>
0.0000

> <Gold.PLP.ligand.torsion>
0.9006

> <Gold.PLP.Chemscore.Hbond>
3.0000

> <Gold.PLP.Chemscore.CHOScore>
1.0000

> <Gold.PLP.Chemscore.Metal>
0.0000

> <Gold.Chemscore.Hbonds>
donor molecule, donor type, donor heavy atom, donor atom, acceptor molecule, acceptor atom, score
      L1  H     4    53       P1  7948  2.00
      L1  H     8    31       P1  7948  1.00
      L1  C    15    39       P1  8028  1.00

> <Gold.PLP.Chemscore.Internal.Correction>
0.2948

> <Gold.Rescore>
     Score         DG    S(hbond)    S(metal)    S(lipo)     H(rot)  DE(clash)    DE(int)     intcor
     18.40     -19.45       1.85        0.00     103.10       1.66       0.22       0.84       ----

> <Gold.Chemscore.Fitness>
18.3982

> <Gold.Chemscore.DG>
-19.4537

> <Gold.Chemscore.ZeroCoef>
-5.4800

> <Gold.Chemscore.Hbond>
1.8471

> <Gold.Chemscore.Metal>
0.0000

> <Gold.Chemscore.Lipo>
103.1024

> <Gold.Chemscore.Internal_Hbond>
0.0000

> <Gold.Chemscore.DEClash>
0.2163

> <Gold.Chemscore.DEInternal>
0.8392

> <Gold.Chemscore.Rot>
1.6635

> <Gold.Chemscore.Internal.Correction>
   9.000000E+99

> <Gold.Chemscore.Hbonds>
donor molecule, donor type, donor heavy atom, donor atom, acceptor molecule, acceptor atom, score
      L1  H     4    53       P1  7948  0.82
      L1  H     8    31       P1  7948  1.00

> <Gold.Chemscore.Hbond.Weighted>
-6.1693

> <Gold.Chemscore.Metal.Weighted>
-0.0000

> <Gold.Chemscore.Lipo.Weighted>
-12.0630

> <Gold.Chemscore.Internal_Hbond.Weighted>
0.0000

> <Gold.Chemscore.DEClash.Weighted>
0.2163

> <Gold.Chemscore.DEInternal.Weighted>
0.8392

> <Gold.Chemscore.Rot.Weighted>
4.2586

> <Gold.Chemscore.Internal.Correction.Weighted>
   9.000000E+99

> <Gold.Protein.RotatedTorsions>
[ 6907 6896 6895 6894 ] final -121.83 input  -60.11 | X-H torsion
[ 7974 7965 7964 7962 ] final  133.63 input  175.53 | X-H torsion
[ 8008 7997 7996 7995 ] final -118.45 input   59.86 | X-H torsion
[ 10167 10162 10161 10158 ] final  -97.71 input  -65.29 | X-H torsion
[ 10718 10713 10712 10709 ] final  -50.80 input   66.30 | X-H torsion
[ 10763 10752 10751 10750 ] final -146.84 input  -60.55 | X-H torsion
[ 11005 11000 10999 10996 ] final  161.46 input  -57.11 | X-H torsion

> <Gold.Protein.ActiveResidues>
 VAL166  LYS551  ARG553  GLY616  TRP617  ASP618  TYR619  PRO620  LYS621  CYS622 
 ASP623  PHE694  ASN695  SER759  ASP760  ASP761  ALA762  ILE779  LEU786  VAL792 
 PHE793  MET794  SER795  GLU796  ALA797  LYS798  CYS799  TRP800  GLU811  SER814 

> <Gold.Protein.RotatedAtoms>
  150.8520  133.7773  159.3022 H   0  0  0  0  0  0  0  0  0  0  0  0  # atno 6907 bound_to 6896
  151.5442  135.1066  159.9943 H   0  0  0  0  0  0  0  0  0  0  0  0  # atno 6908 bound_to 6896
  152.4560  133.7680  159.6839 H   0  0  0  0  0  0  0  0  0  0  0  0  # atno 6909 bound_to 6896
  144.9845  139.4469  143.5370 H   0  0  0  0  0  0  0  0  0  0  0  0  # atno 7974 bound_to 7965
  155.0999  140.0396  157.2694 H   0  0  0  0  0  0  0  0  0  0  0  0  # atno 8008 bound_to 7997
  154.6766  140.2624  155.6926 H   0  0  0  0  0  0  0  0  0  0  0  0  # atno 8009 bound_to 7997
  156.2679  140.2787  156.1295 H   0  0  0  0  0  0  0  0  0  0  0  0  # atno 8010 bound_to 7997
  140.2806  143.3285  152.0445 H   0  0  0  0  0  0  0  0  0  0  0  0  # atno 10167 bound_to 10162
  156.1767  130.4150  149.9566 H   0  0  0  0  0  0  0  0  0  0  0  0  # atno 10718 bound_to 10713
  154.8316  135.3376  154.6724 H   0  0  0  0  0  0  0  0  0  0  0  0  # atno 10763 bound_to 10752
  153.7344  135.6950  153.4986 H   0  0  0  0  0  0  0  0  0  0  0  0  # atno 10764 bound_to 10752
  153.2289  135.4423  155.0525 H   0  0  0  0  0  0  0  0  0  0  0  0  # atno 10765 bound_to 10752
  140.2160  134.8232  157.3170 H   0  0  0  0  0  0  0  0  0  0  0  0  # atno 11005 bound_to 11000
  146.3416  139.9139  142.8776 LP  0  0  0  0  0  0  0  0  0  0  0  0  # atno 17320 bound_to 7965
  145.2373  140.9996  143.3956 LP  0  0  0  0  0  0  0  0  0  0  0  0  # atno 17321 bound_to 7965
  139.4964  144.6594  151.6498 LP  0  0  0  0  0  0  0  0  0  0  0  0  # atno 17342 bound_to 10162
  140.5815  143.9937  150.6271 LP  0  0  0  0  0  0  0  0  0  0  0  0  # atno 17343 bound_to 10162
  156.7349  130.9057  151.3628 LP  0  0  0  0  0  0  0  0  0  0  0  0  # atno 17370 bound_to 10713
  157.6841  130.9168  150.0340 LP  0  0  0  0  0  0  0  0  0  0  0  0  # atno 17371 bound_to 10713
  140.1900  134.4383  155.7721 LP  0  0  0  0  0  0  0  0  0  0  0  0  # atno 17394 bound_to 11000
  141.2225  133.7023  156.8012 LP  0  0  0  0  0  0  0  0  0  0  0  0  # atno 17395 bound_to 11000

$$$$
