#       Name:                AV-unprocessed.smi:275
#       Creating user name   scv26
#       Creation time:       Thu Mar 26 21:30:56 2020


#       File generated by GOLD software.
#

@<TRIPOS>MOLECULE
AV-unprocessed.smi:275
    73    77     1
SMALL
NO_CHARGES


@<TRIPOS>ATOM
      1 ****        -4.1461   2.2670   1.9021 C.3            1 S1                 0.0000
      2 ****        -3.2813   1.0947   2.4113 C.3            1 S1                 0.0000
      3 ****        -2.0804   1.6353   3.2048 C.3            1 S1                 0.0000
      4 ****        -2.8149   0.0758   1.3475 C.3            1 S1                 0.0000
      5 ****        -2.4654   0.6546   0.0556 N.3            1 S1                 0.0000
      6 ****        -1.1156   1.0727  -0.0855 C.ar           1 S1                 0.0000
      7 ****        -0.9231   2.3510  -0.4977 N.ar           1 S1                 0.0000
      8 ****         0.3060   2.8504  -0.6543 C.ar           1 S1                 0.0000
      9 ****         1.4798   2.2504  -0.4580 N.ar           1 S1                 0.0000
     10 ****         1.3059   0.9647  -0.0425 C.ar           1 S1                 0.0000
     11 ****         0.0611   0.3041   0.1677 C.ar           1 S1                 0.0000
     12 ****         0.2940  -0.9997   0.5938 N.2            1 S1                 0.0000
     13 ****         1.5941  -1.1020   0.6333 C.2            1 S1                 0.0000
     14 ****         2.2797   0.0300   0.2582 N.pl3          1 S1                 0.0000
     15 ****         3.7210   0.1992   0.1989 C.3            1 S1                 0.0000
     16 ****         4.2783   0.1692  -1.2463 C.3            1 S1                 0.0000
     17 ****         3.8327  -1.0884  -2.0315 C.3            1 S1                 0.0000
     18 ****         4.3269  -2.2712  -1.4369 O.3            1 S1                 0.0000
     19 ****         5.8157   0.3627  -1.2707 C.3            1 S1                 0.0000
     20 ****         6.3025   1.6692  -0.6688 C.3            1 S1                 0.0000
     21 ****         7.7107   1.7846  -1.2424 C.3            1 S1                 0.0000
     22 ****         7.6588   1.1628  -2.5215 O.3            1 S1                 0.0000
     23 ****         6.4294   0.4599  -2.6714 C.3            1 S1                 0.0000
     24 ****        -2.8096  -0.5858  -0.6234 C.3            1 S1                 0.0000
     25 ****        -3.7414  -0.8873   0.5653 C.3            1 S1                 0.0000
     26 ****        -3.7274  -2.3342   1.0880 C.3            1 S1                 0.0000
     27 ****        -4.4467  -3.3240   0.1580 C.3            1 S1                 0.0000
     28 ****        -5.9026  -2.9045  -0.0700 C.3            1 S1                 0.0000
     29 ****        -5.9802  -1.4590  -0.5726 C.3            1 S1                 0.0000
     30 ****        -5.2195  -0.4954   0.3552 C.3            1 S1                 0.0000
     31 ****        -3.6445   2.8349   1.1182 H              1 S1                 0.0000
     32 ****        -4.3600   2.9637   2.7129 H              1 S1                 0.0000
     33 ****        -5.1114   1.9417   1.5236 H              1 S1                 0.0000
     34 ****        -3.8926   0.5509   3.1325 H              1 S1                 0.0000
     35 ****        -1.4189   2.2267   2.5712 H              1 S1                 0.0000
     36 ****        -1.4918   0.8234   3.6327 H              1 S1                 0.0000
     37 ****        -2.4051   2.2715   4.0284 H              1 S1                 0.0000
     38 ****        -1.9851  -0.5153   1.7368 H              1 S1                 0.0000
     39 ****         0.3546   3.8776  -0.9845 H              1 S1                 0.0000
     40 ****         2.0919  -2.0139   0.9299 H              1 S1                 0.0000
     41 ****         3.9605   1.1454   0.6842 H              1 S1                 0.0000
     42 ****         4.1867  -0.5820   0.8012 H              1 S1                 0.0000
     43 ****         3.8424   1.0222  -1.7687 H              1 S1                 0.0000
     44 ****         2.7460  -1.1516  -2.0867 H              1 S1                 0.0000
     45 ****         4.1801  -1.0450  -3.0635 H              1 S1                 0.0000
     46 ****         4.0503  -3.0088  -1.9593 H              1 S1                 0.0000
     47 ****         6.2967  -0.4593  -0.7379 H              1 S1                 0.0000
     48 ****         5.6883   2.5020  -1.0147 H              1 S1                 0.0000
     49 ****         6.2977   1.6713   0.4213 H              1 S1                 0.0000
     50 ****         8.0482   2.8187  -1.3138 H              1 S1                 0.0000
     51 ****         8.4207   1.2380  -0.6205 H              1 S1                 0.0000
     52 ****         6.5923  -0.5183  -3.1245 H              1 S1                 0.0000
     53 ****         5.7858   1.0371  -3.3368 H              1 S1                 0.0000
     54 ****        -3.3208  -0.4314  -1.5737 H              1 S1                 0.0000
     55 ****        -1.9839  -1.2913  -0.7183 H              1 S1                 0.0000
     56 ****        -2.7009  -2.6748   1.2293 H              1 S1                 0.0000
     57 ****        -4.1860  -2.3740   2.0769 H              1 S1                 0.0000
     58 ****        -3.9244  -3.3750  -0.7981 H              1 S1                 0.0000
     59 ****        -4.4126  -4.3272   0.5837 H              1 S1                 0.0000
     60 ****        -6.3806  -3.5767  -0.7832 H              1 S1                 0.0000
     61 ****        -6.4584  -2.9956   0.8640 H              1 S1                 0.0000
     62 ****        -5.5640  -1.4020  -1.5790 H              1 S1                 0.0000
     63 ****        -7.0228  -1.1506  -0.6545 H              1 S1                 0.0000
     64 ****        -5.7330  -0.4384   1.3157 H              1 S1                 0.0000
     65 ****        -5.2884   0.4964  -0.0902 H              1 S1                 0.0000
     66 ****        -2.8915   1.5124  -0.2320 LP             1 S1                 0.0000
     67 ****        -1.7160   2.9300  -0.6878 LP             1 S1                 0.0000
     68 ****         2.3692   2.6858  -0.5971 LP             1 S1                 0.0000
     69 ****        -0.3827  -1.7006   0.8191 LP             1 S1                 0.0000
     70 ****         3.9633  -2.3596  -0.5096 LP             1 S1                 0.0000
     71 ****         5.3258  -2.2388  -1.4016 LP             1 S1                 0.0000
     72 ****         8.4203   0.5206  -2.6087 LP             1 S1                 0.0000
     73 ****         7.7294   1.8621  -3.2329 LP             1 S1                 0.0000
@<TRIPOS>BOND
    1    1    2 1     
    2    1   31 1     
    3    1   32 1     
    4    1   33 1     
    5    2    3 1     
    6    2    4 1     
    7    2   34 1     
    8    3   35 1     
    9    3   36 1     
   10    3   37 1     
   11    4   25 1     
   12    4    5 1     
   13    4   38 1     
   14    5    6 1     
   15    5   24 1     
   16    6   11 ar    
   17    6    7 ar    
   18    7    8 ar    
   19    8    9 ar    
   20    8   39 1     
   21    9   10 ar    
   22   10   14 1     
   23   10   11 ar    
   24   11   12 1     
   25   12   13 2     
   26   13   14 1     
   27   13   40 1     
   28   14   15 1     
   29   15   16 1     
   30   15   41 1     
   31   15   42 1     
   32   16   17 1     
   33   16   19 1     
   34   16   43 1     
   35   17   18 1     
   36   17   44 1     
   37   17   45 1     
   38   18   46 1     
   39   19   23 1     
   40   19   20 1     
   41   19   47 1     
   42   20   21 1     
   43   20   48 1     
   44   20   49 1     
   45   21   22 1     
   46   21   50 1     
   47   21   51 1     
   48   22   23 1     
   49   23   52 1     
   50   23   53 1     
   51   24   25 1     
   52   24   54 1     
   53   24   55 1     
   54   25   30 1     
   55   25   26 1     
   56   26   27 1     
   57   26   56 1     
   58   26   57 1     
   59   27   28 1     
   60   27   58 1     
   61   27   59 1     
   62   28   29 1     
   63   28   60 1     
   64   28   61 1     
   65   29   30 1     
   66   29   62 1     
   67   29   63 1     
   68   30   64 1     
   69   30   65 1     
   70    5   66 1     
   71    7   67 1     
   72    9   68 1     
   73   12   69 1     
   74   18   70 1     
   75   18   71 1     
   76   22   72 1     
   77   22   73 1     
@<TRIPOS>SUBSTRUCTURE
      1 S1             1
@<TRIPOS>SET
LONE_PAIRS      STATIC     ATOMS    <user>   **** ""
8 66 67 68 69 70 71 72 73
DONOR_HYDROGENS      STATIC     ATOMS    <user>   **** ""
1 46
ATOM$BLUE        STATIC     ATOMS    COLORGROUP SYSTEM
8 66 67 68 69 70 71 72 73
ATOM$RED        STATIC     ATOMS    COLORGROUP SYSTEM
1 46
