AV-unprocessed.smi:1215|AV-procd|sdf|5095|dock10
  -GOLD-   22720 4143D 1   1.00000     0.00000
 Structure written by MMmdl.
 46 47  0  0  0  0  0  0  0  0  2 V2000
  150.8275  142.4493  158.5645 C   0  0  0  0  0  0  0  0  0  0  0  0
  150.9680  142.7920  157.0767 C   0  0  0  0  0  0  0  0  0  0  0  0
  150.7642  141.6275  156.2375 N   0  0  0  0  0  0  0  0  0  0  0  0
  149.8278  141.4484  155.2386 C   0  0  0  0  0  0  0  0  0  0  0  0
  150.0520  140.1949  154.7430 C   0  0  0  0  0  0  0  0  0  0  0  0
  149.3835  139.5067  153.6992 N   0  0  0  0  0  0  0  0  0  0  0  0
  148.0598  139.4413  153.4829 C   0  0  0  0  0  0  0  0  0  0  0  0
  147.1983  139.9652  154.1898 O   0  0  0  0  0  0  0  0  0  0  0  0
  147.7780  138.7178  152.3899 N   0  0  0  0  0  0  0  0  0  0  0  0
  146.4332  138.4540  151.8910 C   0  0  0  0  0  0  0  0  0  0  0  0
  145.7310  137.3616  152.7221 C   0  0  0  0  0  0  0  0  0  0  0  0
  146.1527  135.9801  152.3650 N   0  3  1  0  0  0  0  0  0  0  0  0
  146.0052  135.0433  153.5119 C   0  0  0  0  0  0  0  0  0  0  0  0
  146.6397  133.6772  153.2086 C   0  0  0  0  0  0  0  0  0  0  0  0
  146.0484  133.0686  151.9331 C   0  0  0  0  0  0  0  0  0  0  0  0
  146.1957  134.0573  150.7687 C   0  0  0  0  0  0  0  0  0  0  0  0
  145.5833  135.4374  151.0904 C   0  0  1  0  0  0  0  0  0  0  0  0
  144.0396  135.4122  151.0613 C   0  0  0  0  0  0  0  0  0  0  0  0
  151.1400  139.6723  155.4896 C   0  0  0  0  0  0  0  0  0  0  0  0
  151.5648  140.5438  156.3914 N   0  0  0  0  0  0  0  0  0  0  0  0
  150.9928  143.3316  159.1827 H   0  0  0  0  0  0  0  0  0  0  0  0
  151.5527  141.6919  158.8640 H   0  0  0  0  0  0  0  0  0  0  0  0
  149.8313  142.0672  158.7896 H   0  0  0  0  0  0  0  0  0  0  0  0
  150.2482  143.5614  156.7936 H   0  0  0  0  0  0  0  0  0  0  0  0
  151.9605  143.1975  156.8759 H   0  0  0  0  0  0  0  0  0  0  0  0
  149.1120  142.2146  154.9798 H   0  0  0  0  0  0  0  0  0  0  0  0
  149.9775  139.0161  153.0468 H   0  0  0  0  0  0  0  0  0  0  0  0
  148.5470  138.3262  151.8653 H   0  0  0  0  0  0  0  0  0  0  0  0
  145.8713  139.3883  151.8973 H   0  0  0  0  0  0  0  0  0  0  0  0
  146.5102  138.1405  150.8497 H   0  0  0  0  0  0  0  0  0  0  0  0
  145.9745  137.5339  153.7714 H   0  0  0  0  0  0  0  0  0  0  0  0
  144.6468  137.4509  152.6517 H   0  0  0  0  0  0  0  0  0  0  0  0
  146.4896  135.4653  154.3934 H   0  0  0  0  0  0  0  0  0  0  0  0
  144.9512  134.9253  153.7661 H   0  0  0  0  0  0  0  0  0  0  0  0
  147.7187  133.7914  153.0948 H   0  0  0  0  0  0  0  0  0  0  0  0
  146.4876  133.0000  154.0496 H   0  0  0  0  0  0  0  0  0  0  0  0
  146.5528  132.1314  151.6957 H   0  0  0  0  0  0  0  0  0  0  0  0
  144.9972  132.8240  152.0894 H   0  0  0  0  0  0  0  0  0  0  0  0
  147.2558  134.1816  150.5431 H   0  0  0  0  0  0  0  0  0  0  0  0
  145.7433  133.6421  149.8672 H   0  0  0  0  0  0  0  0  0  0  0  0
  145.9023  136.0908  150.2795 H   0  0  0  0  0  0  0  0  0  0  0  0
  143.6801  134.9819  150.1262 H   0  0  0  0  0  0  0  0  0  0  0  0
  143.6168  136.4147  151.1244 H   0  0  0  0  0  0  0  0  0  0  0  0
  143.6185  134.8195  151.8727 H   0  0  0  0  0  0  0  0  0  0  0  0
  151.6265  138.7113  155.4087 H   0  0  0  0  0  0  0  0  0  0  0  0
  147.1483  136.0407  152.2054 H   0  0  0  0  0  0  0  0  0  0  0  0
  1  2  1  0  0  0  0
  1 21  1  0  0  0  0
  1 22  1  0  0  0  0
  1 23  1  0  0  0  0
  2  3  1  0  0  0  0
  2 24  1  0  0  0  0
  2 25  1  0  0  0  0
  3 20  1  0  0  0  0
  3  4  1  0  0  0  0
  4  5  2  0  0  0  0
  4 26  1  0  0  0  0
  5  6  1  0  0  0  0
  5 19  1  0  0  0  0
  6  7  1  0  0  0  0
  6 27  1  0  0  0  0
  7  8  2  0  0  0  0
  7  9  1  0  0  0  0
  9 10  1  0  0  0  0
  9 28  1  0  0  0  0
 10 11  1  0  0  0  0
 10 29  1  0  0  0  0
 10 30  1  0  0  0  0
 11 12  1  0  0  0  0
 11 31  1  0  0  0  0
 11 32  1  0  0  0  0
 12 17  1  0  0  0  0
 12 13  1  0  0  0  0
 12 46  1  0  0  0  0
 13 14  1  0  0  0  0
 13 33  1  0  0  0  0
 13 34  1  0  0  0  0
 14 15  1  0  0  0  0
 14 35  1  0  0  0  0
 14 36  1  0  0  0  0
 15 16  1  0  0  0  0
 15 37  1  0  0  0  0
 15 38  1  0  0  0  0
 16 17  1  0  0  0  0
 16 39  1  0  0  0  0
 16 40  1  0  0  0  0
 17 18  1  0  0  0  0
 17 41  1  0  0  0  0
 18 42  1  0  0  0  0
 18 43  1  0  0  0  0
 18 44  1  0  0  0  0
 19 20  2  0  0  0  0
 19 45  1  0  0  0  0
M  CHG  1  12   1
M  END
> <s_m_source_file>
AV-unprocessed.smi

> <i_m_source_file_index>
1215

> <i_lp_mmshare_version>
43012

> <i_f3d_flags>
0

> <s_epik_input>
W0NIM11bQ0gyXW4xW2NIXWMoW2NIXW4xKVtOSF1DKD1PKVtOSF1bQ0gyXVtDSDJdTjJbQ0gyXVtDSDJdW0NIMl1bQ0gyXVtDQEhdMltDSDNd

> <s_epik_cmdline>
J2VwaWtfcHl0aG9uJywgJy1waCcsICc3LjAnLCAnLXRuJywgJzgnLCAnLW1hJywgJzIwMCcsICctbWV0YWxfYmluZGluZycsICctaW1hZScsICc8aW5maWxlLm1hZT4nLCAnLW9tYWUnLCAnPG91dGZpbGUubWFlPic=

> <r_lp_tautomer_probability>
1

> <r_epik_Ionization_Penalty>
0.00247187

> <r_epik_Ionization_Penalty_Charging>
0.00232067

> <r_epik_Ionization_Penalty_Neutral>
0.000151201

> <r_epik_State_Penalty>
0.00160128

> <r_epik_Charging_Adjusted_Penalty>
0.00392194

> <i_epik_Tot_Q>
1

> <i_epik_Tot_abs_Q>
1

> <r_epik_Metal_State_Penalty>
-0

> <b_epik_Metal_Only>
0

> <s_lp_Force_Field>
OPLS_2005

> <r_lp_Energy>
23.8911

> <b_lp_Chiralities_Consistent>
1

> <s_lp_Variant>
AV-unprocessed.smi:1215-2

> <Gold.Version>
5.8.1

> <Gold.Id.Protein>
6NUR|6NUR_protein|mol2

> <Gold.PLP.Fitness>
46.3354

> <Gold.PLP.PLP>
-37.9810

> <Gold.PLP.part.hbond>
-4.0000

> <Gold.PLP.part.metal>
0.0000

> <Gold.PLP.part.buried>
-2.2384

> <Gold.PLP.part.nonpolar>
-31.9525

> <Gold.PLP.part.repulsive>
0.3370

> <Gold.PLP.ligand.clash>
0.0000

> <Gold.PLP.ligand.torsion>
0.7797

> <Gold.PLP.Chemscore.Hbond>
2.4675

> <Gold.PLP.Chemscore.CHOScore>
0.8227

> <Gold.PLP.Chemscore.Metal>
0.0000

> <Gold.Chemscore.Hbonds>
donor molecule, donor type, donor heavy atom, donor atom, acceptor molecule, acceptor atom, score
      L1  H     6    27       P1  7957  0.06
      L1  H     9    28       P1  7948  0.40
      L1  H    12    46       P1  7948  2.00
      L1  C     4    26       P1  8028  0.84

> <Gold.PLP.Chemscore.Internal.Correction>
0.0434

> <Gold.Rescore>
     Score         DG    S(hbond)    S(metal)    S(lipo)     H(rot)  DE(clash)    DE(int)     intcor
     14.19     -15.90       1.48        0.00      81.65       1.59       0.95       0.76       ----

> <Gold.Chemscore.Fitness>
14.1945

> <Gold.Chemscore.DG>
-15.9045

> <Gold.Chemscore.ZeroCoef>
-5.4800

> <Gold.Chemscore.Hbond>
1.4802

> <Gold.Chemscore.Metal>
0.0000

> <Gold.Chemscore.Lipo>
81.6526

> <Gold.Chemscore.Internal_Hbond>
0.0000

> <Gold.Chemscore.DEClash>
0.9509

> <Gold.Chemscore.DEInternal>
0.7591

> <Gold.Chemscore.Rot>
1.5909

> <Gold.Chemscore.Internal.Correction>
   9.000000E+99

> <Gold.Chemscore.Hbonds>
donor molecule, donor type, donor heavy atom, donor atom, acceptor molecule, acceptor atom, score
      L1  H     6    27       P1  7957  0.06
      L1  H     9    28       P1  7948  0.38
      L1  H    12    46       P1  7948  1.00

> <Gold.Chemscore.Hbond.Weighted>
-4.9439

> <Gold.Chemscore.Metal.Weighted>
-0.0000

> <Gold.Chemscore.Lipo.Weighted>
-9.5534

> <Gold.Chemscore.Internal_Hbond.Weighted>
0.0000

> <Gold.Chemscore.DEClash.Weighted>
0.9509

> <Gold.Chemscore.DEInternal.Weighted>
0.7591

> <Gold.Chemscore.Rot.Weighted>
4.0728

> <Gold.Chemscore.Internal.Correction.Weighted>
   9.000000E+99

> <Gold.Protein.RotatedTorsions>
[ 6907 6896 6895 6894 ] final -137.42 input  -60.11 | X-H torsion
[ 7974 7965 7964 7962 ] final    9.63 input  175.53 | X-H torsion
[ 8008 7997 7996 7995 ] final   48.28 input   59.86 | X-H torsion
[ 10167 10162 10161 10158 ] final   97.05 input  -65.29 | X-H torsion
[ 10718 10713 10712 10709 ] final -178.28 input   66.30 | X-H torsion
[ 10763 10752 10751 10750 ] final -146.51 input  -60.55 | X-H torsion
[ 11005 11000 10999 10996 ] final  138.60 input  -57.11 | X-H torsion

> <Gold.Protein.ActiveResidues>
 VAL166  LYS551  ARG553  GLY616  TRP617  ASP618  TYR619  PRO620  LYS621  CYS622 
 ASP623  PHE694  ASN695  SER759  ASP760  ASP761  ALA762  ILE779  LEU786  VAL792 
 PHE793  MET794  SER795  GLU796  ALA797  LYS798  CYS799  TRP800  GLU811  SER814 

> <Gold.Protein.RotatedAtoms>
  151.0222  133.5866  159.2669 H   0  0  0  0  0  0  0  0  0  0  0  0  # atno 6907 bound_to 6896
  151.2978  135.0759  159.9237 H   0  0  0  0  0  0  0  0  0  0  0  0  # atno 6908 bound_to 6896
  152.5326  133.9909  159.7904 H   0  0  0  0  0  0  0  0  0  0  0  0  # atno 6909 bound_to 6896
  146.2401  139.9755  142.8442 H   0  0  0  0  0  0  0  0  0  0  0  0  # atno 7974 bound_to 7965
  155.3830  140.3429  155.4247 H   0  0  0  0  0  0  0  0  0  0  0  0  # atno 8008 bound_to 7997
  156.1600  140.1598  156.8662 H   0  0  0  0  0  0  0  0  0  0  0  0  # atno 8009 bound_to 7997
  154.5130  140.0785  156.8009 H   0  0  0  0  0  0  0  0  0  0  0  0  # atno 8010 bound_to 7997
  139.7837  144.6879  150.9988 H   0  0  0  0  0  0  0  0  0  0  0  0  # atno 10167 bound_to 10162
  156.8419  130.9689  151.3099 H   0  0  0  0  0  0  0  0  0  0  0  0  # atno 10718 bound_to 10713
  154.8332  135.3384  154.6672 H   0  0  0  0  0  0  0  0  0  0  0  0  # atno 10763 bound_to 10752
  153.7290  135.6953  153.4998 H   0  0  0  0  0  0  0  0  0  0  0  0  # atno 10764 bound_to 10752
  153.2326  135.4411  155.0564 H   0  0  0  0  0  0  0  0  0  0  0  0  # atno 10765 bound_to 10752
  140.0195  134.9403  157.0445 H   0  0  0  0  0  0  0  0  0  0  0  0  # atno 11005 bound_to 11000
  145.1641  140.9687  143.4360 LP  0  0  0  0  0  0  0  0  0  0  0  0  # atno 17320 bound_to 7965
  145.0089  139.3528  143.6130 LP  0  0  0  0  0  0  0  0  0  0  0  0  # atno 17321 bound_to 7965
  140.7819  143.4456  151.0488 LP  0  0  0  0  0  0  0  0  0  0  0  0  # atno 17342 bound_to 10162
  139.8135  143.7918  152.3173 LP  0  0  0  0  0  0  0  0  0  0  0  0  # atno 17343 bound_to 10162
  157.6351  130.8760  149.9344 LP  0  0  0  0  0  0  0  0  0  0  0  0  # atno 17370 bound_to 10713
  156.0876  130.3666  150.0457 LP  0  0  0  0  0  0  0  0  0  0  0  0  # atno 17371 bound_to 10713
  140.4412  134.1679  155.7174 LP  0  0  0  0  0  0  0  0  0  0  0  0  # atno 17394 bound_to 11000
  141.1765  133.8504  157.1405 LP  0  0  0  0  0  0  0  0  0  0  0  0  # atno 17395 bound_to 11000

$$$$
