AV-unprocessed.smi:2311|AV-procd|sdf|9262|dock10
  -GOLD-   2272012483D 1   1.00000     0.00000
 Structure written by MMmdl.
 40 41  0  0  0  0  0  0  0  0  1 V2000
  141.8192  134.6137  152.9200 C   0  0  0  0  0  0  0  0  0  0  0  0
  143.2135  134.4395  152.3560 C   0  0  0  0  0  0  0  0  0  0  0  0
  143.5312  133.3403  151.5340 C   0  0  0  0  0  0  0  0  0  0  0  0
  144.8443  133.2393  151.0408 C   0  0  0  0  0  0  0  0  0  0  0  0
  145.7787  134.2349  151.3862 C   0  0  0  0  0  0  0  0  0  0  0  0
  145.3783  135.3063  152.2162 C   0  0  0  0  0  0  0  0  0  0  0  0
  146.3938  136.2565  152.5052 N   0  0  0  0  0  0  0  0  0  0  0  0
  146.3164  137.3418  153.2958 C   0  0  0  0  0  0  0  0  0  0  0  0
  145.3168  137.6994  153.9200 O   0  0  0  0  0  0  0  0  0  0  0  0
  147.4812  138.0060  153.3237 N   0  0  0  0  0  0  0  0  0  0  0  0
  147.7345  139.2282  154.0818 C   0  0  1  0  0  0  0  0  0  0  0  0
  149.2050  139.6357  153.9326 C   0  0  0  0  0  0  0  0  0  0  0  0
  149.4653  140.9811  154.6239 C   0  0  0  0  0  0  0  0  0  0  0  0
  148.5935  141.9847  154.1067 O   0  0  0  0  0  0  0  0  0  0  0  0
  147.1901  141.7346  154.2398 C   0  0  0  0  0  0  0  0  0  0  0  0
  146.7589  141.7998  155.7209 C   0  0  0  0  0  0  0  0  0  0  0  0
  146.5026  142.8753  153.4714 C   0  0  0  0  0  0  0  0  0  0  0  0
  146.8397  140.3776  153.5829 C   0  0  0  0  0  0  0  0  0  0  0  0
  144.1093  135.3943  152.6873 N   0  0  0  0  0  0  0  0  0  0  0  0
  141.2049  133.7322  152.7339 H   0  0  0  0  0  0  0  0  0  0  0  0
  141.3312  135.4734  152.4604 H   0  0  0  0  0  0  0  0  0  0  0  0
  141.8605  134.7769  153.9972 H   0  0  0  0  0  0  0  0  0  0  0  0
  142.7908  132.5940  151.2858 H   0  0  0  0  0  0  0  0  0  0  0  0
  145.1312  132.4129  150.4073 H   0  0  0  0  0  0  0  0  0  0  0  0
  146.7913  134.1720  151.0150 H   0  0  0  0  0  0  0  0  0  0  0  0
  147.2819  136.0916  152.0555 H   0  0  0  0  0  0  0  0  0  0  0  0
  148.2498  137.6416  152.7803 H   0  0  0  0  0  0  0  0  0  0  0  0
  147.5339  139.0371  155.1373 H   0  0  0  0  0  0  0  0  0  0  0  0
  149.8563  138.8686  154.3530 H   0  0  0  0  0  0  0  0  0  0  0  0
  149.4625  139.7208  152.8758 H   0  0  0  0  0  0  0  0  0  0  0  0
  149.3583  140.8921  155.7048 H   0  0  0  0  0  0  0  0  0  0  0  0
  150.4936  141.2942  154.4438 H   0  0  0  0  0  0  0  0  0  0  0  0
  145.6761  141.7112  155.8150 H   0  0  0  0  0  0  0  0  0  0  0  0
  147.0506  142.7486  156.1719 H   0  0  0  0  0  0  0  0  0  0  0  0
  147.1950  141.0044  156.3235 H   0  0  0  0  0  0  0  0  0  0  0  0
  145.4173  142.7711  153.4935 H   0  0  0  0  0  0  0  0  0  0  0  0
  146.8117  142.8920  152.4257 H   0  0  0  0  0  0  0  0  0  0  0  0
  146.7512  143.8466  153.9004 H   0  0  0  0  0  0  0  0  0  0  0  0
  146.9593  140.4642  152.5017 H   0  0  0  0  0  0  0  0  0  0  0  0
  145.7881  140.1420  153.7520 H   0  0  0  0  0  0  0  0  0  0  0  0
  1  2  1  0  0  0  0
  1 20  1  0  0  0  0
  1 21  1  0  0  0  0
  1 22  1  0  0  0  0
  2 19  1  0  0  0  0
  2  3  2  0  0  0  0
  3  4  1  0  0  0  0
  3 23  1  0  0  0  0
  4  5  2  0  0  0  0
  4 24  1  0  0  0  0
  5  6  1  0  0  0  0
  5 25  1  0  0  0  0
  6  7  1  0  0  0  0
  6 19  2  0  0  0  0
  7  8  1  0  0  0  0
  7 26  1  0  0  0  0
  8  9  2  0  0  0  0
  8 10  1  0  0  0  0
 10 11  1  0  0  0  0
 10 27  1  0  0  0  0
 11 18  1  0  0  0  0
 11 12  1  0  0  0  0
 11 28  1  0  0  0  0
 12 13  1  0  0  0  0
 12 29  1  0  0  0  0
 12 30  1  0  0  0  0
 13 14  1  0  0  0  0
 13 31  1  0  0  0  0
 13 32  1  0  0  0  0
 14 15  1  0  0  0  0
 15 16  1  0  0  0  0
 15 17  1  0  0  0  0
 15 18  1  0  0  0  0
 16 33  1  0  0  0  0
 16 34  1  0  0  0  0
 16 35  1  0  0  0  0
 17 36  1  0  0  0  0
 17 37  1  0  0  0  0
 17 38  1  0  0  0  0
 18 39  1  0  0  0  0
 18 40  1  0  0  0  0
M  END
> <s_m_source_file>
AV-unprocessed.smi

> <i_m_source_file_index>
2311

> <i_lp_mmshare_version>
43012

> <i_f3d_flags>
0

> <s_epik_input>
W0NIM11jMVtjSF1bY0hdW2NIXWMobjEpW05IXUMoPU8pW05IXVtDQEBIXShbQ0gyXTIpW0NIMl1bQ0gyXU9DMihbQ0gzXSlbQ0gzXQ==

> <s_epik_cmdline>
J2VwaWtfcHl0aG9uJywgJy1waCcsICc3LjAnLCAnLXRuJywgJzgnLCAnLW1hJywgJzIwMCcsICctbWV0YWxfYmluZGluZycsICctaW1hZScsICc8aW5maWxlLm1hZT4nLCAnLW9tYWUnLCAnPG91dGZpbGUubWFlPic=

> <r_lp_tautomer_probability>
1

> <r_epik_Ionization_Penalty>
8.54628e-05

> <r_epik_Ionization_Penalty_Charging>
0

> <r_epik_Ionization_Penalty_Neutral>
8.54628e-05

> <r_epik_State_Penalty>
-0

> <r_epik_Charging_Adjusted_Penalty>
0

> <i_epik_Tot_Q>
0

> <i_epik_Tot_abs_Q>
0

> <r_epik_Metal_State_Penalty>
-0

> <b_epik_Metal_Only>
0

> <s_lp_Force_Field>
OPLS_2005

> <r_lp_Energy>
12.4955

> <b_lp_Chiralities_Consistent>
1

> <s_lp_Variant>
AV-unprocessed.smi:2311-2

> <Gold.Version>
5.8.1

> <Gold.Id.Protein>
6NUR|6NUR_protein|mol2

> <Gold.PLP.Fitness>
37.3789

> <Gold.PLP.PLP>
-30.8031

> <Gold.PLP.part.hbond>
-3.0000

> <Gold.PLP.part.metal>
0.0000

> <Gold.PLP.part.buried>
-3.1636

> <Gold.PLP.part.nonpolar>
-24.5202

> <Gold.PLP.part.repulsive>
0.4635

> <Gold.PLP.ligand.clash>
0.0000

> <Gold.PLP.ligand.torsion>
0.0123

> <Gold.PLP.Chemscore.Hbond>
2.2001

> <Gold.PLP.Chemscore.CHOScore>
0.0000

> <Gold.PLP.Chemscore.Metal>
0.0000

> <Gold.Chemscore.Hbonds>
donor molecule, donor type, donor heavy atom, donor atom, acceptor molecule, acceptor atom, score
      L1  H     7    26       P1  7948  1.00
      L1  H    10    27       P1  7948  0.98
      P1  H  8011  8017       L1    14  0.21

> <Gold.PLP.Chemscore.Internal.Correction>
0.0002

> <Gold.Rescore>
     Score         DG    S(hbond)    S(metal)    S(lipo)     H(rot)  DE(clash)    DE(int)     intcor
     16.14     -17.64       1.95        0.00      70.20       1.00       0.19       1.30       ----

> <Gold.Chemscore.Fitness>
16.1429

> <Gold.Chemscore.DG>
-17.6417

> <Gold.Chemscore.ZeroCoef>
-5.4800

> <Gold.Chemscore.Hbond>
1.9486

> <Gold.Chemscore.Metal>
0.0000

> <Gold.Chemscore.Lipo>
70.1995

> <Gold.Chemscore.Internal_Hbond>
0.0000

> <Gold.Chemscore.DEClash>
0.1943

> <Gold.Chemscore.DEInternal>
1.3045

> <Gold.Chemscore.Rot>
1.0000

> <Gold.Chemscore.Internal.Correction>
   9.000000E+99

> <Gold.Chemscore.Hbonds>
donor molecule, donor type, donor heavy atom, donor atom, acceptor molecule, acceptor atom, score
      L1  H     7    26       P1  7948  0.99
      L1  H    10    27       P1  7948  0.93
      P1  H  8011  8017       L1    14  0.03

> <Gold.Chemscore.Hbond.Weighted>
-6.5084

> <Gold.Chemscore.Metal.Weighted>
-0.0000

> <Gold.Chemscore.Lipo.Weighted>
-8.2133

> <Gold.Chemscore.Internal_Hbond.Weighted>
0.0000

> <Gold.Chemscore.DEClash.Weighted>
0.1943

> <Gold.Chemscore.DEInternal.Weighted>
1.3045

> <Gold.Chemscore.Rot.Weighted>
2.5600

> <Gold.Chemscore.Internal.Correction.Weighted>
   9.000000E+99

> <Gold.Protein.RotatedTorsions>
[ 6907 6896 6895 6894 ] final   16.62 input  -60.11 | X-H torsion
[ 7974 7965 7964 7962 ] final   47.39 input  175.53 | X-H torsion
[ 8008 7997 7996 7995 ] final  104.91 input   59.86 | X-H torsion
[ 10167 10162 10161 10158 ] final  -73.77 input  -65.29 | X-H torsion
[ 10718 10713 10712 10709 ] final  157.83 input   66.30 | X-H torsion
[ 10763 10752 10751 10750 ] final  132.25 input  -60.55 | X-H torsion
[ 11005 11000 10999 10996 ] final -137.39 input  -57.11 | X-H torsion

> <Gold.Protein.ActiveResidues>
 VAL166  LYS551  ARG553  GLY616  TRP617  ASP618  TYR619  PRO620  LYS621  CYS622 
 ASP623  PHE694  ASN695  SER759  ASP760  ASP761  ALA762  ILE779  LEU786  VAL792 
 PHE793  MET794  SER795  GLU796  ALA797  LYS798  CYS799  TRP800  GLU811  SER814 

> <Gold.Protein.RotatedAtoms>
  151.8367  135.0604  160.0442 H   0  0  0  0  0  0  0  0  0  0  0  0  # atno 6907 bound_to 6896
  152.2840  133.5492  159.5524 H   0  0  0  0  0  0  0  0  0  0  0  0  # atno 6908 bound_to 6896
  150.7201  134.0440  159.3817 H   0  0  0  0  0  0  0  0  0  0  0  0  # atno 6909 bound_to 6896
  146.0302  139.4754  142.9842 H   0  0  0  0  0  0  0  0  0  0  0  0  # atno 7974 bound_to 7965
  156.1614  140.3139  155.8814 H   0  0  0  0  0  0  0  0  0  0  0  0  # atno 8008 bound_to 7997
  155.3774  140.0485  157.3061 H   0  0  0  0  0  0  0  0  0  0  0  0  # atno 8009 bound_to 7997
  154.5150  140.2178  155.9094 H   0  0  0  0  0  0  0  0  0  0  0  0  # atno 8010 bound_to 7997
  140.5082  143.2349  151.7637 H   0  0  0  0  0  0  0  0  0  0  0  0  # atno 10167 bound_to 10162
  157.1861  131.0644  151.2105 H   0  0  0  0  0  0  0  0  0  0  0  0  # atno 10718 bound_to 10713
  153.7877  135.3159  155.3374 H   0  0  0  0  0  0  0  0  0  0  0  0  # atno 10763 bound_to 10752
  154.8137  135.4650  154.0589 H   0  0  0  0  0  0  0  0  0  0  0  0  # atno 10764 bound_to 10752
  153.1898  135.6906  153.8454 H   0  0  0  0  0  0  0  0  0  0  0  0  # atno 10765 bound_to 10752
  140.8716  134.2044  157.4647 H   0  0  0  0  0  0  0  0  0  0  0  0  # atno 11005 bound_to 11000
  145.7053  141.0123  143.1482 LP  0  0  0  0  0  0  0  0  0  0  0  0  # atno 17320 bound_to 7965
  144.7027  139.8692  143.7439 LP  0  0  0  0  0  0  0  0  0  0  0  0  # atno 17321 bound_to 7965
  139.4889  144.4427  151.9746 LP  0  0  0  0  0  0  0  0  0  0  0  0  # atno 17342 bound_to 10162
  140.3518  144.3079  150.5948 LP  0  0  0  0  0  0  0  0  0  0  0  0  # atno 17343 bound_to 10162
  157.3905  130.7279  149.6694 LP  0  0  0  0  0  0  0  0  0  0  0  0  # atno 17370 bound_to 10713
  155.9718  130.4147  150.4148 LP  0  0  0  0  0  0  0  0  0  0  0  0  # atno 17371 bound_to 10713
  139.8712  134.9777  156.4968 LP  0  0  0  0  0  0  0  0  0  0  0  0  # atno 17394 bound_to 11000
  140.8567  133.8091  155.9223 LP  0  0  0  0  0  0  0  0  0  0  0  0  # atno 17395 bound_to 11000

$$$$
