AV-unprocessed.smi:704|AV-procd|sdf|3442|dock1
  -GOLD-   22720 0433D 1   1.00000     0.00000
 Structure written by MMmdl.
 38 39  0  0  0  0  0  0  0  0  1 V2000
  151.9934  138.4189  154.5992 C   0  0  0  0  0  0  0  0  0  0  0  0
  150.6180  138.2929  154.2543 O   0  0  0  0  0  0  0  0  0  0  0  0
  149.8022  139.4014  154.3787 C   0  0  0  0  0  0  0  0  0  0  0  0
  150.3441  140.5513  154.8530 N   0  0  0  0  0  0  0  0  0  0  0  0
  149.5486  141.6332  154.9787 C   0  0  0  0  0  0  0  0  0  0  0  0
  148.1812  141.6264  154.6480 C   0  0  0  0  0  0  0  0  0  0  0  0
  147.6166  140.4353  154.1550 C   0  0  0  0  0  0  0  0  0  0  0  0
  148.4425  139.2952  154.0033 C   0  0  0  0  0  0  0  0  0  0  0  0
  147.9707  138.0393  153.5321 N   0  0  0  0  0  0  0  0  0  0  0  0
  146.7323  137.5258  153.6202 C   0  0  0  0  0  0  0  0  0  0  0  0
  145.7686  138.0774  154.1512 O   0  0  0  0  0  0  0  0  0  0  0  0
  146.6632  136.3260  153.0264 N   0  0  0  0  0  0  0  0  0  0  0  0
  145.4563  135.5095  152.9183 C   0  0  2  0  0  0  0  0  0  0  0  0
  145.7381  134.2007  152.1650 C   0  0  0  0  0  0  0  0  0  0  0  0
  144.4600  133.9085  151.3852 C   0  0  0  0  0  0  0  0  0  0  0  0
  143.9578  135.2890  150.9704 C   0  0  0  0  0  0  0  0  0  0  0  0
  144.3316  136.2351  152.1282 C   0  0  1  0  0  0  0  0  0  0  0  0
  143.1240  136.5704  153.0194 C   0  0  0  0  0  0  0  0  0  0  0  0
  142.7879  137.8582  153.1284 N   0  0  0  0  0  0  0  0  0  0  0  0
  142.5021  135.6817  153.5988 O   0  0  0  0  0  0  0  0  0  0  0  0
  152.4933  137.4631  154.4420 H   0  0  0  0  0  0  0  0  0  0  0  0
  152.1191  138.6889  155.6486 H   0  0  0  0  0  0  0  0  0  0  0  0
  152.4945  139.1606  153.9755 H   0  0  0  0  0  0  0  0  0  0  0  0
  150.0145  142.5296  155.3604 H   0  0  0  0  0  0  0  0  0  0  0  0
  147.5776  142.5132  154.7743 H   0  0  0  0  0  0  0  0  0  0  0  0
  146.5642  140.4166  153.9186 H   0  0  0  0  0  0  0  0  0  0  0  0
  148.6362  137.5045  152.9930 H   0  0  0  0  0  0  0  0  0  0  0  0
  147.5036  135.9513  152.6110 H   0  0  0  0  0  0  0  0  0  0  0  0
  145.1190  135.2471  153.9238 H   0  0  0  0  0  0  0  0  0  0  0  0
  146.5590  134.3363  151.4588 H   0  0  0  0  0  0  0  0  0  0  0  0
  146.0128  133.3849  152.8345 H   0  0  0  0  0  0  0  0  0  0  0  0
  144.6278  133.2484  150.5338 H   0  0  0  0  0  0  0  0  0  0  0  0
  143.7298  133.4310  152.0401 H   0  0  0  0  0  0  0  0  0  0  0  0
  144.4749  135.6065  150.0639 H   0  0  0  0  0  0  0  0  0  0  0  0
  142.8911  135.2791  150.7407 H   0  0  0  0  0  0  0  0  0  0  0  0
  144.7041  137.1652  151.6940 H   0  0  0  0  0  0  0  0  0  0  0  0
  141.9932  138.1263  153.6908 H   0  0  0  0  0  0  0  0  0  0  0  0
  143.3221  138.5588  152.6354 H   0  0  0  0  0  0  0  0  0  0  0  0
  1  2  1  0  0  0  0
  1 21  1  0  0  0  0
  1 22  1  0  0  0  0
  1 23  1  0  0  0  0
  2  3  1  0  0  0  0
  3  8  1  0  0  0  0
  3  4  2  0  0  0  0
  4  5  1  0  0  0  0
  5  6  2  0  0  0  0
  5 24  1  0  0  0  0
  6  7  1  0  0  0  0
  6 25  1  0  0  0  0
  7  8  2  0  0  0  0
  7 26  1  0  0  0  0
  8  9  1  0  0  0  0
  9 10  1  0  0  0  0
  9 27  1  0  0  0  0
 10 11  2  0  0  0  0
 10 12  1  0  0  0  0
 12 13  1  0  0  0  0
 12 28  1  0  0  0  0
 13 17  1  0  0  0  0
 13 14  1  0  0  0  0
 13 29  1  0  0  0  0
 14 15  1  0  0  0  0
 14 30  1  0  0  0  0
 14 31  1  0  0  0  0
 15 16  1  0  0  0  0
 15 32  1  0  0  0  0
 15 33  1  0  0  0  0
 16 17  1  0  0  0  0
 16 34  1  0  0  0  0
 16 35  1  0  0  0  0
 17 18  1  0  0  0  0
 17 36  1  0  0  0  0
 18 19  1  0  0  0  0
 18 20  2  0  0  0  0
 19 37  1  0  0  0  0
 19 38  1  0  0  0  0
M  END
> <s_m_source_file>
AV-unprocessed.smi

> <i_m_source_file_index>
704

> <i_lp_mmshare_version>
43012

> <i_f3d_flags>
0

> <s_epik_input>
W0NIM11PYzFuW2NIXVtjSF1bY0hdYzFbTkhdQyg9TylbTkhdW0NAQEhdMltDSDJdW0NIMl1bQ0gyXVtDQEhdMkMoPU8pW05IMl0=

> <s_epik_cmdline>
J2VwaWtfcHl0aG9uJywgJy1waCcsICc3LjAnLCAnLXRuJywgJzgnLCAnLW1hJywgJzIwMCcsICctbWV0YWxfYmluZGluZycsICctaW1hZScsICc8aW5maWxlLm1hZT4nLCAnLW9tYWUnLCAnPG91dGZpbGUubWFlPic=

> <r_lp_tautomer_probability>
1

> <r_epik_Ionization_Penalty>
9.09123e-05

> <r_epik_Ionization_Penalty_Charging>
0

> <r_epik_Ionization_Penalty_Neutral>
9.09123e-05

> <r_epik_State_Penalty>
-0

> <r_epik_Charging_Adjusted_Penalty>
0

> <i_epik_Tot_Q>
0

> <i_epik_Tot_abs_Q>
0

> <r_epik_Metal_State_Penalty>
-0

> <b_epik_Metal_Only>
0

> <s_lp_Force_Field>
OPLS_2005

> <r_lp_Energy>
16.6187

> <b_lp_Chiralities_Consistent>
1

> <s_lp_Variant>
AV-unprocessed.smi:704-1

> <Gold.Version>
5.8.1

> <Gold.Id.Protein>
6NUR|6NUR_protein|mol2

> <Gold.PLP.Fitness>
44.8983

> <Gold.PLP.PLP>
-31.3343

> <Gold.PLP.part.hbond>
-3.9888

> <Gold.PLP.part.metal>
0.0000

> <Gold.PLP.part.buried>
-4.8138

> <Gold.PLP.part.nonpolar>
-24.4118

> <Gold.PLP.part.repulsive>
0.6137

> <Gold.PLP.ligand.clash>
0.0000

> <Gold.PLP.ligand.torsion>
0.1693

> <Gold.PLP.Chemscore.Hbond>
3.6800

> <Gold.PLP.Chemscore.CHOScore>
0.9468

> <Gold.PLP.Chemscore.Metal>
0.0000

> <Gold.Chemscore.Hbonds>
donor molecule, donor type, donor heavy atom, donor atom, acceptor molecule, acceptor atom, score
      L1  H     9    27       P1  7948  1.00
      L1  H    12    28       P1  7948  0.99
      L1  H    19    38       P1 10175  0.88
      P1  H  7989  7998       L1     4  0.96
      L1  C     5    24       P1  8028  0.91

> <Gold.PLP.Chemscore.Internal.Correction>
0.0222

> <Gold.Rescore>
     Score         DG    S(hbond)    S(metal)    S(lipo)     H(rot)  DE(clash)    DE(int)     intcor
     16.08     -17.43       3.04        0.00      56.15       1.86       0.09       1.26       ----

> <Gold.Chemscore.Fitness>
16.0783

> <Gold.Chemscore.DG>
-17.4314

> <Gold.Chemscore.ZeroCoef>
-5.4800

> <Gold.Chemscore.Hbond>
3.0408

> <Gold.Chemscore.Metal>
0.0000

> <Gold.Chemscore.Lipo>
56.1471

> <Gold.Chemscore.Internal_Hbond>
0.0000

> <Gold.Chemscore.DEClash>
0.0892

> <Gold.Chemscore.DEInternal>
1.2638

> <Gold.Chemscore.Rot>
1.8648

> <Gold.Chemscore.Internal.Correction>
   9.000000E+99

> <Gold.Chemscore.Hbonds>
donor molecule, donor type, donor heavy atom, donor atom, acceptor molecule, acceptor atom, score
      L1  H     9    27       P1  7948  0.94
      L1  H    12    28       P1  7948  0.93
      L1  H    19    38       P1 10175  0.86
      P1  H  7989  7998       L1     4  0.16

> <Gold.Chemscore.Hbond.Weighted>
-10.1561

> <Gold.Chemscore.Metal.Weighted>
-0.0000

> <Gold.Chemscore.Lipo.Weighted>
-6.5692

> <Gold.Chemscore.Internal_Hbond.Weighted>
0.0000

> <Gold.Chemscore.DEClash.Weighted>
0.0892

> <Gold.Chemscore.DEInternal.Weighted>
1.2638

> <Gold.Chemscore.Rot.Weighted>
4.7739

> <Gold.Chemscore.Internal.Correction.Weighted>
   9.000000E+99

> <Gold.Protein.RotatedTorsions>
[ 6907 6896 6895 6894 ] final   39.67 input  -60.11 | X-H torsion
[ 7974 7965 7964 7962 ] final   43.57 input  175.53 | X-H torsion
[ 8008 7997 7996 7995 ] final -136.26 input   59.86 | X-H torsion
[ 10167 10162 10161 10158 ] final -142.35 input  -65.29 | X-H torsion
[ 10718 10713 10712 10709 ] final  -32.74 input   66.30 | X-H torsion
[ 10763 10752 10751 10750 ] final -111.25 input  -60.55 | X-H torsion
[ 11005 11000 10999 10996 ] final   47.59 input  -57.11 | X-H torsion

> <Gold.Protein.ActiveResidues>
 VAL166  LYS551  ARG553  GLY616  TRP617  ASP618  TYR619  PRO620  LYS621  CYS622 
 ASP623  PHE694  ASN695  SER759  ASP760  ASP761  ALA762  ILE779  LEU786  VAL792 
 PHE793  MET794  SER795  GLU796  ALA797  LYS798  CYS799  TRP800  GLU811  SER814 

> <Gold.Protein.RotatedAtoms>
  152.1726  134.8822  160.0532 H   0  0  0  0  0  0  0  0  0  0  0  0  # atno 6907 bound_to 6896
  151.9776  133.3742  159.4103 H   0  0  0  0  0  0  0  0  0  0  0  0  # atno 6908 bound_to 6896
  150.6904  134.3996  159.5157 H   0  0  0  0  0  0  0  0  0  0  0  0  # atno 6909 bound_to 6896
  146.0644  139.5172  142.9637 H   0  0  0  0  0  0  0  0  0  0  0  0  # atno 7974 bound_to 7965
  155.3922  140.0500  157.3040 H   0  0  0  0  0  0  0  0  0  0  0  0  # atno 8008 bound_to 7997
  154.5031  140.2164  155.9268 H   0  0  0  0  0  0  0  0  0  0  0  0  # atno 8009 bound_to 7997
  156.1491  140.3139  155.8625 H   0  0  0  0  0  0  0  0  0  0  0  0  # atno 8010 bound_to 7997
  139.8096  143.7720  152.2663 H   0  0  0  0  0  0  0  0  0  0  0  0  # atno 10167 bound_to 10162
  156.3712  130.4340  149.7544 H   0  0  0  0  0  0  0  0  0  0  0  0  # atno 10718 bound_to 10713
  154.8290  135.4534  154.1010 H   0  0  0  0  0  0  0  0  0  0  0  0  # atno 10763 bound_to 10752
  153.2299  135.6904  153.7908 H   0  0  0  0  0  0  0  0  0  0  0  0  # atno 10764 bound_to 10752
  153.7294  135.3329  155.3259 H   0  0  0  0  0  0  0  0  0  0  0  0  # atno 10765 bound_to 10752
  140.1266  134.4760  155.8554 H   0  0  0  0  0  0  0  0  0  0  0  0  # atno 11005 bound_to 11000
  145.6503  141.0264  143.1764 LP  0  0  0  0  0  0  0  0  0  0  0  0  # atno 17320 bound_to 7965
  144.7194  139.8083  143.7387 LP  0  0  0  0  0  0  0  0  0  0  0  0  # atno 17321 bound_to 7965
  139.7865  144.7426  151.0014 LP  0  0  0  0  0  0  0  0  0  0  0  0  # atno 17342 bound_to 10162
  140.7818  143.4486  151.0445 LP  0  0  0  0  0  0  0  0  0  0  0  0  # atno 17343 bound_to 10162
  156.4670  130.7979  151.2997 LP  0  0  0  0  0  0  0  0  0  0  0  0  # atno 17370 bound_to 10713
  157.7484  131.0048  150.3088 LP  0  0  0  0  0  0  0  0  0  0  0  0  # atno 17371 bound_to 10713
  141.2162  133.6780  156.6990 LP  0  0  0  0  0  0  0  0  0  0  0  0  # atno 17394 bound_to 11000
  140.2896  134.8251  157.4005 LP  0  0  0  0  0  0  0  0  0  0  0  0  # atno 17395 bound_to 11000

$$$$
