AV-unprocessed.smi:701|AV-procd|sdf|3411|dock6
  -GOLD-   22720 0393D 1   1.00000     0.00000
 Structure written by MMmdl.
 49 51  0  0  0  0  0  0  0  0  1 V2000
  143.0328  135.7758  163.0600 C   0  0  0  0  0  0  0  0  0  0  0  0
  144.1233  136.1419  162.0511 C   0  0  0  0  0  0  0  0  0  0  0  0
  145.0553  135.0760  161.9784 O   0  0  0  0  0  0  0  0  0  0  0  0
  145.9296  135.1833  160.8659 C   0  0  1  0  0  0  0  0  0  0  0  0
  147.0937  136.1591  161.0604 C   0  0  0  0  0  0  0  0  0  0  0  0
  147.9879  135.1189  160.3781 C   0  0  2  0  0  0  0  0  0  0  0  0
  148.0694  135.3680  158.9381 N   0  0  0  0  0  0  0  0  0  0  0  0
  149.0779  135.9988  158.3197 C   0  0  0  0  0  0  0  0  0  0  0  0
  150.0648  136.4391  158.9101 O   0  0  0  0  0  0  0  0  0  0  0  0
  148.9667  136.1201  156.7943 C   0  0  0  0  0  0  0  0  0  0  0  0
  149.9562  137.0484  156.2300 N   0  0  0  0  0  0  0  0  0  0  0  0
  149.9671  138.3818  156.6136 C   0  0  0  0  0  0  0  0  0  0  0  0
  150.8469  139.2897  156.1282 C   0  0  0  0  0  0  0  0  0  0  0  0
  151.8537  138.8928  155.1497 C   0  0  0  0  0  0  0  0  0  0  0  0
  152.6950  139.6396  154.6549 O   0  0  0  0  0  0  0  0  0  0  0  0
  151.8074  137.5444  154.7860 N   0  0  0  0  0  0  0  0  0  0  0  0
  150.9015  136.6045  155.2799 C   0  0  0  0  0  0  0  0  0  0  0  0
  150.9441  135.4389  154.8879 O   0  0  0  0  0  0  0  0  0  0  0  0
  146.9514  134.0241  160.7692 C   0  0  0  0  0  0  0  0  0  0  0  0
  147.2614  133.2996  162.0973 C   0  0  0  0  0  0  0  0  0  0  0  0
  148.4058  132.2785  161.9696 C   0  0  0  0  0  0  0  0  0  0  0  0
  148.1042  131.2355  160.8859 C   0  0  0  0  0  0  0  0  0  0  0  0
  147.7458  131.9070  159.5544 C   0  0  0  0  0  0  0  0  0  0  0  0
  146.6107  132.9286  159.7384 C   0  0  0  0  0  0  0  0  0  0  0  0
  152.4841  137.2246  154.1083 H   0  0  0  0  0  0  0  0  0  0  0  0
  142.2988  136.5769  163.1490 H   0  0  0  0  0  0  0  0  0  0  0  0
  143.4582  135.5999  164.0482 H   0  0  0  0  0  0  0  0  0  0  0  0
  142.5061  134.8713  162.7550 H   0  0  0  0  0  0  0  0  0  0  0  0
  143.6796  136.3206  161.0706 H   0  0  0  0  0  0  0  0  0  0  0  0
  144.6211  137.0615  162.3613 H   0  0  0  0  0  0  0  0  0  0  0  0
  145.4015  135.3446  159.9235 H   0  0  0  0  0  0  0  0  0  0  0  0
  146.9877  137.1066  160.5306 H   0  0  0  0  0  0  0  0  0  0  0  0
  147.3503  136.3150  162.1093 H   0  0  0  0  0  0  0  0  0  0  0  0
  148.9530  135.0128  160.8757 H   0  0  0  0  0  0  0  0  0  0  0  0
  147.3021  135.0341  158.3733 H   0  0  0  0  0  0  0  0  0  0  0  0
  149.0954  135.1238  156.3685 H   0  0  0  0  0  0  0  0  0  0  0  0
  147.9576  136.4257  156.5096 H   0  0  0  0  0  0  0  0  0  0  0  0
  149.2361  138.7215  157.3333 H   0  0  0  0  0  0  0  0  0  0  0  0
  150.8050  140.3153  156.4655 H   0  0  0  0  0  0  0  0  0  0  0  0
  147.5194  134.0169  162.8769 H   0  0  0  0  0  0  0  0  0  0  0  0
  146.3697  132.7861  162.4594 H   0  0  0  0  0  0  0  0  0  0  0  0
  149.3361  132.7943  161.7296 H   0  0  0  0  0  0  0  0  0  0  0  0
  148.5685  131.7812  162.9261 H   0  0  0  0  0  0  0  0  0  0  0  0
  148.9592  130.5720  160.7542 H   0  0  0  0  0  0  0  0  0  0  0  0
  147.2725  130.6082  161.2096 H   0  0  0  0  0  0  0  0  0  0  0  0
  148.6271  132.4026  159.1465 H   0  0  0  0  0  0  0  0  0  0  0  0
  147.4528  131.1513  158.8253 H   0  0  0  0  0  0  0  0  0  0  0  0
  145.7084  132.4006  160.0501 H   0  0  0  0  0  0  0  0  0  0  0  0
  146.3617  133.3643  158.7707 H   0  0  0  0  0  0  0  0  0  0  0  0
  1  2  1  0  0  0  0
  1 26  1  0  0  0  0
  1 27  1  0  0  0  0
  1 28  1  0  0  0  0
  2  3  1  0  0  0  0
  2 29  1  0  0  0  0
  2 30  1  0  0  0  0
  3  4  1  0  0  0  0
  4 19  1  0  0  0  0
  4  5  1  0  0  0  0
  4 31  1  0  0  0  0
  5  6  1  0  0  0  0
  5 32  1  0  0  0  0
  5 33  1  0  0  0  0
  6  7  1  0  0  0  0
  6 19  1  0  0  0  0
  6 34  1  0  0  0  0
  7  8  1  0  0  0  0
  7 35  1  0  0  0  0
  8  9  2  0  0  0  0
  8 10  1  0  0  0  0
 10 11  1  0  0  0  0
 10 36  1  0  0  0  0
 10 37  1  0  0  0  0
 11 17  1  0  0  0  0
 11 12  1  0  0  0  0
 12 13  2  0  0  0  0
 12 38  1  0  0  0  0
 13 14  1  0  0  0  0
 13 39  1  0  0  0  0
 14 15  2  0  0  0  0
 14 16  1  0  0  0  0
 16 25  1  0  0  0  0
 16 17  1  0  0  0  0
 17 18  2  0  0  0  0
 19 24  1  0  0  0  0
 19 20  1  0  0  0  0
 20 21  1  0  0  0  0
 20 40  1  0  0  0  0
 20 41  1  0  0  0  0
 21 22  1  0  0  0  0
 21 42  1  0  0  0  0
 21 43  1  0  0  0  0
 22 23  1  0  0  0  0
 22 44  1  0  0  0  0
 22 45  1  0  0  0  0
 23 24  1  0  0  0  0
 23 46  1  0  0  0  0
 23 47  1  0  0  0  0
 24 48  1  0  0  0  0
 24 49  1  0  0  0  0
M  END
> <s_m_source_file>
AV-unprocessed.smi

> <i_m_source_file_index>
701

> <i_lp_mmshare_version>
43012

> <i_f3d_flags>
0

> <s_epik_input>
W0NIMl0xW0NIMl1bQ0gyXVtDSDJdW0NIMl1DMTJbQ0BIXShPW0NIMl1bQ0gzXSlbQ0gyXVtDQEhdMltOSF1DKD1PKVtDSDJdbjNbY0hdW2NIXWMoPU8pW25IXWMzPU8=

> <s_epik_cmdline>
J2VwaWtfcHl0aG9uJywgJy1waCcsICc3LjAnLCAnLXRuJywgJzgnLCAnLW1hJywgJzIwMCcsICctbWV0YWxfYmluZGluZycsICctaW1hZScsICc8aW5maWxlLm1hZT4nLCAnLW9tYWUnLCAnPG91dGZpbGUubWFlPic=

> <r_lp_tautomer_probability>
0.999537

> <r_epik_Ionization_Penalty>
0.00304597

> <r_epik_Ionization_Penalty_Charging>
0.00304595

> <r_epik_Ionization_Penalty_Neutral>
1.88422e-08

> <r_epik_State_Penalty>
0.00214084

> <r_epik_Charging_Adjusted_Penalty>
0.00518679

> <i_epik_Tot_Q>
0

> <i_epik_Tot_abs_Q>
0

> <r_epik_Metal_State_Penalty>
0.361872

> <b_epik_Metal_Only>
0

> <s_lp_Force_Field>
OPLS_2005

> <r_lp_Energy>
29.1408

> <b_lp_Chiralities_Consistent>
1

> <s_lp_Variant>
AV-unprocessed.smi:701-4

> <Gold.Version>
5.8.1

> <Gold.Id.Protein>
6NUR|6NUR_protein|mol2

> <Gold.PLP.Fitness>
38.1414

> <Gold.PLP.PLP>
-28.6586

> <Gold.PLP.part.hbond>
-4.0000

> <Gold.PLP.part.metal>
0.0000

> <Gold.PLP.part.buried>
-4.4935

> <Gold.PLP.part.nonpolar>
-20.7686

> <Gold.PLP.part.repulsive>
0.3907

> <Gold.PLP.ligand.clash>
0.0000

> <Gold.PLP.ligand.torsion>
0.5387

> <Gold.PLP.Chemscore.Hbond>
3.3980

> <Gold.PLP.Chemscore.CHOScore>
0.0000

> <Gold.PLP.Chemscore.Metal>
0.0000

> <Gold.Chemscore.Hbonds>
donor molecule, donor type, donor heavy atom, donor atom, acceptor molecule, acceptor atom, score
      P1  H  6896  6908       L1     9  1.00
      P1  H  7989  7998       L1    15  0.51
      P1  H  7997  8010       L1    15  0.47
      P1  H 10752 10765       L1    18  0.51

> <Gold.PLP.Chemscore.Internal.Correction>
0.3662

> <Gold.Rescore>
     Score         DG    S(hbond)    S(metal)    S(lipo)     H(rot)  DE(clash)    DE(int)     intcor
     13.93     -15.69       2.47        0.00      62.50       2.09       0.44       1.33       ----

> <Gold.Chemscore.Fitness>
13.9276

> <Gold.Chemscore.DG>
-15.6935

> <Gold.Chemscore.ZeroCoef>
-5.4800

> <Gold.Chemscore.Hbond>
2.4729

> <Gold.Chemscore.Metal>
0.0000

> <Gold.Chemscore.Lipo>
62.5029

> <Gold.Chemscore.Internal_Hbond>
0.0000

> <Gold.Chemscore.DEClash>
0.4359

> <Gold.Chemscore.DEInternal>
1.3300

> <Gold.Chemscore.Rot>
2.0933

> <Gold.Chemscore.Internal.Correction>
   9.000000E+99

> <Gold.Chemscore.Hbonds>
donor molecule, donor type, donor heavy atom, donor atom, acceptor molecule, acceptor atom, score
      P1  H  6896  6908       L1     9  0.39
      P1  H  7989  7998       L1    15  0.27
      P1  H  7997  8010       L1    15  0.41
      P1  H 10752 10765       L1    18  0.03

> <Gold.Chemscore.Hbond.Weighted>
-8.2595

> <Gold.Chemscore.Metal.Weighted>
-0.0000

> <Gold.Chemscore.Lipo.Weighted>
-7.3128

> <Gold.Chemscore.Internal_Hbond.Weighted>
0.0000

> <Gold.Chemscore.DEClash.Weighted>
0.4359

> <Gold.Chemscore.DEInternal.Weighted>
1.3300

> <Gold.Chemscore.Rot.Weighted>
5.3588

> <Gold.Chemscore.Internal.Correction.Weighted>
   9.000000E+99

> <Gold.Protein.RotatedTorsions>
[ 6907 6896 6895 6894 ] final -170.44 input  -60.11 | X-H torsion
[ 7974 7965 7964 7962 ] final  113.26 input  175.53 | X-H torsion
[ 8008 7997 7996 7995 ] final   94.70 input   59.86 | X-H torsion
[ 10167 10162 10161 10158 ] final   98.66 input  -65.29 | X-H torsion
[ 10718 10713 10712 10709 ] final  -66.98 input   66.30 | X-H torsion
[ 10763 10752 10751 10750 ] final -167.46 input  -60.55 | X-H torsion
[ 11005 11000 10999 10996 ] final   53.58 input  -57.11 | X-H torsion

> <Gold.Protein.ActiveResidues>
 VAL166  LYS551  ARG553  GLY616  TRP617  ASP618  TYR619  PRO620  LYS621  CYS622 
 ASP623  PHE694  ASN695  SER759  ASP760  ASP761  ALA762  ILE779  LEU786  VAL792 
 PHE793  MET794  SER795  GLU796  ALA797  LYS798  CYS799  TRP800  GLU811  SER814 

> <Gold.Protein.RotatedAtoms>
  151.5077  133.3491  159.2879 H   0  0  0  0  0  0  0  0  0  0  0  0  # atno 6907 bound_to 6896
  150.8732  134.8112  159.7181 H   0  0  0  0  0  0  0  0  0  0  0  0  # atno 6908 bound_to 6896
  152.4713  134.4964  159.9763 H   0  0  0  0  0  0  0  0  0  0  0  0  # atno 6909 bound_to 6896
  145.2192  139.2870  143.4227 H   0  0  0  0  0  0  0  0  0  0  0  0  # atno 7974 bound_to 7965
  156.0608  140.3296  155.7459 H   0  0  0  0  0  0  0  0  0  0  0  0  # atno 8008 bound_to 7997
  155.5458  140.0606  157.2878 H   0  0  0  0  0  0  0  0  0  0  0  0  # atno 8009 bound_to 7997
  154.4480  140.1903  156.0624 H   0  0  0  0  0  0  0  0  0  0  0  0  # atno 8010 bound_to 7997
  139.7688  144.6929  151.0185 H   0  0  0  0  0  0  0  0  0  0  0  0  # atno 10167 bound_to 10162
  156.0583  130.4270  150.1787 H   0  0  0  0  0  0  0  0  0  0  0  0  # atno 10718 bound_to 10713
  154.6729  135.2942  154.9717 H   0  0  0  0  0  0  0  0  0  0  0  0  # atno 10763 bound_to 10752
  154.0738  135.6614  153.4832 H   0  0  0  0  0  0  0  0  0  0  0  0  # atno 10764 bound_to 10752
  153.0498  135.5181  154.7734 H   0  0  0  0  0  0  0  0  0  0  0  0  # atno 10765 bound_to 10752
  140.0755  134.5410  155.9001 H   0  0  0  0  0  0  0  0  0  0  0  0  # atno 11005 bound_to 11000
  146.3380  140.2492  142.8598 LP  0  0  0  0  0  0  0  0  0  0  0  0  # atno 17320 bound_to 7965
  144.9782  140.8434  143.5414 LP  0  0  0  0  0  0  0  0  0  0  0  0  # atno 17321 bound_to 7965
  140.7812  143.4612  151.0276 LP  0  0  0  0  0  0  0  0  0  0  0  0  # atno 17342 bound_to 10162
  139.8296  143.7709  152.3179 LP  0  0  0  0  0  0  0  0  0  0  0  0  # atno 17343 bound_to 10162
  156.9860  130.9879  151.3426 LP  0  0  0  0  0  0  0  0  0  0  0  0  # atno 17370 bound_to 10713
  157.5570  130.8220  149.8217 LP  0  0  0  0  0  0  0  0  0  0  0  0  # atno 17371 bound_to 10713
  141.2028  133.6627  156.6026 LP  0  0  0  0  0  0  0  0  0  0  0  0  # atno 17394 bound_to 11000
  140.3564  134.7725  157.4503 LP  0  0  0  0  0  0  0  0  0  0  0  0  # atno 17395 bound_to 11000

$$$$
