AV-unprocessed.smi:1930|AV-procd|sdf|7810|dock9
  -GOLD-   22720 9553D 1   1.00000     0.00000
 Structure written by MMmdl.
 42 43  0  0  0  0  0  0  0  0  2 V2000
  154.5657  134.3983  164.5699 C   0  0  0  0  0  0  0  0  0  0  0  0
  155.6399  134.3814  163.0771 S   0  0  0  0  0  0  0  0  0  0  0  0
  156.9972  133.9934  163.4906 O   0  0  0  0  0  0  0  0  0  0  0  0
  154.9525  133.6195  162.0232 O   0  0  0  0  0  0  0  0  0  0  0  0
  155.6884  136.0487  162.5844 N   0  0  0  0  0  0  0  0  0  0  0  0
  154.5731  136.9477  162.9602 C   0  0  0  0  0  0  0  0  0  0  0  0
  153.6515  137.2405  161.7600 C   0  0  0  0  0  0  0  0  0  0  0  0
  154.4663  137.7568  160.6518 N   0  0  0  0  0  0  0  0  0  0  0  0
  154.5394  139.0432  160.2295 C   0  0  0  0  0  0  0  0  0  0  0  0
  155.1833  139.3929  159.2398 O   0  0  0  0  0  0  0  0  0  0  0  0
  153.8095  139.9119  160.9493 N   0  0  0  0  0  0  0  0  0  0  0  0
  153.6927  141.3431  160.6836 C   0  0  0  0  0  0  0  0  0  0  0  0
  153.1526  141.6555  159.2735 C   0  0  0  0  0  0  0  0  0  0  0  0
  152.3471  142.9414  159.2007 C   0  0  0  0  0  0  0  0  0  0  0  0
  152.4057  143.8862  160.2488 C   0  0  0  0  0  0  0  0  0  0  0  0
  151.6429  145.0690  160.1570 C   0  0  0  0  0  0  0  0  0  0  0  0
  150.8384  145.2804  159.0186 C   0  0  0  0  0  0  0  0  0  0  0  0
  150.8080  144.3543  158.0351 N   0  3  0  0  0  0  0  0  0  0  0  0
  151.5244  143.2100  158.0847 C   0  0  0  0  0  0  0  0  0  0  0  0
  155.4023  136.7269  160.1964 C   0  0  0  0  0  0  0  0  0  0  0  0
  156.3934  136.4138  161.3344 C   0  0  0  0  0  0  0  0  0  0  0  0
  154.4724  133.3827  164.9538 H   0  0  0  0  0  0  0  0  0  0  0  0
  153.5765  134.7713  164.3092 H   0  0  0  0  0  0  0  0  0  0  0  0
  155.0114  135.0283  165.3382 H   0  0  0  0  0  0  0  0  0  0  0  0
  153.9992  136.5203  163.7819 H   0  0  0  0  0  0  0  0  0  0  0  0
  154.9952  137.8815  163.3332 H   0  0  0  0  0  0  0  0  0  0  0  0
  153.1459  136.3300  161.4384 H   0  0  0  0  0  0  0  0  0  0  0  0
  152.8522  137.9133  162.0699 H   0  0  0  0  0  0  0  0  0  0  0  0
  153.3005  139.5537  161.7442 H   0  0  0  0  0  0  0  0  0  0  0  0
  153.0130  141.7546  161.4304 H   0  0  0  0  0  0  0  0  0  0  0  0
  154.6544  141.8344  160.8403 H   0  0  0  0  0  0  0  0  0  0  0  0
  153.9829  141.7189  158.5692 H   0  0  0  0  0  0  0  0  0  0  0  0
  152.5304  140.8297  158.9261 H   0  0  0  0  0  0  0  0  0  0  0  0
  153.0266  143.7066  161.1144 H   0  0  0  0  0  0  0  0  0  0  0  0
  151.6754  145.8036  160.9484 H   0  0  0  0  0  0  0  0  0  0  0  0
  150.2235  146.1553  158.8654 H   0  0  0  0  0  0  0  0  0  0  0  0
  151.4145  142.5467  157.2388 H   0  0  0  0  0  0  0  0  0  0  0  0
  154.8479  135.8326  159.9123 H   0  0  0  0  0  0  0  0  0  0  0  0
  155.9499  137.0252  159.3012 H   0  0  0  0  0  0  0  0  0  0  0  0
  157.0108  137.2909  161.5324 H   0  0  0  0  0  0  0  0  0  0  0  0
  157.0758  135.6191  161.0344 H   0  0  0  0  0  0  0  0  0  0  0  0
  150.2209  144.5278  157.2189 H   0  0  0  0  0  0  0  0  0  0  0  0
  1  2  1  0  0  0  0
  1 22  1  0  0  0  0
  1 23  1  0  0  0  0
  1 24  1  0  0  0  0
  2  3  2  0  0  0  0
  2  4  2  0  0  0  0
  2  5  1  0  0  0  0
  5 21  1  0  0  0  0
  5  6  1  0  0  0  0
  6  7  1  0  0  0  0
  6 25  1  0  0  0  0
  6 26  1  0  0  0  0
  7  8  1  0  0  0  0
  7 27  1  0  0  0  0
  7 28  1  0  0  0  0
  8  9  1  0  0  0  0
  8 20  1  0  0  0  0
  9 10  2  0  0  0  0
  9 11  1  0  0  0  0
 11 12  1  0  0  0  0
 11 29  1  0  0  0  0
 12 13  1  0  0  0  0
 12 30  1  0  0  0  0
 12 31  1  0  0  0  0
 13 14  1  0  0  0  0
 13 32  1  0  0  0  0
 13 33  1  0  0  0  0
 14 19  1  0  0  0  0
 14 15  2  0  0  0  0
 15 16  1  0  0  0  0
 15 34  1  0  0  0  0
 16 17  2  0  0  0  0
 16 35  1  0  0  0  0
 17 18  1  0  0  0  0
 17 36  1  0  0  0  0
 18 19  2  0  0  0  0
 18 42  1  0  0  0  0
 19 37  1  0  0  0  0
 20 21  1  0  0  0  0
 20 38  1  0  0  0  0
 20 39  1  0  0  0  0
 21 40  1  0  0  0  0
 21 41  1  0  0  0  0
M  CHG  1  18   1
M  END
> <s_m_source_file>
AV-unprocessed.smi

> <i_m_source_file_index>
1930

> <i_lp_mmshare_version>
43012

> <i_f3d_flags>
0

> <s_epik_input>
W0NIM11TKD1PKSg9TylOMVtDSDJdW0NIMl1OKFtDSDJdW0NIMl0xKUMoPU8pW05IXVtDSDJdW0NIMl1jMltjSF1bY0hdW2NIXW5bY0hdMg==

> <s_epik_cmdline>
J2VwaWtfcHl0aG9uJywgJy1waCcsICc3LjAnLCAnLXRuJywgJzgnLCAnLW1hJywgJzIwMCcsICctbWV0YWxfYmluZGluZycsICctaW1hZScsICc8aW5maWxlLm1hZT4nLCAnLW9tYWUnLCAnPG91dGZpbGUubWFlPic=

> <r_epik_Ionization_Penalty>
2.21237

> <r_epik_Ionization_Penalty_Charging>
2.21233

> <r_epik_Ionization_Penalty_Neutral>
3.86464e-05

> <r_epik_State_Penalty>
2.35665

> <r_epik_Charging_Adjusted_Penalty>
4.56898

> <i_epik_Tot_Q>
1

> <i_epik_Tot_abs_Q>
1

> <r_epik_Metal_State_Penalty>
2.37073

> <b_epik_Metal_Only>
0

> <s_lp_Force_Field>
OPLS_2005

> <r_lp_Energy>
33.224

> <b_lp_Chiralities_Consistent>
1

> <s_lp_Variant>
AV-unprocessed.smi:1930-2

> <Gold.Version>
5.8.1

> <Gold.Id.Protein>
6NUR|6NUR_protein|mol2

> <Gold.PLP.Fitness>
47.0090

> <Gold.PLP.PLP>
-39.2334

> <Gold.PLP.part.hbond>
-2.0000

> <Gold.PLP.part.metal>
0.0000

> <Gold.PLP.part.buried>
-5.0099

> <Gold.PLP.part.nonpolar>
-33.3613

> <Gold.PLP.part.repulsive>
0.1026

> <Gold.PLP.ligand.clash>
0.0000

> <Gold.PLP.ligand.torsion>
1.6578

> <Gold.PLP.Chemscore.Hbond>
3.0000

> <Gold.PLP.Chemscore.CHOScore>
0.0000

> <Gold.PLP.Chemscore.Metal>
0.0000

> <Gold.Chemscore.Hbonds>
donor molecule, donor type, donor heavy atom, donor atom, acceptor molecule, acceptor atom, score
      L1  H    18    42       P1  8028  2.00
      P1  H  7997  8010       L1    10  1.00

> <Gold.PLP.Chemscore.Internal.Correction>
2.0913

> <Gold.Rescore>
     Score         DG    S(hbond)    S(metal)    S(lipo)     H(rot)  DE(clash)    DE(int)     intcor
     19.18     -20.88       1.96        0.00     107.89       1.47       0.09       1.61       ----

> <Gold.Chemscore.Fitness>
19.1785

> <Gold.Chemscore.DG>
-20.8798

> <Gold.Chemscore.ZeroCoef>
-5.4800

> <Gold.Chemscore.Hbond>
1.9592

> <Gold.Chemscore.Metal>
0.0000

> <Gold.Chemscore.Lipo>
107.8878

> <Gold.Chemscore.Internal_Hbond>
0.0000

> <Gold.Chemscore.DEClash>
0.0906

> <Gold.Chemscore.DEInternal>
1.6106

> <Gold.Chemscore.Rot>
1.4714

> <Gold.Chemscore.Internal.Correction>
   9.000000E+99

> <Gold.Chemscore.Hbonds>
donor molecule, donor type, donor heavy atom, donor atom, acceptor molecule, acceptor atom, score
      L1  H    18    42       P1  8028  0.52
      P1  H  7997  8010       L1    10  0.97

> <Gold.Chemscore.Hbond.Weighted>
-6.5436

> <Gold.Chemscore.Metal.Weighted>
-0.0000

> <Gold.Chemscore.Lipo.Weighted>
-12.6229

> <Gold.Chemscore.Internal_Hbond.Weighted>
0.0000

> <Gold.Chemscore.DEClash.Weighted>
0.0906

> <Gold.Chemscore.DEInternal.Weighted>
1.6106

> <Gold.Chemscore.Rot.Weighted>
3.7667

> <Gold.Chemscore.Internal.Correction.Weighted>
   9.000000E+99

> <Gold.Protein.RotatedTorsions>
[ 6907 6896 6895 6894 ] final -177.18 input  -60.11 | X-H torsion
[ 7974 7965 7964 7962 ] final   50.80 input  175.53 | X-H torsion
[ 8008 7997 7996 7995 ] final   -3.25 input   59.86 | X-H torsion
[ 10167 10162 10161 10158 ] final  100.89 input  -65.29 | X-H torsion
[ 10718 10713 10712 10709 ] final -103.14 input   66.30 | X-H torsion
[ 10763 10752 10751 10750 ] final   15.64 input  -60.55 | X-H torsion
[ 11005 11000 10999 10996 ] final   23.72 input  -57.11 | X-H torsion

> <Gold.Protein.ActiveResidues>
 VAL166  LYS551  ARG553  GLY616  TRP617  ASP618  TYR619  PRO620  LYS621  CYS622 
 ASP623  PHE694  ASN695  SER759  ASP760  ASP761  ALA762  ILE779  LEU786  VAL792 
 PHE793  MET794  SER795  GLU796  ALA797  LYS798  CYS799  TRP800  GLU811  SER814 

> <Gold.Protein.RotatedAtoms>
  151.6169  133.3342  159.3079 H   0  0  0  0  0  0  0  0  0  0  0  0  # atno 6907 bound_to 6896
  150.8126  134.7294  159.6713 H   0  0  0  0  0  0  0  0  0  0  0  0  # atno 6908 bound_to 6896
  152.4223  134.5937  160.0033 H   0  0  0  0  0  0  0  0  0  0  0  0  # atno 6909 bound_to 6896
  145.9976  139.4405  143.0035 H   0  0  0  0  0  0  0  0  0  0  0  0  # atno 7974 bound_to 7965
  154.6270  140.2514  155.7480 H   0  0  0  0  0  0  0  0  0  0  0  0  # atno 8008 bound_to 7997
  156.2458  140.2915  156.0523 H   0  0  0  0  0  0  0  0  0  0  0  0  # atno 8009 bound_to 7997
  155.1806  140.0389  157.2871 H   0  0  0  0  0  0  0  0  0  0  0  0  # atno 8010 bound_to 7997
  139.7487  144.6990  151.0465 H   0  0  0  0  0  0  0  0  0  0  0  0  # atno 10167 bound_to 10162
  156.0254  130.5453  150.7210 H   0  0  0  0  0  0  0  0  0  0  0  0  # atno 10718 bound_to 10713
  153.1506  135.6777  153.8888 H   0  0  0  0  0  0  0  0  0  0  0  0  # atno 10763 bound_to 10752
  153.8316  135.3117  155.3420 H   0  0  0  0  0  0  0  0  0  0  0  0  # atno 10764 bound_to 10752
  154.7859  135.4862  154.0031 H   0  0  0  0  0  0  0  0  0  0  0  0  # atno 10765 bound_to 10752
  140.3665  134.2069  155.7669 H   0  0  0  0  0  0  0  0  0  0  0  0  # atno 11005 bound_to 11000
  145.7536  140.9963  143.1237 LP  0  0  0  0  0  0  0  0  0  0  0  0  # atno 17320 bound_to 7965
  144.6909  139.9245  143.7469 LP  0  0  0  0  0  0  0  0  0  0  0  0  # atno 17321 bound_to 7965
  140.7795  143.4835  150.9986 LP  0  0  0  0  0  0  0  0  0  0  0  0  # atno 17342 bound_to 10162
  139.8523  143.7422  152.3177 LP  0  0  0  0  0  0  0  0  0  0  0  0  # atno 17343 bound_to 10162
  157.4826  131.0904  151.0519 LP  0  0  0  0  0  0  0  0  0  0  0  0  # atno 17370 bound_to 10713
  157.0948  130.5957  149.5447 LP  0  0  0  0  0  0  0  0  0  0  0  0  # atno 17371 bound_to 10713
  141.1968  133.8074  157.0656 LP  0  0  0  0  0  0  0  0  0  0  0  0  # atno 17394 bound_to 11000
  140.0585  134.9767  157.1264 LP  0  0  0  0  0  0  0  0  0  0  0  0  # atno 17395 bound_to 11000

$$$$
