AV-unprocessed.smi:788|AV-procd|sdf|3734|dock9
  -GOLD-   22720 1173D 1   1.00000     0.00000
 Structure written by MMmdl.
 35 36  0  0  0  0  0  0  0  0  1 V2000
  152.1157  138.5564  154.8095 C   0  0  0  0  0  0  0  0  0  0  0  0
  150.9918  138.7801  155.8435 C   0  0  1  0  0  0  0  0  0  0  0  0
  151.1014  140.1607  156.5205 C   0  0  0  0  0  0  0  0  0  0  0  0
  150.6754  141.3026  155.5850 C   0  0  0  0  0  0  0  0  0  0  0  0
  149.2569  141.0755  155.0433 C   0  0  0  0  0  0  0  0  0  0  0  0
  149.1207  139.7131  154.3352 C   0  0  2  0  0  0  0  0  0  0  0  0
  147.6877  139.5265  153.8036 C   0  0  0  0  0  0  0  0  0  0  0  0
  149.5603  138.5648  155.2802 C   0  0  1  0  0  0  0  0  0  0  0  0
  149.4500  137.2748  154.6015 N   0  0  0  0  0  0  0  0  0  0  0  0
  149.6526  136.0697  155.1583 C   0  0  0  0  0  0  0  0  0  0  0  0
  149.9583  135.9268  156.3407 O   0  0  0  0  0  0  0  0  0  0  0  0
  149.5021  135.0015  154.3460 N   0  0  0  0  0  0  0  0  0  0  0  0
  149.6336  133.6013  154.5820 C   0  0  0  0  0  0  0  0  0  0  0  0
  150.2561  133.0592  155.6419 N   0  0  0  0  0  0  0  0  0  0  0  0
  150.2265  131.6715  155.6136 N   0  0  0  0  0  0  0  0  0  0  0  0
  149.5803  131.2179  154.5362 C   0  0  0  0  0  0  0  0  0  0  0  0
  148.9468  132.4428  153.4513 S   0  0  0  0  0  0  0  0  0  0  0  0
  152.0292  139.2299  153.9577 H   0  0  0  0  0  0  0  0  0  0  0  0
  152.1101  137.5365  154.4246 H   0  0  0  0  0  0  0  0  0  0  0  0
  153.0950  138.7208  155.2594 H   0  0  0  0  0  0  0  0  0  0  0  0
  151.1500  138.0361  156.6257 H   0  0  0  0  0  0  0  0  0  0  0  0
  150.4663  140.1745  157.4071 H   0  0  0  0  0  0  0  0  0  0  0  0
  152.1186  140.3288  156.8763 H   0  0  0  0  0  0  0  0  0  0  0  0
  150.7173  142.2518  156.1196 H   0  0  0  0  0  0  0  0  0  0  0  0
  151.3776  141.3888  154.7554 H   0  0  0  0  0  0  0  0  0  0  0  0
  148.5428  141.1343  155.8659 H   0  0  0  0  0  0  0  0  0  0  0  0
  148.9992  141.8810  154.3550 H   0  0  0  0  0  0  0  0  0  0  0  0
  149.7836  139.7206  153.4691 H   0  0  0  0  0  0  0  0  0  0  0  0
  146.9675  139.4680  154.6203 H   0  0  0  0  0  0  0  0  0  0  0  0
  147.5920  138.6180  153.2087 H   0  0  0  0  0  0  0  0  0  0  0  0
  147.3965  140.3603  153.1643 H   0  0  0  0  0  0  0  0  0  0  0  0
  148.8667  138.5627  156.1237 H   0  0  0  0  0  0  0  0  0  0  0  0
  149.2020  137.3012  153.6225 H   0  0  0  0  0  0  0  0  0  0  0  0
  149.2361  135.2369  153.4009 H   0  0  0  0  0  0  0  0  0  0  0  0
  149.4758  130.1546  154.3786 H   0  0  0  0  0  0  0  0  0  0  0  0
  1  2  1  0  0  0  0
  1 18  1  0  0  0  0
  1 19  1  0  0  0  0
  1 20  1  0  0  0  0
  2  8  1  0  0  0  0
  2  3  1  0  0  0  0
  2 21  1  0  0  0  0
  3  4  1  0  0  0  0
  3 22  1  0  0  0  0
  3 23  1  0  0  0  0
  4  5  1  0  0  0  0
  4 24  1  0  0  0  0
  4 25  1  0  0  0  0
  5  6  1  0  0  0  0
  5 26  1  0  0  0  0
  5 27  1  0  0  0  0
  6  7  1  0  0  0  0
  6  8  1  0  0  0  0
  6 28  1  0  0  0  0
  7 29  1  0  0  0  0
  7 30  1  0  0  0  0
  7 31  1  0  0  0  0
  8  9  1  0  0  0  0
  8 32  1  0  0  0  0
  9 10  1  0  0  0  0
  9 33  1  0  0  0  0
 10 11  2  0  0  0  0
 10 12  1  0  0  0  0
 12 13  1  0  0  0  0
 12 34  1  0  0  0  0
 13 17  1  0  0  0  0
 13 14  2  0  0  0  0
 14 15  1  0  0  0  0
 15 16  2  0  0  0  0
 16 17  1  0  0  0  0
 16 35  1  0  0  0  0
M  END
> <s_m_source_file>
AV-unprocessed.smi

> <i_m_source_file_index>
788

> <i_lp_mmshare_version>
43012

> <i_f3d_flags>
0

> <s_epik_input>
W0NIM11bQ0BASF0xW0NIMl1bQ0gyXVtDSDJdW0NAQEhdKFtDSDNdKVtDQEhdMVtOSF1DKD1PKVtOSF1jMm5uW2NIXXMy

> <s_epik_cmdline>
J2VwaWtfcHl0aG9uJywgJy1waCcsICc3LjAnLCAnLXRuJywgJzgnLCAnLW1hJywgJzIwMCcsICctbWV0YWxfYmluZGluZycsICctaW1hZScsICc8aW5maWxlLm1hZT4nLCAnLW9tYWUnLCAnPG91dGZpbGUubWFlPic=

> <r_lp_tautomer_probability>
1

> <r_epik_Ionization_Penalty>
0.000304078

> <r_epik_Ionization_Penalty_Charging>
0

> <r_epik_Ionization_Penalty_Neutral>
0.000304078

> <r_epik_State_Penalty>
-0

> <r_epik_Charging_Adjusted_Penalty>
0

> <i_epik_Tot_Q>
0

> <i_epik_Tot_abs_Q>
0

> <r_epik_Metal_State_Penalty>
0.164801

> <b_epik_Metal_Only>
0

> <s_lp_Force_Field>
OPLS_2005

> <r_lp_Energy>
15.5702

> <b_lp_Chiralities_Consistent>
1

> <s_lp_Variant>
AV-unprocessed.smi:788-4

> <Gold.Version>
5.8.1

> <Gold.Id.Protein>
6NUR|6NUR_protein|mol2

> <Gold.PLP.Fitness>
32.5957

> <Gold.PLP.PLP>
-27.0663

> <Gold.PLP.part.hbond>
-2.0000

> <Gold.PLP.part.metal>
0.0000

> <Gold.PLP.part.buried>
-2.8925

> <Gold.PLP.part.nonpolar>
-22.5858

> <Gold.PLP.part.repulsive>
0.0552

> <Gold.PLP.ligand.clash>
0.0000

> <Gold.PLP.ligand.torsion>
0.0771

> <Gold.PLP.Chemscore.Hbond>
1.8897

> <Gold.PLP.Chemscore.CHOScore>
0.0000

> <Gold.PLP.Chemscore.Metal>
0.0000

> <Gold.Chemscore.Hbonds>
donor molecule, donor type, donor heavy atom, donor atom, acceptor molecule, acceptor atom, score
      L1  H     9    33       P1  7948  0.89
      L1  H    12    34       P1  7948  0.95

> <Gold.PLP.Chemscore.Internal.Correction>
0.0145

> <Gold.Rescore>
     Score         DG    S(hbond)    S(metal)    S(lipo)     H(rot)  DE(clash)    DE(int)     intcor
     13.97     -15.41       1.58        0.00      61.77       1.00       0.16       1.27       ----

> <Gold.Chemscore.Fitness>
13.9739

> <Gold.Chemscore.DG>
-15.4110

> <Gold.Chemscore.ZeroCoef>
-5.4800

> <Gold.Chemscore.Hbond>
1.5759

> <Gold.Chemscore.Metal>
0.0000

> <Gold.Chemscore.Lipo>
61.7735

> <Gold.Chemscore.Internal_Hbond>
0.0000

> <Gold.Chemscore.DEClash>
0.1647

> <Gold.Chemscore.DEInternal>
1.2724

> <Gold.Chemscore.Rot>
1.0000

> <Gold.Chemscore.Internal.Correction>
   9.000000E+99

> <Gold.Chemscore.Hbonds>
donor molecule, donor type, donor heavy atom, donor atom, acceptor molecule, acceptor atom, score
      L1  H     9    33       P1  7948  0.81
      L1  H    12    34       P1  7948  0.21

> <Gold.Chemscore.Hbond.Weighted>
-5.2635

> <Gold.Chemscore.Metal.Weighted>
-0.0000

> <Gold.Chemscore.Lipo.Weighted>
-7.2275

> <Gold.Chemscore.Internal_Hbond.Weighted>
0.0000

> <Gold.Chemscore.DEClash.Weighted>
0.1647

> <Gold.Chemscore.DEInternal.Weighted>
1.2724

> <Gold.Chemscore.Rot.Weighted>
2.5600

> <Gold.Chemscore.Internal.Correction.Weighted>
   9.000000E+99

> <Gold.Protein.RotatedTorsions>
[ 6907 6896 6895 6894 ] final  150.84 input  -60.11 | X-H torsion
[ 7974 7965 7964 7962 ] final  -47.48 input  175.53 | X-H torsion
[ 8008 7997 7996 7995 ] final   -6.61 input   59.86 | X-H torsion
[ 10167 10162 10161 10158 ] final  -79.47 input  -65.29 | X-H torsion
[ 10718 10713 10712 10709 ] final   12.88 input   66.30 | X-H torsion
[ 10763 10752 10751 10750 ] final  126.21 input  -60.55 | X-H torsion
[ 11005 11000 10999 10996 ] final  -73.14 input  -57.11 | X-H torsion

> <Gold.Protein.ActiveResidues>
 VAL166  LYS551  ARG553  GLY616  TRP617  ASP618  TYR619  PRO620  LYS621  CYS622 
 ASP623  PHE694  ASN695  SER759  ASP760  ASP761  ALA762  ILE779  LEU786  VAL792 
 PHE793  MET794  SER795  GLU796  ALA797  LYS798  CYS799  TRP800  GLU811  SER814 

> <Gold.Protein.RotatedAtoms>
  152.1089  133.4290  159.4621 H   0  0  0  0  0  0  0  0  0  0  0  0  # atno 6907 bound_to 6896
  150.6866  134.2672  159.4582 H   0  0  0  0  0  0  0  0  0  0  0  0  # atno 6908 bound_to 6896
  152.0539  134.9636  160.0625 H   0  0  0  0  0  0  0  0  0  0  0  0  # atno 6909 bound_to 6896
  145.9612  140.7478  142.9457 H   0  0  0  0  0  0  0  0  0  0  0  0  # atno 7974 bound_to 7965
  154.5920  140.2428  155.7907 H   0  0  0  0  0  0  0  0  0  0  0  0  # atno 8008 bound_to 7997
  156.2254  140.2984  156.0007 H   0  0  0  0  0  0  0  0  0  0  0  0  # atno 8009 bound_to 7997
  155.2357  140.0405  157.2958 H   0  0  0  0  0  0  0  0  0  0  0  0  # atno 8010 bound_to 7997
  140.4590  143.2459  151.8376 H   0  0  0  0  0  0  0  0  0  0  0  0  # atno 10167 bound_to 10162
  157.0165  130.6138  149.5715 H   0  0  0  0  0  0  0  0  0  0  0  0  # atno 10718 bound_to 10713
  153.6897  135.3301  155.3199 H   0  0  0  0  0  0  0  0  0  0  0  0  # atno 10763 bound_to 10752
  154.8443  135.4428  154.1521 H   0  0  0  0  0  0  0  0  0  0  0  0  # atno 10764 bound_to 10752
  153.2559  135.6986  153.7707 H   0  0  0  0  0  0  0  0  0  0  0  0  # atno 10765 bound_to 10752
  141.1618  133.6869  156.7166 H   0  0  0  0  0  0  0  0  0  0  0  0  # atno 11005 bound_to 11000
  144.6815  140.2593  143.7321 LP  0  0  0  0  0  0  0  0  0  0  0  0  # atno 17320 bound_to 7965
  145.8038  139.1975  143.2033 LP  0  0  0  0  0  0  0  0  0  0  0  0  # atno 17321 bound_to 7965
  139.4804  144.5030  151.9035 LP  0  0  0  0  0  0  0  0  0  0  0  0  # atno 17342 bound_to 10162
  140.4116  144.2362  150.5889 LP  0  0  0  0  0  0  0  0  0  0  0  0  # atno 17343 bound_to 10162
  156.0117  130.5209  150.8010 LP  0  0  0  0  0  0  0  0  0  0  0  0  # atno 17370 bound_to 10713
  157.5281  131.0935  150.9991 LP  0  0  0  0  0  0  0  0  0  0  0  0  # atno 17371 bound_to 10713
  140.2847  134.8288  157.3964 LP  0  0  0  0  0  0  0  0  0  0  0  0  # atno 17394 bound_to 11000
  140.1401  134.4983  155.8038 LP  0  0  0  0  0  0  0  0  0  0  0  0  # atno 17395 bound_to 11000

$$$$
