AV-unprocessed.smi:3042|AV-procd|sdf|11599|dock8
  -GOLD-   2272016573D 1   1.00000     0.00000
 Structure written by MMmdl.
 33 34  0  0  0  0  0  0  0  0  2 V2000
  145.2648  138.2613  152.0219 N   0  3  0  0  0  0  0  0  0  0  0  0
  144.8265  137.1004  152.8182 C   0  0  0  0  0  0  0  0  0  0  0  0
  143.9969  136.0953  151.9780 C   0  0  2  0  0  0  0  0  0  0  0  0
  142.5276  136.2140  152.3811 C   0  0  0  0  0  0  0  0  0  0  0  0
  141.8483  137.4515  152.3302 C   0  0  0  0  0  0  0  0  0  0  0  0
  140.4921  137.4997  152.7046 C   0  0  0  0  0  0  0  0  0  0  0  0
  139.8682  136.3069  153.1201 C   0  0  0  0  0  0  0  0  0  0  0  0
  140.5059  135.1179  153.1740 N   0  0  0  0  0  0  0  0  0  0  0  0
  141.8064  135.0799  152.8147 C   0  0  0  0  0  0  0  0  0  0  0  0
  144.4680  134.6966  152.0582 N   0  0  0  0  0  0  0  0  0  0  0  0
  143.8706  133.8562  151.0133 C   0  0  0  0  0  0  0  0  0  0  0  0
  144.3498  132.3965  151.0838 C   0  0  0  0  0  0  0  0  0  0  0  0
  145.7679  132.3578  150.9907 O   0  0  0  0  0  0  0  0  0  0  0  0
  146.3972  133.1089  152.0205 C   0  0  0  0  0  0  0  0  0  0  0  0
  145.9252  134.5724  151.9598 C   0  0  0  0  0  0  0  0  0  0  0  0
  145.0813  138.0891  151.0438 H   0  0  0  0  0  0  0  0  0  0  0  0
  146.2553  138.4054  152.1588 H   0  0  0  0  0  0  0  0  0  0  0  0
  145.7340  136.6429  153.2093 H   0  0  0  0  0  0  0  0  0  0  0  0
  144.2521  137.4569  153.6739 H   0  0  0  0  0  0  0  0  0  0  0  0
  144.0709  136.4120  150.9361 H   0  0  0  0  0  0  0  0  0  0  0  0
  142.3569  138.3487  152.0089 H   0  0  0  0  0  0  0  0  0  0  0  0
  139.9428  138.4292  152.6761 H   0  0  0  0  0  0  0  0  0  0  0  0
  138.8295  136.3079  153.4153 H   0  0  0  0  0  0  0  0  0  0  0  0
  142.2839  134.1126  152.8697 H   0  0  0  0  0  0  0  0  0  0  0  0
  142.7837  133.8574  151.0914 H   0  0  0  0  0  0  0  0  0  0  0  0
  144.1104  134.2643  150.0302 H   0  0  0  0  0  0  0  0  0  0  0  0
  144.0230  131.9252  152.0121 H   0  0  0  0  0  0  0  0  0  0  0  0
  143.9241  131.8188  150.2633 H   0  0  0  0  0  0  0  0  0  0  0  0
  146.1692  132.6694  152.9932 H   0  0  0  0  0  0  0  0  0  0  0  0
  147.4780  133.0540  151.8908 H   0  0  0  0  0  0  0  0  0  0  0  0
  146.2744  135.0277  151.0317 H   0  0  0  0  0  0  0  0  0  0  0  0
  146.4116  135.1020  152.7769 H   0  0  0  0  0  0  0  0  0  0  0  0
  144.7614  139.0848  152.3192 H   0  0  0  0  0  0  0  0  0  0  0  0
  1  2  1  0  0  0  0
  1 16  1  0  0  0  0
  1 17  1  0  0  0  0
  1 33  1  0  0  0  0
  2  3  1  0  0  0  0
  2 18  1  0  0  0  0
  2 19  1  0  0  0  0
  3  4  1  0  0  0  0
  3 10  1  0  0  0  0
  3 20  1  0  0  0  0
  4  9  1  0  0  0  0
  4  5  2  0  0  0  0
  5  6  1  0  0  0  0
  5 21  1  0  0  0  0
  6  7  2  0  0  0  0
  6 22  1  0  0  0  0
  7  8  1  0  0  0  0
  7 23  1  0  0  0  0
  8  9  2  0  0  0  0
  9 24  1  0  0  0  0
 10 15  1  0  0  0  0
 10 11  1  0  0  0  0
 11 12  1  0  0  0  0
 11 25  1  0  0  0  0
 11 26  1  0  0  0  0
 12 13  1  0  0  0  0
 12 27  1  0  0  0  0
 12 28  1  0  0  0  0
 13 14  1  0  0  0  0
 14 15  1  0  0  0  0
 14 29  1  0  0  0  0
 14 30  1  0  0  0  0
 15 31  1  0  0  0  0
 15 32  1  0  0  0  0
M  CHG  1   1   1
M  END
> <s_m_source_file>
AV-unprocessed.smi

> <i_m_source_file_index>
3042

> <i_lp_mmshare_version>
43012

> <i_f3d_flags>
0

> <s_epik_input>
W0NIMl0xW0NIMl1PW0NIMl1bQ0gyXU4xW0NASF0oW0NIMl1bTkgyXSljMltjSF1bY0hdW2NIXW5bY0hdMg==

> <s_epik_cmdline>
J2VwaWtfcHl0aG9uJywgJy1waCcsICc3LjAnLCAnLXRuJywgJzgnLCAnLW1hJywgJzIwMCcsICctbWV0YWxfYmluZGluZycsICctaW1hZScsICc8aW5maWxlLm1hZT4nLCAnLW9tYWUnLCAnPG91dGZpbGUubWFlPic=

> <r_epik_Ionization_Penalty>
0.0112597

> <r_epik_Ionization_Penalty_Charging>
0.00794922

> <r_epik_Ionization_Penalty_Neutral>
0.00331052

> <r_epik_State_Penalty>
0.00596555

> <r_epik_Charging_Adjusted_Penalty>
0.0139148

> <i_epik_Tot_Q>
1

> <i_epik_Tot_abs_Q>
1

> <r_epik_Metal_State_Penalty>
0.00603286

> <b_epik_Metal_Only>
0

> <s_lp_Force_Field>
OPLS_2005

> <r_lp_Energy>
28.2789

> <b_lp_Chiralities_Consistent>
1

> <s_lp_Variant>
AV-unprocessed.smi:3042-1

> <Gold.Version>
5.8.1

> <Gold.Id.Protein>
6NUR|6NUR_protein|mol2

> <Gold.PLP.Fitness>
40.4046

> <Gold.PLP.PLP>
-28.2907

> <Gold.PLP.part.hbond>
-3.5092

> <Gold.PLP.part.metal>
0.0000

> <Gold.PLP.part.buried>
-7.2902

> <Gold.PLP.part.nonpolar>
-18.4751

> <Gold.PLP.part.repulsive>
0.3951

> <Gold.PLP.ligand.clash>
0.0000

> <Gold.PLP.ligand.torsion>
0.8835

> <Gold.PLP.Chemscore.Hbond>
3.9920

> <Gold.PLP.Chemscore.CHOScore>
0.6112

> <Gold.PLP.Chemscore.Metal>
0.0000

> <Gold.Chemscore.Hbonds>
donor molecule, donor type, donor heavy atom, donor atom, acceptor molecule, acceptor atom, score
      L1  H     1    16       P1 10171  0.75
      L1  H     1    33       P1 10175  2.00

> <Gold.PLP.Chemscore.Internal.Correction>
0.0712

> <Gold.Rescore>
     Score         DG    S(hbond)    S(metal)    S(lipo)     H(rot)  DE(clash)    DE(int)     intcor
     15.80     -16.80       2.60        0.00      55.18       1.48       0.00       1.00       ----

> <Gold.Chemscore.Fitness>
15.8001

> <Gold.Chemscore.DG>
-16.8042

> <Gold.Chemscore.ZeroCoef>
-5.4800

> <Gold.Chemscore.Hbond>
2.5954

> <Gold.Chemscore.Metal>
0.0000

> <Gold.Chemscore.Lipo>
55.1789

> <Gold.Chemscore.Internal_Hbond>
0.0000

> <Gold.Chemscore.DEClash>
0.0029

> <Gold.Chemscore.DEInternal>
1.0012

> <Gold.Chemscore.Rot>
1.4846

> <Gold.Chemscore.Internal.Correction>
   9.000000E+99

> <Gold.Chemscore.Hbonds>
donor molecule, donor type, donor heavy atom, donor atom, acceptor molecule, acceptor atom, score
      L1  H     1    16       P1 10171  0.76
      L1  H     1    33       P1 10175  1.00

> <Gold.Chemscore.Hbond.Weighted>
-8.6688

> <Gold.Chemscore.Metal.Weighted>
-0.0000

> <Gold.Chemscore.Lipo.Weighted>
-6.4559

> <Gold.Chemscore.Internal_Hbond.Weighted>
0.0000

> <Gold.Chemscore.DEClash.Weighted>
0.0029

> <Gold.Chemscore.DEInternal.Weighted>
1.0012

> <Gold.Chemscore.Rot.Weighted>
3.8005

> <Gold.Chemscore.Internal.Correction.Weighted>
   9.000000E+99

> <Gold.Protein.RotatedTorsions>
[ 6907 6896 6895 6894 ] final  157.80 input  -60.11 | X-H torsion
[ 7974 7965 7964 7962 ] final  -81.42 input  175.53 | X-H torsion
[ 8008 7997 7996 7995 ] final -105.77 input   59.86 | X-H torsion
[ 10167 10162 10161 10158 ] final -153.03 input  -65.29 | X-H torsion
[ 10718 10713 10712 10709 ] final -171.74 input   66.30 | X-H torsion
[ 10763 10752 10751 10750 ] final  -46.43 input  -60.55 | X-H torsion
[ 11005 11000 10999 10996 ] final   32.46 input  -57.11 | X-H torsion

> <Gold.Protein.ActiveResidues>
 VAL166  LYS551  ARG553  GLY616  TRP617  ASP618  TYR619  PRO620  LYS621  CYS622 
 ASP623  PHE694  ASN695  SER759  ASP760  ASP761  ALA762  ILE779  LEU786  VAL792 
 PHE793  MET794  SER795  GLU796  ALA797  LYS798  CYS799  TRP800  GLU811  SER814 

> <Gold.Protein.RotatedAtoms>
  152.0098  133.3857  159.4215 H   0  0  0  0  0  0  0  0  0  0  0  0  # atno 6907 bound_to 6896
  150.6900  134.3742  159.5015 H   0  0  0  0  0  0  0  0  0  0  0  0  # atno 6908 bound_to 6896
  152.1501  134.8994  160.0599 H   0  0  0  0  0  0  0  0  0  0  0  0  # atno 6909 bound_to 6896
  145.5468  140.9502  143.1521 H   0  0  0  0  0  0  0  0  0  0  0  0  # atno 7974 bound_to 7965
  154.9047  140.0412  157.1913 H   0  0  0  0  0  0  0  0  0  0  0  0  # atno 8008 bound_to 7997
  154.8408  140.2914  155.5639 H   0  0  0  0  0  0  0  0  0  0  0  0  # atno 8009 bound_to 7997
  156.2992  140.2483  156.3350 H   0  0  0  0  0  0  0  0  0  0  0  0  # atno 8010 bound_to 7997
  139.7131  143.9077  152.2475 H   0  0  0  0  0  0  0  0  0  0  0  0  # atno 10167 bound_to 10162
  156.7454  130.9358  151.3112 H   0  0  0  0  0  0  0  0  0  0  0  0  # atno 10718 bound_to 10713
  154.0448  135.6639  153.4794 H   0  0  0  0  0  0  0  0  0  0  0  0  # atno 10763 bound_to 10752
  153.0487  135.5098  154.7807 H   0  0  0  0  0  0  0  0  0  0  0  0  # atno 10764 bound_to 10752
  154.6795  135.3042  154.9599 H   0  0  0  0  0  0  0  0  0  0  0  0  # atno 10765 bound_to 10752
  140.2732  134.3058  155.7822 H   0  0  0  0  0  0  0  0  0  0  0  0  # atno 11005 bound_to 11000
  144.7549  139.7100  143.7258 LP  0  0  0  0  0  0  0  0  0  0  0  0  # atno 17320 bound_to 7965
  146.1943  139.5201  142.9784 LP  0  0  0  0  0  0  0  0  0  0  0  0  # atno 17321 bound_to 7965
  139.8951  144.6943  150.8727 LP  0  0  0  0  0  0  0  0  0  0  0  0  # atno 17342 bound_to 10162
  140.7737  143.3556  151.1928 LP  0  0  0  0  0  0  0  0  0  0  0  0  # atno 17343 bound_to 10162
  157.6800  130.9131  150.0244 LP  0  0  0  0  0  0  0  0  0  0  0  0  # atno 17370 bound_to 10713
  156.1437  130.3642  149.9543 LP  0  0  0  0  0  0  0  0  0  0  0  0  # atno 17371 bound_to 10713
  141.2174  133.7479  156.9367 LP  0  0  0  0  0  0  0  0  0  0  0  0  # atno 17394 bound_to 11000
  140.1353  134.9329  157.2393 LP  0  0  0  0  0  0  0  0  0  0  0  0  # atno 17395 bound_to 11000

$$$$
