AV-unprocessed.smi:2963|AV-procd|sdf|11319|dock5
  -GOLD-   2272016223D 1   1.00000     0.00000
 Structure written by MMmdl.
 41 43  0  0  0  0  0  0  0  0  1 V2000
  151.0966  138.1583  154.2695 C   0  0  0  0  0  0  0  0  0  0  0  0
  151.6908  139.4437  154.3578 O   0  0  0  0  0  0  0  0  0  0  0  0
  152.2018  139.7466  155.6487 C   0  0  0  0  0  0  0  0  0  0  0  0
  151.2006  140.5564  156.4921 C   0  0  0  0  0  0  0  0  0  0  0  0
  151.7785  140.9892  157.7567 N   0  0  0  0  0  0  0  0  0  0  0  0
  152.3739  140.2368  158.7149 C   0  0  0  0  0  0  0  0  0  0  0  0
  152.5451  138.4908  158.5676 S   0  0  0  0  0  0  0  0  0  0  0  0
  153.0995  138.1596  160.2673 C   0  0  0  0  0  0  0  0  0  0  0  0
  153.8385  136.8240  160.4473 C   0  0  0  0  0  0  0  0  0  0  0  0
  153.9890  136.0939  159.4642 O   0  0  0  0  0  0  0  0  0  0  0  0
  154.2981  136.5215  161.6908 N   0  0  0  0  0  0  0  0  0  0  0  0
  154.1074  137.3892  162.8547 C   0  0  0  0  0  0  0  0  0  0  0  0
  154.7718  136.6345  164.0008 C   0  0  0  0  0  0  0  0  0  0  0  0
  155.2621  135.4517  163.3380 N   0  0  0  0  0  0  0  0  0  0  0  0
  154.9841  135.4050  162.0330 C   0  0  0  0  0  0  0  0  0  0  0  0
  155.3205  134.4742  161.3000 O   0  0  0  0  0  0  0  0  0  0  0  0
  152.8301  140.9043  159.7751 N   0  0  0  0  0  0  0  0  0  0  0  0
  152.4971  142.2111  159.4793 C   0  0  0  0  0  0  0  0  0  0  0  0
  152.7106  143.4019  160.2099 C   0  0  0  0  0  0  0  0  0  0  0  0
  152.2770  144.6418  159.6964 C   0  0  0  0  0  0  0  0  0  0  0  0
  151.6264  144.7086  158.4472 C   0  0  0  0  0  0  0  0  0  0  0  0
  151.4033  143.5338  157.7035 C   0  0  0  0  0  0  0  0  0  0  0  0
  151.8369  142.2989  158.2215 C   0  0  0  0  0  0  0  0  0  0  0  0
  150.7458  137.9884  153.2516 H   0  0  0  0  0  0  0  0  0  0  0  0
  150.2375  138.0769  154.9364 H   0  0  0  0  0  0  0  0  0  0  0  0
  151.8036  137.3662  154.5158 H   0  0  0  0  0  0  0  0  0  0  0  0
  152.4038  138.8002  156.1510 H   0  0  0  0  0  0  0  0  0  0  0  0
  153.1609  140.2624  155.5806 H   0  0  0  0  0  0  0  0  0  0  0  0
  150.8910  141.4443  155.9396 H   0  0  0  0  0  0  0  0  0  0  0  0
  150.2898  139.9875  156.6741 H   0  0  0  0  0  0  0  0  0  0  0  0
  153.7660  138.9703  160.5635 H   0  0  0  0  0  0  0  0  0  0  0  0
  152.2298  138.1924  160.9241 H   0  0  0  0  0  0  0  0  0  0  0  0
  154.5849  138.3588  162.7044 H   0  0  0  0  0  0  0  0  0  0  0  0
  153.0477  137.5494  163.0592 H   0  0  0  0  0  0  0  0  0  0  0  0
  155.5950  137.1974  164.4426 H   0  0  0  0  0  0  0  0  0  0  0  0
  154.0608  136.3679  164.7837 H   0  0  0  0  0  0  0  0  0  0  0  0
  155.7690  134.7292  163.8286 H   0  0  0  0  0  0  0  0  0  0  0  0
  153.2085  143.3615  161.1672 H   0  0  0  0  0  0  0  0  0  0  0  0
  152.4454  145.5458  160.2630 H   0  0  0  0  0  0  0  0  0  0  0  0
  151.2989  145.6626  158.0604 H   0  0  0  0  0  0  0  0  0  0  0  0
  150.9065  143.5815  156.7458 H   0  0  0  0  0  0  0  0  0  0  0  0
  1  2  1  0  0  0  0
  1 24  1  0  0  0  0
  1 25  1  0  0  0  0
  1 26  1  0  0  0  0
  2  3  1  0  0  0  0
  3  4  1  0  0  0  0
  3 27  1  0  0  0  0
  3 28  1  0  0  0  0
  4  5  1  0  0  0  0
  4 29  1  0  0  0  0
  4 30  1  0  0  0  0
  5 23  1  0  0  0  0
  5  6  1  0  0  0  0
  6  7  1  0  0  0  0
  6 17  2  0  0  0  0
  7  8  1  0  0  0  0
  8  9  1  0  0  0  0
  8 31  1  0  0  0  0
  8 32  1  0  0  0  0
  9 10  2  0  0  0  0
  9 11  1  0  0  0  0
 11 15  1  0  0  0  0
 11 12  1  0  0  0  0
 12 13  1  0  0  0  0
 12 33  1  0  0  0  0
 12 34  1  0  0  0  0
 13 14  1  0  0  0  0
 13 35  1  0  0  0  0
 13 36  1  0  0  0  0
 14 15  1  0  0  0  0
 14 37  1  0  0  0  0
 15 16  2  0  0  0  0
 17 18  1  0  0  0  0
 18 23  2  0  0  0  0
 18 19  1  0  0  0  0
 19 20  2  0  0  0  0
 19 38  1  0  0  0  0
 20 21  1  0  0  0  0
 20 39  1  0  0  0  0
 21 22  2  0  0  0  0
 21 40  1  0  0  0  0
 22 23  1  0  0  0  0
 22 41  1  0  0  0  0
M  END
> <s_m_source_file>
AV-unprocessed.smi

> <i_m_source_file_index>
2963

> <i_lp_mmshare_version>
43012

> <i_f3d_flags>
0

> <s_epik_input>
W2NIXTFbY0hdW2NIXVtjSF1jKGMxMiluKFtDSDJdW0NIMl1PW0NIM10pYyhuMilTW0NIMl1DKD1PKU4zW0NIMl1bQ0gyXVtOSF1DMz1P

> <s_epik_cmdline>
J2VwaWtfcHl0aG9uJywgJy1waCcsICc3LjAnLCAnLXRuJywgJzgnLCAnLW1hJywgJzIwMCcsICctbWV0YWxfYmluZGluZycsICctaW1hZScsICc8aW5maWxlLm1hZT4nLCAnLW9tYWUnLCAnPG91dGZpbGUubWFlPic=

> <r_lp_tautomer_probability>
0.9999

> <r_epik_Ionization_Penalty>
0.0341365

> <r_epik_Ionization_Penalty_Charging>
0

> <r_epik_Ionization_Penalty_Neutral>
0.0341365

> <r_epik_State_Penalty>
0.0283589

> <r_epik_Charging_Adjusted_Penalty>
0.0283589

> <i_epik_Tot_Q>
0

> <i_epik_Tot_abs_Q>
0

> <r_epik_Metal_State_Penalty>
0.0267964

> <b_epik_Metal_Only>
0

> <s_lp_Force_Field>
OPLS_2005

> <r_lp_Energy>
40.6732

> <b_lp_Chiralities_Consistent>
1

> <s_lp_Variant>
AV-unprocessed.smi:2963-1

> <Gold.Version>
5.8.1

> <Gold.Id.Protein>
6NUR|6NUR_protein|mol2

> <Gold.PLP.Fitness>
54.6211

> <Gold.PLP.PLP>
-49.4871

> <Gold.PLP.part.hbond>
-2.0000

> <Gold.PLP.part.metal>
0.0000

> <Gold.PLP.part.buried>
-5.5605

> <Gold.PLP.part.nonpolar>
-42.2503

> <Gold.PLP.part.repulsive>
0.0998

> <Gold.PLP.ligand.clash>
0.0000

> <Gold.PLP.ligand.torsion>
0.4827

> <Gold.PLP.Chemscore.Hbond>
2.0000

> <Gold.PLP.Chemscore.CHOScore>
0.0000

> <Gold.PLP.Chemscore.Metal>
0.0000

> <Gold.Chemscore.Hbonds>
donor molecule, donor type, donor heavy atom, donor atom, acceptor molecule, acceptor atom, score
      P1  H  6896  6908       L1    10  0.44
      P1  H  7989  7998       L1     2  1.00

> <Gold.PLP.Chemscore.Internal.Correction>
0.0993

> <Gold.Rescore>
     Score         DG    S(hbond)    S(metal)    S(lipo)     H(rot)  DE(clash)    DE(int)     intcor
     17.66     -19.72       1.91        0.00     118.06       2.33       0.02       2.04       ----

> <Gold.Chemscore.Fitness>
17.6594

> <Gold.Chemscore.DG>
-19.7190

> <Gold.Chemscore.ZeroCoef>
-5.4800

> <Gold.Chemscore.Hbond>
1.9120

> <Gold.Chemscore.Metal>
0.0000

> <Gold.Chemscore.Lipo>
118.0568

> <Gold.Chemscore.Internal_Hbond>
0.0000

> <Gold.Chemscore.DEClash>
0.0212

> <Gold.Chemscore.DEInternal>
2.0385

> <Gold.Chemscore.Rot>
2.3280

> <Gold.Chemscore.Internal.Correction>
   9.000000E+99

> <Gold.Chemscore.Hbonds>
donor molecule, donor type, donor heavy atom, donor atom, acceptor molecule, acceptor atom, score
      P1  H  6896  6908       L1    10  0.04
      P1  H  7989  7998       L1     2  0.63

> <Gold.Chemscore.Hbond.Weighted>
-6.3862

> <Gold.Chemscore.Metal.Weighted>
-0.0000

> <Gold.Chemscore.Lipo.Weighted>
-13.8126

> <Gold.Chemscore.Internal_Hbond.Weighted>
0.0000

> <Gold.Chemscore.DEClash.Weighted>
0.0212

> <Gold.Chemscore.DEInternal.Weighted>
2.0385

> <Gold.Chemscore.Rot.Weighted>
5.9598

> <Gold.Chemscore.Internal.Correction.Weighted>
   9.000000E+99

> <Gold.Protein.RotatedTorsions>
[ 6907 6896 6895 6894 ] final  -71.18 input  -60.11 | X-H torsion
[ 7974 7965 7964 7962 ] final -173.76 input  175.53 | X-H torsion
[ 8008 7997 7996 7995 ] final  -30.17 input   59.86 | X-H torsion
[ 10167 10162 10161 10158 ] final   19.96 input  -65.29 | X-H torsion
[ 10718 10713 10712 10709 ] final   -5.22 input   66.30 | X-H torsion
[ 10763 10752 10751 10750 ] final   80.96 input  -60.55 | X-H torsion
[ 11005 11000 10999 10996 ] final  -85.04 input  -57.11 | X-H torsion

> <Gold.Protein.ActiveResidues>
 VAL166  LYS551  ARG553  GLY616  TRP617  ASP618  TYR619  PRO620  LYS621  CYS622 
 ASP623  PHE694  ASN695  SER759  ASP760  ASP761  ALA762  ILE779  LEU786  VAL792 
 PHE793  MET794  SER795  GLU796  ALA797  LYS798  CYS799  TRP800  GLU811  SER814 

> <Gold.Protein.RotatedAtoms>
  150.7224  134.5346  159.5716 H   0  0  0  0  0  0  0  0  0  0  0  0  # atno 6907 bound_to 6896
  152.2871  134.7760  160.0394 H   0  0  0  0  0  0  0  0  0  0  0  0  # atno 6908 bound_to 6896
  151.8387  133.3384  159.3673 H   0  0  0  0  0  0  0  0  0  0  0  0  # atno 6909 bound_to 6896
  144.7136  140.1574  143.6379 H   0  0  0  0  0  0  0  0  0  0  0  0  # atno 7974 bound_to 7965
  154.4261  140.1798  156.1365 H   0  0  0  0  0  0  0  0  0  0  0  0  # atno 8008 bound_to 7997
  156.0026  140.3358  155.6835 H   0  0  0  0  0  0  0  0  0  0  0  0  # atno 8009 bound_to 7997
  155.6222  140.0661  157.2665 H   0  0  0  0  0  0  0  0  0  0  0  0  # atno 8010 bound_to 7997
  140.5540  143.9459  150.6596 H   0  0  0  0  0  0  0  0  0  0  0  0  # atno 10167 bound_to 10162
  156.7497  130.5235  149.5806 H   0  0  0  0  0  0  0  0  0  0  0  0  # atno 10718 bound_to 10713
  153.1077  135.4783  154.8980 H   0  0  0  0  0  0  0  0  0  0  0  0  # atno 10763 bound_to 10752
  154.7447  135.3091  154.8668 H   0  0  0  0  0  0  0  0  0  0  0  0  # atno 10764 bound_to 10752
  153.9266  135.6849  153.4800 H   0  0  0  0  0  0  0  0  0  0  0  0  # atno 10765 bound_to 10752
  141.1645  133.7378  156.8957 H   0  0  0  0  0  0  0  0  0  0  0  0  # atno 11005 bound_to 11000
  145.9061  139.2459  143.1465 LP  0  0  0  0  0  0  0  0  0  0  0  0  # atno 17320 bound_to 7965
  145.9762  140.8720  143.0137 LP  0  0  0  0  0  0  0  0  0  0  0  0  # atno 17321 bound_to 7965
  140.2892  143.3336  152.1079 LP  0  0  0  0  0  0  0  0  0  0  0  0  # atno 17342 bound_to 10162
  139.5039  144.6766  151.6114 LP  0  0  0  0  0  0  0  0  0  0  0  0  # atno 17343 bound_to 10162
  156.1409  130.6244  151.0466 LP  0  0  0  0  0  0  0  0  0  0  0  0  # atno 17370 bound_to 10713
  157.6782  131.0845  150.7439 LP  0  0  0  0  0  0  0  0  0  0  0  0  # atno 17371 bound_to 10713
  140.1617  134.9161  157.2723 LP  0  0  0  0  0  0  0  0  0  0  0  0  # atno 17394 bound_to 11000
  140.2603  134.3579  155.7409 LP  0  0  0  0  0  0  0  0  0  0  0  0  # atno 17395 bound_to 11000

$$$$
