AV-unprocessed.smi:2492|AV-procd|sdf|9816|dock9
  -GOLD-   2272013443D 1   1.00000     0.00000
 Structure written by MMmdl.
 32 33  0  0  0  0  0  0  0  0  2 V2000
  151.8545  145.8577  160.0984 C   0  0  0  0  0  0  0  0  0  0  0  0
  151.5446  144.2862  159.2510 S   0  0  0  0  0  0  0  0  0  0  0  0
  152.9761  143.3229  159.8195 C   0  0  1  0  0  0  0  0  0  0  0  0
  152.8669  142.8806  161.2777 C   0  0  0  0  0  0  0  0  0  0  0  0
  153.8615  141.7247  161.3910 C   0  0  0  0  0  0  0  0  0  0  0  0
  153.8951  141.0544  160.0050 C   0  0  1  0  0  0  0  0  0  0  0  0
  153.2713  139.7340  160.0577 N   0  0  0  0  0  0  0  0  0  0  0  0
  152.9848  138.9590  159.0015 C   0  0  0  0  0  0  0  0  0  0  0  0
  153.2529  139.3490  157.8626 O   0  0  0  0  0  0  0  0  0  0  0  0
  152.4030  137.7833  159.3304 N   0  5  0  0  0  0  0  0  0  0  0  0
  151.0673  137.6552  159.2696 C   0  0  0  0  0  0  0  0  0  0  0  0
  150.3716  136.5517  159.5469 N   0  0  0  0  0  0  0  0  0  0  0  0
  149.0934  136.9683  159.3420 C   0  0  0  0  0  0  0  0  0  0  0  0
  147.9124  136.0781  159.5256 C   0  0  0  0  0  0  0  0  0  0  0  0
  148.9501  138.2323  158.9732 N   0  0  0  0  0  0  0  0  0  0  0  0
  150.2703  138.7010  158.9272 O   0  0  0  0  0  0  0  0  0  0  0  0
  153.1440  142.0083  159.0526 C   0  0  0  0  0  0  0  0  0  0  0  0
  151.0937  146.5878  159.8230 H   0  0  0  0  0  0  0  0  0  0  0  0
  152.8309  146.2548  159.8210 H   0  0  0  0  0  0  0  0  0  0  0  0
  151.8259  145.7235  161.1796 H   0  0  0  0  0  0  0  0  0  0  0  0
  153.8785  143.9224  159.6916 H   0  0  0  0  0  0  0  0  0  0  0  0
  153.0835  143.6841  161.9818 H   0  0  0  0  0  0  0  0  0  0  0  0
  151.8593  142.5167  161.4837 H   0  0  0  0  0  0  0  0  0  0  0  0
  154.8507  142.1237  161.6197 H   0  0  0  0  0  0  0  0  0  0  0  0
  153.5995  141.0391  162.1980 H   0  0  0  0  0  0  0  0  0  0  0  0
  154.9355  140.9501  159.6914 H   0  0  0  0  0  0  0  0  0  0  0  0
  153.0348  139.3773  160.9719 H   0  0  0  0  0  0  0  0  0  0  0  0
  147.5183  136.1821  160.5365 H   0  0  0  0  0  0  0  0  0  0  0  0
  148.1911  135.0360  159.3668 H   0  0  0  0  0  0  0  0  0  0  0  0
  147.1242  136.3342  158.8169 H   0  0  0  0  0  0  0  0  0  0  0  0
  152.1608  141.6017  158.8093 H   0  0  0  0  0  0  0  0  0  0  0  0
  153.6746  142.1482  158.1103 H   0  0  0  0  0  0  0  0  0  0  0  0
  1  2  1  0  0  0  0
  1 18  1  0  0  0  0
  1 19  1  0  0  0  0
  1 20  1  0  0  0  0
  2  3  1  0  0  0  0
  3 17  1  0  0  0  0
  3  4  1  0  0  0  0
  3 21  1  0  0  0  0
  4  5  1  0  0  0  0
  4 22  1  0  0  0  0
  4 23  1  0  0  0  0
  5  6  1  0  0  0  0
  5 24  1  0  0  0  0
  5 25  1  0  0  0  0
  6  7  1  0  0  0  0
  6 17  1  0  0  0  0
  6 26  1  0  0  0  0
  7  8  1  0  0  0  0
  7 27  1  0  0  0  0
  8  9  2  0  0  0  0
  8 10  1  0  0  0  0
 10 11  1  0  0  0  0
 11 16  1  0  0  0  0
 11 12  2  0  0  0  0
 12 13  1  0  0  0  0
 13 14  1  0  0  0  0
 13 15  2  0  0  0  0
 14 28  1  0  0  0  0
 14 29  1  0  0  0  0
 14 30  1  0  0  0  0
 15 16  1  0  0  0  0
 17 31  1  0  0  0  0
 17 32  1  0  0  0  0
M  CHG  1  10  -1
M  END
> <s_m_source_file>
AV-unprocessed.smi

> <i_m_source_file_index>
2492

> <i_lp_mmshare_version>
43012

> <i_f3d_flags>
0

> <s_epik_input>
W0NIM11TW0NAQEhdMVtDSDJdW0NIMl1bQ0BIXShbQ0gyXTEpW05IXUMoPU8pW05IXWMybmMoW0NIM10pbm8y

> <s_epik_cmdline>
J2VwaWtfcHl0aG9uJywgJy1waCcsICc3LjAnLCAnLXRuJywgJzgnLCAnLW1hJywgJzIwMCcsICctbWV0YWxfYmluZGluZycsICctaW1hZScsICc8aW5maWxlLm1hZT4nLCAnLW9tYWUnLCAnPG91dGZpbGUubWFlPic=

> <r_lp_tautomer_probability>
1

> <r_epik_Ionization_Penalty>
6.26454

> <r_epik_Ionization_Penalty_Charging>
6.26445

> <r_epik_Ionization_Penalty_Neutral>
9.05726e-05

> <r_epik_State_Penalty>
6.26444

> <r_epik_Charging_Adjusted_Penalty>
12.5289

> <i_epik_Tot_Q>
-1

> <i_epik_Tot_abs_Q>
1

> <r_epik_Metal_State_Penalty>
2.20125

> <b_epik_Metal_Only>
1

> <s_lp_Force_Field>
OPLS_2005

> <r_lp_Energy>
11.8534

> <b_lp_Chiralities_Consistent>
1

> <s_lp_Variant>
AV-unprocessed.smi:2492-6

> <Gold.Version>
5.8.1

> <Gold.Id.Protein>
6NUR|6NUR_protein|mol2

> <Gold.PLP.Fitness>
40.4552

> <Gold.PLP.PLP>
-36.2002

> <Gold.PLP.part.hbond>
-3.6924

> <Gold.PLP.part.metal>
0.0000

> <Gold.PLP.part.buried>
-4.2844

> <Gold.PLP.part.nonpolar>
-27.3970

> <Gold.PLP.part.repulsive>
0.0896

> <Gold.PLP.ligand.clash>
0.0000

> <Gold.PLP.ligand.torsion>
0.8755

> <Gold.PLP.Chemscore.Hbond>
2.0000

> <Gold.PLP.Chemscore.CHOScore>
0.0000

> <Gold.PLP.Chemscore.Metal>
0.0000

> <Gold.Chemscore.Hbonds>
donor molecule, donor type, donor heavy atom, donor atom, acceptor molecule, acceptor atom, score
      P1  H  6896  6908       L1    12  1.00
      P1  H  7997  8008       L1     9  1.00

> <Gold.PLP.Chemscore.Internal.Correction>
0.0061

> <Gold.Rescore>
     Score         DG    S(hbond)    S(metal)    S(lipo)     H(rot)  DE(clash)    DE(int)     intcor
     17.74     -18.51       1.99        0.00      82.33       1.27       0.02       0.75       ----

> <Gold.Chemscore.Fitness>
17.7356

> <Gold.Chemscore.DG>
-18.5071

> <Gold.Chemscore.ZeroCoef>
-5.4800

> <Gold.Chemscore.Hbond>
1.9907

> <Gold.Chemscore.Metal>
0.0000

> <Gold.Chemscore.Lipo>
82.3275

> <Gold.Chemscore.Internal_Hbond>
0.0000

> <Gold.Chemscore.DEClash>
0.0211

> <Gold.Chemscore.DEInternal>
0.7504

> <Gold.Chemscore.Rot>
1.2712

> <Gold.Chemscore.Internal.Correction>
   9.000000E+99

> <Gold.Chemscore.Hbonds>
donor molecule, donor type, donor heavy atom, donor atom, acceptor molecule, acceptor atom, score
      P1  H  6896  6908       L1    12  0.97
      P1  H  7997  8008       L1     9  1.00

> <Gold.Chemscore.Hbond.Weighted>
-6.6489

> <Gold.Chemscore.Metal.Weighted>
-0.0000

> <Gold.Chemscore.Lipo.Weighted>
-9.6323

> <Gold.Chemscore.Internal_Hbond.Weighted>
0.0000

> <Gold.Chemscore.DEClash.Weighted>
0.0211

> <Gold.Chemscore.DEInternal.Weighted>
0.7504

> <Gold.Chemscore.Rot.Weighted>
3.2542

> <Gold.Chemscore.Internal.Correction.Weighted>
   9.000000E+99

> <Gold.Protein.RotatedTorsions>
[ 6907 6896 6895 6894 ] final -169.60 input  -60.11 | X-H torsion
[ 7974 7965 7964 7962 ] final  -40.92 input  175.53 | X-H torsion
[ 8008 7997 7996 7995 ] final  -78.23 input   59.86 | X-H torsion
[ 10167 10162 10161 10158 ] final -108.76 input  -65.29 | X-H torsion
[ 10718 10713 10712 10709 ] final  121.56 input   66.30 | X-H torsion
[ 10763 10752 10751 10750 ] final  -70.33 input  -60.55 | X-H torsion
[ 11005 11000 10999 10996 ] final  122.95 input  -57.11 | X-H torsion

> <Gold.Protein.ActiveResidues>
 VAL166  LYS551  ARG553  GLY616  TRP617  ASP618  TYR619  PRO620  LYS621  CYS622 
 ASP623  PHE694  ASN695  SER759  ASP760  ASP761  ALA762  ILE779  LEU786  VAL792 
 PHE793  MET794  SER795  GLU796  ALA797  LYS798  CYS799  TRP800  GLU811  SER814 

> <Gold.Protein.RotatedAtoms>
  151.4942  133.3518  159.2858 H   0  0  0  0  0  0  0  0  0  0  0  0  # atno 6907 bound_to 6896
  150.8814  134.8208  159.7239 H   0  0  0  0  0  0  0  0  0  0  0  0  # atno 6908 bound_to 6896
  152.4765  134.4840  159.9726 H   0  0  0  0  0  0  0  0  0  0  0  0  # atno 6909 bound_to 6896
  146.0259  140.6792  142.9156 H   0  0  0  0  0  0  0  0  0  0  0  0  # atno 7974 bound_to 7965
  154.5670  140.0697  156.8906 H   0  0  0  0  0  0  0  0  0  0  0  0  # atno 8008 bound_to 7997
  155.2705  140.3365  155.4247 H   0  0  0  0  0  0  0  0  0  0  0  0  # atno 8009 bound_to 7997
  156.2088  140.1751  156.7726 H   0  0  0  0  0  0  0  0  0  0  0  0  # atno 8010 bound_to 7997
  140.1627  143.4107  152.1414 H   0  0  0  0  0  0  0  0  0  0  0  0  # atno 10167 bound_to 10162
  157.5808  131.1075  150.8190 H   0  0  0  0  0  0  0  0  0  0  0  0  # atno 10718 bound_to 10713
  154.4161  135.5997  153.5981 H   0  0  0  0  0  0  0  0  0  0  0  0  # atno 10763 bound_to 10752
  152.9792  135.5941  154.4012 H   0  0  0  0  0  0  0  0  0  0  0  0  # atno 10764 bound_to 10752
  154.3831  135.2841  155.2178 H   0  0  0  0  0  0  0  0  0  0  0  0  # atno 10765 bound_to 10752
  139.9291  134.9641  156.8185 H   0  0  0  0  0  0  0  0  0  0  0  0  # atno 11005 bound_to 11000
  144.7009  140.3649  143.7156 LP  0  0  0  0  0  0  0  0  0  0  0  0  # atno 17320 bound_to 7965
  145.7119  139.1687  143.2534 LP  0  0  0  0  0  0  0  0  0  0  0  0  # atno 17321 bound_to 7965
  139.5374  144.7223  151.4848 LP  0  0  0  0  0  0  0  0  0  0  0  0  # atno 17342 bound_to 10162
  140.6633  143.8452  150.6912 LP  0  0  0  0  0  0  0  0  0  0  0  0  # atno 17343 bound_to 10162
  156.8637  130.5122  149.5302 LP  0  0  0  0  0  0  0  0  0  0  0  0  # atno 17370 bound_to 10713
  156.0854  130.5854  150.9639 LP  0  0  0  0  0  0  0  0  0  0  0  0  # atno 17371 bound_to 10713
  140.6253  133.9956  155.7637 LP  0  0  0  0  0  0  0  0  0  0  0  0  # atno 17394 bound_to 11000
  141.0868  133.9979  157.3301 LP  0  0  0  0  0  0  0  0  0  0  0  0  # atno 17395 bound_to 11000

$$$$
