#       Name:                AV-unprocessed.smi:3004
#       Creating user name   scv26
#       Creation time:       Fri Mar 27 16:36:55 2020


#       File generated by GOLD software.
#

@<TRIPOS>MOLECULE
AV-unprocessed.smi:3004
    50    51     1
SMALL
NO_CHARGES


@<TRIPOS>ATOM
      1 ****        -4.9381   4.2572   1.1746 C.3            1 S1                 0.0000
      2 ****        -4.5772   3.2432   0.1298 C.2            1 S1                 0.0000
      3 ****        -4.7066   3.3498  -1.2831 C.2            1 S1                 0.0000
      4 ****        -4.2302   2.1602  -1.7571 C.2            1 S1                 0.0000
      5 ****        -4.1002   1.6671  -3.1608 C.3            1 S1                 0.0000
      6 ****        -3.8504   1.4129  -0.6559 N.pl3          1 S1                 0.0000
      7 ****        -3.2702   0.0804  -0.6051 C.3            1 S1                 0.0000
      8 ****        -1.7428   0.1489  -0.5579 C.2            1 S1                 0.0000
      9 ****        -1.1043   0.4092  -1.5776 O.2            1 S1                 0.0000
     10 ****        -1.1694  -0.0793   0.6338 N.am           1 S1                 0.0000
     11 ****         0.2626  -0.0211   0.9033 C.3            1 S1                 0.0000
     12 ****         1.0084  -1.2350   0.3070 C.3            1 S1                 0.0000
     13 ****         2.4520  -1.2999   0.6812 N.4            1 S1                 1.0000
     14 ****         3.2222  -0.1317   0.1614 C.3            1 S1                 0.0000
     15 ****         4.6767  -0.1335   0.6532 C.3            1 S1                 0.0000
     16 ****         5.3784  -1.4319   0.2580 C.3            1 S1                 0.0000
     17 ****         4.5804  -2.6206   0.7974 C.3            1 S1                 0.0000
     18 ****         3.1129  -2.5971   0.3157 C.3            1 S1                 0.0000
     19 ****         2.3885  -3.8360   0.8822 C.3            1 S1                 0.0000
     20 ****        -4.0664   2.0799   0.4994 N.2            1 S1                 0.0000
     21 ****        -5.2632   5.1928   0.7192 H              1 S1                 0.0000
     22 ****        -4.0857   4.4806   1.8165 H              1 S1                 0.0000
     23 ****        -5.7490   3.8968   1.8078 H              1 S1                 0.0000
     24 ****        -5.0890   4.1773  -1.8623 H              1 S1                 0.0000
     25 ****        -4.4256   2.4266  -3.8718 H              1 S1                 0.0000
     26 ****        -4.7108   0.7780  -3.3181 H              1 S1                 0.0000
     27 ****        -3.0651   1.4150  -3.3910 H              1 S1                 0.0000
     28 ****        -3.6610  -0.4483   0.2662 H              1 S1                 0.0000
     29 ****        -3.5844  -0.4852  -1.4824 H              1 S1                 0.0000
     30 ****        -1.7749  -0.2771   1.4179 H              1 S1                 0.0000
     31 ****         0.6374   0.9235   0.5096 H              1 S1                 0.0000
     32 ****         0.4017   0.0092   1.9843 H              1 S1                 0.0000
     33 ****         0.4859  -2.1170   0.6703 H              1 S1                 0.0000
     34 ****         0.9210  -1.2480  -0.7803 H              1 S1                 0.0000
     35 ****         3.1953  -0.1337  -0.9295 H              1 S1                 0.0000
     36 ****         2.7753   0.8058   0.4854 H              1 S1                 0.0000
     37 ****         5.2124   0.7200   0.2367 H              1 S1                 0.0000
     38 ****         4.6998  -0.0148   1.7376 H              1 S1                 0.0000
     39 ****         5.4596  -1.4976  -0.8278 H              1 S1                 0.0000
     40 ****         6.3950  -1.4482   0.6520 H              1 S1                 0.0000
     41 ****         5.0639  -3.5465   0.4836 H              1 S1                 0.0000
     42 ****         4.6112  -2.6136   1.8882 H              1 S1                 0.0000
     43 ****         3.1122  -2.6775  -0.7728 H              1 S1                 0.0000
     44 ****         2.9862  -4.7365   0.7373 H              1 S1                 0.0000
     45 ****         1.4383  -4.0254   0.3840 H              1 S1                 0.0000
     46 ****         2.2027  -3.7352   1.9520 H              1 S1                 0.0000
     47 ****         2.4861  -1.2419   1.6890 H              1 S1                 0.0000
     48 ****        -1.5841   0.5763  -2.4390 LP             1 S1                 0.0000
     49 ****        -0.1059   0.4535  -1.5447 LP             1 S1                 0.0000
     50 ****        -3.8809   1.7636   1.4297 LP             1 S1                 0.0000
@<TRIPOS>BOND
    1    1    2 1     
    2    1   21 1     
    3    1   22 1     
    4    1   23 1     
    5    2   20 2     
    6    2    3 1     
    7    3    4 2     
    8    3   24 1     
    9    4    5 1     
   10    4    6 1     
   11    5   25 1     
   12    5   26 1     
   13    5   27 1     
   14    6    7 1     
   15    6   20 1     
   16    7    8 1     
   17    7   28 1     
   18    7   29 1     
   19    8    9 2     
   20    8   10 am    
   21   10   11 1     
   22   10   30 1     
   23   11   12 1     
   24   11   31 1     
   25   11   32 1     
   26   12   13 1     
   27   12   33 1     
   28   12   34 1     
   29   13   18 1     
   30   13   14 1     
   31   13   47 1     
   32   14   15 1     
   33   14   35 1     
   34   14   36 1     
   35   15   16 1     
   36   15   37 1     
   37   15   38 1     
   38   16   17 1     
   39   16   39 1     
   40   16   40 1     
   41   17   18 1     
   42   17   41 1     
   43   17   42 1     
   44   18   19 1     
   45   18   43 1     
   46   19   44 1     
   47   19   45 1     
   48   19   46 1     
   49    9   48 1     
   50    9   49 1     
   51   20   50 1     
@<TRIPOS>SUBSTRUCTURE
      1 S1             1
@<TRIPOS>SET
LONE_PAIRS      STATIC     ATOMS    <user>   **** ""
3 48 49 50
DONOR_HYDROGENS      STATIC     ATOMS    <user>   **** ""
2 30 47
ATOM$BLUE        STATIC     ATOMS    COLORGROUP SYSTEM
3 48 49 50
ATOM$RED        STATIC     ATOMS    COLORGROUP SYSTEM
2 30 47
