AV-unprocessed.smi:950|AV-procd|sdf|4250|dock9
  -GOLD-   22720 2153D 1   1.00000     0.00000
 Structure written by MMmdl.
 34 35  0  0  0  0  0  0  0  0  1 V2000
  153.7793  141.4006  161.5635 C   0  0  0  0  0  0  0  0  0  0  0  0
  153.1395  142.6971  162.0714 C   0  0  0  0  0  0  0  0  0  0  0  0
  152.4796  143.4726  160.9815 C   0  0  0  0  0  0  0  0  0  0  0  0
  152.2414  142.9746  159.7660 N   0  0  0  0  0  0  0  0  0  0  0  0
  151.6608  143.9092  158.9019 C   0  0  0  0  0  0  0  0  0  0  0  0
  151.3328  143.5265  157.4865 C   0  0  0  0  0  0  0  0  0  0  0  0
  150.6509  142.1487  157.3559 C   0  0  0  0  0  0  0  0  0  0  0  0
  149.7518  142.0616  156.2092 N   0  0  0  0  0  0  0  0  0  0  0  0
  149.8973  141.2173  155.1778 C   0  0  0  0  0  0  0  0  0  0  0  0
  150.7935  140.3744  155.1176 O   0  0  0  0  0  0  0  0  0  0  0  0
  148.8719  141.3613  154.0463 C   0  0  0  0  0  0  0  0  0  0  0  0
  147.5550  142.0577  154.4360 C   0  0  0  0  0  0  0  0  0  0  0  0
  146.8009  140.9651  153.6720 C   0  0  0  0  0  0  0  0  0  0  0  0
  148.0507  140.0875  153.7849 C   0  0  0  0  0  0  0  0  0  0  0  0
  151.4634  145.1346  159.4885 C   0  0  0  0  0  0  0  0  0  0  0  0
  152.0073  145.1596  161.1437 S   0  0  0  0  0  0  0  0  0  0  0  0
  154.2454  140.8510  162.3813 H   0  0  0  0  0  0  0  0  0  0  0  0
  154.5488  141.6078  160.8192 H   0  0  0  0  0  0  0  0  0  0  0  0
  153.0361  140.7484  161.1039 H   0  0  0  0  0  0  0  0  0  0  0  0
  152.4005  142.4710  162.8410 H   0  0  0  0  0  0  0  0  0  0  0  0
  153.8959  143.3270  162.5401 H   0  0  0  0  0  0  0  0  0  0  0  0
  150.6919  144.2881  157.0404 H   0  0  0  0  0  0  0  0  0  0  0  0
  152.2418  143.5267  156.8841 H   0  0  0  0  0  0  0  0  0  0  0  0
  151.4008  141.3581  157.3031 H   0  0  0  0  0  0  0  0  0  0  0  0
  150.0594  141.9522  158.2504 H   0  0  0  0  0  0  0  0  0  0  0  0
  148.9873  142.7204  156.1779 H   0  0  0  0  0  0  0  0  0  0  0  0
  149.2940  141.7719  153.1270 H   0  0  0  0  0  0  0  0  0  0  0  0
  147.3347  142.0494  155.5049 H   0  0  0  0  0  0  0  0  0  0  0  0
  147.4327  143.0558  154.0148 H   0  0  0  0  0  0  0  0  0  0  0  0
  145.9222  140.5736  154.1854 H   0  0  0  0  0  0  0  0  0  0  0  0
  146.5771  141.2486  152.6426 H   0  0  0  0  0  0  0  0  0  0  0  0
  148.3103  139.5653  152.8639 H   0  0  0  0  0  0  0  0  0  0  0  0
  148.0103  139.4014  154.6332 H   0  0  0  0  0  0  0  0  0  0  0  0
  151.0389  146.0238  159.0469 H   0  0  0  0  0  0  0  0  0  0  0  0
  1  2  1  0  0  0  0
  1 17  1  0  0  0  0
  1 18  1  0  0  0  0
  1 19  1  0  0  0  0
  2  3  1  0  0  0  0
  2 20  1  0  0  0  0
  2 21  1  0  0  0  0
  3 16  1  0  0  0  0
  3  4  2  0  0  0  0
  4  5  1  0  0  0  0
  5  6  1  0  0  0  0
  5 15  2  0  0  0  0
  6  7  1  0  0  0  0
  6 22  1  0  0  0  0
  6 23  1  0  0  0  0
  7  8  1  0  0  0  0
  7 24  1  0  0  0  0
  7 25  1  0  0  0  0
  8  9  1  0  0  0  0
  8 26  1  0  0  0  0
  9 10  2  0  0  0  0
  9 11  1  0  0  0  0
 11 14  1  0  0  0  0
 11 12  1  0  0  0  0
 11 27  1  0  0  0  0
 12 13  1  0  0  0  0
 12 28  1  0  0  0  0
 12 29  1  0  0  0  0
 13 14  1  0  0  0  0
 13 30  1  0  0  0  0
 13 31  1  0  0  0  0
 14 32  1  0  0  0  0
 14 33  1  0  0  0  0
 15 16  1  0  0  0  0
 15 34  1  0  0  0  0
M  END
> <s_m_source_file>
AV-unprocessed.smi

> <i_m_source_file_index>
950

> <i_lp_mmshare_version>
43012

> <i_f3d_flags>
0

> <s_epik_input>
W0NIM11bQ0gyXWMxbmMoW2NIXXMxKVtDSDJdW0NIMl1bTkhdQyg9TylbQ0hdMltDSDJdW0NIMl1bQ0gyXTI=

> <s_epik_cmdline>
J2VwaWtfcHl0aG9uJywgJy1waCcsICc3LjAnLCAnLXRuJywgJzgnLCAnLW1hJywgJzIwMCcsICctbWV0YWxfYmluZGluZycsICctaW1hZScsICc8aW5maWxlLm1hZT4nLCAnLW9tYWUnLCAnPG91dGZpbGUubWFlPic=

> <r_epik_Ionization_Penalty>
0.00109666

> <r_epik_Ionization_Penalty_Charging>
0

> <r_epik_Ionization_Penalty_Neutral>
0.00109666

> <r_epik_State_Penalty>
0.000719322

> <r_epik_Charging_Adjusted_Penalty>
0.000719322

> <i_epik_Tot_Q>
0

> <i_epik_Tot_abs_Q>
0

> <r_epik_Metal_State_Penalty>
-0

> <b_epik_Metal_Only>
0

> <s_lp_Force_Field>
OPLS_2005

> <r_lp_Energy>
2.32113

> <b_lp_Chiralities_Consistent>
1

> <s_lp_Variant>
AV-unprocessed.smi:950-1

> <Gold.Version>
5.8.1

> <Gold.Id.Protein>
6NUR|6NUR_protein|mol2

> <Gold.PLP.Fitness>
44.3255

> <Gold.PLP.PLP>
-40.5616

> <Gold.PLP.part.hbond>
-2.0000

> <Gold.PLP.part.metal>
0.0000

> <Gold.PLP.part.buried>
0.2677

> <Gold.PLP.part.nonpolar>
-38.8600

> <Gold.PLP.part.repulsive>
0.1332

> <Gold.PLP.ligand.clash>
0.0000

> <Gold.PLP.ligand.torsion>
0.8555

> <Gold.PLP.Chemscore.Hbond>
1.6880

> <Gold.PLP.Chemscore.CHOScore>
0.0000

> <Gold.PLP.Chemscore.Metal>
0.0000

> <Gold.Chemscore.Hbonds>
donor molecule, donor type, donor heavy atom, donor atom, acceptor molecule, acceptor atom, score
      L1  H     8    26       P1  8028  0.60
      P1  H  7989  7998       L1    10  1.00

> <Gold.PLP.Chemscore.Internal.Correction>
0.4109

> <Gold.Rescore>
     Score         DG    S(hbond)    S(metal)    S(lipo)     H(rot)  DE(clash)    DE(int)     intcor
     17.74     -19.00       1.12        0.00     116.60       1.51       0.54       0.72       ----

> <Gold.Chemscore.Fitness>
17.7417

> <Gold.Chemscore.DG>
-18.9964

> <Gold.Chemscore.ZeroCoef>
-5.4800

> <Gold.Chemscore.Hbond>
1.1195

> <Gold.Chemscore.Metal>
0.0000

> <Gold.Chemscore.Lipo>
116.5966

> <Gold.Chemscore.Internal_Hbond>
0.0000

> <Gold.Chemscore.DEClash>
0.5351

> <Gold.Chemscore.DEInternal>
0.7196

> <Gold.Chemscore.Rot>
1.5096

> <Gold.Chemscore.Internal.Correction>
   9.000000E+99

> <Gold.Chemscore.Hbonds>
donor molecule, donor type, donor heavy atom, donor atom, acceptor molecule, acceptor atom, score
      L1  H     8    26       P1  8028  0.57
      P1  H  7989  7998       L1    10  0.25

> <Gold.Chemscore.Hbond.Weighted>
-3.7392

> <Gold.Chemscore.Metal.Weighted>
-0.0000

> <Gold.Chemscore.Lipo.Weighted>
-13.6418

> <Gold.Chemscore.Internal_Hbond.Weighted>
0.0000

> <Gold.Chemscore.DEClash.Weighted>
0.5351

> <Gold.Chemscore.DEInternal.Weighted>
0.7196

> <Gold.Chemscore.Rot.Weighted>
3.8646

> <Gold.Chemscore.Internal.Correction.Weighted>
   9.000000E+99

> <Gold.Protein.RotatedTorsions>
[ 6907 6896 6895 6894 ] final  163.23 input  -60.11 | X-H torsion
[ 7974 7965 7964 7962 ] final  -39.76 input  175.53 | X-H torsion
[ 8008 7997 7996 7995 ] final  -58.71 input   59.86 | X-H torsion
[ 10167 10162 10161 10158 ] final -177.29 input  -65.29 | X-H torsion
[ 10718 10713 10712 10709 ] final  155.73 input   66.30 | X-H torsion
[ 10763 10752 10751 10750 ] final   56.87 input  -60.55 | X-H torsion
[ 11005 11000 10999 10996 ] final  131.38 input  -57.11 | X-H torsion

> <Gold.Protein.ActiveResidues>
 VAL166  LYS551  ARG553  GLY616  TRP617  ASP618  TYR619  PRO620  LYS621  CYS622 
 ASP623  PHE694  ASN695  SER759  ASP760  ASP761  ALA762  ILE779  LEU786  VAL792 
 PHE793  MET794  SER795  GLU796  ALA797  LYS798  CYS799  TRP800  GLU811  SER814 

> <Gold.Protein.RotatedAtoms>
  151.9284  133.3604  159.3921 H   0  0  0  0  0  0  0  0  0  0  0  0  # atno 6907 bound_to 6896
  150.7022  134.4563  159.5369 H   0  0  0  0  0  0  0  0  0  0  0  0  # atno 6908 bound_to 6896
  152.2199  134.8422  160.0538 H   0  0  0  0  0  0  0  0  0  0  0  0  # atno 6909 bound_to 6896
  146.0366  140.6663  142.9107 H   0  0  0  0  0  0  0  0  0  0  0  0  # atno 7974 bound_to 7965
  154.4320  140.1078  156.6000 H   0  0  0  0  0  0  0  0  0  0  0  0  # atno 8008 bound_to 7997
  155.5921  140.3492  155.4551 H   0  0  0  0  0  0  0  0  0  0  0  0  # atno 8009 bound_to 7997
  156.0238  140.1245  157.0319 H   0  0  0  0  0  0  0  0  0  0  0  0  # atno 8010 bound_to 7997
  139.5487  144.2166  152.1037 H   0  0  0  0  0  0  0  0  0  0  0  0  # atno 10167 bound_to 10162
  157.2145  131.0705  151.1949 H   0  0  0  0  0  0  0  0  0  0  0  0  # atno 10718 bound_to 10713
  152.9839  135.5661  154.5298 H   0  0  0  0  0  0  0  0  0  0  0  0  # atno 10763 bound_to 10752
  154.4772  135.2787  155.1600 H   0  0  0  0  0  0  0  0  0  0  0  0  # atno 10764 bound_to 10752
  154.3124  135.6285  153.5524 H   0  0  0  0  0  0  0  0  0  0  0  0  # atno 10765 bound_to 10752
  139.9727  134.9573  156.9430 H   0  0  0  0  0  0  0  0  0  0  0  0  # atno 11005 bound_to 11000
  144.7055  140.3833  143.7122 LP  0  0  0  0  0  0  0  0  0  0  0  0  # atno 17320 bound_to 7965
  145.6953  139.1648  143.2624 LP  0  0  0  0  0  0  0  0  0  0  0  0  # atno 17321 bound_to 7965
  140.1658  144.4983  150.6607 LP  0  0  0  0  0  0  0  0  0  0  0  0  # atno 17342 bound_to 10162
  140.6743  143.2298  151.5546 LP  0  0  0  0  0  0  0  0  0  0  0  0  # atno 17343 bound_to 10162
  157.3639  130.7145  149.6519 LP  0  0  0  0  0  0  0  0  0  0  0  0  # atno 17370 bound_to 10713
  155.9687  130.4218  150.4485 LP  0  0  0  0  0  0  0  0  0  0  0  0  # atno 17371 bound_to 10713
  140.5260  134.0861  155.7303 LP  0  0  0  0  0  0  0  0  0  0  0  0  # atno 17394 bound_to 11000
  141.1406  133.9145  157.2335 LP  0  0  0  0  0  0  0  0  0  0  0  0  # atno 17395 bound_to 11000

$$$$
