AV-unprocessed.smi:2078|AV-procd|sdf|8472|dock5
  -GOLD-   2272011173D 1   1.00000     0.00000
 Structure written by MMmdl.
 41 42  0  0  0  0  0  0  0  0  3 V2000
  152.8011  142.1052  159.3218 C   0  0  0  0  0  0  0  0  0  0  0  0
  152.0406  141.5251  158.1785 C   0  0  0  0  0  0  0  0  0  0  0  0
  150.8518  141.8561  157.5918 C   0  0  0  0  0  0  0  0  0  0  0  0
  150.7216  140.8881  156.5604 C   0  0  0  0  0  0  0  0  0  0  0  0
  149.5883  140.8914  155.7053 N   0  0  0  0  0  0  0  0  0  0  0  0
  149.4085  140.2432  154.5402 C   0  0  0  0  0  0  0  0  0  0  0  0
  150.3126  139.5444  154.0666 O   0  0  0  0  0  0  0  0  0  0  0  0
  148.1748  140.4702  154.0100 N   0  5  0  0  0  0  0  0  0  0  0  0
  147.3748  139.4738  153.3003 C   0  0  0  0  0  0  0  0  0  0  0  0
  147.2210  138.2014  154.1574 C   0  0  0  0  0  0  0  0  0  0  0  0
  146.7185  137.0589  153.3501 N   0  3  2  0  0  0  0  0  0  0  0  0
  145.8075  137.4680  152.2458 C   0  0  0  0  0  0  0  0  0  0  0  0
  145.4706  136.2738  151.3396 C   0  0  0  0  0  0  0  0  0  0  0  0
  144.8686  135.1192  152.1531 C   0  0  0  0  0  0  0  0  0  0  0  0
  145.7756  134.7354  153.3375 C   0  0  1  0  0  0  0  0  0  0  0  0
  147.0341  133.9661  152.8988 C   0  0  0  0  0  0  0  0  0  0  0  0
  146.1211  135.9801  154.1812 C   0  0  0  0  0  0  0  0  0  0  0  0
  151.7417  140.0435  156.5204 N   0  0  0  0  0  0  0  0  0  0  0  0
  152.5914  140.4467  157.5574 O   0  0  0  0  0  0  0  0  0  0  0  0
  152.6549  143.1840  159.3766 H   0  0  0  0  0  0  0  0  0  0  0  0
  153.8695  141.9149  159.2179 H   0  0  0  0  0  0  0  0  0  0  0  0
  152.4693  141.6706  160.2648 H   0  0  0  0  0  0  0  0  0  0  0  0
  150.1828  142.6604  157.8596 H   0  0  0  0  0  0  0  0  0  0  0  0
  148.8063  141.4454  156.0217 H   0  0  0  0  0  0  0  0  0  0  0  0
  146.3862  139.8517  153.0358 H   0  0  0  0  0  0  0  0  0  0  0  0
  147.8407  139.2012  152.3531 H   0  0  0  0  0  0  0  0  0  0  0  0
  148.1965  137.9581  154.5816 H   0  0  0  0  0  0  0  0  0  0  0  0
  146.5608  138.3764  155.0087 H   0  0  0  0  0  0  0  0  0  0  0  0
  144.8935  137.8916  152.6650 H   0  0  0  0  0  0  0  0  0  0  0  0
  146.2714  138.2525  151.6466 H   0  0  0  0  0  0  0  0  0  0  0  0
  144.7709  136.5838  150.5630 H   0  0  0  0  0  0  0  0  0  0  0  0
  146.3704  135.9383  150.8231 H   0  0  0  0  0  0  0  0  0  0  0  0
  143.8930  135.4245  152.5336 H   0  0  0  0  0  0  0  0  0  0  0  0
  144.6888  134.2559  151.5113 H   0  0  0  0  0  0  0  0  0  0  0  0
  145.2075  134.0561  153.9743 H   0  0  0  0  0  0  0  0  0  0  0  0
  147.6911  134.5776  152.2802 H   0  0  0  0  0  0  0  0  0  0  0  0
  146.7706  133.0774  152.3248 H   0  0  0  0  0  0  0  0  0  0  0  0
  147.6113  133.6375  153.7635 H   0  0  0  0  0  0  0  0  0  0  0  0
  146.8122  135.6971  154.9770 H   0  0  0  0  0  0  0  0  0  0  0  0
  145.2229  136.3629  154.6684 H   0  0  0  0  0  0  0  0  0  0  0  0
  147.5376  136.6543  152.9195 H   0  0  0  0  0  0  0  0  0  0  0  0
  1  2  1  0  0  0  0
  1 20  1  0  0  0  0
  1 21  1  0  0  0  0
  1 22  1  0  0  0  0
  2 19  1  0  0  0  0
  2  3  2  0  0  0  0
  3  4  1  0  0  0  0
  3 23  1  0  0  0  0
  4  5  1  0  0  0  0
  4 18  2  0  0  0  0
  5  6  1  0  0  0  0
  5 24  1  0  0  0  0
  6  7  2  0  0  0  0
  6  8  1  0  0  0  0
  8  9  1  0  0  0  0
  9 10  1  0  0  0  0
  9 25  1  0  0  0  0
  9 26  1  0  0  0  0
 10 11  1  0  0  0  0
 10 27  1  0  0  0  0
 10 28  1  0  0  0  0
 11 17  1  0  0  0  0
 11 12  1  0  0  0  0
 11 41  1  0  0  0  0
 12 13  1  0  0  0  0
 12 29  1  0  0  0  0
 12 30  1  0  0  0  0
 13 14  1  0  0  0  0
 13 31  1  0  0  0  0
 13 32  1  0  0  0  0
 14 15  1  0  0  0  0
 14 33  1  0  0  0  0
 14 34  1  0  0  0  0
 15 16  1  0  0  0  0
 15 17  1  0  0  0  0
 15 35  1  0  0  0  0
 16 36  1  0  0  0  0
 16 37  1  0  0  0  0
 16 38  1  0  0  0  0
 17 39  1  0  0  0  0
 17 40  1  0  0  0  0
 18 19  1  0  0  0  0
M  CHG  1   8  -1
M  CHG  1  11   1
M  END
> <s_m_source_file>
AV-unprocessed.smi

> <i_m_source_file_index>
2078

> <i_lp_mmshare_version>
43012

> <i_f3d_flags>
0

> <s_epik_input>
W0NIM11jMVtjSF1jKG5vMSlbTkhdQyg9TylbTkhdW0NIMl1bQ0gyXU4yW0NIMl1bQ0gyXVtDSDJdW0NAQEhdKFtDSDNdKVtDSDJdMg==

> <s_epik_cmdline>
J2VwaWtfcHl0aG9uJywgJy1waCcsICc3LjAnLCAnLXRuJywgJzgnLCAnLW1hJywgJzIwMCcsICctbWV0YWxfYmluZGluZycsICctaW1hZScsICc8aW5maWxlLm1hZT4nLCAnLW9tYWUnLCAnPG91dGZpbGUubWFlPic=

> <r_epik_Ionization_Penalty>
6.76934

> <r_epik_Ionization_Penalty_Charging>
6.76934

> <r_epik_Ionization_Penalty_Neutral>
5.77849e-06

> <r_epik_State_Penalty>
6.79457

> <r_epik_Charging_Adjusted_Penalty>
13.5639

> <i_epik_Tot_Q>
0

> <i_epik_Tot_abs_Q>
2

> <r_epik_Metal_State_Penalty>
2.72837

> <b_epik_Metal_Only>
1

> <s_lp_Force_Field>
OPLS_2005

> <r_lp_Energy>
14.163

> <b_lp_Chiralities_Consistent>
1

> <s_lp_Variant>
AV-unprocessed.smi:2078-10

> <Gold.Version>
5.8.1

> <Gold.Id.Protein>
6NUR|6NUR_protein|mol2

> <Gold.PLP.Fitness>
36.6392

> <Gold.PLP.PLP>
-26.2254

> <Gold.PLP.part.hbond>
-3.0000

> <Gold.PLP.part.metal>
0.0000

> <Gold.PLP.part.buried>
-1.1805

> <Gold.PLP.part.nonpolar>
-21.8274

> <Gold.PLP.part.repulsive>
0.6834

> <Gold.PLP.ligand.clash>
0.0000

> <Gold.PLP.ligand.torsion>
0.6511

> <Gold.PLP.Chemscore.Hbond>
3.8960

> <Gold.PLP.Chemscore.CHOScore>
0.0000

> <Gold.PLP.Chemscore.Metal>
0.0000

> <Gold.Chemscore.Hbonds>
donor molecule, donor type, donor heavy atom, donor atom, acceptor molecule, acceptor atom, score
      L1  H    11    41       P1  7948  2.00
      P1  H  7989  7998       L1     7  1.00
      P1  H  7997  8009       L1    19  0.86

> <Gold.PLP.Chemscore.Internal.Correction>
0.0281

> <Gold.Rescore>
     Score         DG    S(hbond)    S(metal)    S(lipo)     H(rot)  DE(clash)    DE(int)     intcor
     14.11     -16.31       2.51        0.00      54.68       1.54       0.20       2.00       ----

> <Gold.Chemscore.Fitness>
14.1136

> <Gold.Chemscore.DG>
-16.3114

> <Gold.Chemscore.ZeroCoef>
-5.4800

> <Gold.Chemscore.Hbond>
2.5087

> <Gold.Chemscore.Metal>
0.0000

> <Gold.Chemscore.Lipo>
54.6765

> <Gold.Chemscore.Internal_Hbond>
0.0000

> <Gold.Chemscore.DEClash>
0.2029

> <Gold.Chemscore.DEInternal>
1.9950

> <Gold.Chemscore.Rot>
1.5409

> <Gold.Chemscore.Internal.Correction>
   9.000000E+99

> <Gold.Chemscore.Hbonds>
donor molecule, donor type, donor heavy atom, donor atom, acceptor molecule, acceptor atom, score
      L1  H    11    41       P1  7948  1.00
      P1  H  7989  7998       L1     7  0.39
      P1  H  7997  8009       L1    19  0.39

> <Gold.Chemscore.Hbond.Weighted>
-8.3789

> <Gold.Chemscore.Metal.Weighted>
-0.0000

> <Gold.Chemscore.Lipo.Weighted>
-6.3971

> <Gold.Chemscore.Internal_Hbond.Weighted>
0.0000

> <Gold.Chemscore.DEClash.Weighted>
0.2029

> <Gold.Chemscore.DEInternal.Weighted>
1.9950

> <Gold.Chemscore.Rot.Weighted>
3.9446

> <Gold.Chemscore.Internal.Correction.Weighted>
   9.000000E+99

> <Gold.Protein.RotatedTorsions>
[ 6907 6896 6895 6894 ] final   26.20 input  -60.11 | X-H torsion
[ 7974 7965 7964 7962 ] final  106.02 input  175.53 | X-H torsion
[ 8008 7997 7996 7995 ] final  166.22 input   59.86 | X-H torsion
[ 10167 10162 10161 10158 ] final -176.42 input  -65.29 | X-H torsion
[ 10718 10713 10712 10709 ] final   19.45 input   66.30 | X-H torsion
[ 10763 10752 10751 10750 ] final  127.93 input  -60.55 | X-H torsion
[ 11005 11000 10999 10996 ] final  147.19 input  -57.11 | X-H torsion

> <Gold.Protein.ActiveResidues>
 VAL166  LYS551  ARG553  GLY616  TRP617  ASP618  TYR619  PRO620  LYS621  CYS622 
 ASP623  PHE694  ASN695  SER759  ASP760  ASP761  ALA762  ILE779  LEU786  VAL792 
 PHE793  MET794  SER795  GLU796  ALA797  LYS798  CYS799  TRP800  GLU811  SER814 

> <Gold.Protein.RotatedAtoms>
  151.9839  135.0014  160.0558 H   0  0  0  0  0  0  0  0  0  0  0  0  # atno 6907 bound_to 6896
  152.1670  133.4614  159.4898 H   0  0  0  0  0  0  0  0  0  0  0  0  # atno 6908 bound_to 6896
  150.6896  134.1918  159.4331 H   0  0  0  0  0  0  0  0  0  0  0  0  # atno 6909 bound_to 6896
  145.3121  139.2537  143.3757 H   0  0  0  0  0  0  0  0  0  0  0  0  # atno 7974 bound_to 7965
  156.1736  140.1649  156.8402 H   0  0  0  0  0  0  0  0  0  0  0  0  # atno 8008 bound_to 7997
  154.5283  140.0762  156.8333 H   0  0  0  0  0  0  0  0  0  0  0  0  # atno 8009 bound_to 7997
  155.3460  140.3387  155.4241 H   0  0  0  0  0  0  0  0  0  0  0  0  # atno 8010 bound_to 7997
  139.5531  144.2059  152.1111 H   0  0  0  0  0  0  0  0  0  0  0  0  # atno 10167 bound_to 10162
  157.1106  130.6507  149.5896 H   0  0  0  0  0  0  0  0  0  0  0  0  # atno 10718 bound_to 10713
  153.7173  135.3259  155.3259 H   0  0  0  0  0  0  0  0  0  0  0  0  # atno 10763 bound_to 10752
  154.8367  135.4491  154.1253 H   0  0  0  0  0  0  0  0  0  0  0  0  # atno 10764 bound_to 10752
  153.2364  135.6966  153.7912 H   0  0  0  0  0  0  0  0  0  0  0  0  # atno 10765 bound_to 10752
  140.0855  134.9072  157.1569 H   0  0  0  0  0  0  0  0  0  0  0  0  # atno 11005 bound_to 11000
  146.3114  140.3659  142.8669 LP  0  0  0  0  0  0  0  0  0  0  0  0  # atno 17320 bound_to 7965
  144.9007  140.7639  143.5868 LP  0  0  0  0  0  0  0  0  0  0  0  0  # atno 17321 bound_to 7965
  140.1558  144.5072  150.6661 LP  0  0  0  0  0  0  0  0  0  0  0  0  # atno 17342 bound_to 10162
  140.6798  143.2321  151.5415 LP  0  0  0  0  0  0  0  0  0  0  0  0  # atno 17343 bound_to 10162
  155.9851  130.4880  150.7016 LP  0  0  0  0  0  0  0  0  0  0  0  0  # atno 17370 bound_to 10713
  157.4562  131.0878  151.0794 LP  0  0  0  0  0  0  0  0  0  0  0  0  # atno 17371 bound_to 10713
  140.3426  134.2687  155.7210 LP  0  0  0  0  0  0  0  0  0  0  0  0  # atno 17394 bound_to 11000
  141.2061  133.7842  157.0195 LP  0  0  0  0  0  0  0  0  0  0  0  0  # atno 17395 bound_to 11000

$$$$
