AV-unprocessed.smi:318|AV-procd|sdf|2330|dock8
  -GOLD-   2262022233D 1   1.00000     0.00000
 Structure written by MMmdl.
 38 39  0  0  0  0  0  0  0  0  1 V2000
  151.1017  140.7408  157.8045 O   0  0  0  0  0  0  0  0  0  0  0  0
  150.8916  141.9328  157.5749 C   0  0  0  0  0  0  0  0  0  0  0  0
  151.8018  143.0248  158.1563 C   0  0  0  0  0  0  0  0  0  0  0  0
  152.3692  142.6828  159.4723 N   0  0  0  0  0  0  0  0  0  0  0  0
  152.0340  143.5262  160.5467 C   0  0  0  0  0  0  0  0  0  0  0  0
  152.4946  143.3074  161.7856 C   0  0  0  0  0  0  0  0  0  0  0  0
  153.3556  142.1705  162.0022 C   0  0  0  0  0  0  0  0  0  0  0  0
  153.7003  141.3443  160.9875 C   0  0  0  0  0  0  0  0  0  0  0  0
  154.6087  140.1354  161.2003 C   0  0  0  0  0  0  0  0  0  0  0  0
  153.9734  139.0078  160.8784 F   0  0  0  0  0  0  0  0  0  0  0  0
  155.7001  140.2303  160.4398 F   0  0  0  0  0  0  0  0  0  0  0  0
  155.0043  140.0307  162.4699 F   0  0  0  0  0  0  0  0  0  0  0  0
  153.1893  141.5968  159.6245 C   0  0  0  0  0  0  0  0  0  0  0  0
  153.4789  140.8763  158.6677 O   0  0  0  0  0  0  0  0  0  0  0  0
  149.8831  142.3656  156.8032 N   0  0  0  0  0  0  0  0  0  0  0  0
  148.8963  141.5155  156.1437 C   0  0  0  0  0  0  0  0  0  0  0  0
  149.0743  141.5583  154.6111 C   0  0  0  0  0  0  0  0  0  0  0  0
  147.9912  140.7356  153.8947 C   0  0  0  0  0  0  0  0  0  0  0  0
  146.5821  141.1965  154.2981 C   0  0  0  0  0  0  0  0  0  0  0  0
  146.3987  141.1463  155.8229 C   0  0  0  0  0  0  0  0  0  0  0  0
  147.4791  141.9701  156.5419 C   0  0  0  0  0  0  0  0  0  0  0  0
  152.5991  143.2196  157.4374 H   0  0  0  0  0  0  0  0  0  0  0  0
  151.2425  143.9602  158.2186 H   0  0  0  0  0  0  0  0  0  0  0  0
  151.3908  144.3579  160.2985 H   0  0  0  0  0  0  0  0  0  0  0  0
  152.2314  143.9665  162.5997 H   0  0  0  0  0  0  0  0  0  0  0  0
  153.7243  141.9902  163.0008 H   0  0  0  0  0  0  0  0  0  0  0  0
  149.7886  143.3613  156.6644 H   0  0  0  0  0  0  0  0  0  0  0  0
  149.0306  140.4874  156.4863 H   0  0  0  0  0  0  0  0  0  0  0  0
  149.0315  142.5914  154.2629 H   0  0  0  0  0  0  0  0  0  0  0  0
  150.0591  141.1803  154.3339 H   0  0  0  0  0  0  0  0  0  0  0  0
  148.1144  140.8193  152.8146 H   0  0  0  0  0  0  0  0  0  0  0  0
  148.1144  139.6797  154.1384 H   0  0  0  0  0  0  0  0  0  0  0  0
  146.4141  142.2139  153.9425 H   0  0  0  0  0  0  0  0  0  0  0  0
  145.8325  140.5712  153.8124 H   0  0  0  0  0  0  0  0  0  0  0  0
  145.4092  141.5177  156.0907 H   0  0  0  0  0  0  0  0  0  0  0  0
  146.4430  140.1106  156.1625 H   0  0  0  0  0  0  0  0  0  0  0  0
  147.3483  141.8829  157.6213 H   0  0  0  0  0  0  0  0  0  0  0  0
  147.3474  143.0254  156.2987 H   0  0  0  0  0  0  0  0  0  0  0  0
  1  2  2  0  0  0  0
  2  3  1  0  0  0  0
  2 15  1  0  0  0  0
  3  4  1  0  0  0  0
  3 22  1  0  0  0  0
  3 23  1  0  0  0  0
  4 13  1  0  0  0  0
  4  5  1  0  0  0  0
  5  6  2  0  0  0  0
  5 24  1  0  0  0  0
  6  7  1  0  0  0  0
  6 25  1  0  0  0  0
  7  8  2  0  0  0  0
  7 26  1  0  0  0  0
  8  9  1  0  0  0  0
  8 13  1  0  0  0  0
  9 10  1  0  0  0  0
  9 11  1  0  0  0  0
  9 12  1  0  0  0  0
 13 14  2  0  0  0  0
 15 16  1  0  0  0  0
 15 27  1  0  0  0  0
 16 21  1  0  0  0  0
 16 17  1  0  0  0  0
 16 28  1  0  0  0  0
 17 18  1  0  0  0  0
 17 29  1  0  0  0  0
 17 30  1  0  0  0  0
 18 19  1  0  0  0  0
 18 31  1  0  0  0  0
 18 32  1  0  0  0  0
 19 20  1  0  0  0  0
 19 33  1  0  0  0  0
 19 34  1  0  0  0  0
 20 21  1  0  0  0  0
 20 35  1  0  0  0  0
 20 36  1  0  0  0  0
 21 37  1  0  0  0  0
 21 38  1  0  0  0  0
M  END
> <s_m_source_file>
AV-unprocessed.smi

> <i_m_source_file_index>
318

> <i_lp_mmshare_version>
43012

> <i_f3d_flags>
0

> <s_epik_input>
W0NIMl0xW0NIMl1bQ0gyXVtDSDJdW0NIMl1bQ0hdMVtOSF1DKD1PKVtDSDJdbjJbY0hdW2NIXVtjSF1jKEMoRikoRilGKWMyPU8=

> <s_epik_cmdline>
J2VwaWtfcHl0aG9uJywgJy1waCcsICc3LjAnLCAnLXRuJywgJzgnLCAnLW1hJywgJzIwMCcsICctbWV0YWxfYmluZGluZycsICctaW1hZScsICc8aW5maWxlLm1hZT4nLCAnLW9tYWUnLCAnPG91dGZpbGUubWFlPic=

> <r_lp_tautomer_probability>
1

> <r_epik_Ionization_Penalty>
2.11101e-08

> <r_epik_Ionization_Penalty_Charging>
2.0632e-09

> <r_epik_Ionization_Penalty_Neutral>
1.90469e-08

> <r_epik_State_Penalty>
-0

> <r_epik_Charging_Adjusted_Penalty>
2.0632e-09

> <i_epik_Tot_Q>
0

> <i_epik_Tot_abs_Q>
0

> <r_epik_Metal_State_Penalty>
-0

> <b_epik_Metal_Only>
0

> <s_lp_Force_Field>
OPLS_2005

> <r_lp_Energy>
18.6605

> <b_lp_Chiralities_Consistent>
1

> <s_lp_Variant>
AV-unprocessed.smi:318-1

> <Gold.Version>
5.8.1

> <Gold.Id.Protein>
6NUR|6NUR_protein|mol2

> <Gold.PLP.Fitness>
48.0076

> <Gold.PLP.PLP>
-44.5974

> <Gold.PLP.part.hbond>
-2.0000

> <Gold.PLP.part.metal>
0.0000

> <Gold.PLP.part.buried>
-1.4122

> <Gold.PLP.part.nonpolar>
-41.4576

> <Gold.PLP.part.repulsive>
0.0284

> <Gold.PLP.ligand.clash>
0.3092

> <Gold.PLP.ligand.torsion>
0.4176

> <Gold.PLP.Chemscore.Hbond>
1.4122

> <Gold.PLP.Chemscore.CHOScore>
0.0000

> <Gold.PLP.Chemscore.Metal>
0.0000

> <Gold.Chemscore.Hbonds>
donor molecule, donor type, donor heavy atom, donor atom, acceptor molecule, acceptor atom, score
      L1  H    15    27       P1  8028  0.91
      P1  H  7997  8008       L1    14  0.46

> <Gold.PLP.Chemscore.Internal.Correction>
0.3178

> <Gold.Rescore>
     Score         DG    S(hbond)    S(metal)    S(lipo)     H(rot)  DE(clash)    DE(int)     intcor
     11.32     -17.86       1.73        0.00      90.15       1.54       0.04       6.50       ----

> <Gold.Chemscore.Fitness>
11.3183

> <Gold.Chemscore.DG>
-17.8580

> <Gold.Chemscore.ZeroCoef>
-5.4800

> <Gold.Chemscore.Hbond>
1.7269

> <Gold.Chemscore.Metal>
0.0000

> <Gold.Chemscore.Lipo>
90.1543

> <Gold.Chemscore.Internal_Hbond>
0.0000

> <Gold.Chemscore.DEClash>
0.0404

> <Gold.Chemscore.DEInternal>
6.4992

> <Gold.Chemscore.Rot>
1.5383

> <Gold.Chemscore.Internal.Correction>
   9.000000E+99

> <Gold.Chemscore.Hbonds>
donor molecule, donor type, donor heavy atom, donor atom, acceptor molecule, acceptor atom, score
      L1  H    15    27       P1  8028  0.88
      P1  H  7997  8008       L1    14  0.44

> <Gold.Chemscore.Hbond.Weighted>
-5.7679

> <Gold.Chemscore.Metal.Weighted>
-0.0000

> <Gold.Chemscore.Lipo.Weighted>
-10.5481

> <Gold.Chemscore.Internal_Hbond.Weighted>
0.0000

> <Gold.Chemscore.DEClash.Weighted>
0.0404

> <Gold.Chemscore.DEInternal.Weighted>
6.4992

> <Gold.Chemscore.Rot.Weighted>
3.9380

> <Gold.Chemscore.Internal.Correction.Weighted>
   9.000000E+99

> <Gold.Protein.RotatedTorsions>
[ 6907 6896 6895 6894 ] final  114.02 input  -60.11 | X-H torsion
[ 7974 7965 7964 7962 ] final -115.35 input  175.53 | X-H torsion
[ 8008 7997 7996 7995 ] final  -91.96 input   59.86 | X-H torsion
[ 10167 10162 10161 10158 ] final  -19.15 input  -65.29 | X-H torsion
[ 10718 10713 10712 10709 ] final  135.57 input   66.30 | X-H torsion
[ 10763 10752 10751 10750 ] final  -34.80 input  -60.55 | X-H torsion
[ 11005 11000 10999 10996 ] final  -30.88 input  -57.11 | X-H torsion

> <Gold.Protein.ActiveResidues>
 VAL166  LYS551  ARG553  GLY616  TRP617  ASP618  TYR619  PRO620  LYS621  CYS622 
 ASP623  PHE694  ASN695  SER759  ASP760  ASP761  ALA762  ILE779  LEU786  VAL792 
 PHE793  MET794  SER795  GLU796  ALA797  LYS798  CYS799  TRP800  GLU811  SER814 

> <Gold.Protein.RotatedAtoms>
  152.4827  133.8294  159.7095 H   0  0  0  0  0  0  0  0  0  0  0  0  # atno 6907 bound_to 6896
  150.8889  133.7261  159.2917 H   0  0  0  0  0  0  0  0  0  0  0  0  # atno 6908 bound_to 6896
  151.4740  135.1051  159.9811 H   0  0  0  0  0  0  0  0  0  0  0  0  # atno 6909 bound_to 6896
  145.1094  140.8602  143.3879 H   0  0  0  0  0  0  0  0  0  0  0  0  # atno 7974 bound_to 7965
  154.7172  140.0514  157.0605 H   0  0  0  0  0  0  0  0  0  0  0  0  # atno 8008 bound_to 7997
  155.0476  140.3175  155.4684 H   0  0  0  0  0  0  0  0  0  0  0  0  # atno 8009 bound_to 7997
  156.2806  140.2121  156.5601 H   0  0  0  0  0  0  0  0  0  0  0  0  # atno 8010 bound_to 7997
  140.7266  143.4847  151.0071 H   0  0  0  0  0  0  0  0  0  0  0  0  # atno 10167 bound_to 10162
  157.4557  131.1069  150.9980 H   0  0  0  0  0  0  0  0  0  0  0  0  # atno 10718 bound_to 10713
  153.8528  135.6847  153.4790 H   0  0  0  0  0  0  0  0  0  0  0  0  # atno 10763 bound_to 10752
  153.1387  135.4666  154.9461 H   0  0  0  0  0  0  0  0  0  0  0  0  # atno 10764 bound_to 10752
  154.7795  135.3264  154.7969 H   0  0  0  0  0  0  0  0  0  0  0  0  # atno 10765 bound_to 10752
  140.9421  133.7272  156.1091 H   0  0  0  0  0  0  0  0  0  0  0  0  # atno 11005 bound_to 11000
  145.0864  139.2922  143.5757 LP  0  0  0  0  0  0  0  0  0  0  0  0  # atno 17320 bound_to 7965
  146.3527  140.0387  142.8644 LP  0  0  0  0  0  0  0  0  0  0  0  0  # atno 17321 bound_to 7965
  139.8547  143.7392  152.3176 LP  0  0  0  0  0  0  0  0  0  0  0  0  # atno 17342 bound_to 10162
  139.7586  144.7513  151.0397 LP  0  0  0  0  0  0  0  0  0  0  0  0  # atno 17343 bound_to 10162
  157.0794  130.5897  149.5417 LP  0  0  0  0  0  0  0  0  0  0  0  0  # atno 17370 bound_to 10713
  156.0006  130.5085  150.7649 LP  0  0  0  0  0  0  0  0  0  0  0  0  # atno 17371 bound_to 10713
  140.7720  134.3822  157.5506 LP  0  0  0  0  0  0  0  0  0  0  0  0  # atno 17394 bound_to 11000
  139.8823  134.9028  156.2840 LP  0  0  0  0  0  0  0  0  0  0  0  0  # atno 17395 bound_to 11000

$$$$
