AV-unprocessed.smi:1284|AV-procd|sdf|5365|dock10
  -GOLD-   22720 4503D 1   1.00000     0.00000
 Structure written by MMmdl.
 40 42  0  0  0  0  0  0  0  0  2 V2000
  149.9669  135.9805  154.6228 N   0  0  0  0  0  0  0  0  0  0  0  0
  151.0308  136.5988  155.1419 C   0  0  0  0  0  0  0  0  0  0  0  0
  151.6204  136.1720  156.1327 O   0  0  0  0  0  0  0  0  0  0  0  0
  151.5025  137.8829  154.4557 C   0  0  0  0  0  0  0  0  0  0  0  0
  150.3810  138.8721  154.3399 C   0  0  0  0  0  0  0  0  0  0  0  0
  149.2513  138.7089  153.5913 N   0  3  0  0  0  0  0  0  0  0  0  0
  148.4304  139.8290  153.7162 C   0  0  0  0  0  0  0  0  0  0  0  0
  147.1968  140.1234  153.1437 C   0  0  0  0  0  0  0  0  0  0  0  0
  146.6241  141.3675  153.4807 C   0  0  0  0  0  0  0  0  0  0  0  0
  147.2747  142.2625  154.3549 C   0  0  0  0  0  0  0  0  0  0  0  0
  148.5242  141.9513  154.9307 C   0  0  0  0  0  0  0  0  0  0  0  0
  149.0833  140.7189  154.5925 C   0  0  0  0  0  0  0  0  0  0  0  0
  150.2760  140.0856  154.9607 N   0  0  0  0  0  0  0  0  0  0  0  0
  151.1794  140.7712  155.9000 C   0  0  0  0  0  0  0  0  0  0  0  0
  150.8397  140.4943  157.3779 C   0  0  2  0  0  0  0  0  0  0  0  0
  149.4388  140.5381  157.5667 O   0  0  0  0  0  0  0  0  0  0  0  0
  151.5753  141.4546  158.2987 C   0  0  0  0  0  0  0  0  0  0  0  0
  152.4392  140.9516  159.2953 C   0  0  0  0  0  0  0  0  0  0  0  0
  153.1319  141.8348  160.1463 C   0  0  0  0  0  0  0  0  0  0  0  0
  152.9662  143.2258  160.0046 C   0  0  0  0  0  0  0  0  0  0  0  0
  152.1086  143.7338  159.0100 C   0  0  0  0  0  0  0  0  0  0  0  0
  151.4162  142.8513  158.1583 C   0  0  0  0  0  0  0  0  0  0  0  0
  149.6208  135.1335  155.0506 H   0  0  0  0  0  0  0  0  0  0  0  0
  149.5066  136.3628  153.8086 H   0  0  0  0  0  0  0  0  0  0  0  0
  152.3113  138.3280  155.0361 H   0  0  0  0  0  0  0  0  0  0  0  0
  151.9120  137.6472  153.4738 H   0  0  0  0  0  0  0  0  0  0  0  0
  146.6974  139.4393  152.4733 H   0  0  0  0  0  0  0  0  0  0  0  0
  145.6673  141.6409  153.0597 H   0  0  0  0  0  0  0  0  0  0  0  0
  146.8060  143.2073  154.5890 H   0  0  0  0  0  0  0  0  0  0  0  0
  149.0142  142.6444  155.5983 H   0  0  0  0  0  0  0  0  0  0  0  0
  152.2020  140.4649  155.6763 H   0  0  0  0  0  0  0  0  0  0  0  0
  151.1395  141.8399  155.6908 H   0  0  0  0  0  0  0  0  0  0  0  0
  151.1517  139.4798  157.6281 H   0  0  0  0  0  0  0  0  0  0  0  0
  149.0513  140.9683  156.8193 H   0  0  0  0  0  0  0  0  0  0  0  0
  152.5756  139.8863  159.4106 H   0  0  0  0  0  0  0  0  0  0  0  0
  153.7912  141.4452  160.9080 H   0  0  0  0  0  0  0  0  0  0  0  0
  153.4976  143.9027  160.6572 H   0  0  0  0  0  0  0  0  0  0  0  0
  151.9827  144.8008  158.8998 H   0  0  0  0  0  0  0  0  0  0  0  0
  150.7645  143.2509  157.3953 H   0  0  0  0  0  0  0  0  0  0  0  0
  149.0650  137.8890  153.0276 H   0  0  0  0  0  0  0  0  0  0  0  0
  1  2  1  0  0  0  0
  1 23  1  0  0  0  0
  1 24  1  0  0  0  0
  2  3  2  0  0  0  0
  2  4  1  0  0  0  0
  4  5  1  0  0  0  0
  4 25  1  0  0  0  0
  4 26  1  0  0  0  0
  5 13  1  0  0  0  0
  5  6  2  0  0  0  0
  6  7  1  0  0  0  0
  6 40  1  0  0  0  0
  7 12  2  0  0  0  0
  7  8  1  0  0  0  0
  8  9  2  0  0  0  0
  8 27  1  0  0  0  0
  9 10  1  0  0  0  0
  9 28  1  0  0  0  0
 10 11  2  0  0  0  0
 10 29  1  0  0  0  0
 11 12  1  0  0  0  0
 11 30  1  0  0  0  0
 12 13  1  0  0  0  0
 13 14  1  0  0  0  0
 14 15  1  0  0  0  0
 14 31  1  0  0  0  0
 14 32  1  0  0  0  0
 15 16  1  0  0  0  0
 15 17  1  0  0  0  0
 15 33  1  0  0  0  0
 16 34  1  0  0  0  0
 17 22  1  0  0  0  0
 17 18  2  0  0  0  0
 18 19  1  0  0  0  0
 18 35  1  0  0  0  0
 19 20  2  0  0  0  0
 19 36  1  0  0  0  0
 20 21  1  0  0  0  0
 20 37  1  0  0  0  0
 21 22  2  0  0  0  0
 21 38  1  0  0  0  0
 22 39  1  0  0  0  0
M  CHG  1   6   1
M  END
> <s_m_source_file>
AV-unprocessed.smi

> <i_m_source_file_index>
1284

> <i_lp_mmshare_version>
43012

> <i_f3d_flags>
0

> <s_epik_input>
W2NIXTFbY0hdW2NIXVtjSF1jKGMxMiluKGMobjIpW0NIMl1DKD1PKVtOSDJdKVtDSDJdW0NASF0oW09IXSljM1tjSF1bY0hdW2NIXVtjSF1bY0hdMw==

> <s_epik_cmdline>
J2VwaWtfcHl0aG9uJywgJy1waCcsICc3LjAnLCAnLXRuJywgJzgnLCAnLW1hJywgJzIwMCcsICctbWV0YWxfYmluZGluZycsICctaW1hZScsICc8aW5maWxlLm1hZT4nLCAnLW9tYWUnLCAnPG91dGZpbGUubWFlPic=

> <r_epik_Ionization_Penalty>
1.66646

> <r_epik_Ionization_Penalty_Charging>
1.66645

> <r_epik_Ionization_Penalty_Neutral>
1.67657e-06

> <r_epik_State_Penalty>
1.76975

> <r_epik_Charging_Adjusted_Penalty>
3.43621

> <i_epik_Tot_Q>
1

> <i_epik_Tot_abs_Q>
1

> <r_epik_Metal_State_Penalty>
1.80493

> <b_epik_Metal_Only>
0

> <s_lp_Force_Field>
OPLS_2005

> <r_lp_Energy>
13.978

> <b_lp_Chiralities_Consistent>
1

> <s_lp_Variant>
AV-unprocessed.smi:1284-3

> <Gold.Version>
5.8.1

> <Gold.Id.Protein>
6NUR|6NUR_protein|mol2

> <Gold.PLP.Fitness>
59.3246

> <Gold.PLP.PLP>
-48.4898

> <Gold.PLP.part.hbond>
-4.0604

> <Gold.PLP.part.metal>
0.0000

> <Gold.PLP.part.buried>
2.9594

> <Gold.PLP.part.nonpolar>
-47.1787

> <Gold.PLP.part.repulsive>
0.1432

> <Gold.PLP.ligand.clash>
0.0000

> <Gold.PLP.ligand.torsion>
0.5858

> <Gold.PLP.Chemscore.Hbond>
3.9920

> <Gold.PLP.Chemscore.CHOScore>
0.0000

> <Gold.PLP.Chemscore.Metal>
0.0000

> <Gold.Chemscore.Hbonds>
donor molecule, donor type, donor heavy atom, donor atom, acceptor molecule, acceptor atom, score
      L1  H     1    24       P1  7948  0.99
      L1  H     6    40       P1  7948  2.00
      P1  H 10752 10763       L1     3  0.85

> <Gold.PLP.Chemscore.Internal.Correction>
0.0304

> <Gold.Rescore>
     Score         DG    S(hbond)    S(metal)    S(lipo)     H(rot)  DE(clash)    DE(int)     intcor
     17.41     -19.97       2.42        0.00     118.63       2.92       0.88       1.68       ----

> <Gold.Chemscore.Fitness>
17.4063

> <Gold.Chemscore.DG>
-19.9747

> <Gold.Chemscore.ZeroCoef>
-5.4800

> <Gold.Chemscore.Hbond>
2.4240

> <Gold.Chemscore.Metal>
0.0000

> <Gold.Chemscore.Lipo>
118.6301

> <Gold.Chemscore.Internal_Hbond>
0.0000

> <Gold.Chemscore.DEClash>
0.8835

> <Gold.Chemscore.DEInternal>
1.6849

> <Gold.Chemscore.Rot>
2.9223

> <Gold.Chemscore.Internal.Correction>
   9.000000E+99

> <Gold.Chemscore.Hbonds>
donor molecule, donor type, donor heavy atom, donor atom, acceptor molecule, acceptor atom, score
      L1  H     1    24       P1  7948  0.68
      L1  H     6    40       P1  7948  0.96
      P1  H 10752 10763       L1     3  0.16

> <Gold.Chemscore.Hbond.Weighted>
-8.0961

> <Gold.Chemscore.Metal.Weighted>
-0.0000

> <Gold.Chemscore.Lipo.Weighted>
-13.8797

> <Gold.Chemscore.Internal_Hbond.Weighted>
0.0000

> <Gold.Chemscore.DEClash.Weighted>
0.8835

> <Gold.Chemscore.DEInternal.Weighted>
1.6849

> <Gold.Chemscore.Rot.Weighted>
7.4812

> <Gold.Chemscore.Internal.Correction.Weighted>
   9.000000E+99

> <Gold.Protein.RotatedTorsions>
[ 6907 6896 6895 6894 ] final  161.15 input  -60.11 | X-H torsion
[ 7974 7965 7964 7962 ] final  101.64 input  175.53 | X-H torsion
[ 8008 7997 7996 7995 ] final  154.19 input   59.86 | X-H torsion
[ 10167 10162 10161 10158 ] final -152.99 input  -65.29 | X-H torsion
[ 10718 10713 10712 10709 ] final  167.73 input   66.30 | X-H torsion
[ 10763 10752 10751 10750 ] final  102.80 input  -60.55 | X-H torsion
[ 11005 11000 10999 10996 ] final  164.92 input  -57.11 | X-H torsion

> <Gold.Protein.ActiveResidues>
 VAL166  LYS551  ARG553  GLY616  TRP617  ASP618  TYR619  PRO620  LYS621  CYS622 
 ASP623  PHE694  ASN695  SER759  ASP760  ASP761  ALA762  ILE779  LEU786  VAL792 
 PHE793  MET794  SER795  GLU796  ALA797  LYS798  CYS799  TRP800  GLU811  SER814 

> <Gold.Protein.RotatedAtoms>
  151.9599  133.3692  159.4031 H   0  0  0  0  0  0  0  0  0  0  0  0  # atno 6907 bound_to 6896
  150.6966  134.4251  159.5232 H   0  0  0  0  0  0  0  0  0  0  0  0  # atno 6908 bound_to 6896
  152.1938  134.8648  160.0565 H   0  0  0  0  0  0  0  0  0  0  0  0  # atno 6909 bound_to 6896
  145.3697  139.2401  143.3462 H   0  0  0  0  0  0  0  0  0  0  0  0  # atno 7974 bound_to 7965
  156.2544  140.1973  156.6607 H   0  0  0  0  0  0  0  0  0  0  0  0  # atno 8008 bound_to 7997
  154.6467  140.0577  156.9933 H   0  0  0  0  0  0  0  0  0  0  0  0  # atno 8009 bound_to 7997
  155.1480  140.3249  155.4440 H   0  0  0  0  0  0  0  0  0  0  0  0  # atno 8010 bound_to 7997
  139.7135  143.9071  152.2477 H   0  0  0  0  0  0  0  0  0  0  0  0  # atno 10167 bound_to 10162
  157.0473  131.0303  151.2693 H   0  0  0  0  0  0  0  0  0  0  0  0  # atno 10718 bound_to 10713
  153.3443  135.3998  155.1596 H   0  0  0  0  0  0  0  0  0  0  0  0  # atno 10763 bound_to 10752
  154.8650  135.3641  154.5305 H   0  0  0  0  0  0  0  0  0  0  0  0  # atno 10764 bound_to 10752
  153.5752  135.7078  153.5547 H   0  0  0  0  0  0  0  0  0  0  0  0  # atno 10765 bound_to 10752
  140.2509  134.7978  157.3500 H   0  0  0  0  0  0  0  0  0  0  0  0  # atno 11005 bound_to 11000
  146.2891  140.4345  142.8746 LP  0  0  0  0  0  0  0  0  0  0  0  0  # atno 17320 bound_to 7965
  144.8586  140.7106  143.6122 LP  0  0  0  0  0  0  0  0  0  0  0  0  # atno 17321 bound_to 7965
  139.8947  144.6946  150.8731 LP  0  0  0  0  0  0  0  0  0  0  0  0  # atno 17342 bound_to 10162
  140.7738  143.3559  151.1922 LP  0  0  0  0  0  0  0  0  0  0  0  0  # atno 17343 bound_to 10162
  157.5057  130.7907  149.7652 LP  0  0  0  0  0  0  0  0  0  0  0  0  # atno 17370 bound_to 10713
  156.0019  130.3876  150.2575 LP  0  0  0  0  0  0  0  0  0  0  0  0  # atno 17371 bound_to 10713
  140.1559  134.4790  155.7928 LP  0  0  0  0  0  0  0  0  0  0  0  0  # atno 17394 bound_to 11000
  141.2201  133.6881  156.7460 LP  0  0  0  0  0  0  0  0  0  0  0  0  # atno 17395 bound_to 11000

$$$$
