AV-unprocessed.smi:203|AV-procd|sdf|1591|dock5
  -GOLD-   2262019493D 1   1.00000     0.00000
 Structure written by MMmdl.
 57 61  0  0  0  0  0  0  0  0  1 V2000
  148.9040  138.4036  156.4886 O   0  0  0  0  0  0  0  0  0  0  0  0
  149.9538  138.8486  156.9462 C   0  0  0  0  0  0  0  0  0  0  0  0
  150.1211  139.2790  158.3932 C   0  0  0  0  0  0  0  0  0  0  0  0
  151.5076  139.9515  158.4158 C   0  0  2  0  0  0  0  0  0  0  0  0
  151.4664  141.4889  158.6935 C   0  0  2  0  0  0  0  0  0  0  0  0
  150.7077  142.2813  157.5968 C   0  0  0  0  0  0  0  0  0  0  0  0
  150.6687  143.7837  157.9093 C   0  0  0  0  0  0  0  0  0  0  0  0
  152.0926  144.3154  158.1084 C   0  0  0  0  0  0  0  0  0  0  0  0
  152.8178  143.5120  159.1966 C   0  0  0  0  0  0  0  0  0  0  0  0
  152.8014  142.0814  158.8964 N   0  0  0  0  0  0  0  0  0  0  0  0
  153.6332  141.4077  159.7205 C   0  0  0  0  0  0  0  0  0  0  0  0
  154.2995  140.3498  159.1969 N   0  0  0  0  0  0  0  0  0  0  0  0
  155.0846  139.6039  159.9799 C   0  0  0  0  0  0  0  0  0  0  0  0
  155.3282  139.7354  161.2857 N   0  0  0  0  0  0  0  0  0  0  0  0
  154.6689  140.8096  161.8080 C   0  0  0  0  0  0  0  0  0  0  0  0
  153.8188  141.7026  161.0997 C   0  0  0  0  0  0  0  0  0  0  0  0
  153.3260  142.6755  161.9613 N   0  0  0  0  0  0  0  0  0  0  0  0
  153.8309  142.3565  163.1215 C   0  0  0  0  0  0  0  0  0  0  0  0
  154.6293  141.2359  163.1232 N   0  0  0  0  0  0  0  0  0  0  0  0
  155.2533  140.6170  164.2770 C   0  0  0  0  0  0  0  0  0  0  0  0
  156.3101  141.5301  164.9376 C   0  0  2  0  0  0  0  0  0  0  0  0
  157.2258  140.6934  165.6153 O   0  0  0  0  0  0  0  0  0  0  0  0
  155.7325  142.5670  165.9301 C   0  0  1  0  0  0  0  0  0  0  0  0
  155.1878  141.9771  167.2336 C   0  0  0  0  0  0  0  0  0  0  0  0
  155.2919  143.1258  168.2269 C   0  0  0  0  0  0  0  0  0  0  0  0
  156.2076  144.1358  167.5327 C   0  0  0  0  0  0  0  0  0  0  0  0
  156.7489  143.4251  166.4310 O   0  0  0  0  0  0  0  0  0  0  0  0
  152.1618  139.5715  157.0687 C   0  0  0  0  0  0  0  0  0  0  0  0
  151.0875  139.0164  156.2693 N   0  0  0  0  0  0  0  0  0  0  0  0
  149.3135  139.9370  158.7135 H   0  0  0  0  0  0  0  0  0  0  0  0
  150.1039  138.3944  159.0304 H   0  0  0  0  0  0  0  0  0  0  0  0
  152.0666  139.4620  159.2138 H   0  0  0  0  0  0  0  0  0  0  0  0
  150.9146  141.6313  159.6235 H   0  0  0  0  0  0  0  0  0  0  0  0
  151.1837  142.1368  156.6269 H   0  0  0  0  0  0  0  0  0  0  0  0
  149.6858  141.9196  157.4907 H   0  0  0  0  0  0  0  0  0  0  0  0
  150.1740  144.3236  157.1013 H   0  0  0  0  0  0  0  0  0  0  0  0
  150.0789  143.9580  158.8101 H   0  0  0  0  0  0  0  0  0  0  0  0
  152.6458  144.2461  157.1710 H   0  0  0  0  0  0  0  0  0  0  0  0
  152.0657  145.3715  158.3777 H   0  0  0  0  0  0  0  0  0  0  0  0
  153.8473  143.8630  159.2839 H   0  0  0  0  0  0  0  0  0  0  0  0
  152.3400  143.6842  160.1622 H   0  0  0  0  0  0  0  0  0  0  0  0
  155.5785  138.7758  159.4934 H   0  0  0  0  0  0  0  0  0  0  0  0
  153.6113  142.9165  164.0187 H   0  0  0  0  0  0  0  0  0  0  0  0
  154.4718  140.3611  164.9940 H   0  0  0  0  0  0  0  0  0  0  0  0
  155.7058  139.6764  163.9605 H   0  0  0  0  0  0  0  0  0  0  0  0
  156.8642  142.0578  164.1604 H   0  0  0  0  0  0  0  0  0  0  0  0
  156.7651  139.9257  165.9172 H   0  0  0  0  0  0  0  0  0  0  0  0
  154.9597  143.1676  165.4459 H   0  0  0  0  0  0  0  0  0  0  0  0
  154.1696  141.6009  167.1299 H   0  0  0  0  0  0  0  0  0  0  0  0
  155.8184  141.1508  167.5649 H   0  0  0  0  0  0  0  0  0  0  0  0
  154.3172  143.5682  168.4348 H   0  0  0  0  0  0  0  0  0  0  0  0
  155.7149  142.7829  169.1718 H   0  0  0  0  0  0  0  0  0  0  0  0
  155.6360  144.9885  167.1633 H   0  0  0  0  0  0  0  0  0  0  0  0
  156.9947  144.5113  168.1866 H   0  0  0  0  0  0  0  0  0  0  0  0
  152.6280  140.4164  156.5616 H   0  0  0  0  0  0  0  0  0  0  0  0
  152.9291  138.8096  157.2122 H   0  0  0  0  0  0  0  0  0  0  0  0
  151.1990  138.7930  155.2908 H   0  0  0  0  0  0  0  0  0  0  0  0
  1  2  2  0  0  0  0
  2 29  1  0  0  0  0
  2  3  1  0  0  0  0
  3  4  1  0  0  0  0
  3 30  1  0  0  0  0
  3 31  1  0  0  0  0
  4  5  1  0  0  0  0
  4 28  1  0  0  0  0
  4 32  1  0  0  0  0
  5 10  1  0  0  0  0
  5  6  1  0  0  0  0
  5 33  1  0  0  0  0
  6  7  1  0  0  0  0
  6 34  1  0  0  0  0
  6 35  1  0  0  0  0
  7  8  1  0  0  0  0
  7 36  1  0  0  0  0
  7 37  1  0  0  0  0
  8  9  1  0  0  0  0
  8 38  1  0  0  0  0
  8 39  1  0  0  0  0
  9 10  1  0  0  0  0
  9 40  1  0  0  0  0
  9 41  1  0  0  0  0
 10 11  1  0  0  0  0
 11 16  1  0  0  0  0
 11 12  2  0  0  0  0
 12 13  1  0  0  0  0
 13 14  2  0  0  0  0
 13 42  1  0  0  0  0
 14 15  1  0  0  0  0
 15 19  1  0  0  0  0
 15 16  2  0  0  0  0
 16 17  1  0  0  0  0
 17 18  2  0  0  0  0
 18 19  1  0  0  0  0
 18 43  1  0  0  0  0
 19 20  1  0  0  0  0
 20 21  1  0  0  0  0
 20 44  1  0  0  0  0
 20 45  1  0  0  0  0
 21 22  1  0  0  0  0
 21 23  1  0  0  0  0
 21 46  1  0  0  0  0
 22 47  1  0  0  0  0
 23 27  1  0  0  0  0
 23 24  1  0  0  0  0
 23 48  1  0  0  0  0
 24 25  1  0  0  0  0
 24 49  1  0  0  0  0
 24 50  1  0  0  0  0
 25 26  1  0  0  0  0
 25 51  1  0  0  0  0
 25 52  1  0  0  0  0
 26 27  1  0  0  0  0
 26 53  1  0  0  0  0
 26 54  1  0  0  0  0
 28 29  1  0  0  0  0
 28 55  1  0  0  0  0
 28 56  1  0  0  0  0
 29 57  1  0  0  0  0
M  END
> <s_m_source_file>
AV-unprocessed.smi

> <i_m_source_file_index>
203

> <i_lp_mmshare_version>
43012

> <i_f3d_flags>
0

> <s_epik_input>
Tz1DMVtDSDJdW0NASF0oW0NIMl1bTkhdMSlbQ0BASF0yW0NIMl1bQ0gyXVtDSDJdW0NIMl1OMmMobltjSF1uMyljKGMzNCluW2NIXW40W0NIMl1bQ0BIXShbT0hdKVtDQEBIXTVbQ0gyXVtDSDJdW0NIMl1PNQ==

> <s_epik_cmdline>
J2VwaWtfcHl0aG9uJywgJy1waCcsICc3LjAnLCAnLXRuJywgJzgnLCAnLW1hJywgJzIwMCcsICctbWV0YWxfYmluZGluZycsICctaW1hZScsICc8aW5maWxlLm1hZT4nLCAnLW9tYWUnLCAnPG91dGZpbGUubWFlPic=

> <r_lp_tautomer_probability>
1

> <r_epik_Ionization_Penalty>
0.00175146

> <r_epik_Ionization_Penalty_Charging>
0

> <r_epik_Ionization_Penalty_Neutral>
0.00175146

> <r_epik_State_Penalty>
0.00109045

> <r_epik_Charging_Adjusted_Penalty>
0.00109045

> <i_epik_Tot_Q>
0

> <i_epik_Tot_abs_Q>
0

> <r_epik_Metal_State_Penalty>
-0

> <b_epik_Metal_Only>
0

> <s_lp_Force_Field>
OPLS_2005

> <r_lp_Energy>
54.7877

> <b_lp_Chiralities_Consistent>
1

> <s_lp_Variant>
AV-unprocessed.smi:203-10

> <Gold.Version>
5.8.1

> <Gold.Id.Protein>
6NUR|6NUR_protein|mol2

> <Gold.PLP.Fitness>
46.7481

> <Gold.PLP.PLP>
-46.0280

> <Gold.PLP.part.hbond>
-1.0785

> <Gold.PLP.part.metal>
0.0000

> <Gold.PLP.part.buried>
0.9451

> <Gold.PLP.part.nonpolar>
-44.7580

> <Gold.PLP.part.repulsive>
0.1165

> <Gold.PLP.ligand.clash>
0.0000

> <Gold.PLP.ligand.torsion>
1.0096

> <Gold.PLP.Chemscore.Hbond>
0.8112

> <Gold.PLP.Chemscore.CHOScore>
0.0000

> <Gold.PLP.Chemscore.Metal>
0.0000

> <Gold.Chemscore.Hbonds>
donor molecule, donor type, donor heavy atom, donor atom, acceptor molecule, acceptor atom, score
      P1  H  7997  8009       L1    12  0.80

> <Gold.PLP.Chemscore.Internal.Correction>
0.3057

> <Gold.Rescore>
     Score         DG    S(hbond)    S(metal)    S(lipo)     H(rot)  DE(clash)    DE(int)     intcor
     10.75     -14.42       0.59        0.00     119.05       2.72       0.58       3.09       ----

> <Gold.Chemscore.Fitness>
10.7476

> <Gold.Chemscore.DG>
-14.4183

> <Gold.Chemscore.ZeroCoef>
-5.4800

> <Gold.Chemscore.Hbond>
0.5884

> <Gold.Chemscore.Metal>
0.0000

> <Gold.Chemscore.Lipo>
119.0485

> <Gold.Chemscore.Internal_Hbond>
0.0000

> <Gold.Chemscore.DEClash>
0.5769

> <Gold.Chemscore.DEInternal>
3.0938

> <Gold.Chemscore.Rot>
2.7171

> <Gold.Chemscore.Internal.Correction>
   9.000000E+99

> <Gold.Chemscore.Hbonds>
donor molecule, donor type, donor heavy atom, donor atom, acceptor molecule, acceptor atom, score
      P1  H  7997  8009       L1    12  0.26

> <Gold.Chemscore.Hbond.Weighted>
-1.9654

> <Gold.Chemscore.Metal.Weighted>
-0.0000

> <Gold.Chemscore.Lipo.Weighted>
-13.9287

> <Gold.Chemscore.Internal_Hbond.Weighted>
0.0000

> <Gold.Chemscore.DEClash.Weighted>
0.5769

> <Gold.Chemscore.DEInternal.Weighted>
3.0938

> <Gold.Chemscore.Rot.Weighted>
6.9557

> <Gold.Chemscore.Internal.Correction.Weighted>
   9.000000E+99

> <Gold.Protein.RotatedTorsions>
[ 6907 6896 6895 6894 ] final  -95.80 input  -60.11 | X-H torsion
[ 7974 7965 7964 7962 ] final  163.59 input  175.53 | X-H torsion
[ 8008 7997 7996 7995 ] final  119.47 input   59.86 | X-H torsion
[ 10167 10162 10161 10158 ] final  -30.64 input  -65.29 | X-H torsion
[ 10718 10713 10712 10709 ] final   70.29 input   66.30 | X-H torsion
[ 10763 10752 10751 10750 ] final  -77.29 input  -60.55 | X-H torsion
[ 11005 11000 10999 10996 ] final  138.97 input  -57.11 | X-H torsion

> <Gold.Protein.ActiveResidues>
 VAL166  LYS551  ARG553  GLY616  TRP617  ASP618  TYR619  PRO620  LYS621  CYS622 
 ASP623  PHE694  ASN695  SER759  ASP760  ASP761  ALA762  ILE779  LEU786  VAL792 
 PHE793  MET794  SER795  GLU796  ALA797  LYS798  CYS799  TRP800  GLU811  SER814 

> <Gold.Protein.RotatedAtoms>
  150.6973  134.1601  159.4172 H   0  0  0  0  0  0  0  0  0  0  0  0  # atno 6907 bound_to 6896
  151.9582  135.0134  160.0555 H   0  0  0  0  0  0  0  0  0  0  0  0  # atno 6908 bound_to 6896
  152.1951  133.4765  159.5065 H   0  0  0  0  0  0  0  0  0  0  0  0  # atno 6909 bound_to 6896
  144.7583  139.8204  143.6342 H   0  0  0  0  0  0  0  0  0  0  0  0  # atno 7974 bound_to 7965
  156.2597  140.2852  156.0996 H   0  0  0  0  0  0  0  0  0  0  0  0  # atno 8008 bound_to 7997
  155.1374  140.0395  157.2807 H   0  0  0  0  0  0  0  0  0  0  0  0  # atno 8009 bound_to 7997
  154.6555  140.2554  155.7173 H   0  0  0  0  0  0  0  0  0  0  0  0  # atno 8010 bound_to 7997
  140.7247  143.3833  151.1561 H   0  0  0  0  0  0  0  0  0  0  0  0  # atno 10167 bound_to 10162
  157.6392  130.9470  150.0631 H   0  0  0  0  0  0  0  0  0  0  0  0  # atno 10718 bound_to 10713
  154.5110  135.5769  153.6605 H   0  0  0  0  0  0  0  0  0  0  0  0  # atno 10763 bound_to 10752
  152.9897  135.6158  154.2879 H   0  0  0  0  0  0  0  0  0  0  0  0  # atno 10764 bound_to 10752
  154.2794  135.2851  155.2683 H   0  0  0  0  0  0  0  0  0  0  0  0  # atno 10765 bound_to 10752
  140.0221  134.9392  157.0495 H   0  0  0  0  0  0  0  0  0  0  0  0  # atno 11005 bound_to 11000
  146.1618  139.4735  142.9983 LP  0  0  0  0  0  0  0  0  0  0  0  0  # atno 17320 bound_to 7965
  145.6704  141.0218  143.1660 LP  0  0  0  0  0  0  0  0  0  0  0  0  # atno 17321 bound_to 7965
  139.7425  143.8902  152.3054 LP  0  0  0  0  0  0  0  0  0  0  0  0  # atno 17342 bound_to 10162
  139.8728  144.7059  150.8968 LP  0  0  0  0  0  0  0  0  0  0  0  0  # atno 17343 bound_to 10162
  156.1658  130.3645  149.9235 LP  0  0  0  0  0  0  0  0  0  0  0  0  # atno 17370 bound_to 10713
  156.7222  130.9011  151.3619 LP  0  0  0  0  0  0  0  0  0  0  0  0  # atno 17371 bound_to 10713
  140.4369  134.1722  155.7171 LP  0  0  0  0  0  0  0  0  0  0  0  0  # atno 17394 bound_to 11000
  141.1780  133.8473  157.1355 LP  0  0  0  0  0  0  0  0  0  0  0  0  # atno 17395 bound_to 11000

$$$$
