AV-unprocessed.smi:2973|AV-procd|sdf|11346|dock9
  -GOLD-   2272016263D 1   1.00000     0.00000
 Structure written by MMmdl.
 48 50  0  0  0  0  0  0  0  0  2 V2000
  145.0590  134.8689  158.9210 C   0  0  0  0  0  0  0  0  0  0  0  0
  145.5683  135.0783  160.3641 C   0  0  1  0  0  0  0  0  0  0  0  0
  145.3317  133.8124  161.2160 C   0  0  0  0  0  0  0  0  0  0  0  0
  145.7294  134.0274  162.6837 C   0  0  0  0  0  0  0  0  0  0  0  0
  147.1906  134.4800  162.8011 C   0  0  0  0  0  0  0  0  0  0  0  0
  147.4506  135.7462  161.9675 C   0  0  0  0  0  0  0  0  0  0  0  0
  147.0458  135.5784  160.4796 C   0  0  1  0  0  0  0  0  0  0  0  0
  147.9743  134.6858  159.8036 N   0  5  0  0  0  0  0  0  0  0  0  0
  148.6231  135.3742  158.8364 C   0  0  0  0  0  0  0  0  0  0  0  0
  149.4867  134.9380  158.0764 O   0  0  0  0  0  0  0  0  0  0  0  0
  148.2110  136.6560  158.7964 N   0  0  0  0  0  0  0  0  0  0  0  0
  148.7289  137.6836  157.8792 C   0  0  0  0  0  0  0  0  0  0  0  0
  150.2367  137.9650  158.0022 C   0  0  0  0  0  0  0  0  0  0  0  0
  150.9335  137.9337  156.9881 O   0  0  0  0  0  0  0  0  0  0  0  0
  150.7397  138.2319  159.2195 N   0  0  0  0  0  0  0  0  0  0  0  0
  152.1429  138.4932  159.5143 C   0  0  0  0  0  0  0  0  0  0  0  0
  152.6759  139.6845  158.7002 C   0  0  0  0  0  0  0  0  0  0  0  0
  152.6591  140.9789  159.4913 C   0  0  0  0  0  0  0  0  0  0  0  0
  153.3680  141.0895  160.7067 C   0  0  0  0  0  0  0  0  0  0  0  0
  153.3212  142.3132  161.4021 C   0  0  0  0  0  0  0  0  0  0  0  0
  152.5717  143.3741  160.8585 C   0  0  0  0  0  0  0  0  0  0  0  0
  151.9013  143.1637  159.6370 C   0  0  0  0  0  0  0  0  0  0  0  0
  151.9405  141.9948  158.9616 N   0  0  0  0  0  0  0  0  0  0  0  0
  147.2812  136.8824  159.7311 C   0  0  0  0  0  0  0  0  0  0  0  0
  146.7039  137.9433  159.9737 O   0  0  0  0  0  0  0  0  0  0  0  0
  145.6180  134.0859  158.4082 H   0  0  0  0  0  0  0  0  0  0  0  0
  145.1359  135.7780  158.3250 H   0  0  0  0  0  0  0  0  0  0  0  0
  144.0098  134.5734  158.9194 H   0  0  0  0  0  0  0  0  0  0  0  0
  144.9367  135.8578  160.7945 H   0  0  0  0  0  0  0  0  0  0  0  0
  144.2816  133.5231  161.1682 H   0  0  0  0  0  0  0  0  0  0  0  0
  145.8974  132.9759  160.8033 H   0  0  0  0  0  0  0  0  0  0  0  0
  145.0765  134.7754  163.1350 H   0  0  0  0  0  0  0  0  0  0  0  0
  145.5811  133.1058  163.2468 H   0  0  0  0  0  0  0  0  0  0  0  0
  147.4374  134.6682  163.8461 H   0  0  0  0  0  0  0  0  0  0  0  0
  147.8506  133.6777  162.4697 H   0  0  0  0  0  0  0  0  0  0  0  0
  146.8850  136.5687  162.4085 H   0  0  0  0  0  0  0  0  0  0  0  0
  148.5019  136.0280  162.0522 H   0  0  0  0  0  0  0  0  0  0  0  0
  148.5176  137.3944  156.8486 H   0  0  0  0  0  0  0  0  0  0  0  0
  148.1928  138.6218  158.0316 H   0  0  0  0  0  0  0  0  0  0  0  0
  150.1002  138.2339  160.0018 H   0  0  0  0  0  0  0  0  0  0  0  0
  152.2758  138.6682  160.5833 H   0  0  0  0  0  0  0  0  0  0  0  0
  152.7090  137.5930  159.2731 H   0  0  0  0  0  0  0  0  0  0  0  0
  153.6968  139.4837  158.3712 H   0  0  0  0  0  0  0  0  0  0  0  0
  152.0839  139.8168  157.7937 H   0  0  0  0  0  0  0  0  0  0  0  0
  153.9354  140.2576  161.0972 H   0  0  0  0  0  0  0  0  0  0  0  0
  153.8505  142.4361  162.3354 H   0  0  0  0  0  0  0  0  0  0  0  0
  152.5124  144.3261  161.3645 H   0  0  0  0  0  0  0  0  0  0  0  0
  151.3173  143.9553  159.1913 H   0  0  0  0  0  0  0  0  0  0  0  0
  1  2  1  0  0  0  0
  1 26  1  0  0  0  0
  1 27  1  0  0  0  0
  1 28  1  0  0  0  0
  2  7  1  0  0  0  0
  2  3  1  0  0  0  0
  2 29  1  0  0  0  0
  3  4  1  0  0  0  0
  3 30  1  0  0  0  0
  3 31  1  0  0  0  0
  4  5  1  0  0  0  0
  4 32  1  0  0  0  0
  4 33  1  0  0  0  0
  5  6  1  0  0  0  0
  5 34  1  0  0  0  0
  5 35  1  0  0  0  0
  6  7  1  0  0  0  0
  6 36  1  0  0  0  0
  6 37  1  0  0  0  0
  7 24  1  0  0  0  0
  7  8  1  0  0  0  0
  8  9  1  0  0  0  0
  9 10  2  0  0  0  0
  9 11  1  0  0  0  0
 11 12  1  0  0  0  0
 11 24  1  0  0  0  0
 12 13  1  0  0  0  0
 12 38  1  0  0  0  0
 12 39  1  0  0  0  0
 13 14  2  0  0  0  0
 13 15  1  0  0  0  0
 15 16  1  0  0  0  0
 15 40  1  0  0  0  0
 16 17  1  0  0  0  0
 16 41  1  0  0  0  0
 16 42  1  0  0  0  0
 17 18  1  0  0  0  0
 17 43  1  0  0  0  0
 17 44  1  0  0  0  0
 18 23  1  0  0  0  0
 18 19  2  0  0  0  0
 19 20  1  0  0  0  0
 19 45  1  0  0  0  0
 20 21  2  0  0  0  0
 20 46  1  0  0  0  0
 21 22  1  0  0  0  0
 21 47  1  0  0  0  0
 22 23  2  0  0  0  0
 22 48  1  0  0  0  0
 24 25  2  0  0  0  0
M  CHG  1   8  -1
M  END
> <s_m_source_file>
AV-unprocessed.smi

> <i_m_source_file_index>
2973

> <i_lp_mmshare_version>
43012

> <i_f3d_flags>
0

> <s_epik_input>
W0NIMl0xW0NIMl1bQ0gyXVtDSDJdW0NAQEhdKFtDSDNdKVtDQF0xMltOSF1DKD1PKU4oQzI9TylbQ0gyXUMoPU8pW05IXVtDSDJdW0NIMl1jM1tjSF1bY0hdW2NIXVtjSF1uMw==

> <s_epik_cmdline>
J2VwaWtfcHl0aG9uJywgJy1waCcsICc3LjAnLCAnLXRuJywgJzgnLCAnLW1hJywgJzIwMCcsICctbWV0YWxfYmluZGluZycsICctaW1hZScsICc8aW5maWxlLm1hZT4nLCAnLW9tYWUnLCAnPG91dGZpbGUubWFlPic=

> <r_lp_tautomer_probability>
1

> <r_epik_Ionization_Penalty>
6.04175

> <r_epik_Ionization_Penalty_Charging>
6.01728

> <r_epik_Ionization_Penalty_Neutral>
0.0244696

> <r_epik_State_Penalty>
6.03712

> <r_epik_Charging_Adjusted_Penalty>
12.0544

> <i_epik_Tot_Q>
-1

> <i_epik_Tot_abs_Q>
1

> <r_epik_Metal_State_Penalty>
2.01153

> <b_epik_Metal_Only>
1

> <s_lp_Force_Field>
OPLS_2005

> <r_lp_Energy>
16.8957

> <b_lp_Chiralities_Consistent>
1

> <s_lp_Variant>
AV-unprocessed.smi:2973-10

> <Gold.Version>
5.8.1

> <Gold.Id.Protein>
6NUR|6NUR_protein|mol2

> <Gold.PLP.Fitness>
43.8429

> <Gold.PLP.PLP>
-38.5502

> <Gold.PLP.part.hbond>
-1.7264

> <Gold.PLP.part.metal>
0.0000

> <Gold.PLP.part.buried>
-5.4073

> <Gold.PLP.part.nonpolar>
-32.5217

> <Gold.PLP.part.repulsive>
0.2017

> <Gold.PLP.ligand.clash>
0.0000

> <Gold.PLP.ligand.torsion>
0.3293

> <Gold.PLP.Chemscore.Hbond>
1.9760

> <Gold.PLP.Chemscore.CHOScore>
0.0000

> <Gold.PLP.Chemscore.Metal>
0.0000

> <Gold.Chemscore.Hbonds>
donor molecule, donor type, donor heavy atom, donor atom, acceptor molecule, acceptor atom, score
      P1  H  6896  6907       L1    10  0.98
      P1  H  6934  6947       L1    25  0.92

> <Gold.PLP.Chemscore.Internal.Correction>
0.0235

> <Gold.Rescore>
     Score         DG    S(hbond)    S(metal)    S(lipo)     H(rot)  DE(clash)    DE(int)     intcor
     18.86     -19.60       1.73        0.00     110.77       1.81       0.38       0.36       ----

> <Gold.Chemscore.Fitness>
18.8612

> <Gold.Chemscore.DG>
-19.6018

> <Gold.Chemscore.ZeroCoef>
-5.4800

> <Gold.Chemscore.Hbond>
1.7344

> <Gold.Chemscore.Metal>
0.0000

> <Gold.Chemscore.Lipo>
110.7682

> <Gold.Chemscore.Internal_Hbond>
0.0000

> <Gold.Chemscore.DEClash>
0.3835

> <Gold.Chemscore.DEInternal>
0.3571

> <Gold.Chemscore.Rot>
1.8090

> <Gold.Chemscore.Internal.Correction>
   9.000000E+99

> <Gold.Chemscore.Hbonds>
donor molecule, donor type, donor heavy atom, donor atom, acceptor molecule, acceptor atom, score
      P1  H  6896  6907       L1    10  0.28
      P1  H  6934  6947       L1    25  0.84

> <Gold.Chemscore.Hbond.Weighted>
-5.7929

> <Gold.Chemscore.Metal.Weighted>
-0.0000

> <Gold.Chemscore.Lipo.Weighted>
-12.9599

> <Gold.Chemscore.Internal_Hbond.Weighted>
0.0000

> <Gold.Chemscore.DEClash.Weighted>
0.3835

> <Gold.Chemscore.DEInternal.Weighted>
0.3571

> <Gold.Chemscore.Rot.Weighted>
4.6310

> <Gold.Chemscore.Internal.Correction.Weighted>
   9.000000E+99

> <Gold.Protein.RotatedTorsions>
[ 6907 6896 6895 6894 ] final -102.95 input  -60.11 | X-H torsion
[ 7974 7965 7964 7962 ] final  -24.66 input  175.53 | X-H torsion
[ 8008 7997 7996 7995 ] final  -49.96 input   59.86 | X-H torsion
[ 10167 10162 10161 10158 ] final  -12.66 input  -65.29 | X-H torsion
[ 10718 10713 10712 10709 ] final  -41.00 input   66.30 | X-H torsion
[ 10763 10752 10751 10750 ] final -105.70 input  -60.55 | X-H torsion
[ 11005 11000 10999 10996 ] final    0.23 input  -57.11 | X-H torsion

> <Gold.Protein.ActiveResidues>
 VAL166  LYS551  ARG553  GLY616  TRP617  ASP618  TYR619  PRO620  LYS621  CYS622 
 ASP623  PHE694  ASN695  SER759  ASP760  ASP761  ALA762  ILE779  LEU786  VAL792 
 PHE793  MET794  SER795  GLU796  ALA797  LYS798  CYS799  TRP800  GLU811  SER814 

> <Gold.Protein.RotatedAtoms>
  150.7218  134.0503  159.3795 H   0  0  0  0  0  0  0  0  0  0  0  0  # atno 6907 bound_to 6896
  151.8480  135.0565  160.0465 H   0  0  0  0  0  0  0  0  0  0  0  0  # atno 6908 bound_to 6896
  152.2812  133.5436  159.5535 H   0  0  0  0  0  0  0  0  0  0  0  0  # atno 6909 bound_to 6896
  146.1541  140.4781  142.8599 H   0  0  0  0  0  0  0  0  0  0  0  0  # atno 7974 bound_to 7965
  154.4053  140.1284  156.4588 H   0  0  0  0  0  0  0  0  0  0  0  0  # atno 8008 bound_to 7997
  155.7293  140.3491  155.5032 H   0  0  0  0  0  0  0  0  0  0  0  0  # atno 8009 bound_to 7997
  155.9142  140.1041  157.1246 H   0  0  0  0  0  0  0  0  0  0  0  0  # atno 8010 bound_to 7997
  140.7166  143.5508  150.9303 H   0  0  0  0  0  0  0  0  0  0  0  0  # atno 10167 bound_to 10162
  156.2752  130.4211  149.8396 H   0  0  0  0  0  0  0  0  0  0  0  0  # atno 10718 bound_to 10713
  154.7964  135.4739  154.0171 H   0  0  0  0  0  0  0  0  0  0  0  0  # atno 10763 bound_to 10752
  153.1710  135.6825  153.8615 H   0  0  0  0  0  0  0  0  0  0  0  0  # atno 10764 bound_to 10752
  153.8197  135.3206  155.3387 H   0  0  0  0  0  0  0  0  0  0  0  0  # atno 10765 bound_to 10752
  140.6288  133.9594  155.8263 H   0  0  0  0  0  0  0  0  0  0  0  0  # atno 11005 bound_to 11000
  144.7940  140.6088  143.6522 LP  0  0  0  0  0  0  0  0  0  0  0  0  # atno 17320 bound_to 7965
  145.4752  139.1500  143.3792 LP  0  0  0  0  0  0  0  0  0  0  0  0  # atno 17321 bound_to 7965
  139.9233  143.6580  152.3092 LP  0  0  0  0  0  0  0  0  0  0  0  0  # atno 17342 bound_to 10162
  139.7005  144.7635  151.1282 LP  0  0  0  0  0  0  0  0  0  0  0  0  # atno 17343 bound_to 10162
  156.5863  130.8487  151.3396 LP  0  0  0  0  0  0  0  0  0  0  0  0  # atno 17370 bound_to 10713
  157.7297  130.9674  150.1798 LP  0  0  0  0  0  0  0  0  0  0  0  0  # atno 17371 bound_to 10713
  141.0690  134.0234  157.3553 LP  0  0  0  0  0  0  0  0  0  0  0  0  # atno 17394 bound_to 11000
  139.9124  135.0192  156.7745 LP  0  0  0  0  0  0  0  0  0  0  0  0  # atno 17395 bound_to 11000

$$$$
