AV-unprocessed.smi:1927|AV-procd|sdf|7797|dock2
  -GOLD-   22720 9543D 1   1.00000     0.00000
 Structure written by MMmdl.
 34 35  0  0  0  0  0  0  0  0  1 V2000
  151.0245  145.0159  158.3318 C   0  0  0  0  0  0  0  0  0  0  0  0
  151.7303  143.7129  158.6713 C   0  0  0  0  0  0  0  0  0  0  0  0
  152.5824  143.6610  159.7950 C   0  0  0  0  0  0  0  0  0  0  0  0
  153.2343  142.4557  160.1065 C   0  0  0  0  0  0  0  0  0  0  0  0
  153.0050  141.3458  159.2755 C   0  0  0  0  0  0  0  0  0  0  0  0
  152.1921  141.3863  158.1999 N   0  0  0  0  0  0  0  0  0  0  0  0
  151.5546  142.5419  157.8856 C   0  0  0  0  0  0  0  0  0  0  0  0
  150.6783  142.6577  156.7697 N   0  0  0  0  0  0  0  0  0  0  0  0
  150.1100  141.6785  156.0440 C   0  0  0  0  0  0  0  0  0  0  0  0
  150.2831  140.4713  156.2140 O   0  0  0  0  0  0  0  0  0  0  0  0
  149.3187  142.1862  155.0877 N   0  0  0  0  0  0  0  0  0  0  0  0
  148.5495  141.4094  154.1205 C   0  0  0  0  0  0  0  0  0  0  0  0
  147.0336  141.5524  154.3489 C   0  0  1  0  0  0  0  0  0  0  0  0
  146.6008  141.5940  155.8020 C   0  0  0  0  0  0  0  0  0  0  0  0
  145.2119  142.2196  155.7046 C   0  0  0  0  0  0  0  0  0  0  0  0
  145.2349  143.0544  154.5497 O   0  0  0  0  0  0  0  0  0  0  0  0
  146.4565  142.8727  153.8410 C   0  0  0  0  0  0  0  0  0  0  0  0
  151.2792  145.8030  159.0424 H   0  0  0  0  0  0  0  0  0  0  0  0
  149.9426  144.8814  158.3537 H   0  0  0  0  0  0  0  0  0  0  0  0
  151.3120  145.3574  157.3371 H   0  0  0  0  0  0  0  0  0  0  0  0
  152.7370  144.5332  160.4131 H   0  0  0  0  0  0  0  0  0  0  0  0
  153.8923  142.3836  160.9598 H   0  0  0  0  0  0  0  0  0  0  0  0
  153.4851  140.4003  159.4792 H   0  0  0  0  0  0  0  0  0  0  0  0
  150.4493  143.6022  156.4988 H   0  0  0  0  0  0  0  0  0  0  0  0
  149.2394  143.1906  155.0237 H   0  0  0  0  0  0  0  0  0  0  0  0
  148.8135  141.6839  153.0976 H   0  0  0  0  0  0  0  0  0  0  0  0
  148.8360  140.3640  154.2366 H   0  0  0  0  0  0  0  0  0  0  0  0
  146.5112  140.7332  153.8511 H   0  0  0  0  0  0  0  0  0  0  0  0
  146.5897  140.6128  156.2777 H   0  0  0  0  0  0  0  0  0  0  0  0
  147.2629  142.2432  156.3771 H   0  0  0  0  0  0  0  0  0  0  0  0
  144.4559  141.4475  155.5570 H   0  0  0  0  0  0  0  0  0  0  0  0
  144.9484  142.7848  156.5990 H   0  0  0  0  0  0  0  0  0  0  0  0
  147.1215  143.7035  154.0815 H   0  0  0  0  0  0  0  0  0  0  0  0
  146.2944  142.8713  152.7629 H   0  0  0  0  0  0  0  0  0  0  0  0
  1  2  1  0  0  0  0
  1 18  1  0  0  0  0
  1 19  1  0  0  0  0
  1 20  1  0  0  0  0
  2  7  1  0  0  0  0
  2  3  2  0  0  0  0
  3  4  1  0  0  0  0
  3 21  1  0  0  0  0
  4  5  2  0  0  0  0
  4 22  1  0  0  0  0
  5  6  1  0  0  0  0
  5 23  1  0  0  0  0
  6  7  2  0  0  0  0
  7  8  1  0  0  0  0
  8  9  1  0  0  0  0
  8 24  1  0  0  0  0
  9 10  2  0  0  0  0
  9 11  1  0  0  0  0
 11 12  1  0  0  0  0
 11 25  1  0  0  0  0
 12 13  1  0  0  0  0
 12 26  1  0  0  0  0
 12 27  1  0  0  0  0
 13 17  1  0  0  0  0
 13 14  1  0  0  0  0
 13 28  1  0  0  0  0
 14 15  1  0  0  0  0
 14 29  1  0  0  0  0
 14 30  1  0  0  0  0
 15 16  1  0  0  0  0
 15 31  1  0  0  0  0
 15 32  1  0  0  0  0
 16 17  1  0  0  0  0
 17 33  1  0  0  0  0
 17 34  1  0  0  0  0
M  END
> <s_m_source_file>
AV-unprocessed.smi

> <i_m_source_file_index>
1927

> <i_lp_mmshare_version>
43012

> <i_f3d_flags>
0

> <s_epik_input>
W0NIM11jMVtjSF1bY0hdW2NIXW5jMVtOSF1DKD1PKVtOSF1bQ0gyXVtDQEBIXTJbQ0gyXVtDSDJdT1tDSDJdMg==

> <s_epik_cmdline>
J2VwaWtfcHl0aG9uJywgJy1waCcsICc3LjAnLCAnLXRuJywgJzgnLCAnLW1hJywgJzIwMCcsICctbWV0YWxfYmluZGluZycsICctaW1hZScsICc8aW5maWxlLm1hZT4nLCAnLW9tYWUnLCAnPG91dGZpbGUubWFlPic=

> <r_lp_tautomer_probability>
1

> <r_epik_Ionization_Penalty>
5.84082e-05

> <r_epik_Ionization_Penalty_Charging>
0

> <r_epik_Ionization_Penalty_Neutral>
5.84082e-05

> <r_epik_State_Penalty>
-0

> <r_epik_Charging_Adjusted_Penalty>
0

> <i_epik_Tot_Q>
0

> <i_epik_Tot_abs_Q>
0

> <r_epik_Metal_State_Penalty>
-0

> <b_epik_Metal_Only>
0

> <s_lp_Force_Field>
OPLS_2005

> <r_lp_Energy>
21.9437

> <b_lp_Chiralities_Consistent>
1

> <s_lp_Variant>
AV-unprocessed.smi:1927-2

> <Gold.Version>
5.8.1

> <Gold.Id.Protein>
6NUR|6NUR_protein|mol2

> <Gold.PLP.Fitness>
42.2342

> <Gold.PLP.PLP>
-37.4597

> <Gold.PLP.part.hbond>
-2.0000

> <Gold.PLP.part.metal>
0.0000

> <Gold.PLP.part.buried>
-5.9508

> <Gold.PLP.part.nonpolar>
-29.4365

> <Gold.PLP.part.repulsive>
0.5019

> <Gold.PLP.ligand.clash>
0.0000

> <Gold.PLP.ligand.torsion>
0.2539

> <Gold.PLP.Chemscore.Hbond>
1.7571

> <Gold.PLP.Chemscore.CHOScore>
0.0000

> <Gold.PLP.Chemscore.Metal>
0.0000

> <Gold.Chemscore.Hbonds>
donor molecule, donor type, donor heavy atom, donor atom, acceptor molecule, acceptor atom, score
      L1  H     8    24       P1  8028  0.72
      L1  H    11    25       P1  8028  1.00

> <Gold.PLP.Chemscore.Internal.Correction>
0.0111

> <Gold.Rescore>
     Score         DG    S(hbond)    S(metal)    S(lipo)     H(rot)  DE(clash)    DE(int)     intcor
     16.97     -18.51       1.92        0.00      83.41       1.23       0.03       1.51       ----

> <Gold.Chemscore.Fitness>
16.9709

> <Gold.Chemscore.DG>
-18.5106

> <Gold.Chemscore.ZeroCoef>
-5.4800

> <Gold.Chemscore.Hbond>
1.9249

> <Gold.Chemscore.Metal>
0.0000

> <Gold.Chemscore.Lipo>
83.4145

> <Gold.Chemscore.Internal_Hbond>
0.0000

> <Gold.Chemscore.DEClash>
0.0267

> <Gold.Chemscore.DEInternal>
1.5130

> <Gold.Chemscore.Rot>
1.2337

> <Gold.Chemscore.Internal.Correction>
   9.000000E+99

> <Gold.Chemscore.Hbonds>
donor molecule, donor type, donor heavy atom, donor atom, acceptor molecule, acceptor atom, score
      L1  H     8    24       P1  8028  0.70
      L1  H    11    25       P1  8028  0.97

> <Gold.Chemscore.Hbond.Weighted>
-6.4293

> <Gold.Chemscore.Metal.Weighted>
-0.0000

> <Gold.Chemscore.Lipo.Weighted>
-9.7595

> <Gold.Chemscore.Internal_Hbond.Weighted>
0.0000

> <Gold.Chemscore.DEClash.Weighted>
0.0267

> <Gold.Chemscore.DEInternal.Weighted>
1.5130

> <Gold.Chemscore.Rot.Weighted>
3.1582

> <Gold.Chemscore.Internal.Correction.Weighted>
   9.000000E+99

> <Gold.Protein.RotatedTorsions>
[ 6907 6896 6895 6894 ] final  -17.03 input  -60.11 | X-H torsion
[ 7974 7965 7964 7962 ] final    7.40 input  175.53 | X-H torsion
[ 8008 7997 7996 7995 ] final -146.29 input   59.86 | X-H torsion
[ 10167 10162 10161 10158 ] final -152.62 input  -65.29 | X-H torsion
[ 10718 10713 10712 10709 ] final   40.63 input   66.30 | X-H torsion
[ 10763 10752 10751 10750 ] final   77.19 input  -60.55 | X-H torsion
[ 11005 11000 10999 10996 ] final  -85.26 input  -57.11 | X-H torsion

> <Gold.Protein.ActiveResidues>
 VAL166  LYS551  ARG553  GLY616  TRP617  ASP618  TYR619  PRO620  LYS621  CYS622 
 ASP623  PHE694  ASN695  SER759  ASP760  ASP761  ALA762  ILE779  LEU786  VAL792 
 PHE793  MET794  SER795  GLU796  ALA797  LYS798  CYS799  TRP800  GLU811  SER814 

> <Gold.Protein.RotatedAtoms>
  151.2995  135.0764  159.9233 H   0  0  0  0  0  0  0  0  0  0  0  0  # atno 6907 bound_to 6896
  152.5300  133.9848  159.7834 H   0  0  0  0  0  0  0  0  0  0  0  0  # atno 6908 bound_to 6896
  151.0132  133.5894  159.2710 H   0  0  0  0  0  0  0  0  0  0  0  0  # atno 6909 bound_to 6896
  146.2427  140.0088  142.8408 H   0  0  0  0  0  0  0  0  0  0  0  0  # atno 7974 bound_to 7965
  155.5570  140.0622  157.2837 H   0  0  0  0  0  0  0  0  0  0  0  0  # atno 8008 bound_to 7997
  154.4402  140.1892  156.0789 H   0  0  0  0  0  0  0  0  0  0  0  0  # atno 8009 bound_to 7997
  156.0475  140.3288  155.7316 H   0  0  0  0  0  0  0  0  0  0  0  0  # atno 8010 bound_to 7997
  139.7166  143.9024  152.2488 H   0  0  0  0  0  0  0  0  0  0  0  0  # atno 10167 bound_to 10162
  157.3843  130.7771  149.7218 H   0  0  0  0  0  0  0  0  0  0  0  0  # atno 10718 bound_to 10713
  153.0780  135.4923  154.8445 H   0  0  0  0  0  0  0  0  0  0  0  0  # atno 10763 bound_to 10752
  154.7113  135.3020  154.9194 H   0  0  0  0  0  0  0  0  0  0  0  0  # atno 10764 bound_to 10752
  153.9887  135.6781  153.4806 H   0  0  0  0  0  0  0  0  0  0  0  0  # atno 10765 bound_to 10752
  141.1643  133.7389  156.8988 H   0  0  0  0  0  0  0  0  0  0  0  0  # atno 11005 bound_to 11000
  145.1347  140.9537  143.4524 LP  0  0  0  0  0  0  0  0  0  0  0  0  # atno 17320 bound_to 7965
  145.0354  139.3305  143.6003 LP  0  0  0  0  0  0  0  0  0  0  0  0  # atno 17321 bound_to 7965
  139.8908  144.6967  150.8773 LP  0  0  0  0  0  0  0  0  0  0  0  0  # atno 17342 bound_to 10162
  140.7745  143.3588  151.1868 LP  0  0  0  0  0  0  0  0  0  0  0  0  # atno 17343 bound_to 10162
  155.9783  130.4053  150.3657 LP  0  0  0  0  0  0  0  0  0  0  0  0  # atno 17370 bound_to 10713
  157.1765  131.0381  151.2770 LP  0  0  0  0  0  0  0  0  0  0  0  0  # atno 17371 bound_to 10713
  140.1597  134.9174  157.2699 LP  0  0  0  0  0  0  0  0  0  0  0  0  # atno 17394 bound_to 11000
  140.2626  134.3554  155.7401 LP  0  0  0  0  0  0  0  0  0  0  0  0  # atno 17395 bound_to 11000

$$$$
