AV-unprocessed.smi:2141|AV-procd|sdf|8718|dock6
  -GOLD-   2272011483D 1   1.00000     0.00000
 Structure written by MMmdl.
 42 43  0  0  0  0  0  0  0  0  1 V2000
  146.4858  134.0050  151.5993 C   0  0  0  0  0  0  0  0  0  0  0  0
  144.8820  134.8906  151.4236 S   0  0  0  0  0  0  0  0  0  0  0  0
  144.2148  134.4188  150.2006 O   0  0  0  0  0  0  0  0  0  0  0  0
  144.1845  134.8382  152.7171 O   0  0  0  0  0  0  0  0  0  0  0  0
  145.3565  136.5308  151.1640 N   0  0  0  0  0  0  0  0  0  0  0  0
  145.9569  137.3245  152.2421 C   0  0  0  0  0  0  0  0  0  0  0  0
  146.4970  138.6798  151.7411 C   0  0  0  0  0  0  0  0  0  0  0  0
  147.2626  139.4602  152.8126 C   0  0  0  0  0  0  0  0  0  0  0  0
  146.7816  140.4992  153.2639 O   0  0  0  0  0  0  0  0  0  0  0  0
  148.4352  138.9257  153.1988 N   0  0  0  0  0  0  0  0  0  0  0  0
  149.3013  139.3677  154.2333 C   0  0  0  0  0  0  0  0  0  0  0  0
  150.6268  138.9098  154.4117 C   0  0  0  0  0  0  0  0  0  0  0  0
  151.3870  139.4240  155.4796 C   0  0  0  0  0  0  0  0  0  0  0  0
  150.8047  140.3764  156.3491 C   0  0  0  0  0  0  0  0  0  0  0  0
  151.5535  140.9116  157.4190 N   0  0  0  0  0  0  0  0  0  0  0  0
  152.0049  139.9500  158.4214 C   0  0  0  0  0  0  0  0  0  0  0  0
  153.0558  140.5916  159.3442 C   0  0  0  0  0  0  0  0  0  0  0  0
  152.5326  141.7859  159.9162 O   0  0  0  0  0  0  0  0  0  0  0  0
  152.2059  142.7505  158.9216 C   0  0  0  0  0  0  0  0  0  0  0  0
  151.1201  142.1852  157.9906 C   0  0  0  0  0  0  0  0  0  0  0  0
  149.5290  140.8030  156.1808 N   0  0  0  0  0  0  0  0  0  0  0  0
  148.8028  140.3048  155.1591 C   0  0  0  0  0  0  0  0  0  0  0  0
  146.2950  132.9500  151.7937 H   0  0  0  0  0  0  0  0  0  0  0  0
  147.0486  134.4264  152.4320 H   0  0  0  0  0  0  0  0  0  0  0  0
  147.0644  134.1001  150.6814 H   0  0  0  0  0  0  0  0  0  0  0  0
  144.7482  137.0475  150.5287 H   0  0  0  0  0  0  0  0  0  0  0  0
  145.2234  137.4832  153.0335 H   0  0  0  0  0  0  0  0  0  0  0  0
  146.7671  136.7458  152.6856 H   0  0  0  0  0  0  0  0  0  0  0  0
  147.1435  138.5208  150.8769 H   0  0  0  0  0  0  0  0  0  0  0  0
  145.6691  139.2966  151.3887 H   0  0  0  0  0  0  0  0  0  0  0  0
  148.6731  138.0363  152.7839 H   0  0  0  0  0  0  0  0  0  0  0  0
  151.0715  138.1743  153.7593 H   0  0  0  0  0  0  0  0  0  0  0  0
  152.4069  139.0942  155.6092 H   0  0  0  0  0  0  0  0  0  0  0  0
  151.1446  139.6238  159.0071 H   0  0  0  0  0  0  0  0  0  0  0  0
  152.4317  139.0589  157.9631 H   0  0  0  0  0  0  0  0  0  0  0  0
  153.3219  139.9021  160.1454 H   0  0  0  0  0  0  0  0  0  0  0  0
  153.9732  140.8105  158.7953 H   0  0  0  0  0  0  0  0  0  0  0  0
  151.8480  143.6574  159.4089 H   0  0  0  0  0  0  0  0  0  0  0  0
  153.0987  143.0239  158.3567 H   0  0  0  0  0  0  0  0  0  0  0  0
  150.9141  142.9048  157.1972 H   0  0  0  0  0  0  0  0  0  0  0  0
  150.1931  142.0357  158.5458 H   0  0  0  0  0  0  0  0  0  0  0  0
  147.7927  140.6784  155.0721 H   0  0  0  0  0  0  0  0  0  0  0  0
  1  2  1  0  0  0  0
  1 23  1  0  0  0  0
  1 24  1  0  0  0  0
  1 25  1  0  0  0  0
  2  3  2  0  0  0  0
  2  4  2  0  0  0  0
  2  5  1  0  0  0  0
  5  6  1  0  0  0  0
  5 26  1  0  0  0  0
  6  7  1  0  0  0  0
  6 27  1  0  0  0  0
  6 28  1  0  0  0  0
  7  8  1  0  0  0  0
  7 29  1  0  0  0  0
  7 30  1  0  0  0  0
  8  9  2  0  0  0  0
  8 10  1  0  0  0  0
 10 11  1  0  0  0  0
 10 31  1  0  0  0  0
 11 22  1  0  0  0  0
 11 12  2  0  0  0  0
 12 13  1  0  0  0  0
 12 32  1  0  0  0  0
 13 14  2  0  0  0  0
 13 33  1  0  0  0  0
 14 15  1  0  0  0  0
 14 21  1  0  0  0  0
 15 20  1  0  0  0  0
 15 16  1  0  0  0  0
 16 17  1  0  0  0  0
 16 34  1  0  0  0  0
 16 35  1  0  0  0  0
 17 18  1  0  0  0  0
 17 36  1  0  0  0  0
 17 37  1  0  0  0  0
 18 19  1  0  0  0  0
 19 20  1  0  0  0  0
 19 38  1  0  0  0  0
 19 39  1  0  0  0  0
 20 40  1  0  0  0  0
 20 41  1  0  0  0  0
 21 22  2  0  0  0  0
 22 42  1  0  0  0  0
M  END
> <s_m_source_file>
AV-unprocessed.smi

> <i_m_source_file_index>
2141

> <i_lp_mmshare_version>
43012

> <i_f3d_flags>
0

> <s_epik_input>
W0NIM11TKD1PKSg9TylbTkhdW0NIMl1bQ0gyXUMoPU8pW05IXWMxW2NIXVtjSF1jKG5bY0hdMSlOMltDSDJdW0NIMl1PW0NIMl1bQ0gyXTI=

> <s_epik_cmdline>
J2VwaWtfcHl0aG9uJywgJy1waCcsICc3LjAnLCAnLXRuJywgJzgnLCAnLW1hJywgJzIwMCcsICctbWV0YWxfYmluZGluZycsICctaW1hZScsICc8aW5maWxlLm1hZT4nLCAnLW9tYWUnLCAnPG91dGZpbGUubWFlPic=

> <r_lp_tautomer_probability>
1

> <r_epik_Ionization_Penalty>
0.000610192

> <r_epik_Ionization_Penalty_Charging>
0

> <r_epik_Ionization_Penalty_Neutral>
0.000610192

> <r_epik_State_Penalty>
0.000370803

> <r_epik_Charging_Adjusted_Penalty>
0.000370803

> <i_epik_Tot_Q>
0

> <i_epik_Tot_abs_Q>
0

> <r_epik_Metal_State_Penalty>
0.0170256

> <b_epik_Metal_Only>
0

> <s_lp_Force_Field>
OPLS_2005

> <r_lp_Energy>
9.95274

> <b_lp_Chiralities_Consistent>
1

> <s_lp_Variant>
AV-unprocessed.smi:2141-1

> <Gold.Version>
5.8.1

> <Gold.Id.Protein>
6NUR|6NUR_protein|mol2

> <Gold.PLP.Fitness>
42.7902

> <Gold.PLP.PLP>
-37.3515

> <Gold.PLP.part.hbond>
-2.9929

> <Gold.PLP.part.metal>
0.0000

> <Gold.PLP.part.buried>
-4.3589

> <Gold.PLP.part.nonpolar>
-32.8776

> <Gold.PLP.part.repulsive>
0.6839

> <Gold.PLP.ligand.clash>
0.0000

> <Gold.PLP.ligand.torsion>
0.9688

> <Gold.PLP.Chemscore.Hbond>
2.0000

> <Gold.PLP.Chemscore.CHOScore>
0.0000

> <Gold.PLP.Chemscore.Metal>
0.0000

> <Gold.Chemscore.Hbonds>
donor molecule, donor type, donor heavy atom, donor atom, acceptor molecule, acceptor atom, score
      L1  H     5    26       P1 10171  1.00
      L1  H    10    31       P1  7948  1.00

> <Gold.PLP.Chemscore.Internal.Correction>
1.3762

> <Gold.Rescore>
     Score         DG    S(hbond)    S(metal)    S(lipo)     H(rot)  DE(clash)    DE(int)     intcor
     13.33     -16.64       1.96        0.00      82.85       1.99       1.06       2.24       ----

> <Gold.Chemscore.Fitness>
13.3326

> <Gold.Chemscore.DG>
-16.6351

> <Gold.Chemscore.ZeroCoef>
-5.4800

> <Gold.Chemscore.Hbond>
1.9648

> <Gold.Chemscore.Metal>
0.0000

> <Gold.Chemscore.Lipo>
82.8494

> <Gold.Chemscore.Internal_Hbond>
0.0000

> <Gold.Chemscore.DEClash>
1.0602

> <Gold.Chemscore.DEInternal>
2.2423

> <Gold.Chemscore.Rot>
1.9925

> <Gold.Chemscore.Internal.Correction>
   9.000000E+99

> <Gold.Chemscore.Hbonds>
donor molecule, donor type, donor heavy atom, donor atom, acceptor molecule, acceptor atom, score
      L1  H     5    26       P1 10171  0.99
      L1  H    10    31       P1  7948  0.94

> <Gold.Chemscore.Hbond.Weighted>
-6.5625

> <Gold.Chemscore.Metal.Weighted>
-0.0000

> <Gold.Chemscore.Lipo.Weighted>
-9.6934

> <Gold.Chemscore.Internal_Hbond.Weighted>
0.0000

> <Gold.Chemscore.DEClash.Weighted>
1.0602

> <Gold.Chemscore.DEInternal.Weighted>
2.2423

> <Gold.Chemscore.Rot.Weighted>
5.1008

> <Gold.Chemscore.Internal.Correction.Weighted>
   9.000000E+99

> <Gold.Protein.RotatedTorsions>
[ 6907 6896 6895 6894 ] final  -78.84 input  -60.11 | X-H torsion
[ 7974 7965 7964 7962 ] final  -42.63 input  175.53 | X-H torsion
[ 8008 7997 7996 7995 ] final   12.48 input   59.86 | X-H torsion
[ 10167 10162 10161 10158 ] final   38.15 input  -65.29 | X-H torsion
[ 10718 10713 10712 10709 ] final  -72.97 input   66.30 | X-H torsion
[ 10763 10752 10751 10750 ] final -152.97 input  -60.55 | X-H torsion
[ 11005 11000 10999 10996 ] final  102.85 input  -57.11 | X-H torsion

> <Gold.Protein.ActiveResidues>
 VAL166  LYS551  ARG553  GLY616  TRP617  ASP618  TYR619  PRO620  LYS621  CYS622 
 ASP623  PHE694  ASN695  SER759  ASP760  ASP761  ALA762  ILE779  LEU786  VAL792 
 PHE793  MET794  SER795  GLU796  ALA797  LYS798  CYS799  TRP800  GLU811  SER814 

> <Gold.Protein.RotatedAtoms>
  150.6963  134.4211  159.5205 H   0  0  0  0  0  0  0  0  0  0  0  0  # atno 6907 bound_to 6896
  152.1954  134.8632  160.0522 H   0  0  0  0  0  0  0  0  0  0  0  0  # atno 6908 bound_to 6896
  151.9572  133.3649  159.4059 H   0  0  0  0  0  0  0  0  0  0  0  0  # atno 6909 bound_to 6896
  146.0097  140.6978  142.9230 H   0  0  0  0  0  0  0  0  0  0  0  0  # atno 7974 bound_to 7965
  154.8212  140.2884  155.5786 H   0  0  0  0  0  0  0  0  0  0  0  0  # atno 8008 bound_to 7997
  156.2998  140.2550  156.3050 H   0  0  0  0  0  0  0  0  0  0  0  0  # atno 8009 bound_to 7997
  154.9337  140.0383  157.2050 H   0  0  0  0  0  0  0  0  0  0  0  0  # atno 8010 bound_to 7997
  140.3964  144.1782  150.6132 H   0  0  0  0  0  0  0  0  0  0  0  0  # atno 10167 bound_to 10162
  156.0298  130.4384  150.2673 H   0  0  0  0  0  0  0  0  0  0  0  0  # atno 10718 bound_to 10713
  154.7959  135.3224  154.7668 H   0  0  0  0  0  0  0  0  0  0  0  0  # atno 10763 bound_to 10752
  153.8346  135.6876  153.4814 H   0  0  0  0  0  0  0  0  0  0  0  0  # atno 10764 bound_to 10752
  153.1650  135.4645  154.9767 H   0  0  0  0  0  0  0  0  0  0  0  0  # atno 10765 bound_to 10752
  139.8780  134.9240  156.5120 H   0  0  0  0  0  0  0  0  0  0  0  0  # atno 11005 bound_to 11000
  144.6948  140.3378  143.7204 LP  0  0  0  0  0  0  0  0  0  0  0  0  # atno 17320 bound_to 7965
  145.7360  139.1750  143.2403 LP  0  0  0  0  0  0  0  0  0  0  0  0  # atno 17321 bound_to 7965
  140.4785  143.2387  151.8988 LP  0  0  0  0  0  0  0  0  0  0  0  0  # atno 17342 bound_to 10162
  139.4786  144.5294  151.8688 LP  0  0  0  0  0  0  0  0  0  0  0  0  # atno 17343 bound_to 10162
  157.0776  131.0134  151.3168 LP  0  0  0  0  0  0  0  0  0  0  0  0  # atno 17370 bound_to 10713
  157.4952  130.7846  149.7548 LP  0  0  0  0  0  0  0  0  0  0  0  0  # atno 17371 bound_to 10713
  140.8513  133.8130  155.9171 LP  0  0  0  0  0  0  0  0  0  0  0  0  # atno 17394 bound_to 11000
  140.9141  134.2223  157.4967 LP  0  0  0  0  0  0  0  0  0  0  0  0  # atno 17395 bound_to 11000

$$$$
