AV-unprocessed.smi:1815|AV-procd|sdf|7358|dock10
  -GOLD-   22720 9 23D 1   1.00000     0.00000
 Structure written by MMmdl.
 38 39  0  0  0  0  0  0  0  0  2 V2000
  153.9539  140.6343  160.6865 C   0  0  0  0  0  0  0  0  0  0  0  0
  153.2224  141.1848  159.4581 C   0  0  1  0  0  0  0  0  0  0  0  0
  151.8836  140.4661  159.2071 C   0  0  0  0  0  0  0  0  0  0  0  0
  151.1560  141.0420  158.0821 N   0  0  0  0  0  0  0  0  0  0  0  0
  149.8953  140.3356  157.8594 C   0  0  0  0  0  0  0  0  0  0  0  0
  150.0301  138.8240  157.6157 C   0  0  0  0  0  0  0  0  0  0  0  0
  148.9429  138.1096  158.2704 N   0  0  0  0  0  0  0  0  0  0  0  0
  149.0928  137.1794  159.2228 C   0  0  0  0  0  0  0  0  0  0  0  0
  150.2235  136.8724  159.6079 O   0  0  0  0  0  0  0  0  0  0  0  0
  147.9249  136.6625  159.6686 N   0  5  0  0  0  0  0  0  0  0  0  0
  147.7729  136.3678  160.9700 C   0  0  0  0  0  0  0  0  0  0  0  0
  147.8612  137.2853  161.9397 N   0  0  0  0  0  0  0  0  0  0  0  0
  147.6630  136.7629  163.2189 C   0  0  0  0  0  0  0  0  0  0  0  0
  147.4088  135.4173  163.2230 C   0  0  0  0  0  0  0  0  0  0  0  0
  147.4101  134.7623  161.6104 S   0  0  0  0  0  0  0  0  0  0  0  0
  150.9648  142.4699  158.3246 C   0  0  0  0  0  0  0  0  0  0  0  0
  152.3001  143.1955  158.5796 C   0  0  1  0  0  0  0  0  0  0  0  0
  152.0999  144.6758  158.9218 C   0  0  0  0  0  0  0  0  0  0  0  0
  152.9724  142.5714  159.6701 O   0  0  0  0  0  0  0  0  0  0  0  0
  154.1740  139.5731  160.5684 H   0  0  0  0  0  0  0  0  0  0  0  0
  153.3544  140.7543  161.5894 H   0  0  0  0  0  0  0  0  0  0  0  0
  154.8990  141.1547  160.8424 H   0  0  0  0  0  0  0  0  0  0  0  0
  153.8677  141.0706  158.5852 H   0  0  0  0  0  0  0  0  0  0  0  0
  152.0722  139.4084  159.0197 H   0  0  0  0  0  0  0  0  0  0  0  0
  151.2696  140.5175  160.1079 H   0  0  0  0  0  0  0  0  0  0  0  0
  149.2601  140.4708  158.7361 H   0  0  0  0  0  0  0  0  0  0  0  0
  149.3580  140.7941  157.0275 H   0  0  0  0  0  0  0  0  0  0  0  0
  150.0017  138.5931  156.5507 H   0  0  0  0  0  0  0  0  0  0  0  0
  150.9863  138.4680  158.0028 H   0  0  0  0  0  0  0  0  0  0  0  0
  148.0027  138.3363  157.9818 H   0  0  0  0  0  0  0  0  0  0  0  0
  147.7205  137.4230  164.0716 H   0  0  0  0  0  0  0  0  0  0  0  0
  147.2210  134.7751  164.0699 H   0  0  0  0  0  0  0  0  0  0  0  0
  150.4747  142.9351  157.4702 H   0  0  0  0  0  0  0  0  0  0  0  0
  150.3034  142.6123  159.1808 H   0  0  0  0  0  0  0  0  0  0  0  0
  152.9288  143.1237  157.6904 H   0  0  0  0  0  0  0  0  0  0  0  0
  151.5985  145.2021  158.1095 H   0  0  0  0  0  0  0  0  0  0  0  0
  153.0570  145.1681  159.0960 H   0  0  0  0  0  0  0  0  0  0  0  0
  151.4960  144.7946  159.8217 H   0  0  0  0  0  0  0  0  0  0  0  0
  1  2  1  0  0  0  0
  1 20  1  0  0  0  0
  1 21  1  0  0  0  0
  1 22  1  0  0  0  0
  2 19  1  0  0  0  0
  2  3  1  0  0  0  0
  2 23  1  0  0  0  0
  3  4  1  0  0  0  0
  3 24  1  0  0  0  0
  3 25  1  0  0  0  0
  4  5  1  0  0  0  0
  4 16  1  0  0  0  0
  5  6  1  0  0  0  0
  5 26  1  0  0  0  0
  5 27  1  0  0  0  0
  6  7  1  0  0  0  0
  6 28  1  0  0  0  0
  6 29  1  0  0  0  0
  7  8  1  0  0  0  0
  7 30  1  0  0  0  0
  8  9  2  0  0  0  0
  8 10  1  0  0  0  0
 10 11  1  0  0  0  0
 11 15  1  0  0  0  0
 11 12  2  0  0  0  0
 12 13  1  0  0  0  0
 13 14  2  0  0  0  0
 13 31  1  0  0  0  0
 14 15  1  0  0  0  0
 14 32  1  0  0  0  0
 16 17  1  0  0  0  0
 16 33  1  0  0  0  0
 16 34  1  0  0  0  0
 17 18  1  0  0  0  0
 17 19  1  0  0  0  0
 17 35  1  0  0  0  0
 18 36  1  0  0  0  0
 18 37  1  0  0  0  0
 18 38  1  0  0  0  0
M  CHG  1  10  -1
M  END
> <s_m_source_file>
AV-unprocessed.smi

> <i_m_source_file_index>
1815

> <i_lp_mmshare_version>
43012

> <i_f3d_flags>
0

> <s_epik_input>
W0NIM11bQ0BASF0xW0NIMl1OKFtDSDJdW0NASF0oTzEpW0NIM10pW0NIMl1bQ0gyXVtOSF1DKD1PKVtOSF1jMm5bY0hdW2NIXXMy

> <s_epik_cmdline>
J2VwaWtfcHl0aG9uJywgJy1waCcsICc3LjAnLCAnLXRuJywgJzgnLCAnLW1hJywgJzIwMCcsICctbWV0YWxfYmluZGluZycsICctaW1hZScsICc8aW5maWxlLm1hZT4nLCAnLW9tYWUnLCAnPG91dGZpbGUubWFlPic=

> <r_lp_tautomer_probability>
0.999

> <r_epik_Ionization_Penalty>
7.22374

> <r_epik_Ionization_Penalty_Charging>
5.82415

> <r_epik_Ionization_Penalty_Neutral>
1.39959

> <r_epik_State_Penalty>
6.03347

> <r_epik_Charging_Adjusted_Penalty>
11.8576

> <i_epik_Tot_Q>
-1

> <i_epik_Tot_abs_Q>
1

> <r_epik_Metal_State_Penalty>
2.01024

> <b_epik_Metal_Only>
1

> <s_lp_Force_Field>
OPLS_2005

> <r_lp_Energy>
15.5459

> <b_lp_Chiralities_Consistent>
1

> <s_lp_Variant>
AV-unprocessed.smi:1815-9

> <Gold.Version>
5.8.1

> <Gold.Id.Protein>
6NUR|6NUR_protein|mol2

> <Gold.PLP.Fitness>
45.9057

> <Gold.PLP.PLP>
-40.6853

> <Gold.PLP.part.hbond>
-2.9833

> <Gold.PLP.part.metal>
0.0000

> <Gold.PLP.part.buried>
-5.9267

> <Gold.PLP.part.nonpolar>
-32.2765

> <Gold.PLP.part.repulsive>
0.1268

> <Gold.PLP.ligand.clash>
0.0000

> <Gold.PLP.ligand.torsion>
1.1169

> <Gold.PLP.Chemscore.Hbond>
2.4766

> <Gold.PLP.Chemscore.CHOScore>
0.0000

> <Gold.PLP.Chemscore.Metal>
0.0000

> <Gold.Chemscore.Hbonds>
donor molecule, donor type, donor heavy atom, donor atom, acceptor molecule, acceptor atom, score
      P1  H  6896  6908       L1     9  1.00
      P1  H  6931  6943       L1    12  0.96
      P1  H  6934  6947       L1    12  0.46

> <Gold.PLP.Chemscore.Internal.Correction>
0.0244

> <Gold.Rescore>
     Score         DG    S(hbond)    S(metal)    S(lipo)     H(rot)  DE(clash)    DE(int)     intcor
     18.76     -19.81       2.35        0.00      89.77       1.57       0.00       1.04       ----

> <Gold.Chemscore.Fitness>
18.7610

> <Gold.Chemscore.DG>
-19.8052

> <Gold.Chemscore.ZeroCoef>
-5.4800

> <Gold.Chemscore.Hbond>
2.3459

> <Gold.Chemscore.Metal>
0.0000

> <Gold.Chemscore.Lipo>
89.7690

> <Gold.Chemscore.Internal_Hbond>
0.0000

> <Gold.Chemscore.DEClash>
0.0000

> <Gold.Chemscore.DEInternal>
1.0442

> <Gold.Chemscore.Rot>
1.5676

> <Gold.Chemscore.Internal.Correction>
   9.000000E+99

> <Gold.Chemscore.Hbonds>
donor molecule, donor type, donor heavy atom, donor atom, acceptor molecule, acceptor atom, score
      P1  H  6896  6908       L1     9  0.93
      P1  H  6931  6943       L1    12  0.66
      P1  H  6934  6947       L1    12  0.16

> <Gold.Chemscore.Hbond.Weighted>
-7.8353

> <Gold.Chemscore.Metal.Weighted>
-0.0000

> <Gold.Chemscore.Lipo.Weighted>
-10.5030

> <Gold.Chemscore.Internal_Hbond.Weighted>
0.0000

> <Gold.Chemscore.DEClash.Weighted>
0.0000

> <Gold.Chemscore.DEInternal.Weighted>
1.0442

> <Gold.Chemscore.Rot.Weighted>
4.0130

> <Gold.Chemscore.Internal.Correction.Weighted>
   9.000000E+99

> <Gold.Protein.RotatedTorsions>
[ 6907 6896 6895 6894 ] final -157.98 input  -60.11 | X-H torsion
[ 7974 7965 7964 7962 ] final -142.21 input  175.53 | X-H torsion
[ 8008 7997 7996 7995 ] final  159.19 input   59.86 | X-H torsion
[ 10167 10162 10161 10158 ] final  131.80 input  -65.29 | X-H torsion
[ 10718 10713 10712 10709 ] final  131.86 input   66.30 | X-H torsion
[ 10763 10752 10751 10750 ] final   64.64 input  -60.55 | X-H torsion
[ 11005 11000 10999 10996 ] final   78.47 input  -57.11 | X-H torsion

> <Gold.Protein.ActiveResidues>
 VAL166  LYS551  ARG553  GLY616  TRP617  ASP618  TYR619  PRO620  LYS621  CYS622 
 ASP623  PHE694  ASN695  SER759  ASP760  ASP761  ALA762  ILE779  LEU786  VAL792 
 PHE793  MET794  SER795  GLU796  ALA797  LYS798  CYS799  TRP800  GLU811  SER814 

> <Gold.Protein.RotatedAtoms>
  151.3111  133.4080  159.2646 H   0  0  0  0  0  0  0  0  0  0  0  0  # atno 6907 bound_to 6896
  151.0114  134.9400  159.8019 H   0  0  0  0  0  0  0  0  0  0  0  0  # atno 6908 bound_to 6896
  152.5301  134.3075  159.9154 H   0  0  0  0  0  0  0  0  0  0  0  0  # atno 6909 bound_to 6896
  144.8461  140.5986  143.5420 H   0  0  0  0  0  0  0  0  0  0  0  0  # atno 7974 bound_to 7965
  156.2255  140.1838  156.7374 H   0  0  0  0  0  0  0  0  0  0  0  0  # atno 8008 bound_to 7997
  154.5934  140.0647  156.9298 H   0  0  0  0  0  0  0  0  0  0  0  0  # atno 8009 bound_to 7997
  155.2297  140.3314  155.4307 H   0  0  0  0  0  0  0  0  0  0  0  0  # atno 8010 bound_to 7997
  139.5367  144.6690  151.4760 H   0  0  0  0  0  0  0  0  0  0  0  0  # atno 10167 bound_to 10162
  157.4927  131.1091  150.9534 H   0  0  0  0  0  0  0  0  0  0  0  0  # atno 10718 bound_to 10713
  153.0064  135.5386  154.6541 H   0  0  0  0  0  0  0  0  0  0  0  0  # atno 10763 bound_to 10752
  154.5766  135.2846  155.0776 H   0  0  0  0  0  0  0  0  0  0  0  0  # atno 10764 bound_to 10752
  154.1922  135.6498  153.5115 H   0  0  0  0  0  0  0  0  0  0  0  0  # atno 10765 bound_to 10752
  139.9211  134.7766  156.1653 H   0  0  0  0  0  0  0  0  0  0  0  0  # atno 11005 bound_to 11000
  145.4594  139.1514  143.3874 LP  0  0  0  0  0  0  0  0  0  0  0  0  # atno 17320 bound_to 7965
  146.2745  140.4724  142.8801 LP  0  0  0  0  0  0  0  0  0  0  0  0  # atno 17321 bound_to 7965
  140.6578  143.8563  150.6854 LP  0  0  0  0  0  0  0  0  0  0  0  0  # atno 17342 bound_to 10162
  140.1948  143.4007  152.1836 LP  0  0  0  0  0  0  0  0  0  0  0  0  # atno 17343 bound_to 10162
  157.0231  130.5681  149.5334 LP  0  0  0  0  0  0  0  0  0  0  0  0  # atno 17370 bound_to 10713
  156.0183  130.5277  150.8200 LP  0  0  0  0  0  0  0  0  0  0  0  0  # atno 17371 bound_to 10713
  141.0733  133.6787  156.2185 LP  0  0  0  0  0  0  0  0  0  0  0  0  # atno 17394 bound_to 11000
  140.6471  134.5106  157.5574 LP  0  0  0  0  0  0  0  0  0  0  0  0  # atno 17395 bound_to 11000

$$$$
