AV-unprocessed.smi:1437|AV-procd|sdf|5866|dock10
  -GOLD-   22720 5543D 1   1.00000     0.00000
 Structure written by MMmdl.
 35 36  0  0  0  0  0  0  0  0  3 V2000
  153.6877  140.8825  160.1138 C   0  0  0  0  0  0  0  0  0  0  0  0
  152.7691  141.0463  158.9513 C   0  0  0  0  0  0  0  0  0  0  0  0
  151.8586  142.0082  158.6168 C   0  0  0  0  0  0  0  0  0  0  0  0
  151.3305  141.5401  157.3824 C   0  0  0  0  0  0  0  0  0  0  0  0
  150.3976  142.1549  156.6393 N   0  5  0  0  0  0  0  0  0  0  0  0
  149.8981  141.5508  155.5373 C   0  0  0  0  0  0  0  0  0  0  0  0
  150.3643  140.5616  154.9679 O   0  0  0  0  0  0  0  0  0  0  0  0
  148.7816  142.1279  155.0712 N   0  0  0  0  0  0  0  0  0  0  0  0
  148.0011  141.6955  153.9125 C   0  0  2  0  0  0  0  0  0  0  0  0
  146.7462  142.5734  153.7612 C   0  0  0  0  0  0  0  0  0  0  0  0
  145.7212  142.3063  154.8793 C   0  0  0  0  0  0  0  0  0  0  0  0
  145.3599  140.8681  154.9437 N   0  3  2  0  0  0  0  0  0  0  0  0
  144.2950  140.6008  155.9339 C   0  0  0  0  0  0  0  0  0  0  0  0
  146.5471  140.0006  155.1452 C   0  0  0  0  0  0  0  0  0  0  0  0
  147.5838  140.2155  154.0286 C   0  0  0  0  0  0  0  0  0  0  0  0
  151.8841  140.4037  156.9940 N   0  0  0  0  0  0  0  0  0  0  0  0
  152.8039  140.0771  157.9976 O   0  0  0  0  0  0  0  0  0  0  0  0
  154.5233  141.5789  160.0451 H   0  0  0  0  0  0  0  0  0  0  0  0
  154.0926  139.8712  160.1555 H   0  0  0  0  0  0  0  0  0  0  0  0
  153.1630  141.0742  161.0498 H   0  0  0  0  0  0  0  0  0  0  0  0
  151.6073  142.9023  159.1675 H   0  0  0  0  0  0  0  0  0  0  0  0
  148.4486  142.9412  155.5678 H   0  0  0  0  0  0  0  0  0  0  0  0
  148.6173  141.8239  153.0209 H   0  0  0  0  0  0  0  0  0  0  0  0
  147.0223  143.6286  153.7496 H   0  0  0  0  0  0  0  0  0  0  0  0
  146.2816  142.3718  152.7951 H   0  0  0  0  0  0  0  0  0  0  0  0
  146.1191  142.6268  155.8435 H   0  0  0  0  0  0  0  0  0  0  0  0
  144.8241  142.8990  154.6967 H   0  0  0  0  0  0  0  0  0  0  0  0
  144.6325  140.8372  156.9439 H   0  0  0  0  0  0  0  0  0  0  0  0
  144.0000  139.5513  155.9083 H   0  0  0  0  0  0  0  0  0  0  0  0
  143.4095  141.2001  155.7191 H   0  0  0  0  0  0  0  0  0  0  0  0
  146.9918  140.2055  156.1206 H   0  0  0  0  0  0  0  0  0  0  0  0
  146.2373  138.9551  155.1542 H   0  0  0  0  0  0  0  0  0  0  0  0
  147.1577  139.8892  153.0789 H   0  0  0  0  0  0  0  0  0  0  0  0
  148.4539  139.5811  154.2003 H   0  0  0  0  0  0  0  0  0  0  0  0
  144.9792  140.6273  154.0399 H   0  0  0  0  0  0  0  0  0  0  0  0
  1  2  1  0  0  0  0
  1 18  1  0  0  0  0
  1 19  1  0  0  0  0
  1 20  1  0  0  0  0
  2 17  1  0  0  0  0
  2  3  2  0  0  0  0
  3  4  1  0  0  0  0
  3 21  1  0  0  0  0
  4  5  1  0  0  0  0
  4 16  2  0  0  0  0
  5  6  1  0  0  0  0
  6  7  2  0  0  0  0
  6  8  1  0  0  0  0
  8  9  1  0  0  0  0
  8 22  1  0  0  0  0
  9 15  1  0  0  0  0
  9 10  1  0  0  0  0
  9 23  1  0  0  0  0
 10 11  1  0  0  0  0
 10 24  1  0  0  0  0
 10 25  1  0  0  0  0
 11 12  1  0  0  0  0
 11 26  1  0  0  0  0
 11 27  1  0  0  0  0
 12 13  1  0  0  0  0
 12 14  1  0  0  0  0
 12 35  1  0  0  0  0
 13 28  1  0  0  0  0
 13 29  1  0  0  0  0
 13 30  1  0  0  0  0
 14 15  1  0  0  0  0
 14 31  1  0  0  0  0
 14 32  1  0  0  0  0
 15 33  1  0  0  0  0
 15 34  1  0  0  0  0
 16 17  1  0  0  0  0
M  CHG  1   5  -1
M  CHG  1  12   1
M  END
> <s_m_source_file>
AV-unprocessed.smi

> <i_m_source_file_index>
1437

> <i_lp_mmshare_version>
43012

> <i_f3d_flags>
0

> <s_epik_input>
W0NIM11jMVtjSF1jKG5vMSlbTkhdQyg9TylbTkhdW0NIXTJbQ0gyXVtDSDJdTihbQ0gzXSlbQ0gyXVtDSDJdMg==

> <s_epik_cmdline>
J2VwaWtfcHl0aG9uJywgJy1waCcsICc3LjAnLCAnLXRuJywgJzgnLCAnLW1hJywgJzIwMCcsICctbWV0YWxfYmluZGluZycsICctaW1hZScsICc8aW5maWxlLm1hZT4nLCAnLW9tYWUnLCAnPG91dGZpbGUubWFlPic=

> <r_epik_Ionization_Penalty>
6.28535

> <r_epik_Ionization_Penalty_Charging>
6.28525

> <r_epik_Ionization_Penalty_Neutral>
9.66055e-05

> <r_epik_State_Penalty>
6.28414

> <r_epik_Charging_Adjusted_Penalty>
12.5694

> <i_epik_Tot_Q>
0

> <i_epik_Tot_abs_Q>
2

> <r_epik_Metal_State_Penalty>
2.21724

> <b_epik_Metal_Only>
1

> <s_lp_Force_Field>
OPLS_2005

> <r_lp_Energy>
2.0091

> <b_lp_Chiralities_Consistent>
1

> <s_lp_Variant>
AV-unprocessed.smi:1437-4

> <Gold.Version>
5.8.1

> <Gold.Id.Protein>
6NUR|6NUR_protein|mol2

> <Gold.PLP.Fitness>
42.2606

> <Gold.PLP.PLP>
-28.2621

> <Gold.PLP.part.hbond>
-4.0000

> <Gold.PLP.part.metal>
0.0000

> <Gold.PLP.part.buried>
-5.8385

> <Gold.PLP.part.nonpolar>
-18.4846

> <Gold.PLP.part.repulsive>
0.3910

> <Gold.PLP.ligand.clash>
0.0000

> <Gold.PLP.ligand.torsion>
0.0729

> <Gold.PLP.Chemscore.Hbond>
4.7120

> <Gold.PLP.Chemscore.CHOScore>
0.0000

> <Gold.PLP.Chemscore.Metal>
0.0000

> <Gold.Chemscore.Hbonds>
donor molecule, donor type, donor heavy atom, donor atom, acceptor molecule, acceptor atom, score
      L1  H     8    22       P1  8028  0.74
      L1  H    12    35       P1 10175  2.00
      P1  H  7989  7998       L1     7  0.96
      P1  H  7997  8008       L1    17  1.00

> <Gold.PLP.Chemscore.Internal.Correction>
0.0083

> <Gold.Rescore>
     Score         DG    S(hbond)    S(metal)    S(lipo)     H(rot)  DE(clash)    DE(int)     intcor
     16.54     -19.85       3.16        0.00      54.54       1.00       0.38       2.93       ----

> <Gold.Chemscore.Fitness>
16.5440

> <Gold.Chemscore.DG>
-19.8463

> <Gold.Chemscore.ZeroCoef>
-5.4800

> <Gold.Chemscore.Hbond>
3.1572

> <Gold.Chemscore.Metal>
0.0000

> <Gold.Chemscore.Lipo>
54.5394

> <Gold.Chemscore.Internal_Hbond>
0.0000

> <Gold.Chemscore.DEClash>
0.3751

> <Gold.Chemscore.DEInternal>
2.9272

> <Gold.Chemscore.Rot>
1.0000

> <Gold.Chemscore.Internal.Correction>
   9.000000E+99

> <Gold.Chemscore.Hbonds>
donor molecule, donor type, donor heavy atom, donor atom, acceptor molecule, acceptor atom, score
      L1  H     8    22       P1  8028  0.74
      L1  H    12    35       P1 10175  0.92
      P1  H  7989  7998       L1     7  0.86
      P1  H  7997  8008       L1    17  0.24

> <Gold.Chemscore.Hbond.Weighted>
-10.5451

> <Gold.Chemscore.Metal.Weighted>
-0.0000

> <Gold.Chemscore.Lipo.Weighted>
-6.3811

> <Gold.Chemscore.Internal_Hbond.Weighted>
0.0000

> <Gold.Chemscore.DEClash.Weighted>
0.3751

> <Gold.Chemscore.DEInternal.Weighted>
2.9272

> <Gold.Chemscore.Rot.Weighted>
2.5600

> <Gold.Chemscore.Internal.Correction.Weighted>
   9.000000E+99

> <Gold.Protein.RotatedTorsions>
[ 6907 6896 6895 6894 ] final  -71.61 input  -60.11 | X-H torsion
[ 7974 7965 7964 7962 ] final   51.54 input  175.53 | X-H torsion
[ 8008 7997 7996 7995 ] final  -79.74 input   59.86 | X-H torsion
[ 10167 10162 10161 10158 ] final   66.40 input  -65.29 | X-H torsion
[ 10718 10713 10712 10709 ] final    0.77 input   66.30 | X-H torsion
[ 10763 10752 10751 10750 ] final  -40.88 input  -60.55 | X-H torsion
[ 11005 11000 10999 10996 ] final  -80.27 input  -57.11 | X-H torsion

> <Gold.Protein.ActiveResidues>
 VAL166  LYS551  ARG553  GLY616  TRP617  ASP618  TYR619  PRO620  LYS621  CYS622 
 ASP623  PHE694  ASN695  SER759  ASP760  ASP761  ALA762  ILE779  LEU786  VAL792 
 PHE793  MET794  SER795  GLU796  ALA797  LYS798  CYS799  TRP800  GLU811  SER814 

> <Gold.Protein.RotatedAtoms>
  150.7205  134.5283  159.5687 H   0  0  0  0  0  0  0  0  0  0  0  0  # atno 6907 bound_to 6896
  152.2822  134.7812  160.0403 H   0  0  0  0  0  0  0  0  0  0  0  0  # atno 6908 bound_to 6896
  151.8455  133.3395  159.3693 H   0  0  0  0  0  0  0  0  0  0  0  0  # atno 6909 bound_to 6896
  145.9903  139.4332  143.0077 H   0  0  0  0  0  0  0  0  0  0  0  0  # atno 7974 bound_to 7965
  154.5814  140.0673  156.9110 H   0  0  0  0  0  0  0  0  0  0  0  0  # atno 8008 bound_to 7997
  155.2455  140.3348  155.4269 H   0  0  0  0  0  0  0  0  0  0  0  0  # atno 8009 bound_to 7997
  156.2192  140.1791  156.7502 H   0  0  0  0  0  0  0  0  0  0  0  0  # atno 8010 bound_to 7997
  140.1008  144.4905  150.7039 H   0  0  0  0  0  0  0  0  0  0  0  0  # atno 10167 bound_to 10162
  156.8383  130.5512  149.5680 H   0  0  0  0  0  0  0  0  0  0  0  0  # atno 10718 bound_to 10713
  153.9533  135.6748  153.4744 H   0  0  0  0  0  0  0  0  0  0  0  0  # atno 10763 bound_to 10752
  153.0873  135.4892  154.8619 H   0  0  0  0  0  0  0  0  0  0  0  0  # atno 10764 bound_to 10752
  154.7313  135.3139  154.8846 H   0  0  0  0  0  0  0  0  0  0  0  0  # atno 10765 bound_to 10752
  141.1668  133.7143  156.8247 H   0  0  0  0  0  0  0  0  0  0  0  0  # atno 11005 bound_to 11000
  145.7639  140.9924  143.1185 LP  0  0  0  0  0  0  0  0  0  0  0  0  # atno 17320 bound_to 7965
  144.6887  139.9364  143.7473 LP  0  0  0  0  0  0  0  0  0  0  0  0  # atno 17321 bound_to 7965
  140.6979  143.2415  151.4949 LP  0  0  0  0  0  0  0  0  0  0  0  0  # atno 17342 bound_to 10162
  139.5672  144.2013  152.1783 LP  0  0  0  0  0  0  0  0  0  0  0  0  # atno 17343 bound_to 10162
  156.0895  130.5884  150.9707 LP  0  0  0  0  0  0  0  0  0  0  0  0  # atno 17370 bound_to 10713
  157.6369  131.0915  150.8330 LP  0  0  0  0  0  0  0  0  0  0  0  0  # atno 17371 bound_to 10713
  140.2094  134.8839  157.3257 LP  0  0  0  0  0  0  0  0  0  0  0  0  # atno 17394 bound_to 11000
  140.2103  134.4146  155.7616 LP  0  0  0  0  0  0  0  0  0  0  0  0  # atno 17395 bound_to 11000

$$$$
