AV-unprocessed.smi:1707|AV-procd|sdf|6887|dock1
  -GOLD-   22720 8 93D 1   1.00000     0.00000
 Structure written by MMmdl.
 41 42  0  0  0  0  0  0  0  0  1 V2000
  148.8427  141.7887  156.7895 O   0  0  0  0  0  0  0  0  0  0  0  0
  149.7303  141.1121  156.2710 C   0  0  0  0  0  0  0  0  0  0  0  0
  149.5494  140.4020  155.1481 N   0  0  0  0  0  0  0  0  0  0  0  0
  148.3022  140.3293  154.3962 C   0  0  0  0  0  0  0  0  0  0  0  0
  147.9253  141.6953  153.7964 C   0  0  0  0  0  0  0  0  0  0  0  0
  146.6725  142.2870  154.4201 C   0  0  0  0  0  0  0  0  0  0  0  0
  146.2638  141.9492  155.6587 C   0  0  0  0  0  0  0  0  0  0  0  0
  145.0155  142.5008  156.3252 C   0  0  0  0  0  0  0  0  0  0  0  0
  144.0839  143.2107  155.3287 C   0  0  0  0  0  0  0  0  0  0  0  0
  144.8788  144.1048  154.3692 C   0  0  0  0  0  0  0  0  0  0  0  0
  145.9054  143.2883  153.5636 C   0  0  0  0  0  0  0  0  0  0  0  0
  150.9851  140.9630  156.7344 N   0  0  0  0  0  0  0  0  0  0  0  0
  151.5991  141.5298  157.8650 C   0  0  0  0  0  0  0  0  0  0  0  0
  151.2948  142.7433  158.3964 C   0  0  0  0  0  0  0  0  0  0  0  0
  151.9818  143.2689  159.5644 C   0  0  0  0  0  0  0  0  0  0  0  0
  151.5778  144.5934  160.1931 C   0  0  0  0  0  0  0  0  0  0  0  0
  152.1237  144.7452  161.4005 F   0  0  0  0  0  0  0  0  0  0  0  0
  151.9838  145.6022  159.4234 F   0  0  0  0  0  0  0  0  0  0  0  0
  150.2532  144.6760  160.3194 F   0  0  0  0  0  0  0  0  0  0  0  0
  152.9337  142.4857  160.1043 C   0  0  0  0  0  0  0  0  0  0  0  0
  153.2653  141.2459  159.5540 N   0  0  0  0  0  0  0  0  0  0  0  0
  152.6638  140.7107  158.4681 C   0  0  0  0  0  0  0  0  0  0  0  0
  153.0137  139.6094  158.0450 O   0  0  0  0  0  0  0  0  0  0  0  0
  154.0010  140.7240  160.0080 H   0  0  0  0  0  0  0  0  0  0  0  0
  150.3292  139.8711  154.7882 H   0  0  0  0  0  0  0  0  0  0  0  0
  148.3854  139.5688  153.6183 H   0  0  0  0  0  0  0  0  0  0  0  0
  147.5176  139.9947  155.0754 H   0  0  0  0  0  0  0  0  0  0  0  0
  148.7568  142.3896  153.9261 H   0  0  0  0  0  0  0  0  0  0  0  0
  147.7649  141.6077  152.7211 H   0  0  0  0  0  0  0  0  0  0  0  0
  146.8441  141.2514  156.2446 H   0  0  0  0  0  0  0  0  0  0  0  0
  144.4817  141.6883  156.8184 H   0  0  0  0  0  0  0  0  0  0  0  0
  145.3297  143.1941  157.1059 H   0  0  0  0  0  0  0  0  0  0  0  0
  143.5334  142.4673  154.7506 H   0  0  0  0  0  0  0  0  0  0  0  0
  143.3391  143.7972  155.8671 H   0  0  0  0  0  0  0  0  0  0  0  0
  144.2043  144.6269  153.6899 H   0  0  0  0  0  0  0  0  0  0  0  0
  145.3957  144.8746  154.9432 H   0  0  0  0  0  0  0  0  0  0  0  0
  146.6074  143.9661  153.0770 H   0  0  0  0  0  0  0  0  0  0  0  0
  145.3955  142.7395  152.7716 H   0  0  0  0  0  0  0  0  0  0  0  0
  151.5779  140.3327  156.2137 H   0  0  0  0  0  0  0  0  0  0  0  0
  150.5391  143.3730  157.9577 H   0  0  0  0  0  0  0  0  0  0  0  0
  153.5024  142.7384  160.9871 H   0  0  0  0  0  0  0  0  0  0  0  0
  1  2  2  0  0  0  0
  2  3  1  0  0  0  0
  2 12  1  0  0  0  0
  3  4  1  0  0  0  0
  3 25  1  0  0  0  0
  4  5  1  0  0  0  0
  4 26  1  0  0  0  0
  4 27  1  0  0  0  0
  5  6  1  0  0  0  0
  5 28  1  0  0  0  0
  5 29  1  0  0  0  0
  6 11  1  0  0  0  0
  6  7  2  0  0  0  0
  7  8  1  0  0  0  0
  7 30  1  0  0  0  0
  8  9  1  0  0  0  0
  8 31  1  0  0  0  0
  8 32  1  0  0  0  0
  9 10  1  0  0  0  0
  9 33  1  0  0  0  0
  9 34  1  0  0  0  0
 10 11  1  0  0  0  0
 10 35  1  0  0  0  0
 10 36  1  0  0  0  0
 11 37  1  0  0  0  0
 11 38  1  0  0  0  0
 12 13  1  0  0  0  0
 12 39  1  0  0  0  0
 13 22  1  0  0  0  0
 13 14  2  0  0  0  0
 14 15  1  0  0  0  0
 14 40  1  0  0  0  0
 15 16  1  0  0  0  0
 15 20  2  0  0  0  0
 16 17  1  0  0  0  0
 16 18  1  0  0  0  0
 16 19  1  0  0  0  0
 20 21  1  0  0  0  0
 20 41  1  0  0  0  0
 21 24  1  0  0  0  0
 21 22  1  0  0  0  0
 22 23  2  0  0  0  0
M  END
> <s_m_source_file>
AV-unprocessed.smi

> <i_m_source_file_index>
1707

> <i_lp_mmshare_version>
43012

> <i_f3d_flags>
0

> <s_epik_input>
Tz1jMVtuSF1bY0hdYyhDKEYpKEYpRilbY0hdYzFbTkhdQyg9TylbTkhdW0NIMl1bQ0gyXUMyPVtDSF1bQ0gyXVtDSDJdW0NIMl1bQ0gyXTI=

> <s_epik_cmdline>
J2VwaWtfcHl0aG9uJywgJy1waCcsICc3LjAnLCAnLXRuJywgJzgnLCAnLW1hJywgJzIwMCcsICctbWV0YWxfYmluZGluZycsICctaW1hZScsICc8aW5maWxlLm1hZT4nLCAnLW9tYWUnLCAnPG91dGZpbGUubWFlPic=

> <r_lp_tautomer_probability>
1

> <r_epik_Ionization_Penalty>
0.00382222

> <r_epik_Ionization_Penalty_Charging>
0.0038016

> <r_epik_Ionization_Penalty_Neutral>
2.06242e-05

> <r_epik_State_Penalty>
-0

> <r_epik_Charging_Adjusted_Penalty>
0.0038016

> <i_epik_Tot_Q>
0

> <i_epik_Tot_abs_Q>
0

> <r_epik_Metal_State_Penalty>
0.371215

> <b_epik_Metal_Only>
0

> <s_lp_Force_Field>
OPLS_2005

> <r_lp_Energy>
19.0753

> <b_lp_Chiralities_Consistent>
1

> <s_lp_Variant>
AV-unprocessed.smi:1707-1

> <Gold.Version>
5.8.1

> <Gold.Id.Protein>
6NUR|6NUR_protein|mol2

> <Gold.PLP.Fitness>
46.3827

> <Gold.PLP.PLP>
-46.7150

> <Gold.PLP.part.hbond>
-1.0000

> <Gold.PLP.part.metal>
0.0000

> <Gold.PLP.part.buried>
-6.1810

> <Gold.PLP.part.nonpolar>
-39.2606

> <Gold.PLP.part.repulsive>
0.4134

> <Gold.PLP.ligand.clash>
0.7975

> <Gold.PLP.ligand.torsion>
1.2943

> <Gold.PLP.Chemscore.Hbond>
1.0000

> <Gold.PLP.Chemscore.CHOScore>
0.0000

> <Gold.PLP.Chemscore.Metal>
0.0000

> <Gold.Chemscore.Hbonds>
donor molecule, donor type, donor heavy atom, donor atom, acceptor molecule, acceptor atom, score
      P1  H  7997  8008       L1    23  1.00

> <Gold.PLP.Chemscore.Internal.Correction>
0.0538

> <Gold.Rescore>
     Score         DG    S(hbond)    S(metal)    S(lipo)     H(rot)  DE(clash)    DE(int)     intcor
     11.21     -14.59       0.78        0.00      89.99       1.57       0.28       3.10       ----

> <Gold.Chemscore.Fitness>
11.2104

> <Gold.Chemscore.DG>
-14.5907

> <Gold.Chemscore.ZeroCoef>
-5.4800

> <Gold.Chemscore.Hbond>
0.7801

> <Gold.Chemscore.Metal>
0.0000

> <Gold.Chemscore.Lipo>
89.9898

> <Gold.Chemscore.Internal_Hbond>
0.0000

> <Gold.Chemscore.DEClash>
0.2850

> <Gold.Chemscore.DEInternal>
3.0953

> <Gold.Chemscore.Rot>
1.5717

> <Gold.Chemscore.Internal.Correction>
   9.000000E+99

> <Gold.Chemscore.Hbonds>
donor molecule, donor type, donor heavy atom, donor atom, acceptor molecule, acceptor atom, score
      P1  H  7997  8008       L1    23  0.35

> <Gold.Chemscore.Hbond.Weighted>
-2.6055

> <Gold.Chemscore.Metal.Weighted>
-0.0000

> <Gold.Chemscore.Lipo.Weighted>
-10.5288

> <Gold.Chemscore.Internal_Hbond.Weighted>
0.0000

> <Gold.Chemscore.DEClash.Weighted>
0.2850

> <Gold.Chemscore.DEInternal.Weighted>
3.0953

> <Gold.Chemscore.Rot.Weighted>
4.0237

> <Gold.Chemscore.Internal.Correction.Weighted>
   9.000000E+99

> <Gold.Protein.RotatedTorsions>
[ 6907 6896 6895 6894 ] final -142.58 input  -60.11 | X-H torsion
[ 7974 7965 7964 7962 ] final -148.33 input  175.53 | X-H torsion
[ 8008 7997 7996 7995 ] final  -83.43 input   59.86 | X-H torsion
[ 10167 10162 10161 10158 ] final -125.17 input  -65.29 | X-H torsion
[ 10718 10713 10712 10709 ] final  113.85 input   66.30 | X-H torsion
[ 10763 10752 10751 10750 ] final  -44.11 input  -60.55 | X-H torsion
[ 11005 11000 10999 10996 ] final -129.12 input  -57.11 | X-H torsion

> <Gold.Protein.ActiveResidues>
 VAL166  LYS551  ARG553  GLY616  TRP617  ASP618  TYR619  PRO620  LYS621  CYS622 
 ASP623  PHE694  ASN695  SER759  ASP760  ASP761  ALA762  ILE779  LEU786  VAL792 
 PHE793  MET794  SER795  GLU796  ALA797  LYS798  CYS799  TRP800  GLU811  SER814 

> <Gold.Protein.RotatedAtoms>
  151.0890  133.5330  159.2615 H   0  0  0  0  0  0  0  0  0  0  0  0  # atno 6907 bound_to 6896
  151.2205  135.0516  159.8957 H   0  0  0  0  0  0  0  0  0  0  0  0  # atno 6908 bound_to 6896
  152.5432  134.0693  159.8240 H   0  0  0  0  0  0  0  0  0  0  0  0  # atno 6909 bound_to 6896
  144.8036  140.5210  143.5690 H   0  0  0  0  0  0  0  0  0  0  0  0  # atno 7974 bound_to 7965
  154.6190  140.0619  156.9590 H   0  0  0  0  0  0  0  0  0  0  0  0  # atno 8008 bound_to 7997
  155.1849  140.3302  155.4350 H   0  0  0  0  0  0  0  0  0  0  0  0  # atno 8009 bound_to 7997
  156.2420  140.1891  156.6943 H   0  0  0  0  0  0  0  0  0  0  0  0  # atno 8010 bound_to 7997
  139.9850  143.5702  152.2364 H   0  0  0  0  0  0  0  0  0  0  0  0  # atno 10167 bound_to 10162
  157.6315  131.0990  150.7100 H   0  0  0  0  0  0  0  0  0  0  0  0  # atno 10718 bound_to 10713
  154.0066  135.6687  153.4762 H   0  0  0  0  0  0  0  0  0  0  0  0  # atno 10763 bound_to 10752
  153.0639  135.5012  154.8152 H   0  0  0  0  0  0  0  0  0  0  0  0  # atno 10764 bound_to 10752
  154.7020  135.3081  154.9289 H   0  0  0  0  0  0  0  0  0  0  0  0  # atno 10765 bound_to 10752
  140.9458  134.1132  157.4108 H   0  0  0  0  0  0  0  0  0  0  0  0  # atno 11005 bound_to 11000
  145.5493  139.1476  143.3403 LP  0  0  0  0  0  0  0  0  0  0  0  0  # atno 17320 bound_to 7965
  146.2323  140.5631  142.8970 LP  0  0  0  0  0  0  0  0  0  0  0  0  # atno 17321 bound_to 7965
  139.6382  144.7652  151.2394 LP  0  0  0  0  0  0  0  0  0  0  0  0  # atno 17342 bound_to 10162
  140.7475  143.6363  150.8376 LP  0  0  0  0  0  0  0  0  0  0  0  0  # atno 17343 bound_to 10162
  156.7439  130.4747  149.5471 LP  0  0  0  0  0  0  0  0  0  0  0  0  # atno 17370 bound_to 10713
  156.1522  130.6317  151.0610 LP  0  0  0  0  0  0  0  0  0  0  0  0  # atno 17371 bound_to 10713
  139.8833  135.0051  156.6291 LP  0  0  0  0  0  0  0  0  0  0  0  0  # atno 17394 bound_to 11000
  140.7671  133.8769  155.8463 LP  0  0  0  0  0  0  0  0  0  0  0  0  # atno 17395 bound_to 11000

$$$$
