AV-unprocessed.smi:31|AV-procd|sdf|196|dock2
  -GOLD-   2262015463D 1   1.00000     0.00000
 Structure written by MMmdl.
 49 52  0  0  0  0  0  0  0  0  1 V2000
  151.0650  135.9555  155.8052 O   0  0  0  0  0  0  0  0  0  0  0  0
  151.1219  137.0725  156.3208 C   0  0  0  0  0  0  0  0  0  0  0  0
  151.9771  138.1796  155.6843 C   0  0  0  0  0  0  0  0  0  0  0  0
  151.4082  139.5356  155.8483 N   0  0  0  0  0  0  0  0  0  0  0  0
  150.3631  139.9484  154.9848 C   0  0  0  0  0  0  0  0  0  0  0  0
  149.9312  139.2043  154.1032 O   0  0  0  0  0  0  0  0  0  0  0  0
  149.8449  141.2914  155.2204 C   0  0  0  0  0  0  0  0  0  0  0  0
  148.8530  141.7666  154.4483 F   0  0  0  0  0  0  0  0  0  0  0  0
  150.3453  142.0675  156.2039 C   0  0  0  0  0  0  0  0  0  0  0  0
  151.3655  141.6509  157.0404 N   0  0  0  0  0  0  0  0  0  0  0  0
  151.9111  142.5314  158.1447 C   0  0  1  0  0  0  0  0  0  0  0  0
  152.2159  143.9434  157.6102 C   0  0  0  0  0  0  0  0  0  0  0  0
  151.5131  144.8376  158.6119 C   0  0  0  0  0  0  0  0  0  0  0  0
  150.3536  143.9583  159.0548 C   0  0  0  0  0  0  0  0  0  0  0  0
  150.9547  142.6740  159.1565 O   0  0  0  0  0  0  0  0  0  0  0  0
  151.9136  140.3596  156.8818 C   0  0  0  0  0  0  0  0  0  0  0  0
  152.8110  139.9624  157.6286 O   0  0  0  0  0  0  0  0  0  0  0  0
  150.5014  137.4204  157.4630 N   0  0  0  0  0  0  0  0  0  0  0  0
  149.6407  136.6471  158.2896 C   0  0  0  0  0  0  0  0  0  0  0  0
  149.4257  135.3080  157.9127 C   0  0  0  0  0  0  0  0  0  0  0  0
  148.5921  134.4771  158.6820 C   0  0  0  0  0  0  0  0  0  0  0  0
  147.9622  134.9621  159.8447 C   0  0  0  0  0  0  0  0  0  0  0  0
  148.2261  136.2967  160.2717 C   0  0  0  0  0  0  0  0  0  0  0  0
  149.0430  137.1289  159.4782 C   0  0  0  0  0  0  0  0  0  0  0  0
  147.7507  136.8430  161.4439 O   0  0  0  0  0  0  0  0  0  0  0  0
  147.6371  135.9550  162.5462 C   0  0  0  0  0  0  0  0  0  0  0  0
  146.3104  135.1941  162.5092 C   0  0  0  0  0  0  0  0  0  0  0  0
  145.9725  134.6766  161.1097 C   0  0  0  0  0  0  0  0  0  0  0  0
  147.1088  134.0932  160.4890 O   0  0  0  0  0  0  0  0  0  0  0  0
  152.9835  138.1357  156.1040 H   0  0  0  0  0  0  0  0  0  0  0  0
  152.1214  137.9340  154.6312 H   0  0  0  0  0  0  0  0  0  0  0  0
  149.9154  143.0497  156.3268 H   0  0  0  0  0  0  0  0  0  0  0  0
  152.7811  142.0052  158.5418 H   0  0  0  0  0  0  0  0  0  0  0  0
  153.2905  144.1182  157.5535 H   0  0  0  0  0  0  0  0  0  0  0  0
  151.7823  144.0729  156.6170 H   0  0  0  0  0  0  0  0  0  0  0  0
  152.1699  145.0446  159.4579 H   0  0  0  0  0  0  0  0  0  0  0  0
  151.1913  145.7881  158.1859 H   0  0  0  0  0  0  0  0  0  0  0  0
  149.9196  144.2748  160.0034 H   0  0  0  0  0  0  0  0  0  0  0  0
  149.5656  143.9474  158.3003 H   0  0  0  0  0  0  0  0  0  0  0  0
  150.7117  138.3451  157.8093 H   0  0  0  0  0  0  0  0  0  0  0  0
  149.8885  134.9139  157.0194 H   0  0  0  0  0  0  0  0  0  0  0  0
  148.4151  133.4607  158.3621 H   0  0  0  0  0  0  0  0  0  0  0  0
  149.2288  138.1322  159.8282 H   0  0  0  0  0  0  0  0  0  0  0  0
  148.4808  135.2621  162.5664 H   0  0  0  0  0  0  0  0  0  0  0  0
  147.7019  136.5332  163.4680 H   0  0  0  0  0  0  0  0  0  0  0  0
  146.3609  134.3621  163.2118 H   0  0  0  0  0  0  0  0  0  0  0  0
  145.5008  135.8386  162.8525 H   0  0  0  0  0  0  0  0  0  0  0  0
  145.1879  133.9230  161.1781 H   0  0  0  0  0  0  0  0  0  0  0  0
  145.5671  135.4766  160.4874 H   0  0  0  0  0  0  0  0  0  0  0  0
  1  2  2  0  0  0  0
  2  3  1  0  0  0  0
  2 18  1  0  0  0  0
  3  4  1  0  0  0  0
  3 30  1  0  0  0  0
  3 31  1  0  0  0  0
  4 16  1  0  0  0  0
  4  5  1  0  0  0  0
  5  6  2  0  0  0  0
  5  7  1  0  0  0  0
  7  8  1  0  0  0  0
  7  9  2  0  0  0  0
  9 10  1  0  0  0  0
  9 32  1  0  0  0  0
 10 11  1  0  0  0  0
 10 16  1  0  0  0  0
 11 15  1  0  0  0  0
 11 12  1  0  0  0  0
 11 33  1  0  0  0  0
 12 13  1  0  0  0  0
 12 34  1  0  0  0  0
 12 35  1  0  0  0  0
 13 14  1  0  0  0  0
 13 36  1  0  0  0  0
 13 37  1  0  0  0  0
 14 15  1  0  0  0  0
 14 38  1  0  0  0  0
 14 39  1  0  0  0  0
 16 17  2  0  0  0  0
 18 19  1  0  0  0  0
 18 40  1  0  0  0  0
 19 24  1  0  0  0  0
 19 20  2  0  0  0  0
 20 21  1  0  0  0  0
 20 41  1  0  0  0  0
 21 22  2  0  0  0  0
 21 42  1  0  0  0  0
 22 29  1  0  0  0  0
 22 23  1  0  0  0  0
 23 24  2  0  0  0  0
 23 25  1  0  0  0  0
 24 43  1  0  0  0  0
 25 26  1  0  0  0  0
 26 27  1  0  0  0  0
 26 44  1  0  0  0  0
 26 45  1  0  0  0  0
 27 28  1  0  0  0  0
 27 46  1  0  0  0  0
 27 47  1  0  0  0  0
 28 29  1  0  0  0  0
 28 48  1  0  0  0  0
 28 49  1  0  0  0  0
M  END
> <s_m_source_file>
AV-unprocessed.smi

> <i_m_source_file_index>
31

> <i_lp_mmshare_version>
43012

> <i_f3d_flags>
0

> <s_epik_input>
TzFbQ0gyXVtDSDJdW0NIMl1PYyhjMTIpW2NIXWMoW2NIXVtjSF0yKVtOSF1DKD1PKVtDSDJdbjNjKD1PKWMoRilbY0hdbihjMz1PKVtDQEBIXTRbQ0gyXVtDSDJdW0NIMl1PNA==

> <s_epik_cmdline>
J2VwaWtfcHl0aG9uJywgJy1waCcsICc3LjAnLCAnLXRuJywgJzgnLCAnLW1hJywgJzIwMCcsICctbWV0YWxfYmluZGluZycsICctaW1hZScsICc8aW5maWxlLm1hZT4nLCAnLW9tYWUnLCAnPG91dGZpbGUubWFlPic=

> <r_lp_tautomer_probability>
1

> <r_epik_Ionization_Penalty>
1.0483e-05

> <r_epik_Ionization_Penalty_Charging>
3.88729e-08

> <r_epik_Ionization_Penalty_Neutral>
1.04441e-05

> <r_epik_State_Penalty>
-0

> <r_epik_Charging_Adjusted_Penalty>
3.88729e-08

> <i_epik_Tot_Q>
0

> <i_epik_Tot_abs_Q>
0

> <r_epik_Metal_State_Penalty>
-0

> <b_epik_Metal_Only>
0

> <s_epik_Chemistry_Notes>
This compound contains an acetal/aminal-like group ( X-CH(R)-Y where X, Y are N, S, or O) that may be acid/base labile, releasing an aldehyde.

> <s_lp_Force_Field>
OPLS_2005

> <r_lp_Energy>
46.1803

> <b_lp_Chiralities_Consistent>
1

> <s_lp_Variant>
AV-unprocessed.smi:31-2

> <Gold.Version>
5.8.1

> <Gold.Id.Protein>
6NUR|6NUR_protein|mol2

> <Gold.PLP.Fitness>
57.7451

> <Gold.PLP.PLP>
-47.9304

> <Gold.PLP.part.hbond>
-3.1075

> <Gold.PLP.part.metal>
0.0000

> <Gold.PLP.part.buried>
-0.2065

> <Gold.PLP.part.nonpolar>
-42.5906

> <Gold.PLP.part.repulsive>
0.6774

> <Gold.PLP.ligand.clash>
0.0951

> <Gold.PLP.ligand.torsion>
0.8627

> <Gold.PLP.Chemscore.Hbond>
2.8744

> <Gold.PLP.Chemscore.CHOScore>
1.0000

> <Gold.PLP.Chemscore.Metal>
0.0000

> <Gold.Chemscore.Hbonds>
donor molecule, donor type, donor heavy atom, donor atom, acceptor molecule, acceptor atom, score
      P1  H  6931  6943       L1    25  1.00
      P1  H  6934  6947       L1    25  0.26
      P1  H  7997  8008       L1    17  1.00
      P1  H 10752 10765       L1     1  0.54
      L1  C     9    32       P1  8028  1.00

> <Gold.PLP.Chemscore.Internal.Correction>
0.0120

> <Gold.Rescore>
     Score         DG    S(hbond)    S(metal)    S(lipo)     H(rot)  DE(clash)    DE(int)     intcor
     16.27     -19.71       1.92        0.00     102.88       1.64       1.34       2.11       ----

> <Gold.Chemscore.Fitness>
16.2674

> <Gold.Chemscore.DG>
-19.7128

> <Gold.Chemscore.ZeroCoef>
-5.4800

> <Gold.Chemscore.Hbond>
1.9164

> <Gold.Chemscore.Metal>
0.0000

> <Gold.Chemscore.Lipo>
102.8842

> <Gold.Chemscore.Internal_Hbond>
0.0000

> <Gold.Chemscore.DEClash>
1.3373

> <Gold.Chemscore.DEInternal>
2.1081

> <Gold.Chemscore.Rot>
1.6427

> <Gold.Chemscore.Internal.Correction>
   9.000000E+99

> <Gold.Chemscore.Hbonds>
donor molecule, donor type, donor heavy atom, donor atom, acceptor molecule, acceptor atom, score
      P1  H  6931  6943       L1    25  0.32
      P1  H  6934  6947       L1    25  0.14
      P1  H  7997  8008       L1    17  0.81
      P1  H 10752 10765       L1     1  0.38

> <Gold.Chemscore.Hbond.Weighted>
-6.4007

> <Gold.Chemscore.Metal.Weighted>
-0.0000

> <Gold.Chemscore.Lipo.Weighted>
-12.0374

> <Gold.Chemscore.Internal_Hbond.Weighted>
0.0000

> <Gold.Chemscore.DEClash.Weighted>
1.3373

> <Gold.Chemscore.DEInternal.Weighted>
2.1081

> <Gold.Chemscore.Rot.Weighted>
4.2053

> <Gold.Chemscore.Internal.Correction.Weighted>
   9.000000E+99

> <Gold.Protein.RotatedTorsions>
[ 6907 6896 6895 6894 ] final   64.56 input  -60.11 | X-H torsion
[ 7974 7965 7964 7962 ] final   71.82 input  175.53 | X-H torsion
[ 8008 7997 7996 7995 ] final  -72.41 input   59.86 | X-H torsion
[ 10167 10162 10161 10158 ] final   30.04 input  -65.29 | X-H torsion
[ 10718 10713 10712 10709 ] final  178.19 input   66.30 | X-H torsion
[ 10763 10752 10751 10750 ] final -170.18 input  -60.55 | X-H torsion
[ 11005 11000 10999 10996 ] final   -6.93 input  -57.11 | X-H torsion

> <Gold.Protein.ActiveResidues>
 VAL166  LYS551  ARG553  GLY616  TRP617  ASP618  TYR619  PRO620  LYS621  CYS622 
 ASP623  PHE694  ASN695  SER759  ASP760  ASP761  ALA762  ILE779  LEU786  VAL792 
 PHE793  MET794  SER795  GLU796  ALA797  LYS798  CYS799  TRP800  GLU811  SER814 

> <Gold.Protein.RotatedAtoms>
  152.4341  134.5721  159.9923 H   0  0  0  0  0  0  0  0  0  0  0  0  # atno 6907 bound_to 6896
  151.5836  133.3369  159.3021 H   0  0  0  0  0  0  0  0  0  0  0  0  # atno 6908 bound_to 6896
  150.8237  134.7492  159.6859 H   0  0  0  0  0  0  0  0  0  0  0  0  # atno 6909 bound_to 6896
  145.7610  139.2800  143.1376 H   0  0  0  0  0  0  0  0  0  0  0  0  # atno 7974 bound_to 7965
  154.5164  140.0798  156.8089 H   0  0  0  0  0  0  0  0  0  0  0  0  # atno 8008 bound_to 7997
  155.3671  140.3421  155.4224 H   0  0  0  0  0  0  0  0  0  0  0  0  # atno 8009 bound_to 7997
  156.1632  140.1595  156.8563 H   0  0  0  0  0  0  0  0  0  0  0  0  # atno 8010 bound_to 7997
  140.4713  144.0759  150.6238 H   0  0  0  0  0  0  0  0  0  0  0  0  # atno 10167 bound_to 10162
  156.8942  130.9857  151.3045 H   0  0  0  0  0  0  0  0  0  0  0  0  # atno 10718 bound_to 10713
  154.6443  135.2902  155.0066 H   0  0  0  0  0  0  0  0  0  0  0  0  # atno 10763 bound_to 10752
  154.1181  135.6552  153.4901 H   0  0  0  0  0  0  0  0  0  0  0  0  # atno 10764 bound_to 10752
  153.0342  135.5281  154.7323 H   0  0  0  0  0  0  0  0  0  0  0  0  # atno 10765 bound_to 10752
  140.7073  133.8939  155.8725 H   0  0  0  0  0  0  0  0  0  0  0  0  # atno 11005 bound_to 11000
  146.0264  140.8300  142.9898 LP  0  0  0  0  0  0  0  0  0  0  0  0  # atno 17320 bound_to 7965
  144.6830  140.2704  143.7306 LP  0  0  0  0  0  0  0  0  0  0  0  0  # atno 17321 bound_to 7965
  140.3974  143.2721  151.9989 LP  0  0  0  0  0  0  0  0  0  0  0  0  # atno 17342 bound_to 10162
  139.4819  144.6026  151.7578 LP  0  0  0  0  0  0  0  0  0  0  0  0  # atno 17343 bound_to 10162
  157.6065  130.8551  149.8884 LP  0  0  0  0  0  0  0  0  0  0  0  0  # atno 17370 bound_to 10713
  156.0614  130.3699  150.0975 LP  0  0  0  0  0  0  0  0  0  0  0  0  # atno 17371 bound_to 10713
  141.0114  134.1015  157.4217 LP  0  0  0  0  0  0  0  0  0  0  0  0  # atno 17394 bound_to 11000
  139.8881  135.0095  156.6599 LP  0  0  0  0  0  0  0  0  0  0  0  0  # atno 17395 bound_to 11000

$$$$
