AV-unprocessed.smi:1831|AV-procd|sdf|7456|dock9
  -GOLD-   22720 9143D 1   1.00000     0.00000
 Structure written by MMmdl.
 41 42  0  0  0  0  0  0  0  0  2 V2000
  153.7270  137.4508  157.2018 C   0  0  0  0  0  0  0  0  0  0  0  0
  152.7932  138.0924  156.2331 C   0  0  0  0  0  0  0  0  0  0  0  0
  152.9917  139.3209  155.7384 N   0  0  0  0  0  0  0  0  0  0  0  0
  151.9895  139.7043  154.8571 N   0  0  0  0  0  0  0  0  0  0  0  0
  151.0616  138.7540  154.7125 C   0  0  0  0  0  0  0  0  0  0  0  0
  149.9757  139.0094  153.8380 N   0  0  0  0  0  0  0  0  0  0  0  0
  148.6647  139.0128  154.1285 C   0  0  0  0  0  0  0  0  0  0  0  0
  148.1803  138.7959  155.2391 O   0  0  0  0  0  0  0  0  0  0  0  0
  147.9278  139.2890  153.0425 N   0  0  0  0  0  0  0  0  0  0  0  0
  146.4694  139.3457  153.0006 C   0  0  0  0  0  0  0  0  0  0  0  0
  145.8345  137.9456  152.8898 C   0  0  2  0  0  0  0  0  0  0  0  0
  146.2826  136.9380  153.9471 C   0  0  0  0  0  0  0  0  0  0  0  0
  145.9732  135.6011  153.2844 C   0  0  0  0  0  0  0  0  0  0  0  0
  146.3160  135.7906  151.8576 N   0  3  1  0  0  0  0  0  0  0  0  0
  145.6533  134.8565  150.9039 C   0  0  0  0  0  0  0  0  0  0  0  0
  144.1330  135.0965  150.8326 C   0  0  0  0  0  0  0  0  0  0  0  0
  145.9213  133.3886  151.2881 C   0  0  0  0  0  0  0  0  0  0  0  0
  146.1379  137.2354  151.5599 C   0  0  0  0  0  0  0  0  0  0  0  0
  151.3378  137.2901  155.6565 S   0  0  0  0  0  0  0  0  0  0  0  0
  154.6869  137.9683  157.2107 H   0  0  0  0  0  0  0  0  0  0  0  0
  153.8956  136.4101  156.9250 H   0  0  0  0  0  0  0  0  0  0  0  0
  153.3017  137.4829  158.2050 H   0  0  0  0  0  0  0  0  0  0  0  0
  150.2287  139.2051  152.8806 H   0  0  0  0  0  0  0  0  0  0  0  0
  148.4123  139.4537  152.1721 H   0  0  0  0  0  0  0  0  0  0  0  0
  146.1337  139.8238  153.9214 H   0  0  0  0  0  0  0  0  0  0  0  0
  146.1302  139.9875  152.1855 H   0  0  0  0  0  0  0  0  0  0  0  0
  144.7506  138.0466  152.9696 H   0  0  0  0  0  0  0  0  0  0  0  0
  147.3557  137.0225  154.1255 H   0  0  0  0  0  0  0  0  0  0  0  0
  145.7690  137.0642  154.9008 H   0  0  0  0  0  0  0  0  0  0  0  0
  146.5343  134.7805  153.7329 H   0  0  0  0  0  0  0  0  0  0  0  0
  144.9085  135.3820  153.3839 H   0  0  0  0  0  0  0  0  0  0  0  0
  146.0692  135.0341  149.9109 H   0  0  0  0  0  0  0  0  0  0  0  0
  143.6556  134.3760  150.1676 H   0  0  0  0  0  0  0  0  0  0  0  0
  143.8915  136.0869  150.4464 H   0  0  0  0  0  0  0  0  0  0  0  0
  143.6688  134.9961  151.8143 H   0  0  0  0  0  0  0  0  0  0  0  0
  145.4208  132.7076  150.5990 H   0  0  0  0  0  0  0  0  0  0  0  0
  145.5547  133.1694  152.2916 H   0  0  0  0  0  0  0  0  0  0  0  0
  146.9821  133.1410  151.2607 H   0  0  0  0  0  0  0  0  0  0  0  0
  145.3266  137.4162  150.8537 H   0  0  0  0  0  0  0  0  0  0  0  0
  147.0576  137.6061  151.1059 H   0  0  0  0  0  0  0  0  0  0  0  0
  147.3090  135.6179  151.7918 H   0  0  0  0  0  0  0  0  0  0  0  0
  1  2  1  0  0  0  0
  1 20  1  0  0  0  0
  1 21  1  0  0  0  0
  1 22  1  0  0  0  0
  2 19  1  0  0  0  0
  2  3  2  0  0  0  0
  3  4  1  0  0  0  0
  4  5  2  0  0  0  0
  5  6  1  0  0  0  0
  5 19  1  0  0  0  0
  6  7  1  0  0  0  0
  6 23  1  0  0  0  0
  7  8  2  0  0  0  0
  7  9  1  0  0  0  0
  9 10  1  0  0  0  0
  9 24  1  0  0  0  0
 10 11  1  0  0  0  0
 10 25  1  0  0  0  0
 10 26  1  0  0  0  0
 11 18  1  0  0  0  0
 11 12  1  0  0  0  0
 11 27  1  0  0  0  0
 12 13  1  0  0  0  0
 12 28  1  0  0  0  0
 12 29  1  0  0  0  0
 13 14  1  0  0  0  0
 13 30  1  0  0  0  0
 13 31  1  0  0  0  0
 14 15  1  0  0  0  0
 14 18  1  0  0  0  0
 14 41  1  0  0  0  0
 15 16  1  0  0  0  0
 15 17  1  0  0  0  0
 15 32  1  0  0  0  0
 16 33  1  0  0  0  0
 16 34  1  0  0  0  0
 16 35  1  0  0  0  0
 17 36  1  0  0  0  0
 17 37  1  0  0  0  0
 17 38  1  0  0  0  0
 18 39  1  0  0  0  0
 18 40  1  0  0  0  0
M  CHG  1  14   1
M  END
> <s_m_source_file>
AV-unprocessed.smi

> <i_m_source_file_index>
1831

> <i_lp_mmshare_version>
43012

> <i_f3d_flags>
0

> <s_epik_input>
W0NIM11jMW5uYyhzMSlbTkhdQyg9TylbTkhdW0NIMl1bQ0BASF0yW0NIMl1bQ0gyXU4oW0NIMl0yKVtDSF0oW0NIM10pW0NIM10=

> <s_epik_cmdline>
J2VwaWtfcHl0aG9uJywgJy1waCcsICc3LjAnLCAnLXRuJywgJzgnLCAnLW1hJywgJzIwMCcsICctbWV0YWxfYmluZGluZycsICctaW1hZScsICc8aW5maWxlLm1hZT4nLCAnLW9tYWUnLCAnPG91dGZpbGUubWFlPic=

> <r_lp_tautomer_probability>
1

> <r_epik_Ionization_Penalty>
0.00080807

> <r_epik_Ionization_Penalty_Charging>
0.000218981

> <r_epik_Ionization_Penalty_Neutral>
0.00058909

> <r_epik_State_Penalty>
-0

> <r_epik_Charging_Adjusted_Penalty>
0.000218981

> <i_epik_Tot_Q>
1

> <i_epik_Tot_abs_Q>
1

> <r_epik_Metal_State_Penalty>
0.236062

> <b_epik_Metal_Only>
0

> <s_lp_Force_Field>
OPLS_2005

> <r_lp_Energy>
28.9112

> <b_lp_Chiralities_Consistent>
1

> <s_lp_Variant>
AV-unprocessed.smi:1831-1

> <Gold.Version>
5.8.1

> <Gold.Id.Protein>
6NUR|6NUR_protein|mol2

> <Gold.PLP.Fitness>
43.6605

> <Gold.PLP.PLP>
-27.6274

> <Gold.PLP.part.hbond>
-5.0000

> <Gold.PLP.part.metal>
0.0000

> <Gold.PLP.part.buried>
-1.6357

> <Gold.PLP.part.nonpolar>
-22.1176

> <Gold.PLP.part.repulsive>
0.3503

> <Gold.PLP.ligand.clash>
0.0000

> <Gold.PLP.ligand.torsion>
0.7319

> <Gold.PLP.Chemscore.Hbond>
5.8240

> <Gold.PLP.Chemscore.CHOScore>
0.0000

> <Gold.PLP.Chemscore.Metal>
0.0000

> <Gold.Chemscore.Hbonds>
donor molecule, donor type, donor heavy atom, donor atom, acceptor molecule, acceptor atom, score
      L1  H     6    23       P1  7957  0.91
      L1  H     9    24       P1  7957  1.00
      L1  H    14    41       P1  7948  2.00
      P1  H  7989  7998       L1     4  0.91
      P1  H  7997  8008       L1     3  1.00

> <Gold.PLP.Chemscore.Internal.Correction>
0.0250

> <Gold.Rescore>
     Score         DG    S(hbond)    S(metal)    S(lipo)     H(rot)  DE(clash)    DE(int)     intcor
     20.22     -22.44       4.30        0.00      55.99       1.54       0.39       1.83       ----

> <Gold.Chemscore.Fitness>
20.2182

> <Gold.Chemscore.DG>
-22.4382

> <Gold.Chemscore.ZeroCoef>
-5.4800

> <Gold.Chemscore.Hbond>
4.2961

> <Gold.Chemscore.Metal>
0.0000

> <Gold.Chemscore.Lipo>
55.9886

> <Gold.Chemscore.Internal_Hbond>
0.0000

> <Gold.Chemscore.DEClash>
0.3864

> <Gold.Chemscore.DEInternal>
1.8336

> <Gold.Chemscore.Rot>
1.5396

> <Gold.Chemscore.Internal.Correction>
   9.000000E+99

> <Gold.Chemscore.Hbonds>
donor molecule, donor type, donor heavy atom, donor atom, acceptor molecule, acceptor atom, score
      L1  H     6    23       P1  7957  0.71
      L1  H     9    24       P1  7957  0.99
      L1  H    14    41       P1  7948  0.94
      P1  H  7989  7998       L1     4  0.44
      P1  H  7997  8008       L1     3  0.92

> <Gold.Chemscore.Hbond.Weighted>
-14.3488

> <Gold.Chemscore.Metal.Weighted>
-0.0000

> <Gold.Chemscore.Lipo.Weighted>
-6.5507

> <Gold.Chemscore.Internal_Hbond.Weighted>
0.0000

> <Gold.Chemscore.DEClash.Weighted>
0.3864

> <Gold.Chemscore.DEInternal.Weighted>
1.8336

> <Gold.Chemscore.Rot.Weighted>
3.9413

> <Gold.Chemscore.Internal.Correction.Weighted>
   9.000000E+99

> <Gold.Protein.RotatedTorsions>
[ 6907 6896 6895 6894 ] final  173.03 input  -60.11 | X-H torsion
[ 7974 7965 7964 7962 ] final -124.11 input  175.53 | X-H torsion
[ 8008 7997 7996 7995 ] final  -40.29 input   59.86 | X-H torsion
[ 10167 10162 10161 10158 ] final -101.09 input  -65.29 | X-H torsion
[ 10718 10713 10712 10709 ] final  115.89 input   66.30 | X-H torsion
[ 10763 10752 10751 10750 ] final   59.33 input  -60.55 | X-H torsion
[ 11005 11000 10999 10996 ] final  -40.31 input  -57.11 | X-H torsion

> <Gold.Protein.ActiveResidues>
 VAL166  LYS551  ARG553  GLY616  TRP617  ASP618  TYR619  PRO620  LYS621  CYS622 
 ASP623  PHE694  ASN695  SER759  ASP760  ASP761  ALA762  ILE779  LEU786  VAL792 
 PHE793  MET794  SER795  GLU796  ALA797  LYS798  CYS799  TRP800  GLU811  SER814 

> <Gold.Protein.RotatedAtoms>
  151.7748  133.3344  159.3454 H   0  0  0  0  0  0  0  0  0  0  0  0  # atno 6907 bound_to 6896
  150.7448  134.5985  159.6034 H   0  0  0  0  0  0  0  0  0  0  0  0  # atno 6908 bound_to 6896
  152.3316  134.7253  160.0339 H   0  0  0  0  0  0  0  0  0  0  0  0  # atno 6909 bound_to 6896
  145.0115  140.7910  143.4435 H   0  0  0  0  0  0  0  0  0  0  0  0  # atno 7974 bound_to 7965
  154.4013  140.1529  156.3004 H   0  0  0  0  0  0  0  0  0  0  0  0  # atno 8008 bound_to 7997
  155.8706  140.3449  155.5797 H   0  0  0  0  0  0  0  0  0  0  0  0  # atno 8009 bound_to 7997
  155.7778  140.0839  157.2065 H   0  0  0  0  0  0  0  0  0  0  0  0  # atno 8010 bound_to 7997
  140.2450  143.3512  152.0767 H   0  0  0  0  0  0  0  0  0  0  0  0  # atno 10167 bound_to 10162
  157.6194  131.1018  150.7395 H   0  0  0  0  0  0  0  0  0  0  0  0  # atno 10718 bound_to 10713
  152.9892  135.5575  154.5697 H   0  0  0  0  0  0  0  0  0  0  0  0  # atno 10763 bound_to 10752
  154.5099  135.2802  155.1353 H   0  0  0  0  0  0  0  0  0  0  0  0  # atno 10764 bound_to 10752
  154.2749  135.6356  153.5377 H   0  0  0  0  0  0  0  0  0  0  0  0  # atno 10765 bound_to 10752
  141.0165  133.6883  156.2304 H   0  0  0  0  0  0  0  0  0  0  0  0  # atno 11005 bound_to 11000
  145.2017  139.2249  143.5189 LP  0  0  0  0  0  0  0  0  0  0  0  0  # atno 17320 bound_to 7965
  146.3470  140.1835  142.8589 LP  0  0  0  0  0  0  0  0  0  0  0  0  # atno 17321 bound_to 7965
  139.5065  144.6814  151.5999 LP  0  0  0  0  0  0  0  0  0  0  0  0  # atno 17342 bound_to 10162
  140.6084  143.9481  150.6435 LP  0  0  0  0  0  0  0  0  0  0  0  0  # atno 17343 bound_to 10162
  156.7756  130.4842  149.5410 LP  0  0  0  0  0  0  0  0  0  0  0  0  # atno 17370 bound_to 10713
  156.1332  130.6192  151.0363 LP  0  0  0  0  0  0  0  0  0  0  0  0  # atno 17371 bound_to 10713
  140.6645  134.4932  157.5585 LP  0  0  0  0  0  0  0  0  0  0  0  0  # atno 17394 bound_to 11000
  139.9120  134.8324  156.1495 LP  0  0  0  0  0  0  0  0  0  0  0  0  # atno 17395 bound_to 11000

$$$$
