#       Name:                AV-unprocessed.smi:2340
#       Creating user name   scv26
#       Creation time:       Fri Mar 27 12:56:54 2020


#       File generated by GOLD software.
#

@<TRIPOS>MOLECULE
AV-unprocessed.smi:2340
    45    46     1
SMALL
NO_CHARGES


@<TRIPOS>ATOM
      1 ****        -2.3722   1.4454   3.5486 C.3            1 S1                 0.0000
      2 ****        -2.6424   1.0831   2.1227 C.2            1 S1                 0.0000
      3 ****        -3.2980  -0.0312   1.6620 C.2            1 S1                 0.0000
      4 ****        -3.3726  -0.0672  -0.0780 S.3            1 S1                 0.0000
      5 ****        -2.4972   1.4597  -0.1177 C.2            1 S1                 0.0000
      6 ****        -2.0942   2.1421  -1.3899 C.3            1 S1                 0.0000
      7 ****        -2.7455   3.5254  -1.5313 C.3            1 S1                 0.0000
      8 ****        -0.5656   2.1730  -1.6072 C.3            1 S1                 0.0000
      9 ****         0.0310   0.8397  -1.5417 N.am           1 S1                 0.0000
     10 ****         0.6927   0.3324  -0.4914 C.2            1 S1                 0.0000
     11 ****         0.9221   0.9511   0.5476 O.2            1 S1                 0.0000
     12 ****         1.0647  -0.9369  -0.7067 N.am           1 S1                 0.0000
     13 ****         1.7613  -1.7885   0.2581 C.3            1 S1                 0.0000
     14 ****         1.2707  -3.2316   0.1512 C.3            1 S1                 0.0000
     15 ****         2.5512  -4.0553   0.0659 C.3            1 S1                 0.0000
     16 ****         3.4603  -3.1782  -0.5749 O.3            1 S1                 0.0000
     17 ****         3.2837  -1.8953   0.0079 C.3            1 S1                 0.0000
     18 ****         3.9383  -0.8202  -0.8746 C.3            1 S1                 0.0000
     19 ****        -2.2017   1.9260   1.0994 N.2            1 S1                 0.0000
     20 ****        -2.7839   0.7044   4.2342 H              1 S1                 0.0000
     21 ****        -2.8137   2.4097   3.8005 H              1 S1                 0.0000
     22 ****        -1.3008   1.5107   3.7396 H              1 S1                 0.0000
     23 ****        -3.7355  -0.8331   2.2378 H              1 S1                 0.0000
     24 ****        -2.5044   1.5349  -2.1980 H              1 S1                 0.0000
     25 ****        -3.8322   3.4558  -1.4715 H              1 S1                 0.0000
     26 ****        -2.4960   3.9803  -2.4903 H              1 S1                 0.0000
     27 ****        -2.4108   4.2033  -0.7456 H              1 S1                 0.0000
     28 ****        -0.3409   2.5942  -2.5874 H              1 S1                 0.0000
     29 ****        -0.0993   2.8389  -0.8789 H              1 S1                 0.0000
     30 ****        -0.0981   0.2476  -2.3490 H              1 S1                 0.0000
     31 ****         0.8352  -1.3551  -1.5963 H              1 S1                 0.0000
     32 ****         1.5912  -1.4245   1.2731 H              1 S1                 0.0000
     33 ****         0.6457  -3.5274   0.9942 H              1 S1                 0.0000
     34 ****         0.6875  -3.3804  -0.7589 H              1 S1                 0.0000
     35 ****         2.9228  -4.3030   1.0614 H              1 S1                 0.0000
     36 ****         2.4205  -4.9819  -0.4933 H              1 S1                 0.0000
     37 ****         3.7909  -1.9061   0.9745 H              1 S1                 0.0000
     38 ****         3.8016   0.1743  -0.4494 H              1 S1                 0.0000
     39 ****         3.5232  -0.8194  -1.8828 H              1 S1                 0.0000
     40 ****         5.0104  -0.9963  -0.9633 H              1 S1                 0.0000
     41 ****         0.6082   1.8953   0.6469 LP             1 S1                 0.0000
     42 ****         1.4224   0.5095   1.2924 LP             1 S1                 0.0000
     43 ****         3.2664  -3.1393  -1.5552 LP             1 S1                 0.0000
     44 ****         4.3987  -3.4932  -0.4330 LP             1 S1                 0.0000
     45 ****        -1.7172   2.7858   1.2603 LP             1 S1                 0.0000
@<TRIPOS>BOND
    1    1    2 1     
    2    1   20 1     
    3    1   21 1     
    4    1   22 1     
    5    2   19 1     
    6    2    3 2     
    7    3    4 1     
    8    3   23 1     
    9    4    5 1     
   10    5    6 1     
   11    5   19 2     
   12    6    7 1     
   13    6    8 1     
   14    6   24 1     
   15    7   25 1     
   16    7   26 1     
   17    7   27 1     
   18    8    9 1     
   19    8   28 1     
   20    8   29 1     
   21    9   10 am    
   22    9   30 1     
   23   10   11 2     
   24   10   12 am    
   25   12   13 1     
   26   12   31 1     
   27   13   17 1     
   28   13   14 1     
   29   13   32 1     
   30   14   15 1     
   31   14   33 1     
   32   14   34 1     
   33   15   16 1     
   34   15   35 1     
   35   15   36 1     
   36   16   17 1     
   37   17   18 1     
   38   17   37 1     
   39   18   38 1     
   40   18   39 1     
   41   18   40 1     
   42   11   41 1     
   43   11   42 1     
   44   16   43 1     
   45   16   44 1     
   46   19   45 1     
@<TRIPOS>SUBSTRUCTURE
      1 S1             1
@<TRIPOS>SET
LONE_PAIRS      STATIC     ATOMS    <user>   **** ""
5 41 42 43 44 45
DONOR_HYDROGENS      STATIC     ATOMS    <user>   **** ""
2 30 31
ATOM$BLUE        STATIC     ATOMS    COLORGROUP SYSTEM
5 41 42 43 44 45
ATOM$RED        STATIC     ATOMS    COLORGROUP SYSTEM
2 30 31
