#       Name:                AV-unprocessed.smi:2333
#       Creating user name   scv26
#       Creation time:       Fri Mar 27 12:54:11 2020


#       File generated by GOLD software.
#

@<TRIPOS>MOLECULE
AV-unprocessed.smi:2333
    42    43     1
SMALL
NO_CHARGES


@<TRIPOS>ATOM
      1 ****        -4.6619   0.4137  -1.5534 C.3            1 S1                 0.0000
      2 ****        -3.1741   0.1249  -1.4590 C.2            1 S1                 0.0000
      3 ****        -2.3329   1.2260  -1.6395 N.2            1 S1                 0.0000
      4 ****        -1.0511   1.0769  -1.5634 C.2            1 S1                 0.0000
      5 ****        -0.4641  -0.1740  -1.2997 N.am           1 S1                 0.0000
      6 ****         1.0119  -0.2152  -1.2402 C.3            1 S1                 0.0000
      7 ****         1.6187  -0.1340   0.1935 C.3            1 S1                 0.0000
      8 ****         1.6052  -1.4448   0.7285 O.3            1 S1                 0.0000
      9 ****         3.1077   0.2828   0.0976 C.3            1 S1                 0.0000
     10 ****         3.7864   0.4427   1.4702 C.3            1 S1                 0.0000
     11 ****         3.0107   1.4187   2.3645 C.3            1 S1                 0.0000
     12 ****         1.5511   0.9724   2.5229 C.3            1 S1                 0.0000
     13 ****         0.8582   0.8141   1.1573 C.3            1 S1                 0.0000
     14 ****        -1.2131  -1.3050  -1.1481 C.2            1 S1                 0.0000
     15 ****        -0.6946  -2.4081  -0.9679 O.2            1 S1                 0.0000
     16 ****        -2.6713  -1.1162  -1.2168 C.2            1 S1                 0.0000
     17 ****        -3.5384  -2.3515  -1.0078 C.3            1 S1                 0.0000
     18 ****        -5.1203  -0.1924  -2.3354 H              1 S1                 0.0000
     19 ****        -4.8495   1.4616  -1.7915 H              1 S1                 0.0000
     20 ****        -5.1543   0.1925  -0.6060 H              1 S1                 0.0000
     21 ****        -0.3543   1.9068  -1.6924 H              1 S1                 0.0000
     22 ****         1.3854  -1.1022  -1.7563 H              1 S1                 0.0000
     23 ****         1.4121   0.6076  -1.8359 H              1 S1                 0.0000
     24 ****         2.0100  -1.4243   1.5821 H              1 S1                 0.0000
     25 ****         3.6642  -0.4370  -0.5045 H              1 S1                 0.0000
     26 ****         3.1810   1.2347  -0.4304 H              1 S1                 0.0000
     27 ****         3.8620  -0.5269   1.9639 H              1 S1                 0.0000
     28 ****         4.8088   0.7972   1.3365 H              1 S1                 0.0000
     29 ****         3.4878   1.4875   3.3426 H              1 S1                 0.0000
     30 ****         3.0438   2.4194   1.9318 H              1 S1                 0.0000
     31 ****         1.5136   0.0288   3.0682 H              1 S1                 0.0000
     32 ****         1.0073   1.6971   3.1296 H              1 S1                 0.0000
     33 ****         0.7728   1.7992   0.6972 H              1 S1                 0.0000
     34 ****        -0.1612   0.4613   1.3185 H              1 S1                 0.0000
     35 ****        -3.3257  -2.7998  -0.0366 H              1 S1                 0.0000
     36 ****        -3.3253  -3.0944  -1.7770 H              1 S1                 0.0000
     37 ****        -4.6056  -2.1389  -1.0425 H              1 S1                 0.0000
     38 ****        -2.7219   2.1279  -1.8273 LP             1 S1                 0.0000
     39 ****         2.1159  -2.0597   0.1276 LP             1 S1                 0.0000
     40 ****         0.6617  -1.7662   0.8101 LP             1 S1                 0.0000
     41 ****         0.3011  -2.4923  -0.9294 LP             1 S1                 0.0000
     42 ****        -1.2695  -3.2192  -0.8602 LP             1 S1                 0.0000
@<TRIPOS>BOND
    1    1    2 1     
    2    1   18 1     
    3    1   19 1     
    4    1   20 1     
    5    2   16 2     
    6    2    3 1     
    7    3    4 2     
    8    4    5 1     
    9    4   21 1     
   10    5    6 1     
   11    5   14 am    
   12    6    7 1     
   13    6   22 1     
   14    6   23 1     
   15    7   13 1     
   16    7    8 1     
   17    7    9 1     
   18    8   24 1     
   19    9   10 1     
   20    9   25 1     
   21    9   26 1     
   22   10   11 1     
   23   10   27 1     
   24   10   28 1     
   25   11   12 1     
   26   11   29 1     
   27   11   30 1     
   28   12   13 1     
   29   12   31 1     
   30   12   32 1     
   31   13   33 1     
   32   13   34 1     
   33   14   15 2     
   34   14   16 1     
   35   16   17 1     
   36   17   35 1     
   37   17   36 1     
   38   17   37 1     
   39    3   38 1     
   40    8   39 1     
   41    8   40 1     
   42   15   41 1     
   43   15   42 1     
@<TRIPOS>SUBSTRUCTURE
      1 S1             1
@<TRIPOS>SET
LONE_PAIRS      STATIC     ATOMS    <user>   **** ""
5 38 39 40 41 42
DONOR_HYDROGENS      STATIC     ATOMS    <user>   **** ""
1 24
ATOM$BLUE        STATIC     ATOMS    COLORGROUP SYSTEM
5 38 39 40 41 42
ATOM$RED        STATIC     ATOMS    COLORGROUP SYSTEM
1 24
