#       Name:                AV-unprocessed.smi:1225
#       Creating user name   scv26
#       Creation time:       Fri Mar 27 04:20:36 2020


#       File generated by GOLD software.
#

@<TRIPOS>MOLECULE
AV-unprocessed.smi:1225
    53    55     1
SMALL
NO_CHARGES


@<TRIPOS>ATOM
      1 ****        -5.7380  -1.7800  -4.3294 C.3            1 S1                 0.0000
      2 ****        -5.1522  -0.7261  -3.4537 C.2            1 S1                 0.0000
      3 ****        -4.5719   0.3811  -3.9216 N.2            1 S1                 0.0000
      4 ****        -4.1069   1.2126  -2.9009 C.2            1 S1                 0.0000
      5 ****        -4.3319   0.7211  -1.6385 C.2            1 S1                 0.0000
      6 ****        -3.9649   1.3551  -0.3348 C.3            1 S1                 0.0000
      7 ****        -2.4981   1.3970  -0.1088 N.4            1 S1                 1.0000
      8 ****        -2.1415   2.3615   0.9585 C.3            1 S1                 0.0000
      9 ****        -1.8979   0.0510   0.1001 C.3            1 S1                 0.0000
     10 ****        -0.3905   0.0132  -0.2182 C.3            1 S1                 0.0000
     11 ****        -0.2033   0.3361  -1.5830 O.3            1 S1                 0.0000
     12 ****         0.2134  -1.3765   0.0584 C.3            1 S1                 0.0000
     13 ****         1.6482  -1.4073  -0.1584 N.pl3          1 S1                 0.0000
     14 ****         2.3036  -1.8953  -1.2296 C.2            1 S1                 0.0000
     15 ****         3.6313  -1.8183  -1.2166 N.2            1 S1                 0.0000
     16 ****         3.8651  -1.2173   0.0086 C.ar           1 S1                 0.0000
     17 ****         5.0762  -0.8549   0.6375 C.ar           1 S1                 0.0000
     18 ****         5.0764  -0.2439   1.9119 C.ar           1 S1                 0.0000
     19 ****         6.4019   0.1261   2.5536 C.3            1 S1                 0.0000
     20 ****         3.8505   0.0162   2.5759 C.ar           1 S1                 0.0000
     21 ****         3.8263   0.6705   3.9459 C.3            1 S1                 0.0000
     22 ****         2.6315  -0.3379   1.9610 C.ar           1 S1                 0.0000
     23 ****         2.6450  -0.9476   0.6944 C.ar           1 S1                 0.0000
     24 ****        -5.1623  -0.8133  -1.6968 S.3            1 S1                 0.0000
     25 ****        -5.1263  -1.9146  -5.2219 H              1 S1                 0.0000
     26 ****        -6.7453  -1.4949  -4.6333 H              1 S1                 0.0000
     27 ****        -5.7883  -2.7293  -3.7958 H              1 S1                 0.0000
     28 ****        -3.6200   2.1401  -3.1643 H              1 S1                 0.0000
     29 ****        -4.3619   2.3712  -0.3287 H              1 S1                 0.0000
     30 ****        -4.4463   0.8341   0.4942 H              1 S1                 0.0000
     31 ****        -2.5313   2.0370   1.9241 H              1 S1                 0.0000
     32 ****        -2.5545   3.3470   0.7407 H              1 S1                 0.0000
     33 ****        -1.0630   2.4835   1.0487 H              1 S1                 0.0000
     34 ****        -2.0791  -0.2660   1.1283 H              1 S1                 0.0000
     35 ****        -2.3916  -0.6879  -0.5309 H              1 S1                 0.0000
     36 ****         0.1432   0.7485   0.3831 H              1 S1                 0.0000
     37 ****         0.7228   0.3125  -1.7730 H              1 S1                 0.0000
     38 ****         0.0230  -1.6712   1.0912 H              1 S1                 0.0000
     39 ****        -0.2551  -2.1335  -0.5727 H              1 S1                 0.0000
     40 ****         1.7767  -2.3276  -2.0677 H              1 S1                 0.0000
     41 ****         6.0098  -1.0526   0.1316 H              1 S1                 0.0000
     42 ****         6.4613   1.2031   2.7121 H              1 S1                 0.0000
     43 ****         7.2445  -0.1675   1.9268 H              1 S1                 0.0000
     44 ****         6.5128  -0.3725   3.5166 H              1 S1                 0.0000
     45 ****         2.8054   0.8119   4.3017 H              1 S1                 0.0000
     46 ****         4.3068   1.6485   3.9113 H              1 S1                 0.0000
     47 ****         4.3515   0.0516   4.6737 H              1 S1                 0.0000
     48 ****         1.6909  -0.1465   2.4557 H              1 S1                 0.0000
     49 ****        -2.0974   1.7541  -0.9649 H              1 S1                 0.0000
     50 ****        -4.4803   0.5916  -4.8949 LP             1 S1                 0.0000
     51 ****        -0.5617   1.2517  -1.7652 LP             1 S1                 0.0000
     52 ****        -0.6821  -0.3293  -2.1558 LP             1 S1                 0.0000
     53 ****         4.2880  -2.1162  -1.9095 LP             1 S1                 0.0000
@<TRIPOS>BOND
    1    1    2 1     
    2    1   25 1     
    3    1   26 1     
    4    1   27 1     
    5    2   24 1     
    6    2    3 2     
    7    3    4 1     
    8    4    5 2     
    9    4   28 1     
   10    5    6 1     
   11    5   24 1     
   12    6    7 1     
   13    6   29 1     
   14    6   30 1     
   15    7    8 1     
   16    7    9 1     
   17    7   49 1     
   18    8   31 1     
   19    8   32 1     
   20    8   33 1     
   21    9   10 1     
   22    9   34 1     
   23    9   35 1     
   24   10   11 1     
   25   10   12 1     
   26   10   36 1     
   27   11   37 1     
   28   12   13 1     
   29   12   38 1     
   30   12   39 1     
   31   13   23 1     
   32   13   14 1     
   33   14   15 2     
   34   14   40 1     
   35   15   16 1     
   36   16   23 ar    
   37   16   17 ar    
   38   17   18 ar    
   39   17   41 1     
   40   18   19 1     
   41   18   20 ar    
   42   19   42 1     
   43   19   43 1     
   44   19   44 1     
   45   20   21 1     
   46   20   22 ar    
   47   21   45 1     
   48   21   46 1     
   49   21   47 1     
   50   22   23 ar    
   51   22   48 1     
   52    3   50 1     
   53   11   51 1     
   54   11   52 1     
   55   15   53 1     
@<TRIPOS>SUBSTRUCTURE
      1 S1             1
@<TRIPOS>SET
LONE_PAIRS      STATIC     ATOMS    <user>   **** ""
4 50 51 52 53
DONOR_HYDROGENS      STATIC     ATOMS    <user>   **** ""
2 49 37
ATOM$BLUE        STATIC     ATOMS    COLORGROUP SYSTEM
4 50 51 52 53
ATOM$RED        STATIC     ATOMS    COLORGROUP SYSTEM
2 49 37
