AV-unprocessed.smi:44|AV-procd|sdf|406|dock1
  -GOLD-   2262016263D 1   1.00000     0.00000
 Structure written by MMmdl.
 28 30  0  0  0  0  0  0  0  0  2 V2000
  149.3414  137.7244  157.4218 O   0  0  0  0  0  0  0  0  0  0  0  0
  150.3867  138.1176  157.9358 C   0  0  0  0  0  0  0  0  0  0  0  0
  151.3440  137.3131  158.4983 N   0  5  0  0  0  0  0  0  0  0  0  0
  152.4896  137.8853  159.0479 C   0  0  0  0  0  0  0  0  0  0  0  0
  152.7936  139.1372  159.1082 N   0  0  0  0  0  0  0  0  0  0  0  0
  151.8445  139.9690  158.5509 C   0  0  0  0  0  0  0  0  0  0  0  0
  150.6686  139.5806  157.9684 C   0  0  0  0  0  0  0  0  0  0  0  0
  149.9503  140.6767  157.5067 N   0  0  0  0  0  0  0  0  0  0  0  0
  150.7455  141.6927  157.8419 C   0  0  0  0  0  0  0  0  0  0  0  0
  151.8895  141.3554  158.4751 N   0  0  0  0  0  0  0  0  0  0  0  0
  152.9813  142.2495  158.9779 C   0  0  2  0  0  0  0  0  0  0  0  0
  153.1595  142.0453  160.4829 C   0  0  0  0  0  0  0  0  0  0  0  0
  152.1554  143.0319  161.0347 C   0  0  0  0  0  0  0  0  0  0  0  0
  152.3140  144.1987  160.0600 C   0  0  2  0  0  0  0  0  0  0  0  0
  151.0724  145.0994  159.9794 C   0  0  0  0  0  0  0  0  0  0  0  0
  149.9153  144.3138  159.7914 O   0  0  0  0  0  0  0  0  0  0  0  0
  152.5788  143.5780  158.7994 O   0  0  0  0  0  0  0  0  0  0  0  0
  153.8528  141.9898  158.3760 H   0  0  0  0  0  0  0  0  0  0  0  0
  153.1924  144.7767  160.3531 H   0  0  0  0  0  0  0  0  0  0  0  0
  153.1647  137.1292  159.4567 H   0  0  0  0  0  0  0  0  0  0  0  0
  150.4816  142.7145  157.6166 H   0  0  0  0  0  0  0  0  0  0  0  0
  152.9848  141.0126  160.7872 H   0  0  0  0  0  0  0  0  0  0  0  0
  154.1755  142.3303  160.7589 H   0  0  0  0  0  0  0  0  0  0  0  0
  151.1485  142.6147  160.9827 H   0  0  0  0  0  0  0  0  0  0  0  0
  152.3561  143.3116  162.0691 H   0  0  0  0  0  0  0  0  0  0  0  0
  150.9684  145.7222  160.8673 H   0  0  0  0  0  0  0  0  0  0  0  0
  151.1531  145.7700  159.1234 H   0  0  0  0  0  0  0  0  0  0  0  0
  149.6335  144.4026  158.8939 H   0  0  0  0  0  0  0  0  0  0  0  0
  1  2  2  0  0  0  0
  2  7  1  0  0  0  0
  2  3  1  0  0  0  0
  3  4  1  0  0  0  0
  4  5  2  0  0  0  0
  4 20  1  0  0  0  0
  5  6  1  0  0  0  0
  6 10  1  0  0  0  0
  6  7  2  0  0  0  0
  7  8  1  0  0  0  0
  8  9  2  0  0  0  0
  9 10  1  0  0  0  0
  9 21  1  0  0  0  0
 10 11  1  0  0  0  0
 11 18  1  0  0  0  0
 11 17  1  0  0  0  0
 11 12  1  0  0  0  0
 12 13  1  0  0  0  0
 12 22  1  0  0  0  0
 12 23  1  0  0  0  0
 13 14  1  0  0  0  0
 13 24  1  0  0  0  0
 13 25  1  0  0  0  0
 14 19  1  0  0  0  0
 14 15  1  0  0  0  0
 14 17  1  0  0  0  0
 15 16  1  0  0  0  0
 15 26  1  0  0  0  0
 15 27  1  0  0  0  0
 16 28  1  0  0  0  0
M  CHG  1   3  -1
M  END
> <s_m_source_file>
AV-unprocessed.smi

> <i_m_source_file_index>
44

> <i_lp_mmshare_version>
43012

> <i_f3d_flags>
0

> <s_epik_input>
bjFbY0hdW25IXWMoPU8pYyhjMTIpbltjSF1uMltDQEhdM1tDSDJdW0NIMl1bQ0BIXShPMylbQ0gyXVtPSF0=

> <s_epik_cmdline>
J2VwaWtfcHl0aG9uJywgJy1waCcsICc3LjAnLCAnLXRuJywgJzgnLCAnLW1hJywgJzIwMCcsICctbWV0YWxfYmluZGluZycsICctaW1hZScsICc8aW5maWxlLm1hZT4nLCAnLW9tYWUnLCAnPG91dGZpbGUubWFlPic=

> <r_lp_tautomer_probability>
0.85571

> <r_epik_Ionization_Penalty>
2.55863

> <r_epik_Ionization_Penalty_Charging>
1.36424e-10

> <r_epik_Ionization_Penalty_Neutral>
2.55863

> <r_epik_State_Penalty>
2.63326

> <r_epik_Charging_Adjusted_Penalty>
2.63326

> <i_epik_Tot_Q>
-1

> <i_epik_Tot_abs_Q>
1

> <r_epik_Metal_State_Penalty>
0.475154

> <b_epik_Metal_Only>
1

> <s_epik_Chemistry_Notes>
This compound contains an acetal/aminal-like group ( X-CH(R)-Y where X, Y are N, S, or O) that may be acid/base labile, releasing an aldehyde.

> <s_lp_Force_Field>
OPLS_2005

> <r_lp_Energy>
44.8592

> <b_lp_Chiralities_Consistent>
1

> <s_lp_Variant>
AV-unprocessed.smi:44-12

> <Gold.Version>
5.8.1

> <Gold.Id.Protein>
6NUR|6NUR_protein|mol2

> <Gold.PLP.Fitness>
39.2983

> <Gold.PLP.PLP>
-33.4247

> <Gold.PLP.part.hbond>
-1.3884

> <Gold.PLP.part.metal>
0.0000

> <Gold.PLP.part.buried>
-6.9057

> <Gold.PLP.part.nonpolar>
-24.9824

> <Gold.PLP.part.repulsive>
0.0000

> <Gold.PLP.ligand.clash>
0.0000

> <Gold.PLP.ligand.torsion>
0.0730

> <Gold.PLP.Chemscore.Hbond>
2.0000

> <Gold.PLP.Chemscore.CHOScore>
0.0000

> <Gold.PLP.Chemscore.Metal>
0.0000

> <Gold.PLP.Chemscore.Internal.Correction>
0.0195

> <Gold.Rescore>
     Score         DG    S(hbond)    S(metal)    S(lipo)     H(rot)  DE(clash)    DE(int)     intcor
      8.81      -8.82       0.96        0.00      50.51       2.26       0.00       0.01       ----

> <Gold.Chemscore.Fitness>
8.8069

> <Gold.Chemscore.DG>
-8.8185

> <Gold.Chemscore.ZeroCoef>
-5.4800

> <Gold.Chemscore.Hbond>
0.9616

> <Gold.Chemscore.Metal>
0.0000

> <Gold.Chemscore.Lipo>
50.5060

> <Gold.Chemscore.Internal_Hbond>
0.0000

> <Gold.Chemscore.DEClash>
0.0000

> <Gold.Chemscore.DEInternal>
0.0116

> <Gold.Chemscore.Rot>
2.2588

> <Gold.Chemscore.Internal.Correction>
   9.000000E+99

> <Gold.Chemscore.Hbond.Weighted>
-3.2117

> <Gold.Chemscore.Metal.Weighted>
-0.0000

> <Gold.Chemscore.Lipo.Weighted>
-5.9092

> <Gold.Chemscore.Internal_Hbond.Weighted>
0.0000

> <Gold.Chemscore.DEClash.Weighted>
0.0000

> <Gold.Chemscore.DEInternal.Weighted>
0.0116

> <Gold.Chemscore.Rot.Weighted>
5.7825

> <Gold.Chemscore.Internal.Correction.Weighted>
   9.000000E+99

> <Gold.Protein.RotatedTorsions>
[ 6907 6896 6895 6894 ] final  119.02 input  -60.11 | X-H torsion
[ 7974 7965 7964 7962 ] final   27.57 input  175.53 | X-H torsion
[ 8008 7997 7996 7995 ] final -158.51 input   59.86 | X-H torsion
[ 10167 10162 10161 10158 ] final   47.87 input  -65.29 | X-H torsion
[ 10718 10713 10712 10709 ] final  -18.99 input   66.30 | X-H torsion
[ 10763 10752 10751 10750 ] final   41.66 input  -60.55 | X-H torsion
[ 11005 11000 10999 10996 ] final   27.53 input  -57.11 | X-H torsion

> <Gold.Protein.ActiveResidues>
 VAL166  LYS551  ARG553  GLY616  TRP617  ASP618  TYR619  PRO620  LYS621  CYS622 
 ASP623  PHE694  ASN695  SER759  ASP760  ASP761  ALA762  ILE779  LEU786  VAL792 
 PHE793  MET794  SER795  GLU796  ALA797  LYS798  CYS799  TRP800  GLU811  SER814 

> <Gold.Protein.RotatedAtoms>
  152.4502  133.7614  159.6748 H   0  0  0  0  0  0  0  0  0  0  0  0  # atno 6907 bound_to 6896
  150.8411  133.7924  159.3066 H   0  0  0  0  0  0  0  0  0  0  0  0  # atno 6908 bound_to 6896
  151.5548  135.1069  160.0010 H   0  0  0  0  0  0  0  0  0  0  0  0  # atno 6909 bound_to 6896
  146.1777  139.7173  142.8923 H   0  0  0  0  0  0  0  0  0  0  0  0  # atno 7974 bound_to 7965
  155.7486  140.0823  157.2212 H   0  0  0  0  0  0  0  0  0  0  0  0  # atno 8008 bound_to 7997
  154.4014  140.1564  156.2753 H   0  0  0  0  0  0  0  0  0  0  0  0  # atno 8009 bound_to 7997
  155.8952  140.3413  155.5988 H   0  0  0  0  0  0  0  0  0  0  0  0  # atno 8010 bound_to 7997
  140.2991  144.2955  150.6223 H   0  0  0  0  0  0  0  0  0  0  0  0  # atno 10167 bound_to 10162
  156.5519  130.4704  149.6448 H   0  0  0  0  0  0  0  0  0  0  0  0  # atno 10718 bound_to 10713
  152.9902  135.6155  154.2824 H   0  0  0  0  0  0  0  0  0  0  0  0  # atno 10763 bound_to 10752
  154.2553  135.2784  155.2802 H   0  0  0  0  0  0  0  0  0  0  0  0  # atno 10764 bound_to 10752
  154.5253  135.5803  153.6771 H   0  0  0  0  0  0  0  0  0  0  0  0  # atno 10765 bound_to 10752
  140.3253  134.2497  155.7710 H   0  0  0  0  0  0  0  0  0  0  0  0  # atno 11005 bound_to 11000
  145.4166  141.0402  143.2987 LP  0  0  0  0  0  0  0  0  0  0  0  0  # atno 17320 bound_to 7965
  144.8263  139.5705  143.6964 LP  0  0  0  0  0  0  0  0  0  0  0  0  # atno 17321 bound_to 7965
  140.5666  143.2185  151.7672 LP  0  0  0  0  0  0  0  0  0  0  0  0  # atno 17342 bound_to 10162
  139.4919  144.4275  151.9909 LP  0  0  0  0  0  0  0  0  0  0  0  0  # atno 17343 bound_to 10162
  156.2876  130.7106  151.1947 LP  0  0  0  0  0  0  0  0  0  0  0  0  # atno 17370 bound_to 10713
  157.7386  131.0539  150.5286 LP  0  0  0  0  0  0  0  0  0  0  0  0  # atno 17371 bound_to 10713
  141.2076  133.7799  157.0106 LP  0  0  0  0  0  0  0  0  0  0  0  0  # atno 17394 bound_to 11000
  140.0906  134.9594  157.1771 LP  0  0  0  0  0  0  0  0  0  0  0  0  # atno 17395 bound_to 11000

$$$$
