AV-unprocessed.smi:2658|AV-procd|sdf|10309|dock3
  -GOLD-   2272014323D 1   1.00000     0.00000
 Structure written by MMmdl.
 46 48  0  0  0  0  0  0  0  0  1 V2000
  152.7550  143.1917  161.4681 C   0  0  0  0  0  0  0  0  0  0  0  0
  152.2221  142.7392  160.1200 C   0  0  0  0  0  0  0  0  0  0  0  0
  152.7202  141.5459  159.5504 C   0  0  0  0  0  0  0  0  0  0  0  0
  152.2474  141.0869  158.3018 C   0  0  0  0  0  0  0  0  0  0  0  0
  152.5881  139.9615  157.5711 N   0  0  0  0  0  0  0  0  0  0  0  0
  151.8029  140.0872  156.5053 C   0  0  0  0  0  0  0  0  0  0  0  0
  150.9933  141.1627  156.4587 N   0  0  0  0  0  0  0  0  0  0  0  0
  150.0509  141.5051  155.4086 C   0  0  0  0  0  0  0  0  0  0  0  0
  149.3197  140.2726  154.8414 C   0  0  1  0  0  0  0  0  0  0  0  0
  150.1274  139.6391  153.8687 O   0  0  0  0  0  0  0  0  0  0  0  0
  148.9778  139.2469  155.9318 C   0  0  0  0  0  0  0  0  0  0  0  0
  148.5168  138.0479  155.3150 O   0  0  0  0  0  0  0  0  0  0  0  0
  149.2000  136.8757  155.5649 C   0  0  0  0  0  0  0  0  0  0  0  0
  148.7780  135.6930  154.9286 C   0  0  0  0  0  0  0  0  0  0  0  0
  149.4874  134.5092  155.2053 C   0  0  0  0  0  0  0  0  0  0  0  0
  149.0912  133.1969  154.5552 C   0  0  0  0  0  0  0  0  0  0  0  0
  150.5711  134.6037  156.1069 C   0  0  0  0  0  0  0  0  0  0  0  0
  151.4037  133.3923  156.4840 C   0  0  0  0  0  0  0  0  0  0  0  0
  150.9312  135.7725  156.6864 N   0  0  0  0  0  0  0  0  0  0  0  0
  150.2561  136.8949  156.4187 N   0  0  0  0  0  0  0  0  0  0  0  0
  151.2541  141.8603  157.6327 C   0  0  0  0  0  0  0  0  0  0  0  0
  150.7533  143.0517  158.1868 C   0  0  0  0  0  0  0  0  0  0  0  0
  151.2372  143.4961  159.4355 C   0  0  0  0  0  0  0  0  0  0  0  0
  150.6911  144.7837  160.0268 C   0  0  0  0  0  0  0  0  0  0  0  0
  153.5012  142.4971  161.8550 H   0  0  0  0  0  0  0  0  0  0  0  0
  151.9469  143.2528  162.1972 H   0  0  0  0  0  0  0  0  0  0  0  0
  153.2226  144.1730  161.3851 H   0  0  0  0  0  0  0  0  0  0  0  0
  153.4707  140.9693  160.0707 H   0  0  0  0  0  0  0  0  0  0  0  0
  151.8168  139.3547  155.7115 H   0  0  0  0  0  0  0  0  0  0  0  0
  149.3336  142.2247  155.8063 H   0  0  0  0  0  0  0  0  0  0  0  0
  150.5978  142.0176  154.6164 H   0  0  0  0  0  0  0  0  0  0  0  0
  148.4000  140.5877  154.3468 H   0  0  0  0  0  0  0  0  0  0  0  0
  149.6706  139.6559  153.0418 H   0  0  0  0  0  0  0  0  0  0  0  0
  149.8672  139.0238  156.5241 H   0  0  0  0  0  0  0  0  0  0  0  0
  148.2229  139.6594  156.6043 H   0  0  0  0  0  0  0  0  0  0  0  0
  147.9370  135.6993  154.2507 H   0  0  0  0  0  0  0  0  0  0  0  0
  149.9287  132.7804  153.9947 H   0  0  0  0  0  0  0  0  0  0  0  0
  148.2588  133.3349  153.8645 H   0  0  0  0  0  0  0  0  0  0  0  0
  148.7871  132.4734  155.3122 H   0  0  0  0  0  0  0  0  0  0  0  0
  150.7725  132.6161  156.9166 H   0  0  0  0  0  0  0  0  0  0  0  0
  152.1714  133.6469  157.2160 H   0  0  0  0  0  0  0  0  0  0  0  0
  151.9001  132.9840  155.6035 H   0  0  0  0  0  0  0  0  0  0  0  0
  150.0025  143.6170  157.6544 H   0  0  0  0  0  0  0  0  0  0  0  0
  149.9357  145.2305  159.3798 H   0  0  0  0  0  0  0  0  0  0  0  0
  151.4915  145.5118  160.1598 H   0  0  0  0  0  0  0  0  0  0  0  0
  150.2305  144.5937  160.9966 H   0  0  0  0  0  0  0  0  0  0  0  0
  1  2  1  0  0  0  0
  1 25  1  0  0  0  0
  1 26  1  0  0  0  0
  1 27  1  0  0  0  0
  2 23  1  0  0  0  0
  2  3  2  0  0  0  0
  3  4  1  0  0  0  0
  3 28  1  0  0  0  0
  4 21  2  0  0  0  0
  4  5  1  0  0  0  0
  5  6  2  0  0  0  0
  6  7  1  0  0  0  0
  6 29  1  0  0  0  0
  7  8  1  0  0  0  0
  7 21  1  0  0  0  0
  8  9  1  0  0  0  0
  8 30  1  0  0  0  0
  8 31  1  0  0  0  0
  9 10  1  0  0  0  0
  9 11  1  0  0  0  0
  9 32  1  0  0  0  0
 10 33  1  0  0  0  0
 11 12  1  0  0  0  0
 11 34  1  0  0  0  0
 11 35  1  0  0  0  0
 12 13  1  0  0  0  0
 13 20  1  0  0  0  0
 13 14  2  0  0  0  0
 14 15  1  0  0  0  0
 14 36  1  0  0  0  0
 15 16  1  0  0  0  0
 15 17  2  0  0  0  0
 16 37  1  0  0  0  0
 16 38  1  0  0  0  0
 16 39  1  0  0  0  0
 17 18  1  0  0  0  0
 17 19  1  0  0  0  0
 18 40  1  0  0  0  0
 18 41  1  0  0  0  0
 18 42  1  0  0  0  0
 19 20  2  0  0  0  0
 21 22  1  0  0  0  0
 22 23  2  0  0  0  0
 22 43  1  0  0  0  0
 23 24  1  0  0  0  0
 24 44  1  0  0  0  0
 24 45  1  0  0  0  0
 24 46  1  0  0  0  0
M  END
> <s_m_source_file>
AV-unprocessed.smi

> <i_m_source_file_index>
2658

> <i_lp_mmshare_version>
43012

> <i_f3d_flags>
0

> <s_epik_input>
W0NIM11jKFtjSF0xKWMoW0NIM10pW2NIXWMoYzEyKW4oW2NIXW4yKVtDSDJdW0NASF0oW09IXSlbQ0gyXU9jM1tjSF1jKFtDSDNdKWMoW0NIM10pbm4z

> <s_epik_cmdline>
J2VwaWtfcHl0aG9uJywgJy1waCcsICc3LjAnLCAnLXRuJywgJzgnLCAnLW1hJywgJzIwMCcsICctbWV0YWxfYmluZGluZycsICctaW1hZScsICc8aW5maWxlLm1hZT4nLCAnLW9tYWUnLCAnPG91dGZpbGUubWFlPic=

> <r_lp_tautomer_probability>
1

> <r_epik_Ionization_Penalty>
0.110663

> <r_epik_Ionization_Penalty_Charging>
0

> <r_epik_Ionization_Penalty_Neutral>
0.110663

> <r_epik_State_Penalty>
0.100267

> <r_epik_Charging_Adjusted_Penalty>
0.100267

> <i_epik_Tot_Q>
0

> <i_epik_Tot_abs_Q>
0

> <r_epik_Metal_State_Penalty>
0.0843924

> <b_epik_Metal_Only>
0

> <s_lp_Force_Field>
OPLS_2005

> <r_lp_Energy>
13.1317

> <b_lp_Chiralities_Consistent>
1

> <s_lp_Variant>
AV-unprocessed.smi:2658-2

> <Gold.Version>
5.8.1

> <Gold.Id.Protein>
6NUR|6NUR_protein|mol2

> <Gold.PLP.Fitness>
49.7681

> <Gold.PLP.PLP>
-42.6807

> <Gold.PLP.part.hbond>
-3.0000

> <Gold.PLP.part.metal>
0.0000

> <Gold.PLP.part.buried>
-5.0818

> <Gold.PLP.part.nonpolar>
-34.6115

> <Gold.PLP.part.repulsive>
0.0769

> <Gold.PLP.ligand.clash>
0.0000

> <Gold.PLP.ligand.torsion>
0.9600

> <Gold.PLP.Chemscore.Hbond>
2.9600

> <Gold.PLP.Chemscore.CHOScore>
0.0000

> <Gold.PLP.Chemscore.Metal>
0.0000

> <Gold.Chemscore.Hbonds>
donor molecule, donor type, donor heavy atom, donor atom, acceptor molecule, acceptor atom, score
      L1  H    10    33       P1  7957  1.00
      P1  H  7989  7998       L1    10  0.96
      P1  H  7997  8008       L1     5  1.00

> <Gold.PLP.Chemscore.Internal.Correction>
0.1274

> <Gold.Rescore>
     Score         DG    S(hbond)    S(metal)    S(lipo)     H(rot)  DE(clash)    DE(int)     intcor
     18.58     -19.58       2.03        0.00     115.08       2.40       0.12       0.89       ----

> <Gold.Chemscore.Fitness>
18.5804

> <Gold.Chemscore.DG>
-19.5849

> <Gold.Chemscore.ZeroCoef>
-5.4800

> <Gold.Chemscore.Hbond>
2.0300

> <Gold.Chemscore.Metal>
0.0000

> <Gold.Chemscore.Lipo>
115.0806

> <Gold.Chemscore.Internal_Hbond>
0.0000

> <Gold.Chemscore.DEClash>
0.1190

> <Gold.Chemscore.DEInternal>
0.8856

> <Gold.Chemscore.Rot>
2.3983

> <Gold.Chemscore.Internal.Correction>
   9.000000E+99

> <Gold.Chemscore.Hbonds>
donor molecule, donor type, donor heavy atom, donor atom, acceptor molecule, acceptor atom, score
      L1  H    10    33       P1  7957  0.95
      P1  H  7989  7998       L1    10  0.14
      P1  H  7997  8008       L1     5  0.24

> <Gold.Chemscore.Hbond.Weighted>
-6.7801

> <Gold.Chemscore.Metal.Weighted>
-0.0000

> <Gold.Chemscore.Lipo.Weighted>
-13.4644

> <Gold.Chemscore.Internal_Hbond.Weighted>
0.0000

> <Gold.Chemscore.DEClash.Weighted>
0.1190

> <Gold.Chemscore.DEInternal.Weighted>
0.8856

> <Gold.Chemscore.Rot.Weighted>
6.1397

> <Gold.Chemscore.Internal.Correction.Weighted>
   9.000000E+99

> <Gold.Protein.RotatedTorsions>
[ 6907 6896 6895 6894 ] final   79.04 input  -60.11 | X-H torsion
[ 7974 7965 7964 7962 ] final -165.65 input  175.53 | X-H torsion
[ 8008 7997 7996 7995 ] final  -65.26 input   59.86 | X-H torsion
[ 10167 10162 10161 10158 ] final   77.72 input  -65.29 | X-H torsion
[ 10718 10713 10712 10709 ] final   20.45 input   66.30 | X-H torsion
[ 10763 10752 10751 10750 ] final -150.37 input  -60.55 | X-H torsion
[ 11005 11000 10999 10996 ] final  -32.76 input  -57.11 | X-H torsion

> <Gold.Protein.ActiveResidues>
 VAL166  LYS551  ARG553  GLY616  TRP617  ASP618  TYR619  PRO620  LYS621  CYS622 
 ASP623  PHE694  ASN695  SER759  ASP760  ASP761  ALA762  ILE779  LEU786  VAL792 
 PHE793  MET794  SER795  GLU796  ALA797  LYS798  CYS799  TRP800  GLU811  SER814 

> <Gold.Protein.RotatedAtoms>
  152.5183  134.3573  159.9271 H   0  0  0  0  0  0  0  0  0  0  0  0  # atno 6907 bound_to 6896
  151.3524  133.3914  159.2689 H   0  0  0  0  0  0  0  0  0  0  0  0  # atno 6908 bound_to 6896
  150.9716  134.9107  159.7849 H   0  0  0  0  0  0  0  0  0  0  0  0  # atno 6909 bound_to 6896
  144.7264  140.2783  143.6240 H   0  0  0  0  0  0  0  0  0  0  0  0  # atno 7974 bound_to 7965
  154.4661  140.0937  156.7024 H   0  0  0  0  0  0  0  0  0  0  0  0  # atno 8008 bound_to 7997
  155.4854  140.3469  155.4328 H   0  0  0  0  0  0  0  0  0  0  0  0  # atno 8009 bound_to 7997
  156.0958  140.1409  156.9521 H   0  0  0  0  0  0  0  0  0  0  0  0  # atno 8010 bound_to 7997
  139.9786  144.5843  150.7921 H   0  0  0  0  0  0  0  0  0  0  0  0  # atno 10167 bound_to 10162
  157.1246  130.6564  149.5934 H   0  0  0  0  0  0  0  0  0  0  0  0  # atno 10718 bound_to 10713
  154.8123  135.3286  154.7273 H   0  0  0  0  0  0  0  0  0  0  0  0  # atno 10763 bound_to 10752
  153.7920  135.6910  153.4874 H   0  0  0  0  0  0  0  0  0  0  0  0  # atno 10764 bound_to 10752
  153.1911  135.4551  155.0096 H   0  0  0  0  0  0  0  0  0  0  0  0  # atno 10765 bound_to 10752
  140.9579  133.7182  156.1323 H   0  0  0  0  0  0  0  0  0  0  0  0  # atno 11005 bound_to 11000
  145.7975  139.1951  143.2067 LP  0  0  0  0  0  0  0  0  0  0  0  0  # atno 17320 bound_to 7965
  146.0704  140.7874  142.9690 LP  0  0  0  0  0  0  0  0  0  0  0  0  # atno 17321 bound_to 7965
  140.7497  143.2943  151.3246 LP  0  0  0  0  0  0  0  0  0  0  0  0  # atno 17342 bound_to 10162
  139.6427  144.0509  152.2567 LP  0  0  0  0  0  0  0  0  0  0  0  0  # atno 17343 bound_to 10162
  155.9821  130.4832  150.6862 LP  0  0  0  0  0  0  0  0  0  0  0  0  # atno 17370 bound_to 10713
  157.4446  131.0865  151.0909 LP  0  0  0  0  0  0  0  0  0  0  0  0  # atno 17371 bound_to 10713
  140.7509  134.4046  157.5541 LP  0  0  0  0  0  0  0  0  0  0  0  0  # atno 17394 bound_to 11000
  139.8868  134.8899  156.2563 LP  0  0  0  0  0  0  0  0  0  0  0  0  # atno 17395 bound_to 11000

$$$$
