AV-unprocessed.smi:1047|AV-procd|sdf|4583|dock10
  -GOLD-   22720 3 53D 1   1.00000     0.00000
 Structure written by MMmdl.
 58 60  0  0  0  0  0  0  0  0  4 V2000
  145.7138  132.3771  151.1015 C   0  0  0  0  0  0  0  0  0  0  0  0
  146.2441  133.3298  152.1826 C   0  0  0  0  0  0  0  0  0  0  0  0
  147.6702  133.0826  152.5138 N   0  3  2  0  0  0  0  0  0  0  0  0
  147.9254  131.7252  153.0554 C   0  0  0  0  0  0  0  0  0  0  0  0
  149.4218  131.5376  153.3505 C   0  0  0  0  0  0  0  0  0  0  0  0
  149.8581  132.5481  154.2506 O   0  0  0  0  0  0  0  0  0  0  0  0
  149.7192  133.8565  153.7090 C   0  0  2  0  0  0  0  0  0  0  0  0
  150.3125  134.8386  154.7332 C   0  0  0  0  0  0  0  0  0  0  0  0
  150.5198  136.1842  154.1584 N   0  3  0  0  0  0  0  0  0  0  0  0
  151.4269  137.0373  154.9526 C   0  0  0  0  0  0  0  0  0  0  0  0
  150.9156  138.4861  155.0441 C   0  0  2  0  0  0  0  0  0  0  0  0
  151.4266  139.1919  153.9320 O   0  0  0  0  0  0  0  0  0  0  0  0
  151.3397  139.1912  156.3499 C   0  0  0  0  0  0  0  0  0  0  0  0
  150.8946  140.5915  156.4187 N   0  0  0  0  0  0  0  0  0  0  0  0
  150.0195  141.2664  155.6236 C   0  0  0  0  0  0  0  0  0  0  0  0
  149.9281  142.5389  156.0990 N   0  3  0  0  0  0  0  0  0  0  0  0
  150.7558  142.6807  157.2147 C   0  0  0  0  0  0  0  0  0  0  0  0
  150.9979  143.7771  158.0337 C   0  0  0  0  0  0  0  0  0  0  0  0
  151.9087  143.5977  159.0991 C   0  0  0  0  0  0  0  0  0  0  0  0
  152.1964  144.7762  160.0139 C   0  0  0  0  0  0  0  0  0  0  0  0
  152.5443  142.3473  159.3131 C   0  0  0  0  0  0  0  0  0  0  0  0
  153.5252  142.1664  160.4591 C   0  0  0  0  0  0  0  0  0  0  0  0
  152.2838  141.2441  158.4692 C   0  0  0  0  0  0  0  0  0  0  0  0
  151.3812  141.4363  157.4252 C   0  0  0  0  0  0  0  0  0  0  0  0
  148.2234  134.1154  153.4242 C   0  0  0  0  0  0  0  0  0  0  0  0
  144.6967  132.6489  150.8181 H   0  0  0  0  0  0  0  0  0  0  0  0
  145.6847  131.3432  151.4450 H   0  0  0  0  0  0  0  0  0  0  0  0
  146.3281  132.4178  150.2014 H   0  0  0  0  0  0  0  0  0  0  0  0
  146.1376  134.3494  151.8098 H   0  0  0  0  0  0  0  0  0  0  0  0
  145.6327  133.2648  153.0840 H   0  0  0  0  0  0  0  0  0  0  0  0
  147.3451  131.5783  153.9677 H   0  0  0  0  0  0  0  0  0  0  0  0
  147.6039  130.9633  152.3460 H   0  0  0  0  0  0  0  0  0  0  0  0
  149.5955  130.5617  153.8043 H   0  0  0  0  0  0  0  0  0  0  0  0
  150.0094  131.5703  152.4315 H   0  0  0  0  0  0  0  0  0  0  0  0
  150.2943  133.9165  152.7828 H   0  0  0  0  0  0  0  0  0  0  0  0
  149.6701  134.9051  155.6124 H   0  0  0  0  0  0  0  0  0  0  0  0
  151.2782  134.4632  155.0749 H   0  0  0  0  0  0  0  0  0  0  0  0
  150.9083  136.0841  153.2313 H   0  0  0  0  0  0  0  0  0  0  0  0
  151.5518  136.6146  155.9508 H   0  0  0  0  0  0  0  0  0  0  0  0
  152.4090  137.0233  154.4768 H   0  0  0  0  0  0  0  0  0  0  0  0
  149.8279  138.4941  154.9603 H   0  0  0  0  0  0  0  0  0  0  0  0
  151.5624  138.5817  153.2227 H   0  0  0  0  0  0  0  0  0  0  0  0
  150.9059  138.6784  157.2092 H   0  0  0  0  0  0  0  0  0  0  0  0
  152.4203  139.1505  156.4886 H   0  0  0  0  0  0  0  0  0  0  0  0
  149.4898  140.8666  154.7708 H   0  0  0  0  0  0  0  0  0  0  0  0
  150.5113  144.7268  157.8639 H   0  0  0  0  0  0  0  0  0  0  0  0
  151.9173  144.5409  161.0412 H   0  0  0  0  0  0  0  0  0  0  0  0
  151.6371  145.6622  159.7117 H   0  0  0  0  0  0  0  0  0  0  0  0
  153.2568  145.0289  159.9914 H   0  0  0  0  0  0  0  0  0  0  0  0
  153.9123  141.1477  160.4966 H   0  0  0  0  0  0  0  0  0  0  0  0
  153.0419  142.3733  161.4143 H   0  0  0  0  0  0  0  0  0  0  0  0
  154.3742  142.8412  160.3466 H   0  0  0  0  0  0  0  0  0  0  0  0
  152.7735  140.2957  158.6327 H   0  0  0  0  0  0  0  0  0  0  0  0
  148.0975  135.1012  152.9746 H   0  0  0  0  0  0  0  0  0  0  0  0
  147.6564  134.1145  154.3567 H   0  0  0  0  0  0  0  0  0  0  0  0
  149.6257  136.6486  154.0895 H   0  0  0  0  0  0  0  0  0  0  0  0
  148.1844  133.1563  151.6473 H   0  0  0  0  0  0  0  0  0  0  0  0
  149.3411  143.2560  155.6918 H   0  0  0  0  0  0  0  0  0  0  0  0
  1  2  1  0  0  0  0
  1 26  1  0  0  0  0
  1 27  1  0  0  0  0
  1 28  1  0  0  0  0
  2  3  1  0  0  0  0
  2 29  1  0  0  0  0
  2 30  1  0  0  0  0
  3 25  1  0  0  0  0
  3  4  1  0  0  0  0
  3 57  1  0  0  0  0
  4  5  1  0  0  0  0
  4 31  1  0  0  0  0
  4 32  1  0  0  0  0
  5  6  1  0  0  0  0
  5 33  1  0  0  0  0
  5 34  1  0  0  0  0
  6  7  1  0  0  0  0
  7  8  1  0  0  0  0
  7 25  1  0  0  0  0
  7 35  1  0  0  0  0
  8  9  1  0  0  0  0
  8 36  1  0  0  0  0
  8 37  1  0  0  0  0
  9 10  1  0  0  0  0
  9 38  1  0  0  0  0
  9 56  1  0  0  0  0
 10 11  1  0  0  0  0
 10 39  1  0  0  0  0
 10 40  1  0  0  0  0
 11 12  1  0  0  0  0
 11 13  1  0  0  0  0
 11 41  1  0  0  0  0
 12 42  1  0  0  0  0
 13 14  1  0  0  0  0
 13 43  1  0  0  0  0
 13 44  1  0  0  0  0
 14 24  1  0  0  0  0
 14 15  1  0  0  0  0
 15 16  2  0  0  0  0
 15 45  1  0  0  0  0
 16 17  1  0  0  0  0
 16 58  1  0  0  0  0
 17 24  2  0  0  0  0
 17 18  1  0  0  0  0
 18 19  2  0  0  0  0
 18 46  1  0  0  0  0
 19 20  1  0  0  0  0
 19 21  1  0  0  0  0
 20 47  1  0  0  0  0
 20 48  1  0  0  0  0
 20 49  1  0  0  0  0
 21 22  1  0  0  0  0
 21 23  2  0  0  0  0
 22 50  1  0  0  0  0
 22 51  1  0  0  0  0
 22 52  1  0  0  0  0
 23 24  1  0  0  0  0
 23 53  1  0  0  0  0
 25 54  1  0  0  0  0
 25 55  1  0  0  0  0
M  CHG  1   3   1
M  CHG  1   9   1
M  CHG  1  16   1
M  END
> <s_m_source_file>
AV-unprocessed.smi

> <i_m_source_file_index>
1047

> <i_lp_mmshare_version>
43012

> <i_f3d_flags>
0

> <s_epik_input>
W0NIM11bQ0gyXU4xW0NIMl1bQ0gyXU9bQ0BIXShbQ0gyXTEpW0NIMl1bTkhdW0NIMl1bQ0BIXShbT0hdKVtDSDJdbihbY0hdbjIpYyhjMjMpW2NIXWMoW0NIM10pYyhbY0hdMylbQ0gzXQ==

> <s_epik_cmdline>
J2VwaWtfcHl0aG9uJywgJy1waCcsICc3LjAnLCAnLXRuJywgJzgnLCAnLW1hJywgJzIwMCcsICctbWV0YWxfYmluZGluZycsICctaW1hZScsICc8aW5maWxlLm1hZT4nLCAnLW9tYWUnLCAnPG91dGZpbGUubWFlPic=

> <r_epik_Ionization_Penalty>
1.6114

> <r_epik_Ionization_Penalty_Charging>
1.61139

> <r_epik_Ionization_Penalty_Neutral>
5.04732e-06

> <r_epik_State_Penalty>
1.63724

> <r_epik_Charging_Adjusted_Penalty>
3.24864

> <i_epik_Tot_Q>
3

> <i_epik_Tot_abs_Q>
3

> <r_epik_Metal_State_Penalty>
5.64594

> <b_epik_Metal_Only>
0

> <s_lp_Force_Field>
OPLS_2005

> <r_lp_Energy>
40.251

> <b_lp_Chiralities_Consistent>
1

> <s_lp_Variant>
AV-unprocessed.smi:1047-24

> <Gold.Version>
5.8.1

> <Gold.Id.Protein>
6NUR|6NUR_protein|mol2

> <Gold.PLP.Fitness>
60.5126

> <Gold.PLP.PLP>
-48.6702

> <Gold.PLP.part.hbond>
-4.0000

> <Gold.PLP.part.metal>
0.0000

> <Gold.PLP.part.buried>
-0.4835

> <Gold.PLP.part.nonpolar>
-43.7542

> <Gold.PLP.part.repulsive>
0.2516

> <Gold.PLP.ligand.clash>
0.0000

> <Gold.PLP.ligand.torsion>
0.9346

> <Gold.PLP.Chemscore.Hbond>
4.5331

> <Gold.PLP.Chemscore.CHOScore>
0.0000

> <Gold.PLP.Chemscore.Metal>
0.0000

> <Gold.Chemscore.Hbonds>
donor molecule, donor type, donor heavy atom, donor atom, acceptor molecule, acceptor atom, score
      L1  H     9    38       P1  7949  1.50
      L1  H     9    56       P1  7948  0.02
      L1  H    16    58       P1  8028  1.98
      P1  H  7989  7998       L1    12  0.98

> <Gold.PLP.Chemscore.Internal.Correction>
0.1123

> <Gold.Rescore>
     Score         DG    S(hbond)    S(metal)    S(lipo)     H(rot)  DE(clash)    DE(int)     intcor
     18.17     -21.03       1.84        0.00     141.44       2.78       1.93       0.92       ----

> <Gold.Chemscore.Fitness>
18.1736

> <Gold.Chemscore.DG>
-21.0295

> <Gold.Chemscore.ZeroCoef>
-5.4800

> <Gold.Chemscore.Hbond>
1.8352

> <Gold.Chemscore.Metal>
0.0000

> <Gold.Chemscore.Lipo>
141.4430

> <Gold.Chemscore.Internal_Hbond>
0.0000

> <Gold.Chemscore.DEClash>
1.9317

> <Gold.Chemscore.DEInternal>
0.9241

> <Gold.Chemscore.Rot>
2.7848

> <Gold.Chemscore.Internal.Correction>
   9.000000E+99

> <Gold.Chemscore.Hbonds>
donor molecule, donor type, donor heavy atom, donor atom, acceptor molecule, acceptor atom, score
      L1  H     9    38       P1  7949  0.09
      L1  H     9    56       P1  7948  0.02
      L1  H    16    58       P1  8028  0.87
      P1  H  7989  7998       L1    12  0.80

> <Gold.Chemscore.Hbond.Weighted>
-6.1297

> <Gold.Chemscore.Metal.Weighted>
-0.0000

> <Gold.Chemscore.Lipo.Weighted>
-16.5488

> <Gold.Chemscore.Internal_Hbond.Weighted>
0.0000

> <Gold.Chemscore.DEClash.Weighted>
1.9317

> <Gold.Chemscore.DEInternal.Weighted>
0.9241

> <Gold.Chemscore.Rot.Weighted>
7.1291

> <Gold.Chemscore.Internal.Correction.Weighted>
   9.000000E+99

> <Gold.Protein.RotatedTorsions>
[ 6907 6896 6895 6894 ] final -160.98 input  -60.11 | X-H torsion
[ 7974 7965 7964 7962 ] final   89.85 input  175.53 | X-H torsion
[ 8008 7997 7996 7995 ] final  116.30 input   59.86 | X-H torsion
[ 10167 10162 10161 10158 ] final   41.02 input  -65.29 | X-H torsion
[ 10718 10713 10712 10709 ] final  -16.73 input   66.30 | X-H torsion
[ 10763 10752 10751 10750 ] final   41.16 input  -60.55 | X-H torsion
[ 11005 11000 10999 10996 ] final  164.19 input  -57.11 | X-H torsion

> <Gold.Protein.ActiveResidues>
 VAL166  LYS551  ARG553  GLY616  TRP617  ASP618  TYR619  PRO620  LYS621  CYS622 
 ASP623  PHE694  ASN695  SER759  ASP760  ASP761  ALA762  ILE779  LEU786  VAL792 
 PHE793  MET794  SER795  GLU796  ALA797  LYS798  CYS799  TRP800  GLU811  SER814 

> <Gold.Protein.RotatedAtoms>
  151.3575  133.3902  159.2686 H   0  0  0  0  0  0  0  0  0  0  0  0  # atno 6907 bound_to 6896
  150.9752  134.9119  159.7822 H   0  0  0  0  0  0  0  0  0  0  0  0  # atno 6908 bound_to 6896
  152.5198  134.3537  159.9312 H   0  0  0  0  0  0  0  0  0  0  0  0  # atno 6909 bound_to 6896
  145.5268  139.2281  143.2641 H   0  0  0  0  0  0  0  0  0  0  0  0  # atno 7974 bound_to 7965
  156.2431  140.2920  156.0502 H   0  0  0  0  0  0  0  0  0  0  0  0  # atno 8008 bound_to 7997
  155.1890  140.0406  157.2914 H   0  0  0  0  0  0  0  0  0  0  0  0  # atno 8009 bound_to 7997
  154.6207  140.2475  155.7559 H   0  0  0  0  0  0  0  0  0  0  0  0  # atno 8010 bound_to 7997
  140.3684  144.2137  150.6134 H   0  0  0  0  0  0  0  0  0  0  0  0  # atno 10167 bound_to 10162
  156.5834  130.4780  149.6310 H   0  0  0  0  0  0  0  0  0  0  0  0  # atno 10718 bound_to 10713
  152.9916  135.6170  154.2743 H   0  0  0  0  0  0  0  0  0  0  0  0  # atno 10763 bound_to 10752
  154.2475  135.2786  155.2831 H   0  0  0  0  0  0  0  0  0  0  0  0  # atno 10764 bound_to 10752
  154.5317  135.5786  153.6822 H   0  0  0  0  0  0  0  0  0  0  0  0  # atno 10765 bound_to 10752
  140.2434  134.8033  157.3433 H   0  0  0  0  0  0  0  0  0  0  0  0  # atno 11005 bound_to 11000
  146.2070  140.6083  142.9077 LP  0  0  0  0  0  0  0  0  0  0  0  0  # atno 17320 bound_to 7965
  144.7647  140.5502  143.6711 LP  0  0  0  0  0  0  0  0  0  0  0  0  # atno 17321 bound_to 7965
  140.5057  143.2305  151.8611 LP  0  0  0  0  0  0  0  0  0  0  0  0  # atno 17342 bound_to 10162
  139.4806  144.5008  151.9063 LP  0  0  0  0  0  0  0  0  0  0  0  0  # atno 17343 bound_to 10162
  156.2611  130.6963  151.1732 LP  0  0  0  0  0  0  0  0  0  0  0  0  # atno 17370 bound_to 10713
  157.7321  131.0602  150.5645 LP  0  0  0  0  0  0  0  0  0  0  0  0  # atno 17371 bound_to 10713
  140.1630  134.4704  155.7881 LP  0  0  0  0  0  0  0  0  0  0  0  0  # atno 17394 bound_to 11000
  141.2208  133.6909  156.7577 LP  0  0  0  0  0  0  0  0  0  0  0  0  # atno 17395 bound_to 11000

$$$$
