AV-unprocessed.smi:104|AV-procd|sdf|1007|dock7
  -GOLD-   2262018 03D 1   1.00000     0.00000
 Structure written by MMmdl.
 47 49  0  0  0  0  0  0  0  0  1 V2000
  152.2909  144.1736  159.9971 C   0  0  0  0  0  0  0  0  0  0  0  0
  152.6079  142.7609  160.4688 C   0  0  0  0  0  0  0  0  0  0  0  0
  153.5520  142.5324  161.2253 O   0  0  0  0  0  0  0  0  0  0  0  0
  151.7537  141.8527  159.9723 O   0  0  0  0  0  0  0  0  0  0  0  0
  152.1912  140.5221  159.7493 C   0  0  0  0  0  0  0  0  0  0  0  0
  152.7927  140.4149  158.3368 C   0  0  2  0  0  0  0  0  0  0  0  0
  151.9414  141.1362  157.4423 O   0  0  0  0  0  0  0  0  0  0  0  0
  151.3613  140.2779  156.5070 C   0  0  2  0  0  0  0  0  0  0  0  0
  149.9351  140.6736  156.2719 N   0  0  0  0  0  0  0  0  0  0  0  0
  149.1952  141.6208  156.9406 C   0  0  0  0  0  0  0  0  0  0  0  0
  149.9239  142.6447  158.3709 Br  0  0  0  0  0  0  0  0  0  0  0  0
  147.9703  141.8155  156.5405 N   0  0  0  0  0  0  0  0  0  0  0  0
  147.8510  140.9243  155.4814 C   0  0  0  0  0  0  0  0  0  0  0  0
  146.8071  140.6063  154.5764 C   0  0  0  0  0  0  0  0  0  0  0  0
  145.6036  141.1947  154.6129 N   0  0  0  0  0  0  0  0  0  0  0  0
  147.0354  139.6684  153.6276 N   0  0  0  0  0  0  0  0  0  0  0  0
  148.2285  139.0691  153.5675 C   0  0  0  0  0  0  0  0  0  0  0  0
  149.2971  139.2588  154.3447 N   0  0  0  0  0  0  0  0  0  0  0  0
  149.0685  140.2033  155.3032 C   0  0  0  0  0  0  0  0  0  0  0  0
  151.5051  138.8513  157.0496 C   0  0  2  0  0  0  0  0  0  0  0  0
  150.4477  138.5234  157.9514 O   0  0  0  0  0  0  0  0  0  0  0  0
  150.3314  137.2840  158.4588 C   0  0  0  0  0  0  0  0  0  0  0  0
  149.0496  137.1073  159.2609 C   0  0  0  0  0  0  0  0  0  0  0  0
  151.1259  136.3572  158.3029 O   0  0  0  0  0  0  0  0  0  0  0  0
  152.8332  138.9841  157.7699 C   0  0  2  0  0  0  0  0  0  0  0  0
  153.0219  137.9471  158.7269 O   0  0  0  0  0  0  0  0  0  0  0  0
  154.0024  138.0408  159.6408 C   0  0  0  0  0  0  0  0  0  0  0  0
  153.9520  136.9132  160.6628 C   0  0  0  0  0  0  0  0  0  0  0  0
  154.8617  138.9204  159.6938 O   0  0  0  0  0  0  0  0  0  0  0  0
  151.3438  144.5088  160.4199 H   0  0  0  0  0  0  0  0  0  0  0  0
  152.2162  144.2032  158.9100 H   0  0  0  0  0  0  0  0  0  0  0  0
  153.0729  144.8665  160.3085 H   0  0  0  0  0  0  0  0  0  0  0  0
  152.9402  140.2801  160.5036 H   0  0  0  0  0  0  0  0  0  0  0  0
  151.3716  139.8135  159.8697 H   0  0  0  0  0  0  0  0  0  0  0  0
  153.7951  140.8440  158.3316 H   0  0  0  0  0  0  0  0  0  0  0  0
  151.8614  140.4156  155.5479 H   0  0  0  0  0  0  0  0  0  0  0  0
  145.4093  141.9002  155.3090 H   0  0  0  0  0  0  0  0  0  0  0  0
  144.8932  140.9311  153.9454 H   0  0  0  0  0  0  0  0  0  0  0  0
  148.3449  138.3323  152.7863 H   0  0  0  0  0  0  0  0  0  0  0  0
  151.5722  138.1420  156.2235 H   0  0  0  0  0  0  0  0  0  0  0  0
  148.8277  138.0090  159.8320 H   0  0  0  0  0  0  0  0  0  0  0  0
  149.1454  136.2736  159.9568 H   0  0  0  0  0  0  0  0  0  0  0  0
  148.2134  136.9063  158.5912 H   0  0  0  0  0  0  0  0  0  0  0  0
  153.6171  138.9337  157.0118 H   0  0  0  0  0  0  0  0  0  0  0  0
  154.1444  135.9557  160.1789 H   0  0  0  0  0  0  0  0  0  0  0  0
  152.9705  136.8729  161.1354 H   0  0  0  0  0  0  0  0  0  0  0  0
  154.7022  137.0659  161.4388 H   0  0  0  0  0  0  0  0  0  0  0  0
  1  2  1  0  0  0  0
  1 30  1  0  0  0  0
  1 31  1  0  0  0  0
  1 32  1  0  0  0  0
  2  3  2  0  0  0  0
  2  4  1  0  0  0  0
  4  5  1  0  0  0  0
  5  6  1  0  0  0  0
  5 33  1  0  0  0  0
  5 34  1  0  0  0  0
  6 25  1  0  0  0  0
  6  7  1  0  0  0  0
  6 35  1  0  0  0  0
  7  8  1  0  0  0  0
  8  9  1  0  0  0  0
  8 20  1  0  0  0  0
  8 36  1  0  0  0  0
  9 19  1  0  0  0  0
  9 10  1  0  0  0  0
 10 11  1  0  0  0  0
 10 12  2  0  0  0  0
 12 13  1  0  0  0  0
 13 19  2  0  0  0  0
 13 14  1  0  0  0  0
 14 15  1  0  0  0  0
 14 16  2  0  0  0  0
 15 37  1  0  0  0  0
 15 38  1  0  0  0  0
 16 17  1  0  0  0  0
 17 18  2  0  0  0  0
 17 39  1  0  0  0  0
 18 19  1  0  0  0  0
 20 21  1  0  0  0  0
 20 25  1  0  0  0  0
 20 40  1  0  0  0  0
 21 22  1  0  0  0  0
 22 23  1  0  0  0  0
 22 24  2  0  0  0  0
 23 41  1  0  0  0  0
 23 42  1  0  0  0  0
 23 43  1  0  0  0  0
 25 26  1  0  0  0  0
 25 44  1  0  0  0  0
 26 27  1  0  0  0  0
 27 28  1  0  0  0  0
 27 29  2  0  0  0  0
 28 45  1  0  0  0  0
 28 46  1  0  0  0  0
 28 47  1  0  0  0  0
M  END
> <s_m_source_file>
AV-unprocessed.smi

> <i_m_source_file_index>
104

> <i_lp_mmshare_version>
43012

> <i_f3d_flags>
0

> <s_epik_input>
W0NIM11DKD1PKU9bQ0gyXVtDQEBIXTFPW0NASF0oW0NAQEhdKE9DKD1PKVtDSDNdKVtDQEhdMU9DKD1PKVtDSDNdKW4oYyhCciluMiljKGMyMyluW2NIXW5jM1tOSDJd

> <s_epik_cmdline>
J2VwaWtfcHl0aG9uJywgJy1waCcsICc3LjAnLCAnLXRuJywgJzgnLCAnLW1hJywgJzIwMCcsICctbWV0YWxfYmluZGluZycsICctaW1hZScsICc8aW5maWxlLm1hZT4nLCAnLW9tYWUnLCAnPG91dGZpbGUubWFlPic=

> <r_lp_tautomer_probability>
1

> <r_epik_Ionization_Penalty>
7.36622e-05

> <r_epik_Ionization_Penalty_Charging>
0

> <r_epik_Ionization_Penalty_Neutral>
7.36622e-05

> <r_epik_State_Penalty>
-0

> <r_epik_Charging_Adjusted_Penalty>
0

> <i_epik_Tot_Q>
0

> <i_epik_Tot_abs_Q>
0

> <r_epik_Metal_State_Penalty>
-0

> <b_epik_Metal_Only>
0

> <s_epik_Chemistry_Notes>
This compound has an ester and may undergo hydrolysis at high or low pH. This compound contains an acetal/aminal-like group ( X-CH(R)-Y where X, Y are N, S, or O) that may be acid/base labile, releasing an aldehyde.

> <s_lp_Force_Field>
OPLS_2005

> <r_lp_Energy>
19.209

> <b_lp_Chiralities_Consistent>
1

> <s_lp_Variant>
AV-unprocessed.smi:104-15

> <Gold.Version>
5.8.1

> <Gold.Id.Protein>
6NUR|6NUR_protein|mol2

> <Gold.PLP.Fitness>
39.8176

> <Gold.PLP.PLP>
-32.7157

> <Gold.PLP.part.hbond>
-2.8812

> <Gold.PLP.part.metal>
0.0000

> <Gold.PLP.part.buried>
-2.7598

> <Gold.PLP.part.nonpolar>
-26.9399

> <Gold.PLP.part.repulsive>
1.0690

> <Gold.PLP.ligand.clash>
0.0000

> <Gold.PLP.ligand.torsion>
1.0636

> <Gold.PLP.Chemscore.Hbond>
1.7200

> <Gold.PLP.Chemscore.CHOScore>
1.2536

> <Gold.PLP.Chemscore.Metal>
0.0000

> <Gold.Chemscore.Hbonds>
donor molecule, donor type, donor heavy atom, donor atom, acceptor molecule, acceptor atom, score
      L1  H    15    38       P1 10175  1.00
      P1  H  6896  6909       L1    24  0.64
      L1  C    17    39       P1  7948  1.00
      L1  C    17    39       P1  7957  0.19

> <Gold.PLP.Chemscore.Internal.Correction>
0.3081

> <Gold.Rescore>
     Score         DG    S(hbond)    S(metal)    S(lipo)     H(rot)  DE(clash)    DE(int)     intcor
     -0.08      -6.83       1.76        0.00      55.47       4.31       0.11       6.79       ----

> <Gold.Chemscore.Fitness>
-0.0807

> <Gold.Chemscore.DG>
-6.8251

> <Gold.Chemscore.ZeroCoef>
-5.4800

> <Gold.Chemscore.Hbond>
1.7608

> <Gold.Chemscore.Metal>
0.0000

> <Gold.Chemscore.Lipo>
55.4685

> <Gold.Chemscore.Internal_Hbond>
0.0000

> <Gold.Chemscore.DEClash>
0.1138

> <Gold.Chemscore.DEInternal>
6.7920

> <Gold.Chemscore.Rot>
4.3070

> <Gold.Chemscore.Internal.Correction>
   9.000000E+99

> <Gold.Chemscore.Hbonds>
donor molecule, donor type, donor heavy atom, donor atom, acceptor molecule, acceptor atom, score
      L1  H    15    38       P1 10175  0.90
      P1  H  6896  6909       L1    24  0.53

> <Gold.Chemscore.Hbond.Weighted>
-5.8812

> <Gold.Chemscore.Metal.Weighted>
-0.0000

> <Gold.Chemscore.Lipo.Weighted>
-6.4898

> <Gold.Chemscore.Internal_Hbond.Weighted>
0.0000

> <Gold.Chemscore.DEClash.Weighted>
0.1138

> <Gold.Chemscore.DEInternal.Weighted>
6.7920

> <Gold.Chemscore.Rot.Weighted>
11.0259

> <Gold.Chemscore.Internal.Correction.Weighted>
   9.000000E+99

> <Gold.Protein.RotatedTorsions>
[ 6907 6896 6895 6894 ] final   92.26 input  -60.11 | X-H torsion
[ 7974 7965 7964 7962 ] final  130.09 input  175.53 | X-H torsion
[ 8008 7997 7996 7995 ] final  -49.57 input   59.86 | X-H torsion
[ 10167 10162 10161 10158 ] final -164.00 input  -65.29 | X-H torsion
[ 10718 10713 10712 10709 ] final  -86.01 input   66.30 | X-H torsion
[ 10763 10752 10751 10750 ] final -105.29 input  -60.55 | X-H torsion
[ 11005 11000 10999 10996 ] final  -47.10 input  -57.11 | X-H torsion

> <Gold.Protein.ActiveResidues>
 VAL166  LYS551  ARG553  GLY616  TRP617  ASP618  TYR619  PRO620  LYS621  CYS622 
 ASP623  PHE694  ASN695  SER759  ASP760  ASP761  ALA762  ILE779  LEU786  VAL792 
 PHE793  MET794  SER795  GLU796  ALA797  LYS798  CYS799  TRP800  GLU811  SER814 

> <Gold.Protein.RotatedAtoms>
  152.5452  134.1530  159.8526 H   0  0  0  0  0  0  0  0  0  0  0  0  # atno 6907 bound_to 6896
  151.1555  133.4872  159.2602 H   0  0  0  0  0  0  0  0  0  0  0  0  # atno 6908 bound_to 6896
  151.1427  135.0198  159.8688 H   0  0  0  0  0  0  0  0  0  0  0  0  # atno 6909 bound_to 6896
  145.0217  139.4126  143.5194 H   0  0  0  0  0  0  0  0  0  0  0  0  # atno 7974 bound_to 7965
  154.4046  140.1293  156.4524 H   0  0  0  0  0  0  0  0  0  0  0  0  # atno 8008 bound_to 7997
  155.7353  140.3490  155.5059 H   0  0  0  0  0  0  0  0  0  0  0  0  # atno 8009 bound_to 7997
  155.9089  140.1032  157.1284 H   0  0  0  0  0  0  0  0  0  0  0  0  # atno 8010 bound_to 7997
  139.6281  144.0493  152.1992 H   0  0  0  0  0  0  0  0  0  0  0  0  # atno 10167 bound_to 10162
  155.9992  130.4750  150.4649 H   0  0  0  0  0  0  0  0  0  0  0  0  # atno 10718 bound_to 10713
  154.7936  135.4754  154.0110 H   0  0  0  0  0  0  0  0  0  0  0  0  # atno 10763 bound_to 10752
  153.1669  135.6818  153.8669 H   0  0  0  0  0  0  0  0  0  0  0  0  # atno 10764 bound_to 10752
  153.8264  135.3197  155.3393 H   0  0  0  0  0  0  0  0  0  0  0  0  # atno 10765 bound_to 10752
  141.0620  133.6706  156.3249 H   0  0  0  0  0  0  0  0  0  0  0  0  # atno 11005 bound_to 11000
  146.3486  139.9718  142.8705 LP  0  0  0  0  0  0  0  0  0  0  0  0  # atno 17320 bound_to 7965
  145.1887  140.9801  143.4223 LP  0  0  0  0  0  0  0  0  0  0  0  0  # atno 17321 bound_to 7965
  140.0151  144.6195  150.7614 LP  0  0  0  0  0  0  0  0  0  0  0  0  # atno 17342 bound_to 10162
  140.7423  143.2830  151.3544 LP  0  0  0  0  0  0  0  0  0  0  0  0  # atno 17343 bound_to 10162
  157.2670  131.0579  151.2284 LP  0  0  0  0  0  0  0  0  0  0  0  0  # atno 17370 bound_to 10713
  157.3378  130.7018  149.6363 LP  0  0  0  0  0  0  0  0  0  0  0  0  # atno 17371 bound_to 10713
  140.5850  134.5708  157.5487 LP  0  0  0  0  0  0  0  0  0  0  0  0  # atno 17394 bound_to 11000
  139.9441  134.7733  156.0605 LP  0  0  0  0  0  0  0  0  0  0  0  0  # atno 17395 bound_to 11000

$$$$
