AV-unprocessed.smi:625|AV-procd|sdf|3105|dock6
  -GOLD-   22720 0 23D 1   1.00000     0.00000
 Structure written by MMmdl.
 49 51  0  0  0  0  0  0  0  0  1 V2000
  153.2073  141.8446  160.3922 C   0  0  0  0  0  0  0  0  0  0  0  0
  152.3987  141.7162  159.1899 N   0  0  0  0  0  0  0  0  0  0  0  0
  152.5177  140.7247  158.2894 C   0  0  0  0  0  0  0  0  0  0  0  0
  153.3564  139.8321  158.4183 O   0  0  0  0  0  0  0  0  0  0  0  0
  151.5634  140.8043  157.1799 C   0  0  0  0  0  0  0  0  0  0  0  0
  150.4046  141.6676  157.2970 C   0  0  0  0  0  0  0  0  0  0  0  0
  149.5343  141.7957  156.2758 C   0  0  0  0  0  0  0  0  0  0  0  0
  149.7152  141.0746  155.0119 C   0  0  0  0  0  0  0  0  0  0  0  0
  148.9378  141.2097  154.0673 O   0  0  0  0  0  0  0  0  0  0  0  0
  150.8025  140.2478  154.9524 N   0  0  0  0  0  0  0  0  0  0  0  0
  151.1317  139.4912  153.7339 C   0  0  0  0  0  0  0  0  0  0  0  0
  151.5088  138.0469  154.0791 C   0  0  0  0  0  0  0  0  0  0  0  0
  152.6719  137.6626  153.9557 O   0  0  0  0  0  0  0  0  0  0  0  0
  150.5121  137.2741  154.5372 N   0  0  0  0  0  0  0  0  0  0  0  0
  150.6565  135.9373  155.1096 C   0  0  2  0  0  0  0  0  0  0  0  0
  151.9417  135.9041  155.9527 C   0  0  0  0  0  0  0  0  0  0  0  0
  150.6556  134.8928  153.9637 C   0  0  2  0  0  0  0  0  0  0  0  0
  149.3576  134.8857  153.1134 C   0  0  0  0  0  0  0  0  0  0  0  0
  148.9211  133.4119  153.1405 C   0  0  1  0  0  0  0  0  0  0  0  0
  149.9141  132.5636  152.3260 C   0  0  0  0  0  0  0  0  0  0  0  0
  151.1594  132.5397  153.2323 C   0  0  0  0  0  0  0  0  0  0  0  0
  150.7306  133.4157  154.4257 C   0  0  2  0  0  0  0  0  0  0  0  0
  149.2633  133.0236  154.5725 C   0  0  0  0  0  0  0  0  0  0  0  0
  151.7094  140.1214  156.0241 C   0  0  0  0  0  0  0  0  0  0  0  0
  152.8975  142.7256  160.9542 H   0  0  0  0  0  0  0  0  0  0  0  0
  154.2631  141.9529  160.1404 H   0  0  0  0  0  0  0  0  0  0  0  0
  153.0888  140.9714  161.0349 H   0  0  0  0  0  0  0  0  0  0  0  0
  151.6900  142.4184  159.0349 H   0  0  0  0  0  0  0  0  0  0  0  0
  150.2255  142.2219  158.2072 H   0  0  0  0  0  0  0  0  0  0  0  0
  148.6806  142.4477  156.3892 H   0  0  0  0  0  0  0  0  0  0  0  0
  150.2736  139.5069  153.0593 H   0  0  0  0  0  0  0  0  0  0  0  0
  151.9503  139.9401  153.1695 H   0  0  0  0  0  0  0  0  0  0  0  0
  149.5885  137.6801  154.5775 H   0  0  0  0  0  0  0  0  0  0  0  0
  149.8176  135.7229  155.7734 H   0  0  0  0  0  0  0  0  0  0  0  0
  152.0646  134.9512  156.4662 H   0  0  0  0  0  0  0  0  0  0  0  0
  151.9248  136.6796  156.7193 H   0  0  0  0  0  0  0  0  0  0  0  0
  152.8262  136.0673  155.3360 H   0  0  0  0  0  0  0  0  0  0  0  0
  151.5056  135.1121  153.3153 H   0  0  0  0  0  0  0  0  0  0  0  0
  148.5754  135.5002  153.5610 H   0  0  0  0  0  0  0  0  0  0  0  0
  149.5235  135.2528  152.1001 H   0  0  0  0  0  0  0  0  0  0  0  0
  147.8790  133.2603  152.8576 H   0  0  0  0  0  0  0  0  0  0  0  0
  149.5312  131.5536  152.1737 H   0  0  0  0  0  0  0  0  0  0  0  0
  150.1190  132.9967  151.3462 H   0  0  0  0  0  0  0  0  0  0  0  0
  151.3732  131.5212  153.5592 H   0  0  0  0  0  0  0  0  0  0  0  0
  152.0495  132.9204  152.7297 H   0  0  0  0  0  0  0  0  0  0  0  0
  151.3378  133.2451  155.3138 H   0  0  0  0  0  0  0  0  0  0  0  0
  148.7268  133.6092  155.3208 H   0  0  0  0  0  0  0  0  0  0  0  0
  149.1175  131.9618  154.7791 H   0  0  0  0  0  0  0  0  0  0  0  0
  152.5311  139.4507  155.8155 H   0  0  0  0  0  0  0  0  0  0  0  0
  1  2  1  0  0  0  0
  1 25  1  0  0  0  0
  1 26  1  0  0  0  0
  1 27  1  0  0  0  0
  2  3  1  0  0  0  0
  2 28  1  0  0  0  0
  3  4  2  0  0  0  0
  3  5  1  0  0  0  0
  5 24  2  0  0  0  0
  5  6  1  0  0  0  0
  6  7  2  0  0  0  0
  6 29  1  0  0  0  0
  7  8  1  0  0  0  0
  7 30  1  0  0  0  0
  8  9  2  0  0  0  0
  8 10  1  0  0  0  0
 10 11  1  0  0  0  0
 10 24  1  0  0  0  0
 11 12  1  0  0  0  0
 11 31  1  0  0  0  0
 11 32  1  0  0  0  0
 12 13  2  0  0  0  0
 12 14  1  0  0  0  0
 14 15  1  0  0  0  0
 14 33  1  0  0  0  0
 15 16  1  0  0  0  0
 15 17  1  0  0  0  0
 15 34  1  0  0  0  0
 16 35  1  0  0  0  0
 16 36  1  0  0  0  0
 16 37  1  0  0  0  0
 17 22  1  0  0  0  0
 17 18  1  0  0  0  0
 17 38  1  0  0  0  0
 18 19  1  0  0  0  0
 18 39  1  0  0  0  0
 18 40  1  0  0  0  0
 19 23  1  0  0  0  0
 19 20  1  0  0  0  0
 19 41  1  0  0  0  0
 20 21  1  0  0  0  0
 20 42  1  0  0  0  0
 20 43  1  0  0  0  0
 21 22  1  0  0  0  0
 21 44  1  0  0  0  0
 21 45  1  0  0  0  0
 22 23  1  0  0  0  0
 22 46  1  0  0  0  0
 23 47  1  0  0  0  0
 23 48  1  0  0  0  0
 24 49  1  0  0  0  0
M  END
> <s_m_source_file>
AV-unprocessed.smi

> <i_m_source_file_index>
625

> <i_lp_mmshare_version>
43012

> <i_f3d_flags>
0

> <s_epik_input>
W0NIM11bTkhdQyg9TyljMVtjSF1bY0hdYyg9TyluKFtjSF0xKVtDSDJdQyg9TylbTkhdW0NASF0oW0NIM10pW0NASF0oW0NIMl1bQ0BIXTIzKVtDQEhdKFtDSDJdMylbQ0gyXVtDSDJdMg==

> <s_epik_cmdline>
J2VwaWtfcHl0aG9uJywgJy1waCcsICc3LjAnLCAnLXRuJywgJzgnLCAnLW1hJywgJzIwMCcsICctbWV0YWxfYmluZGluZycsICctaW1hZScsICc8aW5maWxlLm1hZT4nLCAnLW9tYWUnLCAnPG91dGZpbGUubWFlPic=

> <r_lp_tautomer_probability>
1

> <r_epik_Ionization_Penalty>
3.7129e-07

> <r_epik_Ionization_Penalty_Charging>
5.04114e-08

> <r_epik_Ionization_Penalty_Neutral>
3.20879e-07

> <r_epik_State_Penalty>
-0

> <r_epik_Charging_Adjusted_Penalty>
5.04114e-08

> <i_epik_Tot_Q>
0

> <i_epik_Tot_abs_Q>
0

> <r_epik_Metal_State_Penalty>
-0

> <b_epik_Metal_Only>
0

> <s_lp_Force_Field>
OPLS_2005

> <r_lp_Energy>
64.2087

> <b_lp_Chiralities_Consistent>
1

> <s_lp_Variant>
AV-unprocessed.smi:625-5

> <Gold.Version>
5.8.1

> <Gold.Id.Protein>
6NUR|6NUR_protein|mol2

> <Gold.PLP.Fitness>
42.3887

> <Gold.PLP.PLP>
-37.8443

> <Gold.PLP.part.hbond>
-1.9047

> <Gold.PLP.part.metal>
0.0000

> <Gold.PLP.part.buried>
-3.1301

> <Gold.PLP.part.nonpolar>
-32.7479

> <Gold.PLP.part.repulsive>
0.3898

> <Gold.PLP.ligand.clash>
0.0019

> <Gold.PLP.ligand.torsion>
0.7142

> <Gold.PLP.Chemscore.Hbond>
1.9760

> <Gold.PLP.Chemscore.CHOScore>
0.0000

> <Gold.PLP.Chemscore.Metal>
0.0000

> <Gold.Chemscore.Hbonds>
donor molecule, donor type, donor heavy atom, donor atom, acceptor molecule, acceptor atom, score
      P1  H  7997  8008       L1     4  1.00
      P1  H  8011  8017       L1     9  0.29
      P1  H 10752 10765       L1    13  0.41

> <Gold.PLP.Chemscore.Internal.Correction>
0.0468

> <Gold.Rescore>
     Score         DG    S(hbond)    S(metal)    S(lipo)     H(rot)  DE(clash)    DE(int)     intcor
     15.00     -16.99       1.89        0.00      80.87       1.67       0.06       1.93       ----

> <Gold.Chemscore.Fitness>
15.0009

> <Gold.Chemscore.DG>
-16.9908

> <Gold.Chemscore.ZeroCoef>
-5.4800

> <Gold.Chemscore.Hbond>
1.8942

> <Gold.Chemscore.Metal>
0.0000

> <Gold.Chemscore.Lipo>
80.8674

> <Gold.Chemscore.Internal_Hbond>
0.0000

> <Gold.Chemscore.DEClash>
0.0606

> <Gold.Chemscore.DEInternal>
1.9293

> <Gold.Chemscore.Rot>
1.6709

> <Gold.Chemscore.Internal.Correction>
   9.000000E+99

> <Gold.Chemscore.Hbonds>
donor molecule, donor type, donor heavy atom, donor atom, acceptor molecule, acceptor atom, score
      P1  H  7997  8008       L1     4  0.76
      P1  H  8011  8017       L1     9  0.26
      P1  H 10752 10765       L1    13  0.35

> <Gold.Chemscore.Hbond.Weighted>
-6.3267

> <Gold.Chemscore.Metal.Weighted>
-0.0000

> <Gold.Chemscore.Lipo.Weighted>
-9.4615

> <Gold.Chemscore.Internal_Hbond.Weighted>
0.0000

> <Gold.Chemscore.DEClash.Weighted>
0.0606

> <Gold.Chemscore.DEInternal.Weighted>
1.9293

> <Gold.Chemscore.Rot.Weighted>
4.2774

> <Gold.Chemscore.Internal.Correction.Weighted>
   9.000000E+99

> <Gold.Protein.RotatedTorsions>
[ 6907 6896 6895 6894 ] final  -30.93 input  -60.11 | X-H torsion
[ 7974 7965 7964 7962 ] final   -5.09 input  175.53 | X-H torsion
[ 8008 7997 7996 7995 ] final  -99.90 input   59.86 | X-H torsion
[ 10167 10162 10161 10158 ] final  140.37 input  -65.29 | X-H torsion
[ 10718 10713 10712 10709 ] final -140.62 input   66.30 | X-H torsion
[ 10763 10752 10751 10750 ] final  169.70 input  -60.55 | X-H torsion
[ 11005 11000 10999 10996 ] final  149.12 input  -57.11 | X-H torsion

> <Gold.Protein.ActiveResidues>
 VAL166  LYS551  ARG553  GLY616  TRP617  ASP618  TYR619  PRO620  LYS621  CYS622 
 ASP623  PHE694  ASN695  SER759  ASP760  ASP761  ALA762  ILE779  LEU786  VAL792 
 PHE793  MET794  SER795  GLU796  ALA797  LYS798  CYS799  TRP800  GLU811  SER814 

> <Gold.Protein.RotatedAtoms>
  151.0989  134.9961  159.8438 H   0  0  0  0  0  0  0  0  0  0  0  0  # atno 6907 bound_to 6896
  152.5435  134.1974  159.8708 H   0  0  0  0  0  0  0  0  0  0  0  0  # atno 6908 bound_to 6896
  151.2015  133.4564  159.2629 H   0  0  0  0  0  0  0  0  0  0  0  0  # atno 6909 bound_to 6896
  146.2359  140.1970  142.8333 H   0  0  0  0  0  0  0  0  0  0  0  0  # atno 7974 bound_to 7965
  154.8212  140.0444  157.1412 H   0  0  0  0  0  0  0  0  0  0  0  0  # atno 8008 bound_to 7997
  154.9257  140.3033  155.5173 H   0  0  0  0  0  0  0  0  0  0  0  0  # atno 8009 bound_to 7997
  156.2980  140.2332  156.4312 H   0  0  0  0  0  0  0  0  0  0  0  0  # atno 8010 bound_to 7997
  139.5051  144.6238  151.5987 H   0  0  0  0  0  0  0  0  0  0  0  0  # atno 10167 bound_to 10162
  156.3244  130.7552  151.1657 H   0  0  0  0  0  0  0  0  0  0  0  0  # atno 10718 bound_to 10713
  154.3870  135.2754  155.2177 H   0  0  0  0  0  0  0  0  0  0  0  0  # atno 10763 bound_to 10752
  154.4260  135.5989  153.6042 H   0  0  0  0  0  0  0  0  0  0  0  0  # atno 10764 bound_to 10752
  152.9833  135.5984  154.4120 H   0  0  0  0  0  0  0  0  0  0  0  0  # atno 10765 bound_to 10752
  140.1018  134.8979  157.1807 H   0  0  0  0  0  0  0  0  0  0  0  0  # atno 11005 bound_to 11000
  144.9812  140.8461  143.5396 LP  0  0  0  0  0  0  0  0  0  0  0  0  # atno 17320 bound_to 7965
  145.1963  139.2275  143.5216 LP  0  0  0  0  0  0  0  0  0  0  0  0  # atno 17321 bound_to 7965
  140.5948  143.9715  150.6348 LP  0  0  0  0  0  0  0  0  0  0  0  0  # atno 17342 bound_to 10162
  140.2907  143.3326  152.1065 LP  0  0  0  0  0  0  0  0  0  0  0  0  # atno 17343 bound_to 10162
  157.7418  131.0498  150.5069 LP  0  0  0  0  0  0  0  0  0  0  0  0  # atno 17370 bound_to 10713
  156.5226  130.4165  149.6243 LP  0  0  0  0  0  0  0  0  0  0  0  0  # atno 17371 bound_to 10713
  140.3210  134.2916  155.7246 LP  0  0  0  0  0  0  0  0  0  0  0  0  # atno 17394 bound_to 11000
  141.2107  133.7710  156.9911 LP  0  0  0  0  0  0  0  0  0  0  0  0  # atno 17395 bound_to 11000

$$$$
