AV-unprocessed.smi:2378|AV-procd|sdf|9450|dock6
  -GOLD-   2272013 83D 1   1.00000     0.00000
 Structure written by MMmdl.
 40 41  0  0  0  0  0  0  0  0  1 V2000
  153.6686  140.9073  160.0372 C   0  0  0  0  0  0  0  0  0  0  0  0
  152.7692  142.0931  159.7576 C   0  0  0  0  0  0  0  0  0  0  0  0
  152.8371  143.2551  160.5498 C   0  0  0  0  0  0  0  0  0  0  0  0
  151.9735  144.3217  160.2392 C   0  0  0  0  0  0  0  0  0  0  0  0
  151.0868  144.2828  159.2226 N   0  0  0  0  0  0  0  0  0  0  0  0
  151.0116  143.1688  158.4526 C   0  0  0  0  0  0  0  0  0  0  0  0
  150.1173  143.0244  157.3586 N   0  0  0  0  0  0  0  0  0  0  0  0
  149.6727  141.8889  156.7914 C   0  0  0  0  0  0  0  0  0  0  0  0
  149.9868  140.7492  157.1362 O   0  0  0  0  0  0  0  0  0  0  0  0
  148.8323  142.1495  155.7796 N   0  0  0  0  0  0  0  0  0  0  0  0
  148.1857  141.1423  154.9462 C   0  0  0  0  0  0  0  0  0  0  0  0
  147.2881  141.7881  153.8770 C   0  0  0  0  0  0  0  0  0  0  0  0
  146.3995  142.9085  154.4397 C   0  0  1  0  0  0  0  0  0  0  0  0
  145.5982  143.6186  153.3310 C   0  0  0  0  0  0  0  0  0  0  0  0
  144.6679  144.6775  153.9330 C   0  0  0  0  0  0  0  0  0  0  0  0
  143.7995  144.0408  155.0229 C   0  0  0  0  0  0  0  0  0  0  0  0
  144.6799  143.3024  156.0437 C   0  0  0  0  0  0  0  0  0  0  0  0
  145.4899  142.3378  155.3787 O   0  0  0  0  0  0  0  0  0  0  0  0
  151.8431  142.0521  158.6957 C   0  0  0  0  0  0  0  0  0  0  0  0
  154.4291  141.1535  160.7789 H   0  0  0  0  0  0  0  0  0  0  0  0
  154.1739  140.5908  159.1244 H   0  0  0  0  0  0  0  0  0  0  0  0
  153.0817  140.0696  160.4145 H   0  0  0  0  0  0  0  0  0  0  0  0
  153.5305  143.3318  161.3744 H   0  0  0  0  0  0  0  0  0  0  0  0
  151.9946  145.2303  160.8227 H   0  0  0  0  0  0  0  0  0  0  0  0
  149.7774  143.8870  156.9599 H   0  0  0  0  0  0  0  0  0  0  0  0
  148.6296  143.1148  155.5649 H   0  0  0  0  0  0  0  0  0  0  0  0
  148.9371  140.5001  154.4833 H   0  0  0  0  0  0  0  0  0  0  0  0
  147.5887  140.5015  155.5950 H   0  0  0  0  0  0  0  0  0  0  0  0
  147.9185  142.1957  153.0857 H   0  0  0  0  0  0  0  0  0  0  0  0
  146.6609  141.0282  153.4088 H   0  0  0  0  0  0  0  0  0  0  0  0
  147.0330  143.6367  154.9496 H   0  0  0  0  0  0  0  0  0  0  0  0
  146.2739  144.0829  152.6123 H   0  0  0  0  0  0  0  0  0  0  0  0
  145.0074  142.8876  152.7774 H   0  0  0  0  0  0  0  0  0  0  0  0
  145.2609  145.4868  154.3606 H   0  0  0  0  0  0  0  0  0  0  0  0
  144.0427  145.1207  153.1575 H   0  0  0  0  0  0  0  0  0  0  0  0
  143.1990  144.8026  155.5209 H   0  0  0  0  0  0  0  0  0  0  0  0
  143.1004  143.3371  154.5693 H   0  0  0  0  0  0  0  0  0  0  0  0
  145.3088  144.0031  156.5951 H   0  0  0  0  0  0  0  0  0  0  0  0
  144.0555  142.7915  156.7769 H   0  0  0  0  0  0  0  0  0  0  0  0
  151.7731  141.1704  158.0749 H   0  0  0  0  0  0  0  0  0  0  0  0
  1  2  1  0  0  0  0
  1 20  1  0  0  0  0
  1 21  1  0  0  0  0
  1 22  1  0  0  0  0
  2 19  1  0  0  0  0
  2  3  2  0  0  0  0
  3  4  1  0  0  0  0
  3 23  1  0  0  0  0
  4  5  2  0  0  0  0
  4 24  1  0  0  0  0
  5  6  1  0  0  0  0
  6  7  1  0  0  0  0
  6 19  2  0  0  0  0
  7  8  1  0  0  0  0
  7 25  1  0  0  0  0
  8  9  2  0  0  0  0
  8 10  1  0  0  0  0
 10 11  1  0  0  0  0
 10 26  1  0  0  0  0
 11 12  1  0  0  0  0
 11 27  1  0  0  0  0
 11 28  1  0  0  0  0
 12 13  1  0  0  0  0
 12 29  1  0  0  0  0
 12 30  1  0  0  0  0
 13 18  1  0  0  0  0
 13 14  1  0  0  0  0
 13 31  1  0  0  0  0
 14 15  1  0  0  0  0
 14 32  1  0  0  0  0
 14 33  1  0  0  0  0
 15 16  1  0  0  0  0
 15 34  1  0  0  0  0
 15 35  1  0  0  0  0
 16 17  1  0  0  0  0
 16 36  1  0  0  0  0
 16 37  1  0  0  0  0
 17 18  1  0  0  0  0
 17 38  1  0  0  0  0
 17 39  1  0  0  0  0
 19 40  1  0  0  0  0
M  END
> <s_m_source_file>
AV-unprocessed.smi

> <i_m_source_file_index>
2378

> <i_lp_mmshare_version>
43012

> <i_f3d_flags>
0

> <s_epik_input>
W0NIM11jMVtjSF1bY0hdbmMoW2NIXTEpW05IXUMoPU8pW05IXVtDSDJdW0NIMl1bQ0BASF0yW0NIMl1bQ0gyXVtDSDJdW0NIMl1PMg==

> <s_epik_cmdline>
J2VwaWtfcHl0aG9uJywgJy1waCcsICc3LjAnLCAnLXRuJywgJzgnLCAnLW1hJywgJzIwMCcsICctbWV0YWxfYmluZGluZycsICctaW1hZScsICc8aW5maWxlLm1hZT4nLCAnLW9tYWUnLCAnPG91dGZpbGUubWFlPic=

> <r_lp_tautomer_probability>
1

> <r_epik_Ionization_Penalty>
8.60919e-05

> <r_epik_Ionization_Penalty_Charging>
0

> <r_epik_Ionization_Penalty_Neutral>
8.60919e-05

> <r_epik_State_Penalty>
-0

> <r_epik_Charging_Adjusted_Penalty>
0

> <i_epik_Tot_Q>
0

> <i_epik_Tot_abs_Q>
0

> <r_epik_Metal_State_Penalty>
-0

> <b_epik_Metal_Only>
0

> <s_lp_Force_Field>
OPLS_2005

> <r_lp_Energy>
10.7522

> <b_lp_Chiralities_Consistent>
1

> <s_lp_Variant>
AV-unprocessed.smi:2378-2

> <Gold.Version>
5.8.1

> <Gold.Id.Protein>
6NUR|6NUR_protein|mol2

> <Gold.PLP.Fitness>
45.2793

> <Gold.PLP.PLP>
-39.5917

> <Gold.PLP.part.hbond>
-2.0000

> <Gold.PLP.part.metal>
0.0000

> <Gold.PLP.part.buried>
-6.8508

> <Gold.PLP.part.nonpolar>
-31.9172

> <Gold.PLP.part.repulsive>
0.4165

> <Gold.PLP.ligand.clash>
0.0000

> <Gold.PLP.ligand.torsion>
0.1627

> <Gold.PLP.Chemscore.Hbond>
2.0000

> <Gold.PLP.Chemscore.CHOScore>
0.0000

> <Gold.PLP.Chemscore.Metal>
0.0000

> <Gold.Chemscore.Hbonds>
donor molecule, donor type, donor heavy atom, donor atom, acceptor molecule, acceptor atom, score
      L1  H     7    25       P1  8028  1.00
      L1  H    10    26       P1  8028  1.00

> <Gold.PLP.Chemscore.Internal.Correction>
0.0130

> <Gold.Rescore>
     Score         DG    S(hbond)    S(metal)    S(lipo)     H(rot)  DE(clash)    DE(int)     intcor
     18.03     -19.69       1.92        0.00      97.79       1.42       0.03       1.62       ----

> <Gold.Chemscore.Fitness>
18.0317

> <Gold.Chemscore.DG>
-19.6868

> <Gold.Chemscore.ZeroCoef>
-5.4800

> <Gold.Chemscore.Hbond>
1.9200

> <Gold.Chemscore.Metal>
0.0000

> <Gold.Chemscore.Lipo>
97.7908

> <Gold.Chemscore.Internal_Hbond>
0.0000

> <Gold.Chemscore.DEClash>
0.0314

> <Gold.Chemscore.DEInternal>
1.6237

> <Gold.Chemscore.Rot>
1.4248

> <Gold.Chemscore.Internal.Correction>
   9.000000E+99

> <Gold.Chemscore.Hbonds>
donor molecule, donor type, donor heavy atom, donor atom, acceptor molecule, acceptor atom, score
      L1  H     7    25       P1  8028  0.88
      L1  H    10    26       P1  8028  0.97

> <Gold.Chemscore.Hbond.Weighted>
-6.4128

> <Gold.Chemscore.Metal.Weighted>
-0.0000

> <Gold.Chemscore.Lipo.Weighted>
-11.4415

> <Gold.Chemscore.Internal_Hbond.Weighted>
0.0000

> <Gold.Chemscore.DEClash.Weighted>
0.0314

> <Gold.Chemscore.DEInternal.Weighted>
1.6237

> <Gold.Chemscore.Rot.Weighted>
3.6476

> <Gold.Chemscore.Internal.Correction.Weighted>
   9.000000E+99

> <Gold.Protein.RotatedTorsions>
[ 6907 6896 6895 6894 ] final -167.10 input  -60.11 | X-H torsion
[ 7974 7965 7964 7962 ] final   99.83 input  175.53 | X-H torsion
[ 8008 7997 7996 7995 ] final   12.55 input   59.86 | X-H torsion
[ 10167 10162 10161 10158 ] final -111.87 input  -65.29 | X-H torsion
[ 10718 10713 10712 10709 ] final -121.12 input   66.30 | X-H torsion
[ 10763 10752 10751 10750 ] final   47.90 input  -60.55 | X-H torsion
[ 11005 11000 10999 10996 ] final   76.40 input  -57.11 | X-H torsion

> <Gold.Protein.ActiveResidues>
 VAL166  LYS551  ARG553  GLY616  TRP617  ASP618  TYR619  PRO620  LYS621  CYS622 
 ASP623  PHE694  ASN695  SER759  ASP760  ASP761  ALA762  ILE779  LEU786  VAL792 
 PHE793  MET794  SER795  GLU796  ALA797  LYS798  CYS799  TRP800  GLU811  SER814 

> <Gold.Protein.RotatedAtoms>
  151.4541  133.3610  159.2799 H   0  0  0  0  0  0  0  0  0  0  0  0  # atno 6907 bound_to 6896
  150.9071  134.8487  159.7410 H   0  0  0  0  0  0  0  0  0  0  0  0  # atno 6908 bound_to 6896
  152.4912  134.4467  159.9613 H   0  0  0  0  0  0  0  0  0  0  0  0  # atno 6909 bound_to 6896
  145.3937  139.2358  143.3338 H   0  0  0  0  0  0  0  0  0  0  0  0  # atno 7974 bound_to 7965
  154.8221  140.2885  155.5779 H   0  0  0  0  0  0  0  0  0  0  0  0  # atno 8008 bound_to 7997
  156.2998  140.2548  156.3061 H   0  0  0  0  0  0  0  0  0  0  0  0  # atno 8009 bound_to 7997
  154.9326  140.0383  157.2045 H   0  0  0  0  0  0  0  0  0  0  0  0  # atno 8010 bound_to 7997
  140.1289  143.4378  152.1641 H   0  0  0  0  0  0  0  0  0  0  0  0  # atno 10167 bound_to 10162
  156.1312  130.6397  150.9624 H   0  0  0  0  0  0  0  0  0  0  0  0  # atno 10718 bound_to 10713
  152.9796  135.5961  154.3839 H   0  0  0  0  0  0  0  0  0  0  0  0  # atno 10763 bound_to 10752
  154.3501  135.2767  155.2378 H   0  0  0  0  0  0  0  0  0  0  0  0  # atno 10764 bound_to 10752
  154.4422  135.6010  153.6191 H   0  0  0  0  0  0  0  0  0  0  0  0  # atno 10765 bound_to 10752
  139.9300  134.7597  156.1390 H   0  0  0  0  0  0  0  0  0  0  0  0  # atno 11005 bound_to 11000
  146.2785  140.4624  142.8786 LP  0  0  0  0  0  0  0  0  0  0  0  0  # atno 17320 bound_to 7965
  144.8422  140.6875  143.6222 LP  0  0  0  0  0  0  0  0  0  0  0  0  # atno 17321 bound_to 7965
  139.5530  144.7352  151.4378 LP  0  0  0  0  0  0  0  0  0  0  0  0  # atno 17342 bound_to 10162
  140.6829  143.8041  150.7145 LP  0  0  0  0  0  0  0  0  0  0  0  0  # atno 17343 bound_to 10162
  157.6490  131.0900  150.8092 LP  0  0  0  0  0  0  0  0  0  0  0  0  # atno 17370 bound_to 10713
  156.8177  130.4973  149.5347 LP  0  0  0  0  0  0  0  0  0  0  0  0  # atno 17371 bound_to 10713
  141.0883  133.6725  156.2484 LP  0  0  0  0  0  0  0  0  0  0  0  0  # atno 17394 bound_to 11000
  140.6228  134.5344  157.5550 LP  0  0  0  0  0  0  0  0  0  0  0  0  # atno 17395 bound_to 11000

$$$$
