AV-unprocessed.smi:690|AV-procd|sdf|3361|dock4
  -GOLD-   22720 0343D 1   1.00000     0.00000
 Structure written by MMmdl.
 46 48  0  0  0  0  0  0  0  0  1 V2000
  148.4943  141.0074  154.1037 C   0  0  0  0  0  0  0  0  0  0  0  0
  148.2171  139.6604  154.7740 C   0  0  0  0  0  0  0  0  0  0  0  0
  148.4980  139.7753  156.1587 O   0  0  0  0  0  0  0  0  0  0  0  0
  149.8808  139.9552  156.4367 C   0  0  1  0  0  0  0  0  0  0  0  0
  150.0983  140.0075  157.9525 C   0  0  0  0  0  0  0  0  0  0  0  0
  150.3985  138.5058  157.9158 C   0  0  1  0  0  0  0  0  0  0  0  0
  149.1919  137.7213  158.1775 N   0  0  0  0  0  0  0  0  0  0  0  0
  149.1785  136.4278  158.5279 C   0  0  0  0  0  0  0  0  0  0  0  0
  150.2008  135.7531  158.6569 O   0  0  0  0  0  0  0  0  0  0  0  0
  147.7938  135.7990  158.7335 C   0  0  0  0  0  0  0  0  0  0  0  0
  147.6382  135.1768  160.0585 N   0  0  0  0  0  0  0  0  0  0  0  0
  147.4361  133.7825  160.0957 C   0  0  0  0  0  0  0  0  0  0  0  0
  147.2886  133.1173  161.2524 C   0  0  0  0  0  0  0  0  0  0  0  0
  147.3422  133.8692  162.4838 C   0  0  0  0  0  0  0  0  0  0  0  0
  147.5371  135.2026  162.4596 C   0  0  0  0  0  0  0  0  0  0  0  0
  147.6984  135.9339  161.1977 C   0  0  0  0  0  0  0  0  0  0  0  0
  147.8767  137.1520  161.1664 O   0  0  0  0  0  0  0  0  0  0  0  0
  150.7225  138.6502  156.4069 C   0  0  0  0  0  0  0  0  0  0  0  0
  152.1946  138.8399  156.0418 C   0  0  0  0  0  0  0  0  0  0  0  0
  152.3079  138.6405  154.5297 C   0  0  0  0  0  0  0  0  0  0  0  0
  151.1449  137.7208  154.1515 C   0  0  0  0  0  0  0  0  0  0  0  0
  150.3309  137.5307  155.4359 C   0  0  0  0  0  0  0  0  0  0  0  0
  148.2949  140.9590  153.0330 H   0  0  0  0  0  0  0  0  0  0  0  0
  149.5345  141.3049  154.2379 H   0  0  0  0  0  0  0  0  0  0  0  0
  147.8638  141.7900  154.5268 H   0  0  0  0  0  0  0  0  0  0  0  0
  147.1782  139.3732  154.6132 H   0  0  0  0  0  0  0  0  0  0  0  0
  148.8437  138.8845  154.3322 H   0  0  0  0  0  0  0  0  0  0  0  0
  150.3278  140.8074  155.9211 H   0  0  0  0  0  0  0  0  0  0  0  0
  150.9707  140.6011  158.2293 H   0  0  0  0  0  0  0  0  0  0  0  0
  149.2226  140.2958  158.5358 H   0  0  0  0  0  0  0  0  0  0  0  0
  151.2572  138.2308  158.5309 H   0  0  0  0  0  0  0  0  0  0  0  0
  148.3075  138.1988  158.0768 H   0  0  0  0  0  0  0  0  0  0  0  0
  147.0189  136.5532  158.5809 H   0  0  0  0  0  0  0  0  0  0  0  0
  147.6362  135.0650  157.9423 H   0  0  0  0  0  0  0  0  0  0  0  0
  147.4169  133.2937  159.1325 H   0  0  0  0  0  0  0  0  0  0  0  0
  147.1385  132.0477  161.2625 H   0  0  0  0  0  0  0  0  0  0  0  0
  147.2274  133.3598  163.4293 H   0  0  0  0  0  0  0  0  0  0  0  0
  147.5762  135.7483  163.3911 H   0  0  0  0  0  0  0  0  0  0  0  0
  152.5821  139.8138  156.3423 H   0  0  0  0  0  0  0  0  0  0  0  0
  152.8023  138.0901  156.5504 H   0  0  0  0  0  0  0  0  0  0  0  0
  152.1984  139.5983  154.0199 H   0  0  0  0  0  0  0  0  0  0  0  0
  153.2751  138.2245  154.2459 H   0  0  0  0  0  0  0  0  0  0  0  0
  150.5402  138.1817  153.3703 H   0  0  0  0  0  0  0  0  0  0  0  0
  151.4974  136.7626  153.7684 H   0  0  0  0  0  0  0  0  0  0  0  0
  150.5863  136.5636  155.8711 H   0  0  0  0  0  0  0  0  0  0  0  0
  149.2613  137.4980  155.2299 H   0  0  0  0  0  0  0  0  0  0  0  0
  1  2  1  0  0  0  0
  1 23  1  0  0  0  0
  1 24  1  0  0  0  0
  1 25  1  0  0  0  0
  2  3  1  0  0  0  0
  2 26  1  0  0  0  0
  2 27  1  0  0  0  0
  3  4  1  0  0  0  0
  4 18  1  0  0  0  0
  4  5  1  0  0  0  0
  4 28  1  0  0  0  0
  5  6  1  0  0  0  0
  5 29  1  0  0  0  0
  5 30  1  0  0  0  0
  6  7  1  0  0  0  0
  6 18  1  0  0  0  0
  6 31  1  0  0  0  0
  7  8  1  0  0  0  0
  7 32  1  0  0  0  0
  8  9  2  0  0  0  0
  8 10  1  0  0  0  0
 10 11  1  0  0  0  0
 10 33  1  0  0  0  0
 10 34  1  0  0  0  0
 11 16  1  0  0  0  0
 11 12  1  0  0  0  0
 12 13  2  0  0  0  0
 12 35  1  0  0  0  0
 13 14  1  0  0  0  0
 13 36  1  0  0  0  0
 14 15  2  0  0  0  0
 14 37  1  0  0  0  0
 15 16  1  0  0  0  0
 15 38  1  0  0  0  0
 16 17  2  0  0  0  0
 18 22  1  0  0  0  0
 18 19  1  0  0  0  0
 19 20  1  0  0  0  0
 19 39  1  0  0  0  0
 19 40  1  0  0  0  0
 20 21  1  0  0  0  0
 20 41  1  0  0  0  0
 20 42  1  0  0  0  0
 21 22  1  0  0  0  0
 21 43  1  0  0  0  0
 21 44  1  0  0  0  0
 22 45  1  0  0  0  0
 22 46  1  0  0  0  0
M  END
> <s_m_source_file>
AV-unprocessed.smi

> <i_m_source_file_index>
690

> <i_lp_mmshare_version>
43012

> <i_f3d_flags>
0

> <s_epik_input>
W0NIMl0xW0NIMl1bQ0gyXVtDSDJdQzEyW0NASF0oT1tDSDJdW0NIM10pW0NIMl1bQ0BIXTJbTkhdQyg9TylbQ0gyXW4zW2NIXVtjSF1bY0hdW2NIXWMzPU8=

> <s_epik_cmdline>
J2VwaWtfcHl0aG9uJywgJy1waCcsICc3LjAnLCAnLXRuJywgJzgnLCAnLW1hJywgJzIwMCcsICctbWV0YWxfYmluZGluZycsICctaW1hZScsICc8aW5maWxlLm1hZT4nLCAnLW9tYWUnLCAnPG91dGZpbGUubWFlPic=

> <r_lp_tautomer_probability>
1

> <r_epik_Ionization_Penalty>
4.11691e-07

> <r_epik_Ionization_Penalty_Charging>
3.92797e-07

> <r_epik_Ionization_Penalty_Neutral>
1.88943e-08

> <r_epik_State_Penalty>
-0

> <r_epik_Charging_Adjusted_Penalty>
3.92797e-07

> <i_epik_Tot_Q>
0

> <i_epik_Tot_abs_Q>
0

> <r_epik_Metal_State_Penalty>
-0

> <b_epik_Metal_Only>
0

> <s_lp_Force_Field>
OPLS_2005

> <r_lp_Energy>
47.4249

> <b_lp_Chiralities_Consistent>
1

> <s_lp_Variant>
AV-unprocessed.smi:690-2

> <Gold.Version>
5.8.1

> <Gold.Id.Protein>
6NUR|6NUR_protein|mol2

> <Gold.PLP.Fitness>
45.5331

> <Gold.PLP.PLP>
-37.5612

> <Gold.PLP.part.hbond>
-2.8036

> <Gold.PLP.part.metal>
0.0000

> <Gold.PLP.part.buried>
-4.5164

> <Gold.PLP.part.nonpolar>
-30.5400

> <Gold.PLP.part.repulsive>
0.1273

> <Gold.PLP.ligand.clash>
0.0000

> <Gold.PLP.ligand.torsion>
0.4028

> <Gold.PLP.Chemscore.Hbond>
2.7920

> <Gold.PLP.Chemscore.CHOScore>
0.0000

> <Gold.PLP.Chemscore.Metal>
0.0000

> <Gold.Chemscore.Hbonds>
donor molecule, donor type, donor heavy atom, donor atom, acceptor molecule, acceptor atom, score
      P1  H  6896  6909       L1     9  0.86
      P1  H  6931  6943       L1    17  0.99
      P1  H  6934  6947       L1    17  0.78

> <Gold.PLP.Chemscore.Internal.Correction>
0.4015

> <Gold.Rescore>
     Score         DG    S(hbond)    S(metal)    S(lipo)     H(rot)  DE(clash)    DE(int)     intcor
     19.59     -20.13       2.70        0.00      85.22       1.69       0.01       0.54       ----

> <Gold.Chemscore.Fitness>
19.5869

> <Gold.Chemscore.DG>
-20.1322

> <Gold.Chemscore.ZeroCoef>
-5.4800

> <Gold.Chemscore.Hbond>
2.6970

> <Gold.Chemscore.Metal>
0.0000

> <Gold.Chemscore.Lipo>
85.2208

> <Gold.Chemscore.Internal_Hbond>
0.0000

> <Gold.Chemscore.DEClash>
0.0069

> <Gold.Chemscore.DEInternal>
0.5384

> <Gold.Chemscore.Rot>
1.6900

> <Gold.Chemscore.Internal.Correction>
   9.000000E+99

> <Gold.Chemscore.Hbonds>
donor molecule, donor type, donor heavy atom, donor atom, acceptor molecule, acceptor atom, score
      P1  H  6896  6909       L1     9  0.81
      P1  H  6931  6943       L1    17  0.94
      P1  H  6934  6947       L1    17  0.75

> <Gold.Chemscore.Hbond.Weighted>
-9.0079

> <Gold.Chemscore.Metal.Weighted>
-0.0000

> <Gold.Chemscore.Lipo.Weighted>
-9.9708

> <Gold.Chemscore.Internal_Hbond.Weighted>
0.0000

> <Gold.Chemscore.DEClash.Weighted>
0.0069

> <Gold.Chemscore.DEInternal.Weighted>
0.5384

> <Gold.Chemscore.Rot.Weighted>
4.3265

> <Gold.Chemscore.Internal.Correction.Weighted>
   9.000000E+99

> <Gold.Protein.RotatedTorsions>
[ 6907 6896 6895 6894 ] final   81.44 input  -60.11 | X-H torsion
[ 7974 7965 7964 7962 ] final   10.57 input  175.53 | X-H torsion
[ 8008 7997 7996 7995 ] final   23.67 input   59.86 | X-H torsion
[ 10167 10162 10161 10158 ] final  -31.94 input  -65.29 | X-H torsion
[ 10718 10713 10712 10709 ] final   45.32 input   66.30 | X-H torsion
[ 10763 10752 10751 10750 ] final   52.15 input  -60.55 | X-H torsion
[ 11005 11000 10999 10996 ] final  112.59 input  -57.11 | X-H torsion

> <Gold.Protein.ActiveResidues>
 VAL166  LYS551  ARG553  GLY616  TRP617  ASP618  TYR619  PRO620  LYS621  CYS622 
 ASP623  PHE694  ASN695  SER759  ASP760  ASP761  ALA762  ILE779  LEU786  VAL792 
 PHE793  MET794  SER795  GLU796  ALA797  LYS798  CYS799  TRP800  GLU811  SER814 

> <Gold.Protein.RotatedAtoms>
  152.5268  134.3203  159.9145 H   0  0  0  0  0  0  0  0  0  0  0  0  # atno 6907 bound_to 6896
  151.3152  133.4057  159.2657 H   0  0  0  0  0  0  0  0  0  0  0  0  # atno 6908 bound_to 6896
  151.0005  134.9335  159.8008 H   0  0  0  0  0  0  0  0  0  0  0  0  # atno 6909 bound_to 6896
  146.2386  139.9614  142.8458 H   0  0  0  0  0  0  0  0  0  0  0  0  # atno 7974 bound_to 7965
  154.9845  140.3106  155.4932 H   0  0  0  0  0  0  0  0  0  0  0  0  # atno 8008 bound_to 7997
  156.2949  140.2260  156.4886 H   0  0  0  0  0  0  0  0  0  0  0  0  # atno 8009 bound_to 7997
  154.7759  140.0449  157.1077 H   0  0  0  0  0  0  0  0  0  0  0  0  # atno 8010 bound_to 7997
  140.7229  143.3732  151.1739 H   0  0  0  0  0  0  0  0  0  0  0  0  # atno 10167 bound_to 10162
  157.4362  130.8054  149.7650 H   0  0  0  0  0  0  0  0  0  0  0  0  # atno 10718 bound_to 10713
  152.9787  135.5822  154.4532 H   0  0  0  0  0  0  0  0  0  0  0  0  # atno 10763 bound_to 10752
  154.4118  135.2770  155.2034 H   0  0  0  0  0  0  0  0  0  0  0  0  # atno 10764 bound_to 10752
  154.3820  135.6144  153.5850 H   0  0  0  0  0  0  0  0  0  0  0  0  # atno 10765 bound_to 10752
  139.8931  134.9533  156.6609 H   0  0  0  0  0  0  0  0  0  0  0  0  # atno 11005 bound_to 11000
  145.1767  140.9747  143.4290 LP  0  0  0  0  0  0  0  0  0  0  0  0  # atno 17320 bound_to 7965
  144.9979  139.3626  143.6182 LP  0  0  0  0  0  0  0  0  0  0  0  0  # atno 17321 bound_to 7965
  139.7307  143.9077  152.3018 LP  0  0  0  0  0  0  0  0  0  0  0  0  # atno 17342 bound_to 10162
  139.8865  144.6989  150.8819 LP  0  0  0  0  0  0  0  0  0  0  0  0  # atno 17343 bound_to 10162
  155.9931  130.3926  150.2912 LP  0  0  0  0  0  0  0  0  0  0  0  0  # atno 17370 bound_to 10713
  157.1073  131.0212  151.3062 LP  0  0  0  0  0  0  0  0  0  0  0  0  # atno 17371 bound_to 10713
  140.7447  133.8948  155.8303 LP  0  0  0  0  0  0  0  0  0  0  0  0  # atno 17394 bound_to 11000
  141.0049  134.1100  157.4280 LP  0  0  0  0  0  0  0  0  0  0  0  0  # atno 17395 bound_to 11000

$$$$
