#       Name:                AV-unprocessed.smi:2554
#       Creating user name   scv26
#       Creation time:       Fri Mar 27 14:06:42 2020


#       File generated by GOLD software.
#

@<TRIPOS>MOLECULE
AV-unprocessed.smi:2554
    22    22     1
SMALL
NO_CHARGES


@<TRIPOS>ATOM
      1 ****        -1.2330  -2.1535  -0.4544 C.3            1 S1                 0.0000
      2 ****        -1.4068  -0.6722  -0.4585 C.2            1 S1                 0.0000
      3 ****        -2.6465  -0.0867  -0.4595 N.pl3          1 S1                 0.0000
      4 ****        -2.5372   1.2433  -0.4613 C.2            1 S1                 0.0000
      5 ****        -1.2308   1.5171  -0.4595 N.pl3          1 S1                 1.0000
      6 ****        -0.4949   0.3589  -0.4593 C.2            1 S1                 0.0000
      7 ****         0.9997   0.3597  -0.4535 C.3            1 S1                 0.0000
      8 ****         1.5587   0.3590   0.9770 C.3            1 S1                 0.0000
      9 ****         3.0319   0.3538   0.9810 N.4            1 S1                 1.0000
     10 ****        -3.5250  -0.5904  -0.4594 H              1 S1                 0.0000
     11 ****        -0.1753  -2.4174  -0.4479 H              1 S1                 0.0000
     12 ****        -1.6931  -2.5894  -1.3416 H              1 S1                 0.0000
     13 ****        -1.7026  -2.5855   0.4296 H              1 S1                 0.0000
     14 ****        -3.3440   1.9546  -0.4645 H              1 S1                 0.0000
     15 ****         1.3548  -0.5150  -0.9999 H              1 S1                 0.0000
     16 ****         1.3563   1.2348  -0.9986 H              1 S1                 0.0000
     17 ****         1.2118   1.2377   1.5222 H              1 S1                 0.0000
     18 ****         1.2064  -0.5182   1.5211 H              1 S1                 0.0000
     19 ****         3.3655   0.3523   1.9346 H              1 S1                 0.0000
     20 ****         3.3776   1.1769   0.5082 H              1 S1                 0.0000
     21 ****         3.3707  -0.4721   0.5082 H              1 S1                 0.0000
     22 ****        -0.8432   2.4525  -0.4644 H              1 S1                 0.0000
@<TRIPOS>BOND
    1    1    2 1     
    2    1   11 1     
    3    1   12 1     
    4    1   13 1     
    5    2    6 2     
    6    2    3 1     
    7    3   10 1     
    8    3    4 1     
    9    4    5 2     
   10    4   14 1     
   11    5    6 1     
   12    5   22 1     
   13    6    7 1     
   14    7    8 1     
   15    7   15 1     
   16    7   16 1     
   17    8    9 1     
   18    8   17 1     
   19    8   18 1     
   20    9   19 1     
   21    9   20 1     
   22    9   21 1     
@<TRIPOS>SUBSTRUCTURE
      1 S1             1
@<TRIPOS>SET
DONOR_HYDROGENS      STATIC     ATOMS    <user>   **** ""
5 10 22 19 20 21
ATOM$RED        STATIC     ATOMS    COLORGROUP SYSTEM
5 10 22 19 20 21
