#       Name:                AV-unprocessed.smi:386
#       Creating user name   scv26
#       Creation time:       Thu Mar 26 22:41:13 2020


#       File generated by GOLD software.
#

@<TRIPOS>MOLECULE
AV-unprocessed.smi:386
    34    35     1
SMALL
NO_CHARGES


@<TRIPOS>ATOM
      1 ****        -2.5030  -4.1224  -0.2915 N.1            1 S1                 0.0000
      2 ****        -1.9126  -3.1321  -0.1896 C.1            1 S1                 0.0000
      3 ****        -1.2121  -1.8976  -0.0593 C.2            1 S1                 0.0000
      4 ****        -1.8592  -0.7156  -0.0006 C.2            1 S1                 0.0000
      5 ****        -1.1982   0.4859   0.1334 N.am           1 S1                 0.0000
      6 ****        -1.8938   1.7382   0.0329 C.3            1 S1                 0.0000
      7 ****        -1.7605   2.7792   1.1274 C.3            1 S1                 0.0000
      8 ****        -3.0506   2.0122   0.9689 C.3            1 S1                 0.0000
      9 ****         0.2134   0.5227   0.1345 C.2            1 S1                 0.0000
     10 ****         0.8240   1.5944   0.1535 O.2            1 S1                 0.0000
     11 ****         0.9086  -0.7105   0.0996 N.am           1 S1                 0.0000
     12 ****         2.3881  -0.6912   0.1184 C.3            1 S1                 0.0000
     13 ****         3.0200  -0.6124  -1.2804 C.2            1 S1                 0.0000
     14 ****         4.3536  -0.6336  -1.3316 N.am           1 S1                 0.0000
     15 ****         2.3299  -0.5328  -2.2958 O.2            1 S1                 0.0000
     16 ****         0.2463  -1.9611   0.0024 C.2            1 S1                 0.0000
     17 ****         0.8829  -3.0155  -0.0382 O.2            1 S1                 0.0000
     18 ****        -2.9384  -0.7077  -0.0559 H              1 S1                 0.0000
     19 ****        -2.0007   2.1280  -0.9779 H              1 S1                 0.0000
     20 ****        -1.1454   2.5417   1.9934 H              1 S1                 0.0000
     21 ****        -1.7550   3.8245   0.8256 H              1 S1                 0.0000
     22 ****        -3.9070   2.5480   0.5649 H              1 S1                 0.0000
     23 ****        -3.2832   1.2682   1.7284 H              1 S1                 0.0000
     24 ****         2.7591   0.1456   0.7124 H              1 S1                 0.0000
     25 ****         2.7826  -1.5712   0.6289 H              1 S1                 0.0000
     26 ****         4.8260  -0.5834  -2.2225 H              1 S1                 0.0000
     27 ****         4.8862  -0.6987  -0.4761 H              1 S1                 0.0000
     28 ****        -3.0131  -4.9780  -0.3795 LP             1 S1                 0.0000
     29 ****         0.3190   2.4574   0.1685 LP             1 S1                 0.0000
     30 ****         1.8240   1.6002   0.1540 LP             1 S1                 0.0000
     31 ****         1.3327  -0.5181  -2.2227 LP             1 S1                 0.0000
     32 ****         2.7662  -0.4828  -3.1942 LP             1 S1                 0.0000
     33 ****         0.4007  -3.8880  -0.1173 LP             1 S1                 0.0000
     34 ****         1.8817  -2.9987   0.0081 LP             1 S1                 0.0000
@<TRIPOS>BOND
    1    1    2 3     
    2    2    3 1     
    3    3   16 1     
    4    3    4 2     
    5    4    5 1     
    6    4   18 1     
    7    5    6 1     
    8    5    9 am    
    9    6    8 1     
   10    6    7 1     
   11    6   19 1     
   12    7    8 1     
   13    7   20 1     
   14    7   21 1     
   15    8   22 1     
   16    8   23 1     
   17    9   10 2     
   18    9   11 am    
   19   11   12 1     
   20   11   16 am    
   21   12   13 1     
   22   12   24 1     
   23   12   25 1     
   24   13   14 am    
   25   13   15 2     
   26   14   26 1     
   27   14   27 1     
   28   16   17 2     
   29    1   28 1     
   30   10   29 1     
   31   10   30 1     
   32   15   31 1     
   33   15   32 1     
   34   17   33 1     
   35   17   34 1     
@<TRIPOS>SUBSTRUCTURE
      1 S1             1
@<TRIPOS>SET
LONE_PAIRS      STATIC     ATOMS    <user>   **** ""
7 28 29 30 31 32 33 34
DONOR_HYDROGENS      STATIC     ATOMS    <user>   **** ""
2 26 27
ATOM$BLUE        STATIC     ATOMS    COLORGROUP SYSTEM
7 28 29 30 31 32 33 34
ATOM$RED        STATIC     ATOMS    COLORGROUP SYSTEM
2 26 27
