AV-unprocessed.smi:1971|AV-procd|sdf|7967|dock2
  -GOLD-   2272010143D 1   1.00000     0.00000
 Structure written by MMmdl.
 43 44  0  0  0  0  0  0  0  0  1 V2000
  151.9840  144.8900  158.6528 C   0  0  0  0  0  0  0  0  0  0  0  0
  151.7833  143.4876  159.2443 C   0  0  0  0  0  0  0  0  0  0  0  0
  151.8475  142.3945  158.2757 N   0  0  0  0  0  0  0  0  0  0  0  0
  151.5556  141.1145  158.9164 C   0  0  0  0  0  0  0  0  0  0  0  0
  151.6285  139.9451  157.9180 C   0  0  0  0  0  0  0  0  0  0  0  0
  150.6832  140.1103  156.8060 N   0  0  0  0  0  0  0  0  0  0  0  0
  150.7242  138.9827  155.8503 C   0  0  1  0  0  0  0  0  0  0  0  0
  151.9477  139.0219  154.9071 C   0  0  0  0  0  0  0  0  0  0  0  0
  150.6840  137.5886  156.5239 C   0  0  0  0  0  0  0  0  0  0  0  0
  149.5113  137.4387  157.3780 N   0  0  0  0  0  0  0  0  0  0  0  0
  149.5358  136.9471  158.6228 C   0  0  0  0  0  0  0  0  0  0  0  0
  150.5687  136.5900  159.1901 O   0  0  0  0  0  0  0  0  0  0  0  0
  148.2995  136.8944  159.1483 N   0  0  0  0  0  0  0  0  0  0  0  0
  147.9096  136.4317  160.4322 C   0  0  0  0  0  0  0  0  0  0  0  0
  147.6331  137.2294  161.4704 N   0  0  0  0  0  0  0  0  0  0  0  0
  147.2750  136.5029  162.6090 C   0  0  0  0  0  0  0  0  0  0  0  0
  147.2854  135.1435  162.4185 C   0  0  0  0  0  0  0  0  0  0  0  0
  147.7442  134.7193  160.7909 S   0  0  0  0  0  0  0  0  0  0  0  0
  150.9766  141.4021  156.1699 C   0  0  0  0  0  0  0  0  0  0  0  0
  150.9055  142.5707  157.1701 C   0  0  0  0  0  0  0  0  0  0  0  0
  152.0202  145.6375  159.4454 H   0  0  0  0  0  0  0  0  0  0  0  0
  151.1722  145.1704  157.9819 H   0  0  0  0  0  0  0  0  0  0  0  0
  152.9198  144.9524  158.0971 H   0  0  0  0  0  0  0  0  0  0  0  0
  152.5589  143.3366  159.9963 H   0  0  0  0  0  0  0  0  0  0  0  0
  150.8346  143.4520  159.7820 H   0  0  0  0  0  0  0  0  0  0  0  0
  152.2663  140.9374  159.7243 H   0  0  0  0  0  0  0  0  0  0  0  0
  150.5654  141.1418  159.3741 H   0  0  0  0  0  0  0  0  0  0  0  0
  152.6457  139.8482  157.5349 H   0  0  0  0  0  0  0  0  0  0  0  0
  151.4117  139.0330  158.4714 H   0  0  0  0  0  0  0  0  0  0  0  0
  149.8388  139.0456  155.2157 H   0  0  0  0  0  0  0  0  0  0  0  0
  152.0022  138.1226  154.2930 H   0  0  0  0  0  0  0  0  0  0  0  0
  152.8817  139.0957  155.4652 H   0  0  0  0  0  0  0  0  0  0  0  0
  151.9034  139.8593  154.2116 H   0  0  0  0  0  0  0  0  0  0  0  0
  150.6968  136.7919  155.7799 H   0  0  0  0  0  0  0  0  0  0  0  0
  151.5841  137.4369  157.1221 H   0  0  0  0  0  0  0  0  0  0  0  0
  148.6225  137.7061  156.9806 H   0  0  0  0  0  0  0  0  0  0  0  0
  147.5471  137.2140  158.5562 H   0  0  0  0  0  0  0  0  0  0  0  0
  147.0270  137.0356  163.5149 H   0  0  0  0  0  0  0  0  0  0  0  0
  147.0508  134.3693  163.1336 H   0  0  0  0  0  0  0  0  0  0  0  0
  151.9625  141.3748  155.7031 H   0  0  0  0  0  0  0  0  0  0  0  0
  150.2596  141.6101  155.3776 H   0  0  0  0  0  0  0  0  0  0  0  0
  149.8883  142.6623  157.5541 H   0  0  0  0  0  0  0  0  0  0  0  0
  151.1219  143.4952  156.6356 H   0  0  0  0  0  0  0  0  0  0  0  0
  1  2  1  0  0  0  0
  1 21  1  0  0  0  0
  1 22  1  0  0  0  0
  1 23  1  0  0  0  0
  2  3  1  0  0  0  0
  2 24  1  0  0  0  0
  2 25  1  0  0  0  0
  3 20  1  0  0  0  0
  3  4  1  0  0  0  0
  4  5  1  0  0  0  0
  4 26  1  0  0  0  0
  4 27  1  0  0  0  0
  5  6  1  0  0  0  0
  5 28  1  0  0  0  0
  5 29  1  0  0  0  0
  6  7  1  0  0  0  0
  6 19  1  0  0  0  0
  7  8  1  0  0  0  0
  7  9  1  0  0  0  0
  7 30  1  0  0  0  0
  8 31  1  0  0  0  0
  8 32  1  0  0  0  0
  8 33  1  0  0  0  0
  9 10  1  0  0  0  0
  9 34  1  0  0  0  0
  9 35  1  0  0  0  0
 10 11  1  0  0  0  0
 10 36  1  0  0  0  0
 11 12  2  0  0  0  0
 11 13  1  0  0  0  0
 13 14  1  0  0  0  0
 13 37  1  0  0  0  0
 14 18  1  0  0  0  0
 14 15  2  0  0  0  0
 15 16  1  0  0  0  0
 16 17  2  0  0  0  0
 16 38  1  0  0  0  0
 17 18  1  0  0  0  0
 17 39  1  0  0  0  0
 19 20  1  0  0  0  0
 19 40  1  0  0  0  0
 19 41  1  0  0  0  0
 20 42  1  0  0  0  0
 20 43  1  0  0  0  0
M  END
> <s_m_source_file>
AV-unprocessed.smi

> <i_m_source_file_index>
1971

> <i_lp_mmshare_version>
43012

> <i_f3d_flags>
0

> <s_epik_input>
W0NIM11bQ0gyXU4xW0NIMl1bQ0gyXU4oW0NIMl1bQ0gyXTEpW0NASF0oW0NIM10pW0NIMl1bTkhdQyg9TylbTkhdYzJuW2NIXVtjSF1zMg==

> <s_epik_cmdline>
J2VwaWtfcHl0aG9uJywgJy1waCcsICc3LjAnLCAnLXRuJywgJzgnLCAnLW1hJywgJzIwMCcsICctbWV0YWxfYmluZGluZycsICctaW1hZScsICc8aW5maWxlLm1hZT4nLCAnLW9tYWUnLCAnPG91dGZpbGUubWFlPic=

> <r_lp_tautomer_probability>
0.999

> <r_epik_Ionization_Penalty>
2.43994

> <r_epik_Ionization_Penalty_Charging>
0

> <r_epik_Ionization_Penalty_Neutral>
2.43994

> <r_epik_State_Penalty>
1.7682

> <r_epik_Charging_Adjusted_Penalty>
1.7682

> <i_epik_Tot_Q>
0

> <i_epik_Tot_abs_Q>
0

> <r_epik_Metal_State_Penalty>
1.80147

> <b_epik_Metal_Only>
0

> <s_lp_Force_Field>
OPLS_2005

> <r_lp_Energy>
42.8393

> <b_lp_Chiralities_Consistent>
1

> <s_lp_Variant>
AV-unprocessed.smi:1971-6

> <Gold.Version>
5.8.1

> <Gold.Id.Protein>
6NUR|6NUR_protein|mol2

> <Gold.PLP.Fitness>
47.7761

> <Gold.PLP.PLP>
-41.5238

> <Gold.PLP.part.hbond>
-3.0000

> <Gold.PLP.part.metal>
0.0000

> <Gold.PLP.part.buried>
-5.0458

> <Gold.PLP.part.nonpolar>
-33.7454

> <Gold.PLP.part.repulsive>
0.2168

> <Gold.PLP.ligand.clash>
0.0000

> <Gold.PLP.ligand.torsion>
1.0059

> <Gold.PLP.Chemscore.Hbond>
2.7200

> <Gold.PLP.Chemscore.CHOScore>
0.0000

> <Gold.PLP.Chemscore.Metal>
0.0000

> <Gold.Chemscore.Hbonds>
donor molecule, donor type, donor heavy atom, donor atom, acceptor molecule, acceptor atom, score
      P1  H  6896  6909       L1    12  1.00
      P1  H  6931  6943       L1    15  0.96
      P1  H  6934  6947       L1    15  0.80

> <Gold.PLP.Chemscore.Internal.Correction>
0.1041

> <Gold.Rescore>
     Score         DG    S(hbond)    S(metal)    S(lipo)     H(rot)  DE(clash)    DE(int)     intcor
     17.82     -18.52       1.94        0.00      94.19       1.75       0.01       0.70       ----

> <Gold.Chemscore.Fitness>
17.8178

> <Gold.Chemscore.DG>
-18.5219

> <Gold.Chemscore.ZeroCoef>
-5.4800

> <Gold.Chemscore.Hbond>
1.9446

> <Gold.Chemscore.Metal>
0.0000

> <Gold.Chemscore.Lipo>
94.1874

> <Gold.Chemscore.Internal_Hbond>
0.0000

> <Gold.Chemscore.DEClash>
0.0060

> <Gold.Chemscore.DEInternal>
0.6980

> <Gold.Chemscore.Rot>
1.7473

> <Gold.Chemscore.Internal.Correction>
   9.000000E+99

> <Gold.Chemscore.Hbonds>
donor molecule, donor type, donor heavy atom, donor atom, acceptor molecule, acceptor atom, score
      P1  H  6896  6909       L1    12  1.00
      P1  H  6931  6943       L1    15  0.46
      P1  H  6934  6947       L1    15  0.68

> <Gold.Chemscore.Hbond.Weighted>
-6.4950

> <Gold.Chemscore.Metal.Weighted>
-0.0000

> <Gold.Chemscore.Lipo.Weighted>
-11.0199

> <Gold.Chemscore.Internal_Hbond.Weighted>
0.0000

> <Gold.Chemscore.DEClash.Weighted>
0.0060

> <Gold.Chemscore.DEInternal.Weighted>
0.6980

> <Gold.Chemscore.Rot.Weighted>
4.4731

> <Gold.Chemscore.Internal.Correction.Weighted>
   9.000000E+99

> <Gold.Protein.RotatedTorsions>
[ 6907 6896 6895 6894 ] final   82.67 input  -60.11 | X-H torsion
[ 7974 7965 7964 7962 ] final  -52.18 input  175.53 | X-H torsion
[ 8008 7997 7996 7995 ] final  -30.00 input   59.86 | X-H torsion
[ 10167 10162 10161 10158 ] final  118.26 input  -65.29 | X-H torsion
[ 10718 10713 10712 10709 ] final  -42.44 input   66.30 | X-H torsion
[ 10763 10752 10751 10750 ] final  162.64 input  -60.55 | X-H torsion
[ 11005 11000 10999 10996 ] final   49.74 input  -57.11 | X-H torsion

> <Gold.Protein.ActiveResidues>
 VAL166  LYS551  ARG553  GLY616  TRP617  ASP618  TYR619  PRO620  LYS621  CYS622 
 ASP623  PHE694  ASN695  SER759  ASP760  ASP761  ALA762  ILE779  LEU786  VAL792 
 PHE793  MET794  SER795  GLU796  ALA797  LYS798  CYS799  TRP800  GLU811  SER814 

> <Gold.Protein.RotatedAtoms>
  152.5306  134.3014  159.9079 H   0  0  0  0  0  0  0  0  0  0  0  0  # atno 6907 bound_to 6896
  151.2965  133.4135  159.2644 H   0  0  0  0  0  0  0  0  0  0  0  0  # atno 6908 bound_to 6896
  151.0156  134.9446  159.8088 H   0  0  0  0  0  0  0  0  0  0  0  0  # atno 6909 bound_to 6896
  145.9108  140.7916  142.9696 H   0  0  0  0  0  0  0  0  0  0  0  0  # atno 7974 bound_to 7965
  154.4267  140.1803  156.1337 H   0  0  0  0  0  0  0  0  0  0  0  0  # atno 8008 bound_to 7997
  156.0047  140.3356  155.6856 H   0  0  0  0  0  0  0  0  0  0  0  0  # atno 8009 bound_to 7997
  155.6194  140.0658  157.2673 H   0  0  0  0  0  0  0  0  0  0  0  0  # atno 8010 bound_to 7997
  139.6123  144.7084  151.2817 H   0  0  0  0  0  0  0  0  0  0  0  0  # atno 10167 bound_to 10162
  156.2596  130.4195  149.8557 H   0  0  0  0  0  0  0  0  0  0  0  0  # atno 10718 bound_to 10713
  154.2815  135.2763  155.2695 H   0  0  0  0  0  0  0  0  0  0  0  0  # atno 10763 bound_to 10752
  154.5214  135.5755  153.6687 H   0  0  0  0  0  0  0  0  0  0  0  0  # atno 10764 bound_to 10752
  152.9928  135.6205  154.2975 H   0  0  0  0  0  0  0  0  0  0  0  0  # atno 10765 bound_to 10752
  140.1078  134.4996  155.8705 H   0  0  0  0  0  0  0  0  0  0  0  0  # atno 11005 bound_to 11000
  144.6743  140.1823  143.7404 LP  0  0  0  0  0  0  0  0  0  0  0  0  # atno 17320 bound_to 7965
  145.8674  139.2254  143.1681 LP  0  0  0  0  0  0  0  0  0  0  0  0  # atno 17321 bound_to 7965
  140.7327  143.6815  150.7997 LP  0  0  0  0  0  0  0  0  0  0  0  0  # atno 17342 bound_to 10162
  140.0411  143.5345  152.2717 LP  0  0  0  0  0  0  0  0  0  0  0  0  # atno 17343 bound_to 10162
  156.6077  130.8573  151.3447 LP  0  0  0  0  0  0  0  0  0  0  0  0  # atno 17370 bound_to 10713
  157.7245  130.9604  150.1578 LP  0  0  0  0  0  0  0  0  0  0  0  0  # atno 17371 bound_to 10713
  141.2122  133.6717  156.6644 LP  0  0  0  0  0  0  0  0  0  0  0  0  # atno 17394 bound_to 11000
  140.3133  134.8068  157.4193 LP  0  0  0  0  0  0  0  0  0  0  0  0  # atno 17395 bound_to 11000

$$$$
