AV-unprocessed.smi:1308|AV-procd|sdf|5441|dock5
  -GOLD-   22720 5 03D 1   1.00000     0.00000
 Structure written by MMmdl.
 45 45  0  0  0  0  0  0  0  0  1 V2000
  151.3240  143.4091  158.0365 C   0  0  0  0  0  0  0  0  0  0  0  0
  151.1872  142.2101  157.1236 C   0  0  0  0  0  0  0  0  0  0  0  0
  150.1334  142.3084  156.2301 N   0  0  0  0  0  0  0  0  0  0  0  0
  149.9326  141.2613  155.3477 C   0  0  0  0  0  0  0  0  0  0  0  0
  148.7583  141.4484  154.4024 C   0  0  0  0  0  0  0  0  0  0  0  0
  150.7389  140.1693  155.3589 C   0  0  0  0  0  0  0  0  0  0  0  0
  150.5510  138.9923  154.4021 C   0  0  0  0  0  0  0  0  0  0  0  0
  150.0466  137.6869  155.0226 C   0  0  0  0  0  0  0  0  0  0  0  0
  148.9892  137.6606  155.6525 O   0  0  0  0  0  0  0  0  0  0  0  0
  150.8202  136.6073  154.8182 N   0  0  0  0  0  0  0  0  0  0  0  0
  150.5588  135.2308  155.2469 C   0  0  1  0  0  0  0  0  0  0  0  0
  150.2675  135.1493  156.7559 C   0  0  0  0  0  0  0  0  0  0  0  0
  149.4705  134.5344  154.3987 C   0  0  0  0  0  0  0  0  0  0  0  0
  149.3196  133.0279  154.6913 C   0  0  0  0  0  0  0  0  0  0  0  0
  148.8504  132.1948  153.4812 C   0  0  0  0  0  0  0  0  0  0  0  0
  147.5495  132.7347  152.8632 C   0  0  0  0  0  0  0  0  0  0  0  0
  148.6815  130.7185  153.8719 C   0  0  0  0  0  0  0  0  0  0  0  0
  151.8431  140.1165  156.3459 C   0  0  0  0  0  0  0  0  0  0  0  0
  152.5968  139.1466  156.4180 O   0  0  0  0  0  0  0  0  0  0  0  0
  152.0094  141.2090  157.2124 N   0  0  0  0  0  0  0  0  0  0  0  0
  149.5095  143.1013  156.1891 H   0  0  0  0  0  0  0  0  0  0  0  0
  152.1465  143.2727  158.7398 H   0  0  0  0  0  0  0  0  0  0  0  0
  150.4082  143.5581  158.6093 H   0  0  0  0  0  0  0  0  0  0  0  0
  151.5202  144.3099  157.4540 H   0  0  0  0  0  0  0  0  0  0  0  0
  148.0417  140.6346  154.5163 H   0  0  0  0  0  0  0  0  0  0  0  0
  149.1003  141.4649  153.3676 H   0  0  0  0  0  0  0  0  0  0  0  0
  148.2326  142.3844  154.5954 H   0  0  0  0  0  0  0  0  0  0  0  0
  151.4757  138.7843  153.8629 H   0  0  0  0  0  0  0  0  0  0  0  0
  149.8410  139.2910  153.6302 H   0  0  0  0  0  0  0  0  0  0  0  0
  151.6688  136.7486  154.2896 H   0  0  0  0  0  0  0  0  0  0  0  0
  151.4932  134.6947  155.0771 H   0  0  0  0  0  0  0  0  0  0  0  0
  150.2142  134.1112  157.0847 H   0  0  0  0  0  0  0  0  0  0  0  0
  149.3192  135.6211  157.0138 H   0  0  0  0  0  0  0  0  0  0  0  0
  151.0520  135.6366  157.3358 H   0  0  0  0  0  0  0  0  0  0  0  0
  148.5222  135.0363  154.5893 H   0  0  0  0  0  0  0  0  0  0  0  0
  149.6736  134.6790  153.3373 H   0  0  0  0  0  0  0  0  0  0  0  0
  150.2831  132.6387  155.0222 H   0  0  0  0  0  0  0  0  0  0  0  0
  148.6338  132.8815  155.5268 H   0  0  0  0  0  0  0  0  0  0  0  0
  149.6284  132.2379  152.7177 H   0  0  0  0  0  0  0  0  0  0  0  0
  146.7420  132.7559  153.5957 H   0  0  0  0  0  0  0  0  0  0  0  0
  147.2242  132.1103  152.0306 H   0  0  0  0  0  0  0  0  0  0  0  0
  147.6743  133.7447  152.4738 H   0  0  0  0  0  0  0  0  0  0  0  0
  147.9222  130.5974  154.6452 H   0  0  0  0  0  0  0  0  0  0  0  0
  149.6143  130.3010  154.2524 H   0  0  0  0  0  0  0  0  0  0  0  0
  148.3811  130.1163  153.0139 H   0  0  0  0  0  0  0  0  0  0  0  0
  1 22  1  0  0  0  0
  1 23  1  0  0  0  0
  1 24  1  0  0  0  0
  1  2  1  0  0  0  0
  2  3  1  0  0  0  0
  2 20  2  0  0  0  0
  3  4  1  0  0  0  0
  3 21  1  0  0  0  0
  4  6  2  0  0  0  0
  4  5  1  0  0  0  0
  5 25  1  0  0  0  0
  5 26  1  0  0  0  0
  5 27  1  0  0  0  0
  6 18  1  0  0  0  0
  6  7  1  0  0  0  0
  7  8  1  0  0  0  0
  7 28  1  0  0  0  0
  7 29  1  0  0  0  0
  8  9  2  0  0  0  0
  8 10  1  0  0  0  0
 10 11  1  0  0  0  0
 10 30  1  0  0  0  0
 11 12  1  0  0  0  0
 11 13  1  0  0  0  0
 11 31  1  0  0  0  0
 12 32  1  0  0  0  0
 12 33  1  0  0  0  0
 12 34  1  0  0  0  0
 13 14  1  0  0  0  0
 13 35  1  0  0  0  0
 13 36  1  0  0  0  0
 14 15  1  0  0  0  0
 14 37  1  0  0  0  0
 14 38  1  0  0  0  0
 15 16  1  0  0  0  0
 15 17  1  0  0  0  0
 15 39  1  0  0  0  0
 16 40  1  0  0  0  0
 16 41  1  0  0  0  0
 16 42  1  0  0  0  0
 17 43  1  0  0  0  0
 17 44  1  0  0  0  0
 17 45  1  0  0  0  0
 18 19  2  0  0  0  0
 18 20  1  0  0  0  0
M  END
> <s_m_source_file>
AV-unprocessed.smi

> <i_m_source_file_index>
1308

> <i_lp_mmshare_version>
43012

> <i_f3d_flags>
0

> <s_epik_input>
W0NIM11jMW5jKFtDSDNdKWMoYyg9TylbbkhdMSlbQ0gyXUMoPU8pW05IXVtDQEhdKFtDSDNdKVtDSDJdW0NIMl1bQ0hdKFtDSDNdKVtDSDNd

> <s_epik_cmdline>
J2VwaWtfcHl0aG9uJywgJy1waCcsICc3LjAnLCAnLXRuJywgJzgnLCAnLW1hJywgJzIwMCcsICctbWV0YWxfYmluZGluZycsICctaW1hZScsICc8aW5maWxlLm1hZT4nLCAnLW9tYWUnLCAnPG91dGZpbGUubWFlPic=

> <r_lp_tautomer_probability>
0.156392

> <r_epik_Ionization_Penalty>
0.0141156

> <r_epik_Ionization_Penalty_Charging>
0.0139937

> <r_epik_Ionization_Penalty_Neutral>
0.00012188

> <r_epik_State_Penalty>
1.52994

> <r_epik_Charging_Adjusted_Penalty>
1.54393

> <i_epik_Tot_Q>
0

> <i_epik_Tot_abs_Q>
0

> <r_epik_Metal_State_Penalty>
1.70663

> <b_epik_Metal_Only>
0

> <s_lp_Force_Field>
OPLS_2005

> <r_lp_Energy>
10.3869

> <b_lp_Chiralities_Consistent>
1

> <s_lp_Variant>
AV-unprocessed.smi:1308-4

> <Gold.Version>
5.8.1

> <Gold.Id.Protein>
6NUR|6NUR_protein|mol2

> <Gold.PLP.Fitness>
42.2892

> <Gold.PLP.PLP>
-37.0764

> <Gold.PLP.part.hbond>
-2.0000

> <Gold.PLP.part.metal>
0.0000

> <Gold.PLP.part.buried>
-1.4796

> <Gold.PLP.part.nonpolar>
-32.9156

> <Gold.PLP.part.repulsive>
0.2512

> <Gold.PLP.ligand.clash>
0.0000

> <Gold.PLP.ligand.torsion>
0.4346

> <Gold.PLP.Chemscore.Hbond>
2.0000

> <Gold.PLP.Chemscore.CHOScore>
0.0000

> <Gold.PLP.Chemscore.Metal>
0.0000

> <Gold.Chemscore.Hbonds>
donor molecule, donor type, donor heavy atom, donor atom, acceptor molecule, acceptor atom, score
      L1  H     3    21       P1  8028  1.00
      P1  H  7997  8009       L1    19  0.95

> <Gold.PLP.Chemscore.Internal.Correction>
0.0820

> <Gold.Rescore>
     Score         DG    S(hbond)    S(metal)    S(lipo)     H(rot)  DE(clash)    DE(int)     intcor
     14.89     -15.35       1.78        0.00      76.90       1.98       0.13       0.33       ----

> <Gold.Chemscore.Fitness>
14.8877

> <Gold.Chemscore.DG>
-15.3488

> <Gold.Chemscore.ZeroCoef>
-5.4800

> <Gold.Chemscore.Hbond>
1.7813

> <Gold.Chemscore.Metal>
0.0000

> <Gold.Chemscore.Lipo>
76.8981

> <Gold.Chemscore.Internal_Hbond>
0.0000

> <Gold.Chemscore.DEClash>
0.1276

> <Gold.Chemscore.DEInternal>
0.3334

> <Gold.Chemscore.Rot>
1.9835

> <Gold.Chemscore.Internal.Correction>
   9.000000E+99

> <Gold.Chemscore.Hbonds>
donor molecule, donor type, donor heavy atom, donor atom, acceptor molecule, acceptor atom, score
      L1  H     3    21       P1  8028  0.99
      P1  H  7997  8009       L1    19  0.21

> <Gold.Chemscore.Hbond.Weighted>
-5.9494

> <Gold.Chemscore.Metal.Weighted>
-0.0000

> <Gold.Chemscore.Lipo.Weighted>
-8.9971

> <Gold.Chemscore.Internal_Hbond.Weighted>
0.0000

> <Gold.Chemscore.DEClash.Weighted>
0.1276

> <Gold.Chemscore.DEInternal.Weighted>
0.3334

> <Gold.Chemscore.Rot.Weighted>
5.0778

> <Gold.Chemscore.Internal.Correction.Weighted>
   9.000000E+99

> <Gold.Protein.RotatedTorsions>
[ 6907 6896 6895 6894 ] final   11.09 input  -60.11 | X-H torsion
[ 7974 7965 7964 7962 ] final  146.14 input  175.53 | X-H torsion
[ 8008 7997 7996 7995 ] final -165.16 input   59.86 | X-H torsion
[ 10167 10162 10161 10158 ] final  -56.74 input  -65.29 | X-H torsion
[ 10718 10713 10712 10709 ] final  138.32 input   66.30 | X-H torsion
[ 10763 10752 10751 10750 ] final   78.81 input  -60.55 | X-H torsion
[ 11005 11000 10999 10996 ] final -145.51 input  -57.11 | X-H torsion

> <Gold.Protein.ActiveResidues>
 VAL166  LYS551  ARG553  GLY616  TRP617  ASP618  TYR619  PRO620  LYS621  CYS622 
 ASP623  PHE694  ASN695  SER759  ASP760  ASP761  ALA762  ILE779  LEU786  VAL792 
 PHE793  MET794  SER795  GLU796  ALA797  LYS798  CYS799  TRP800  GLU811  SER814 

> <Gold.Protein.RotatedAtoms>
  151.7487  135.0837  160.0327 H   0  0  0  0  0  0  0  0  0  0  0  0  # atno 6907 bound_to 6896
  152.3431  133.6086  159.5899 H   0  0  0  0  0  0  0  0  0  0  0  0  # atno 6908 bound_to 6896
  150.7492  133.9607  159.3556 H   0  0  0  0  0  0  0  0  0  0  0  0  # atno 6909 bound_to 6896
  144.8695  139.5868  143.5893 H   0  0  0  0  0  0  0  0  0  0  0  0  # atno 7974 bound_to 7965
  155.8458  140.0955  157.1706 H   0  0  0  0  0  0  0  0  0  0  0  0  # atno 8008 bound_to 7997
  154.3983  140.1392  156.3846 H   0  0  0  0  0  0  0  0  0  0  0  0  # atno 8009 bound_to 7997
  155.8015  140.3452  155.5408 H   0  0  0  0  0  0  0  0  0  0  0  0  # atno 8010 bound_to 7997
  140.6299  143.2455  151.5267 H   0  0  0  0  0  0  0  0  0  0  0  0  # atno 10167 bound_to 10162
  157.4265  131.1044  151.0297 H   0  0  0  0  0  0  0  0  0  0  0  0  # atno 10718 bound_to 10713
  153.0903  135.4863  154.8677 H   0  0  0  0  0  0  0  0  0  0  0  0  # atno 10763 bound_to 10752
  154.7261  135.3050  154.8971 H   0  0  0  0  0  0  0  0  0  0  0  0  # atno 10764 bound_to 10752
  153.9620  135.6811  153.4798 H   0  0  0  0  0  0  0  0  0  0  0  0  # atno 10765 bound_to 10752
  140.7915  134.2963  157.5011 H   0  0  0  0  0  0  0  0  0  0  0  0  # atno 11005 bound_to 11000
  146.2920  139.7167  142.9154 LP  0  0  0  0  0  0  0  0  0  0  0  0  # atno 17320 bound_to 7965
  145.4157  141.0401  143.2992 LP  0  0  0  0  0  0  0  0  0  0  0  0  # atno 17321 bound_to 7965
  139.5515  144.2384  152.1538 LP  0  0  0  0  0  0  0  0  0  0  0  0  # atno 17342 bound_to 10162
  140.1626  144.5012  150.6624 LP  0  0  0  0  0  0  0  0  0  0  0  0  # atno 17343 bound_to 10162
  157.1208  130.6061  149.5504 LP  0  0  0  0  0  0  0  0  0  0  0  0  # atno 17370 bound_to 10713
  155.9898  130.4947  150.7231 LP  0  0  0  0  0  0  0  0  0  0  0  0  # atno 17371 bound_to 10713
  139.8731  134.9377  156.3695 LP  0  0  0  0  0  0  0  0  0  0  0  0  # atno 17394 bound_to 11000
  140.9385  133.7531  156.0115 LP  0  0  0  0  0  0  0  0  0  0  0  0  # atno 17395 bound_to 11000

$$$$
