AV-unprocessed.smi:319|AV-procd|sdf|2331|dock2
  -GOLD-   2262022233D 1   1.00000     0.00000
 Structure written by MMmdl.
 38 39  0  0  0  0  0  0  0  0  1 V2000
  144.2299  144.6261  154.9916 C   0  0  0  0  0  0  0  0  0  0  0  0
  144.0163  143.0187  155.8072 S   0  0  0  0  0  0  0  0  0  0  0  0
  145.6563  142.3691  155.7071 C   0  0  0  0  0  0  0  0  0  0  0  0
  146.2082  141.6380  156.6764 N   0  0  0  0  0  0  0  0  0  0  0  0
  147.5131  141.2337  156.3806 C   0  0  0  0  0  0  0  0  0  0  0  0
  148.2688  140.4069  157.3764 C   0  0  0  0  0  0  0  0  0  0  0  0
  147.9598  141.6752  155.1559 C   0  0  0  0  0  0  0  0  0  0  0  0
  149.2932  141.4436  154.5171 C   0  0  0  0  0  0  0  0  0  0  0  0
  150.4084  141.4846  155.5614 C   0  0  0  0  0  0  0  0  0  0  0  0
  151.2066  140.5517  155.6467 O   0  0  0  0  0  0  0  0  0  0  0  0
  150.4547  142.5747  156.3424 N   0  0  0  0  0  0  0  0  0  0  0  0
  151.4515  142.8345  157.3757 C   0  0  0  0  0  0  0  0  0  0  0  0
  151.1805  141.9696  158.6243 C   0  0  0  0  0  0  0  0  0  0  0  0
  152.1708  142.2897  159.7558 C   0  0  0  0  0  0  0  0  0  0  0  0
  152.1532  143.7858  160.1070 C   0  0  0  0  0  0  0  0  0  0  0  0
  152.4302  144.6491  158.8663 C   0  0  0  0  0  0  0  0  0  0  0  0
  151.4395  144.3327  157.7343 C   0  0  0  0  0  0  0  0  0  0  0  0
  146.7373  142.6141  154.3372 S   0  0  0  0  0  0  0  0  0  0  0  0
  143.2758  145.1518  154.9593 H   0  0  0  0  0  0  0  0  0  0  0  0
  144.5799  144.4977  153.9674 H   0  0  0  0  0  0  0  0  0  0  0  0
  144.9396  145.2480  155.5373 H   0  0  0  0  0  0  0  0  0  0  0  0
  148.7532  139.5556  156.8984 H   0  0  0  0  0  0  0  0  0  0  0  0
  147.6132  140.0139  158.1541 H   0  0  0  0  0  0  0  0  0  0  0  0
  149.0430  140.9963  157.8677 H   0  0  0  0  0  0  0  0  0  0  0  0
  149.3050  140.4858  153.9955 H   0  0  0  0  0  0  0  0  0  0  0  0
  149.4855  142.2059  153.7613 H   0  0  0  0  0  0  0  0  0  0  0  0
  149.7547  143.2877  156.1983 H   0  0  0  0  0  0  0  0  0  0  0  0
  152.4408  142.5889  156.9843 H   0  0  0  0  0  0  0  0  0  0  0  0
  150.1623  142.1394  158.9774 H   0  0  0  0  0  0  0  0  0  0  0  0
  151.2467  140.9107  158.3716 H   0  0  0  0  0  0  0  0  0  0  0  0
  151.9301  141.6974  160.6390 H   0  0  0  0  0  0  0  0  0  0  0  0
  153.1771  141.9973  159.4527 H   0  0  0  0  0  0  0  0  0  0  0  0
  151.1829  144.0511  160.5284 H   0  0  0  0  0  0  0  0  0  0  0  0
  152.8937  143.9956  160.8793 H   0  0  0  0  0  0  0  0  0  0  0  0
  152.3700  145.7059  159.1278 H   0  0  0  0  0  0  0  0  0  0  0  0
  153.4494  144.4740  158.5193 H   0  0  0  0  0  0  0  0  0  0  0  0
  151.6852  144.9293  156.8548 H   0  0  0  0  0  0  0  0  0  0  0  0
  150.4361  144.6324  158.0400 H   0  0  0  0  0  0  0  0  0  0  0  0
  1  2  1  0  0  0  0
  1 19  1  0  0  0  0
  1 20  1  0  0  0  0
  1 21  1  0  0  0  0
  2  3  1  0  0  0  0
  3 18  1  0  0  0  0
  3  4  2  0  0  0  0
  4  5  1  0  0  0  0
  5  6  1  0  0  0  0
  5  7  2  0  0  0  0
  6 22  1  0  0  0  0
  6 23  1  0  0  0  0
  6 24  1  0  0  0  0
  7  8  1  0  0  0  0
  7 18  1  0  0  0  0
  8  9  1  0  0  0  0
  8 25  1  0  0  0  0
  8 26  1  0  0  0  0
  9 10  2  0  0  0  0
  9 11  1  0  0  0  0
 11 12  1  0  0  0  0
 11 27  1  0  0  0  0
 12 17  1  0  0  0  0
 12 13  1  0  0  0  0
 12 28  1  0  0  0  0
 13 14  1  0  0  0  0
 13 29  1  0  0  0  0
 13 30  1  0  0  0  0
 14 15  1  0  0  0  0
 14 31  1  0  0  0  0
 14 32  1  0  0  0  0
 15 16  1  0  0  0  0
 15 33  1  0  0  0  0
 15 34  1  0  0  0  0
 16 17  1  0  0  0  0
 16 35  1  0  0  0  0
 16 36  1  0  0  0  0
 17 37  1  0  0  0  0
 17 38  1  0  0  0  0
M  END
> <s_m_source_file>
AV-unprocessed.smi

> <i_m_source_file_index>
319

> <i_lp_mmshare_version>
43012

> <i_f3d_flags>
0

> <s_epik_input>
W0NIM11TYzFuYyhbQ0gzXSljKHMxKVtDSDJdQyg9TylbTkhdW0NIXTJbQ0gyXVtDSDJdW0NIMl1bQ0gyXVtDSDJdMg==

> <s_epik_cmdline>
J2VwaWtfcHl0aG9uJywgJy1waCcsICc3LjAnLCAnLXRuJywgJzgnLCAnLW1hJywgJzIwMCcsICctbWV0YWxfYmluZGluZycsICctaW1hZScsICc8aW5maWxlLm1hZT4nLCAnLW9tYWUnLCAnPG91dGZpbGUubWFlPic=

> <r_lp_tautomer_probability>
1

> <r_epik_Ionization_Penalty>
2.85285e-06

> <r_epik_Ionization_Penalty_Charging>
0

> <r_epik_Ionization_Penalty_Neutral>
2.85285e-06

> <r_epik_State_Penalty>
-0

> <r_epik_Charging_Adjusted_Penalty>
0

> <i_epik_Tot_Q>
0

> <i_epik_Tot_abs_Q>
0

> <r_epik_Metal_State_Penalty>
-0

> <b_epik_Metal_Only>
0

> <s_lp_Force_Field>
OPLS_2005

> <r_lp_Energy>
6.2973

> <b_lp_Chiralities_Consistent>
1

> <s_lp_Variant>
AV-unprocessed.smi:319-1

> <Gold.Version>
5.8.1

> <Gold.Id.Protein>
6NUR|6NUR_protein|mol2

> <Gold.PLP.Fitness>
40.9383

> <Gold.PLP.PLP>
-39.4491

> <Gold.PLP.part.hbond>
-1.6290

> <Gold.PLP.part.metal>
0.0000

> <Gold.PLP.part.buried>
-3.7574

> <Gold.PLP.part.nonpolar>
-33.0872

> <Gold.PLP.part.repulsive>
0.1719

> <Gold.PLP.ligand.clash>
0.0000

> <Gold.PLP.ligand.torsion>
0.9122

> <Gold.PLP.Chemscore.Hbond>
1.1011

> <Gold.PLP.Chemscore.CHOScore>
0.0000

> <Gold.PLP.Chemscore.Metal>
0.0000

> <Gold.Chemscore.Hbonds>
donor molecule, donor type, donor heavy atom, donor atom, acceptor molecule, acceptor atom, score
      L1  H    11    27       P1  8028  1.00
      P1  H  7989  7998       L1    10  0.17

> <Gold.PLP.Chemscore.Internal.Correction>
0.0104

> <Gold.Rescore>
     Score         DG    S(hbond)    S(metal)    S(lipo)     H(rot)  DE(clash)    DE(int)     intcor
     16.78     -17.29       1.00        0.00     101.44       1.33       0.04       0.46       ----

> <Gold.Chemscore.Fitness>
16.7838

> <Gold.Chemscore.DG>
-17.2860

> <Gold.Chemscore.ZeroCoef>
-5.4800

> <Gold.Chemscore.Hbond>
0.9997

> <Gold.Chemscore.Metal>
0.0000

> <Gold.Chemscore.Lipo>
101.4447

> <Gold.Chemscore.Internal_Hbond>
0.0000

> <Gold.Chemscore.DEClash>
0.0399

> <Gold.Chemscore.DEInternal>
0.4623

> <Gold.Chemscore.Rot>
1.3289

> <Gold.Chemscore.Internal.Correction>
   9.000000E+99

> <Gold.Chemscore.Hbonds>
donor molecule, donor type, donor heavy atom, donor atom, acceptor molecule, acceptor atom, score
      L1  H    11    27       P1  8028  1.00

> <Gold.Chemscore.Hbond.Weighted>
-3.3389

> <Gold.Chemscore.Metal.Weighted>
-0.0000

> <Gold.Chemscore.Lipo.Weighted>
-11.8690

> <Gold.Chemscore.Internal_Hbond.Weighted>
0.0000

> <Gold.Chemscore.DEClash.Weighted>
0.0399

> <Gold.Chemscore.DEInternal.Weighted>
0.4623

> <Gold.Chemscore.Rot.Weighted>
3.4019

> <Gold.Chemscore.Internal.Correction.Weighted>
   9.000000E+99

> <Gold.Protein.RotatedTorsions>
[ 6907 6896 6895 6894 ] final -119.88 input  -60.11 | X-H torsion
[ 7974 7965 7964 7962 ] final -157.01 input  175.53 | X-H torsion
[ 8008 7997 7996 7995 ] final   -7.87 input   59.86 | X-H torsion
[ 10167 10162 10161 10158 ] final -163.36 input  -65.29 | X-H torsion
[ 10718 10713 10712 10709 ] final  -34.53 input   66.30 | X-H torsion
[ 10763 10752 10751 10750 ] final -116.16 input  -60.55 | X-H torsion
[ 11005 11000 10999 10996 ] final  134.85 input  -57.11 | X-H torsion

> <Gold.Protein.ActiveResidues>
 VAL166  LYS551  ARG553  GLY616  TRP617  ASP618  TYR619  PRO620  LYS621  CYS622 
 ASP623  PHE694  ASN695  SER759  ASP760  ASP761  ALA762  ILE779  LEU786  VAL792 
 PHE793  MET794  SER795  GLU796  ALA797  LYS798  CYS799  TRP800  GLU811  SER814 

> <Gold.Protein.RotatedAtoms>
  150.8344  133.8038  159.3085 H   0  0  0  0  0  0  0  0  0  0  0  0  # atno 6907 bound_to 6896
  151.5758  135.1059  160.0015 H   0  0  0  0  0  0  0  0  0  0  0  0  # atno 6908 bound_to 6896
  152.4419  133.7421  159.6703 H   0  0  0  0  0  0  0  0  0  0  0  0  # atno 6909 bound_to 6896
  144.7567  140.4030  143.6007 H   0  0  0  0  0  0  0  0  0  0  0  0  # atno 7974 bound_to 7965
  154.5796  140.2396  155.8073 H   0  0  0  0  0  0  0  0  0  0  0  0  # atno 8008 bound_to 7997
  156.2169  140.3009  155.9816 H   0  0  0  0  0  0  0  0  0  0  0  0  # atno 8009 bound_to 7997
  155.2565  140.0412  157.2983 H   0  0  0  0  0  0  0  0  0  0  0  0  # atno 8010 bound_to 7997
  139.6326  144.0410  152.2028 H   0  0  0  0  0  0  0  0  0  0  0  0  # atno 10167 bound_to 10162
  156.3494  130.4306  149.7717 H   0  0  0  0  0  0  0  0  0  0  0  0  # atno 10718 bound_to 10713
  154.8509  135.4355  154.1777 H   0  0  0  0  0  0  0  0  0  0  0  0  # atno 10763 bound_to 10752
  153.2875  135.6959  153.7331 H   0  0  0  0  0  0  0  0  0  0  0  0  # atno 10764 bound_to 10752
  153.6511  135.3451  155.3075 H   0  0  0  0  0  0  0  0  0  0  0  0  # atno 10765 bound_to 10752
  139.9941  134.9504  156.9925 H   0  0  0  0  0  0  0  0  0  0  0  0  # atno 11005 bound_to 11000
  145.6754  139.1607  143.2730 LP  0  0  0  0  0  0  0  0  0  0  0  0  # atno 17320 bound_to 7965
  146.1586  140.6822  142.9288 LP  0  0  0  0  0  0  0  0  0  0  0  0  # atno 17321 bound_to 7965
  140.0079  144.6245  150.7672 LP  0  0  0  0  0  0  0  0  0  0  0  0  # atno 17342 bound_to 10162
  140.7448  143.2865  151.3448 LP  0  0  0  0  0  0  0  0  0  0  0  0  # atno 17343 bound_to 10162
  156.4923  130.8091  151.3100 LP  0  0  0  0  0  0  0  0  0  0  0  0  # atno 17370 bound_to 10713
  157.7459  130.9971  150.2804 LP  0  0  0  0  0  0  0  0  0  0  0  0  # atno 17371 bound_to 10713
  140.4851  134.1250  155.7223 LP  0  0  0  0  0  0  0  0  0  0  0  0  # atno 17394 bound_to 11000
  141.1590  133.8828  157.1899 LP  0  0  0  0  0  0  0  0  0  0  0  0  # atno 17395 bound_to 11000

$$$$
