#       Name:                AV-unprocessed.smi:1209
#       Creating user name   scv26
#       Creation time:       Fri Mar 27 04:11:25 2020


#       File generated by GOLD software.
#

@<TRIPOS>MOLECULE
AV-unprocessed.smi:1209
    55    57     1
SMALL
NO_CHARGES


@<TRIPOS>ATOM
      1 ****        -5.8890   5.5866  -0.6815 C.3            1 S1                 0.0000
      2 ****        -4.8074   4.5617  -0.6721 C.2            1 S1                 0.0000
      3 ****        -4.6680   3.3607  -0.0370 C.2            1 S1                 0.0000
      4 ****        -3.3943   2.8983  -0.4684 C.2            1 S1                 0.0000
      5 ****        -2.6909   1.6197  -0.0980 C.3            1 S1                 0.0000
      6 ****        -2.7061   0.6082  -1.1605 N.3            1 S1                 0.0000
      7 ****        -4.0678   0.1742  -1.4610 C.3            1 S1                 0.0000
      8 ****        -1.8766  -0.5519  -0.8280 C.3            1 S1                 0.0000
      9 ****        -0.3596  -0.2796  -0.7300 C.3            1 S1                 0.0000
     10 ****        -0.0176  -0.0569   0.6256 O.3            1 S1                 0.0000
     11 ****         0.4724  -1.4646  -1.2593 C.3            1 S1                 0.0000
     12 ****         1.9021  -1.2216  -1.1800 N.pl3          1 S1                 0.0000
     13 ****         2.6520  -0.5194  -2.0508 C.2            1 S1                 0.0000
     14 ****         3.9521  -0.4170  -1.7906 N.2            1 S1                 0.0000
     15 ****         4.0578  -1.1353  -0.6116 C.ar           1 S1                 0.0000
     16 ****         5.1830  -1.4105   0.1960 C.ar           1 S1                 0.0000
     17 ****         5.0577  -2.1760   1.3773 C.ar           1 S1                 0.0000
     18 ****         6.2939  -2.4468   2.2167 C.3            1 S1                 0.0000
     19 ****         3.7903  -2.6794   1.7667 C.ar           1 S1                 0.0000
     20 ****         3.6311  -3.5020   3.0331 C.3            1 S1                 0.0000
     21 ****         2.6562  -2.4147   0.9706 C.ar           1 S1                 0.0000
     22 ****         2.7935  -1.6521  -0.2028 C.ar           1 S1                 0.0000
     23 ****        -2.8148   3.7557  -1.2932 N.2            1 S1                 0.0000
     24 ****        -3.7113   4.8215  -1.4300 O.3            1 S1                 0.0000
     25 ****        -6.7793   5.2177  -0.1720 H              1 S1                 0.0000
     26 ****        -6.1676   5.8461  -1.7030 H              1 S1                 0.0000
     27 ****        -5.5628   6.4961  -0.1768 H              1 S1                 0.0000
     28 ****        -5.3692   2.8842   0.6315 H              1 S1                 0.0000
     29 ****        -1.6622   1.8698   0.1589 H              1 S1                 0.0000
     30 ****        -3.1298   1.2051   0.8104 H              1 S1                 0.0000
     31 ****        -4.0712  -0.5691  -2.2590 H              1 S1                 0.0000
     32 ****        -4.6845   1.0071  -1.7990 H              1 S1                 0.0000
     33 ****        -4.5430  -0.2685  -0.5845 H              1 S1                 0.0000
     34 ****        -2.2395  -1.0328   0.0822 H              1 S1                 0.0000
     35 ****        -2.0195  -1.2918  -1.6169 H              1 S1                 0.0000
     36 ****        -0.1039   0.6106  -1.3070 H              1 S1                 0.0000
     37 ****        -0.2205  -0.8364   1.1195 H              1 S1                 0.0000
     38 ****         0.2398  -2.3753  -0.7060 H              1 S1                 0.0000
     39 ****         0.2218  -1.6627  -2.3023 H              1 S1                 0.0000
     40 ****         2.2180  -0.0574  -2.9256 H              1 S1                 0.0000
     41 ****         6.1478  -1.0259  -0.1005 H              1 S1                 0.0000
     42 ****         6.1791  -2.0195   3.2131 H              1 S1                 0.0000
     43 ****         7.1854  -2.0103   1.7657 H              1 S1                 0.0000
     44 ****         6.4615  -3.5193   2.3165 H              1 S1                 0.0000
     45 ****         2.5936  -3.8005   3.1861 H              1 S1                 0.0000
     46 ****         3.9453  -2.9268   3.9042 H              1 S1                 0.0000
     47 ****         4.2351  -4.4078   2.9783 H              1 S1                 0.0000
     48 ****         1.6851  -2.7907   1.2562 H              1 S1                 0.0000
     49 ****        -2.3186   1.0439  -1.9729 LP             1 S1                 0.0000
     50 ****        -0.5432   0.7149   0.9833 LP             1 S1                 0.0000
     51 ****         0.9595   0.1431   0.6981 LP             1 S1                 0.0000
     52 ****         4.6653   0.0544  -2.3095 LP             1 S1                 0.0000
     53 ****        -1.9198   3.6613  -1.7293 LP             1 S1                 0.0000
     54 ****        -3.2790   5.6680  -1.1192 LP             1 S1                 0.0000
     55 ****        -3.9788   4.9164  -2.3889 LP             1 S1                 0.0000
@<TRIPOS>BOND
    1    1    2 1     
    2    1   25 1     
    3    1   26 1     
    4    1   27 1     
    5    2   24 1     
    6    2    3 2     
    7    3    4 1     
    8    3   28 1     
    9    4    5 1     
   10    4   23 2     
   11    5    6 1     
   12    5   29 1     
   13    5   30 1     
   14    6    7 1     
   15    6    8 1     
   16    7   31 1     
   17    7   32 1     
   18    7   33 1     
   19    8    9 1     
   20    8   34 1     
   21    8   35 1     
   22    9   10 1     
   23    9   11 1     
   24    9   36 1     
   25   10   37 1     
   26   11   12 1     
   27   11   38 1     
   28   11   39 1     
   29   12   22 1     
   30   12   13 1     
   31   13   14 2     
   32   13   40 1     
   33   14   15 1     
   34   15   22 ar    
   35   15   16 ar    
   36   16   17 ar    
   37   16   41 1     
   38   17   18 1     
   39   17   19 ar    
   40   18   42 1     
   41   18   43 1     
   42   18   44 1     
   43   19   20 1     
   44   19   21 ar    
   45   20   45 1     
   46   20   46 1     
   47   20   47 1     
   48   21   22 ar    
   49   21   48 1     
   50   23   24 1     
   51    6   49 1     
   52   10   50 1     
   53   10   51 1     
   54   14   52 1     
   55   23   53 1     
   56   24   54 1     
   57   24   55 1     
@<TRIPOS>SUBSTRUCTURE
      1 S1             1
@<TRIPOS>SET
LONE_PAIRS      STATIC     ATOMS    <user>   **** ""
7 49 50 51 52 53 54 55
DONOR_HYDROGENS      STATIC     ATOMS    <user>   **** ""
1 37
ATOM$BLUE        STATIC     ATOMS    COLORGROUP SYSTEM
7 49 50 51 52 53 54 55
ATOM$RED        STATIC     ATOMS    COLORGROUP SYSTEM
1 37
