AV-unprocessed.smi:47|AV-procd|sdf|429|dock1
  -GOLD-   2262016303D 1   1.00000     0.00000
 Structure written by MMmdl.
 31 33  0  0  0  0  0  0  0  0  3 V2000
  146.9366  139.6418  153.8066 O   0  0  0  0  0  0  0  0  0  0  0  0
  147.8909  140.6719  153.9548 C   0  0  1  0  0  0  0  0  0  0  0  0
  147.4666  141.7106  154.9977 C   0  0  0  0  0  0  0  0  0  0  0  0
  148.7159  142.2389  155.5806 N   0  3  0  0  0  0  0  0  0  0  0  0
  149.8438  141.4162  155.0998 C   0  0  1  0  0  0  0  0  0  0  0  0
  150.8453  141.1266  156.1982 C   0  0  0  0  0  0  0  0  0  0  0  0
  151.8243  140.2031  156.1218 N   0  0  0  0  0  0  0  0  0  0  0  0
  152.4913  140.2828  157.2565 N   0  5  0  0  0  0  0  0  0  0  0  0
  151.9267  141.2497  157.9961 C   0  0  0  0  0  0  0  0  0  0  0  0
  152.4313  141.6156  159.3357 C   0  0  0  0  0  0  0  0  0  0  0  0
  153.3573  140.7813  160.0041 C   0  0  0  0  0  0  0  0  0  0  0  0
  153.8459  141.1156  161.2822 C   0  0  0  0  0  0  0  0  0  0  0  0
  153.4139  142.2953  161.9145 C   0  0  0  0  0  0  0  0  0  0  0  0
  152.4935  143.1375  161.2650 C   0  0  0  0  0  0  0  0  0  0  0  0
  152.0080  142.7989  159.9868 C   0  0  0  0  0  0  0  0  0  0  0  0
  150.9006  141.7962  157.3589 N   0  0  0  0  0  0  0  0  0  0  0  0
  149.2166  140.1541  154.5027 C   0  0  0  0  0  0  0  0  0  0  0  0
  148.0558  141.1585  152.9924 H   0  0  0  0  0  0  0  0  0  0  0  0
  150.3397  141.9778  154.3067 H   0  0  0  0  0  0  0  0  0  0  0  0
  147.1874  138.9150  154.3569 H   0  0  0  0  0  0  0  0  0  0  0  0
  146.8529  142.5047  154.5719 H   0  0  0  0  0  0  0  0  0  0  0  0
  146.8987  141.2403  155.8021 H   0  0  0  0  0  0  0  0  0  0  0  0
  148.8619  143.2014  155.3129 H   0  0  0  0  0  0  0  0  0  0  0  0
  153.7010  139.8709  159.5356 H   0  0  0  0  0  0  0  0  0  0  0  0
  154.5526  140.4652  161.7762 H   0  0  0  0  0  0  0  0  0  0  0  0
  153.7871  142.5533  162.8946 H   0  0  0  0  0  0  0  0  0  0  0  0
  152.1584  144.0442  161.7463 H   0  0  0  0  0  0  0  0  0  0  0  0
  151.3014  143.4607  159.5079 H   0  0  0  0  0  0  0  0  0  0  0  0
  149.0271  139.4250  155.2930 H   0  0  0  0  0  0  0  0  0  0  0  0
  149.8466  139.6780  153.7506 H   0  0  0  0  0  0  0  0  0  0  0  0
  148.6645  142.1695  156.5874 H   0  0  0  0  0  0  0  0  0  0  0  0
  1  2  1  0  0  0  0
  1 20  1  0  0  0  0
  2 18  1  0  0  0  0
  2 17  1  0  0  0  0
  2  3  1  0  0  0  0
  3  4  1  0  0  0  0
  3 21  1  0  0  0  0
  3 22  1  0  0  0  0
  4  5  1  0  0  0  0
  4 23  1  0  0  0  0
  4 31  1  0  0  0  0
  5 19  1  0  0  0  0
  5  6  1  0  0  0  0
  5 17  1  0  0  0  0
  6 16  1  0  0  0  0
  6  7  2  0  0  0  0
  7  8  1  0  0  0  0
  8  9  1  0  0  0  0
  9 10  1  0  0  0  0
  9 16  2  0  0  0  0
 10 15  1  0  0  0  0
 10 11  2  0  0  0  0
 11 12  1  0  0  0  0
 11 24  1  0  0  0  0
 12 13  2  0  0  0  0
 12 25  1  0  0  0  0
 13 14  1  0  0  0  0
 13 26  1  0  0  0  0
 14 15  2  0  0  0  0
 14 27  1  0  0  0  0
 15 28  1  0  0  0  0
 17 29  1  0  0  0  0
 17 30  1  0  0  0  0
M  CHG  1   4   1
M  CHG  1   8  -1
M  END
> <s_m_source_file>
AV-unprocessed.smi

> <i_m_source_file_index>
47

> <i_lp_mmshare_version>
43012

> <i_f3d_flags>
0

> <s_epik_input>
W09IXVtDQEhdMVtDSDJdW05IXVtDQEBIXShbQ0gyXTEpYzJuW25IXWMobjIpLWMzW2NIXVtjSF1bY0hdW2NIXVtjSF0z

> <s_epik_cmdline>
J2VwaWtfcHl0aG9uJywgJy1waCcsICc3LjAnLCAnLXRuJywgJzgnLCAnLW1hJywgJzIwMCcsICctbWV0YWxfYmluZGluZycsICctaW1hZScsICc8aW5maWxlLm1hZT4nLCAnLW9tYWUnLCAnPG91dGZpbGUubWFlPic=

> <r_lp_tautomer_probability>
1

> <r_epik_Ionization_Penalty>
1.09593

> <r_epik_Ionization_Penalty_Charging>
1.09593

> <r_epik_Ionization_Penalty_Neutral>
3.91329e-08

> <r_epik_State_Penalty>
0.690005

> <r_epik_Charging_Adjusted_Penalty>
1.78594

> <i_epik_Tot_Q>
0

> <i_epik_Tot_abs_Q>
2

> <r_epik_Metal_State_Penalty>
0.213596

> <b_epik_Metal_Only>
0

> <s_lp_Force_Field>
OPLS_2005

> <r_lp_Energy>
21.6155

> <b_lp_Chiralities_Consistent>
1

> <s_lp_Variant>
AV-unprocessed.smi:47-7

> <Gold.Version>
5.8.1

> <Gold.Id.Protein>
6NUR|6NUR_protein|mol2

> <Gold.PLP.Fitness>
48.3110

> <Gold.PLP.PLP>
-37.2059

> <Gold.PLP.part.hbond>
-1.8291

> <Gold.PLP.part.metal>
0.0000

> <Gold.PLP.part.buried>
-4.2177

> <Gold.PLP.part.nonpolar>
-31.0562

> <Gold.PLP.part.repulsive>
0.1894

> <Gold.PLP.ligand.clash>
0.0000

> <Gold.PLP.ligand.torsion>
0.4271

> <Gold.PLP.Chemscore.Hbond>
3.9840

> <Gold.PLP.Chemscore.CHOScore>
0.0000

> <Gold.PLP.Chemscore.Metal>
0.0000

> <Gold.Chemscore.Hbonds>
donor molecule, donor type, donor heavy atom, donor atom, acceptor molecule, acceptor atom, score
      L1  H     4    23       P1  8028  2.00
      P1  H  7997  8010       L1     8  1.95

> <Gold.PLP.Chemscore.Internal.Correction>
0.0073

> <Gold.Rescore>
     Score         DG    S(hbond)    S(metal)    S(lipo)     H(rot)  DE(clash)    DE(int)     intcor
     17.27     -17.75       1.79        0.00      86.21       1.48       0.13       0.36       ----

> <Gold.Chemscore.Fitness>
17.2692

> <Gold.Chemscore.DG>
-17.7542

> <Gold.Chemscore.ZeroCoef>
-5.4800

> <Gold.Chemscore.Hbond>
1.7896

> <Gold.Chemscore.Metal>
0.0000

> <Gold.Chemscore.Lipo>
86.2112

> <Gold.Chemscore.Internal_Hbond>
0.0000

> <Gold.Chemscore.DEClash>
0.1252

> <Gold.Chemscore.DEInternal>
0.3598

> <Gold.Chemscore.Rot>
1.4804

> <Gold.Chemscore.Internal.Correction>
   9.000000E+99

> <Gold.Chemscore.Hbonds>
donor molecule, donor type, donor heavy atom, donor atom, acceptor molecule, acceptor atom, score
      L1  H     4    23       P1  8028  0.92
      P1  H  7997  8010       L1     8  0.45

> <Gold.Chemscore.Hbond.Weighted>
-5.9774

> <Gold.Chemscore.Metal.Weighted>
-0.0000

> <Gold.Chemscore.Lipo.Weighted>
-10.0867

> <Gold.Chemscore.Internal_Hbond.Weighted>
0.0000

> <Gold.Chemscore.DEClash.Weighted>
0.1252

> <Gold.Chemscore.DEInternal.Weighted>
0.3598

> <Gold.Chemscore.Rot.Weighted>
3.7899

> <Gold.Chemscore.Internal.Correction.Weighted>
   9.000000E+99

> <Gold.Protein.RotatedTorsions>
[ 6907 6896 6895 6894 ] final   62.12 input  -60.11 | X-H torsion
[ 7974 7965 7964 7962 ] final  172.84 input  175.53 | X-H torsion
[ 8008 7997 7996 7995 ] final   53.72 input   59.86 | X-H torsion
[ 10167 10162 10161 10158 ] final    1.97 input  -65.29 | X-H torsion
[ 10718 10713 10712 10709 ] final   12.62 input   66.30 | X-H torsion
[ 10763 10752 10751 10750 ] final  107.60 input  -60.55 | X-H torsion
[ 11005 11000 10999 10996 ] final  -36.40 input  -57.11 | X-H torsion

> <Gold.Protein.ActiveResidues>
 VAL166  LYS551  ARG553  GLY616  TRP617  ASP618  TYR619  PRO620  LYS621  CYS622 
 ASP623  PHE694  ASN695  SER759  ASP760  ASP761  ALA762  ILE779  LEU786  VAL792 
 PHE793  MET794  SER795  GLU796  ALA797  LYS798  CYS799  TRP800  GLU811  SER814 

> <Gold.Protein.RotatedAtoms>
  152.4146  134.6065  160.0013 H   0  0  0  0  0  0  0  0  0  0  0  0  # atno 6907 bound_to 6896
  151.6232  133.3332  159.3100 H   0  0  0  0  0  0  0  0  0  0  0  0  # atno 6908 bound_to 6896
  150.8035  134.7184  159.6688 H   0  0  0  0  0  0  0  0  0  0  0  0  # atno 6909 bound_to 6896
  144.7258  139.9558  143.6433 H   0  0  0  0  0  0  0  0  0  0  0  0  # atno 7974 bound_to 7965
  155.4729  140.3466  155.4328 H   0  0  0  0  0  0  0  0  0  0  0  0  # atno 8008 bound_to 7997
  156.1089  140.1455  156.9395 H   0  0  0  0  0  0  0  0  0  0  0  0  # atno 8009 bound_to 7997
  154.4743  140.0890  156.7201 H   0  0  0  0  0  0  0  0  0  0  0  0  # atno 8010 bound_to 7997
  140.6657  143.7185  150.7823 H   0  0  0  0  0  0  0  0  0  0  0  0  # atno 10167 bound_to 10162
  157.0129  130.6124  149.5710 H   0  0  0  0  0  0  0  0  0  0  0  0  # atno 10718 bound_to 10713
  153.4090  135.3839  155.2037 H   0  0  0  0  0  0  0  0  0  0  0  0  # atno 10763 bound_to 10752
  154.8736  135.3789  154.4525 H   0  0  0  0  0  0  0  0  0  0  0  0  # atno 10764 bound_to 10752
  153.5031  135.7088  153.5883 H   0  0  0  0  0  0  0  0  0  0  0  0  # atno 10765 bound_to 10752
  140.9872  133.7024  156.1786 H   0  0  0  0  0  0  0  0  0  0  0  0  # atno 11005 bound_to 11000
  146.0676  139.3666  143.0543 LP  0  0  0  0  0  0  0  0  0  0  0  0  # atno 17320 bound_to 7965
  145.8011  140.9770  143.0998 LP  0  0  0  0  0  0  0  0  0  0  0  0  # atno 17321 bound_to 7965
  140.0861  143.4922  152.2504 LP  0  0  0  0  0  0  0  0  0  0  0  0  # atno 17342 bound_to 10162
  139.5906  144.7548  151.3411 LP  0  0  0  0  0  0  0  0  0  0  0  0  # atno 17343 bound_to 10162
  156.0130  130.5222  150.8047 LP  0  0  0  0  0  0  0  0  0  0  0  0  # atno 17370 bound_to 10713
  157.5307  131.0936  150.9958 LP  0  0  0  0  0  0  0  0  0  0  0  0  # atno 17371 bound_to 10713
  140.7096  134.4475  157.5582 LP  0  0  0  0  0  0  0  0  0  0  0  0  # atno 17394 bound_to 11000
  139.8976  134.8633  156.2039 LP  0  0  0  0  0  0  0  0  0  0  0  0  # atno 17395 bound_to 11000

$$$$
