AV-unprocessed.smi:113|AV-procd|sdf|1092|dock1
  -GOLD-   2262018193D 1   1.00000     0.00000
 Structure written by MMmdl.
 52 55  0  0  0  0  0  0  0  0  1 V2000
  149.8947  145.2529  159.2559 C   0  0  0  0  0  0  0  0  0  0  0  0
  150.8620  144.1396  159.6003 C   0  0  0  0  0  0  0  0  0  0  0  0
  151.1443  143.1203  158.6738 C   0  0  0  0  0  0  0  0  0  0  0  0
  152.0495  142.0959  159.0349 C   0  0  0  0  0  0  0  0  0  0  0  0
  152.3899  140.9603  158.0633 C   0  0  0  0  0  0  0  0  0  0  0  0
  151.2857  140.1181  157.6252 N   0  0  0  0  0  0  0  0  0  0  0  0
  150.7868  139.1584  158.5378 C   0  0  0  0  0  0  0  0  0  0  0  0
  151.2699  139.0269  159.6646 O   0  0  0  0  0  0  0  0  0  0  0  0
  149.6606  138.3615  158.0472 C   0  0  0  0  0  0  0  0  0  0  0  0
  149.0931  137.2886  158.9640 C   0  0  0  0  0  0  0  0  0  0  0  0
  149.1581  138.5919  156.8097 C   0  0  0  0  0  0  0  0  0  0  0  0
  149.6450  139.5626  155.9449 N   0  0  0  0  0  0  0  0  0  0  0  0
  149.0393  139.8508  154.5833 C   0  0  1  0  0  0  0  0  0  0  0  0
  147.9625  138.8782  154.1092 C   0  0  0  0  0  0  0  0  0  0  0  0
  147.3152  139.7174  153.0267 C   0  0  1  0  0  0  0  0  0  0  0  0
  146.0035  139.2669  152.7503 O   0  0  0  0  0  0  0  0  0  0  0  0
  147.4194  141.1537  153.5913 C   0  0  1  0  0  0  0  0  0  0  0  0
  146.1332  141.7539  154.1908 C   0  0  0  0  0  0  0  0  0  0  0  0
  146.2944  143.1348  154.4418 O   0  0  0  0  0  0  0  0  0  0  0  0
  148.3760  141.0730  154.6491 O   0  0  0  0  0  0  0  0  0  0  0  0
  150.7441  140.3540  156.3421 C   0  0  0  0  0  0  0  0  0  0  0  0
  151.1984  141.2250  155.5956 O   0  0  0  0  0  0  0  0  0  0  0  0
  152.6346  142.1514  160.3288 C   0  0  0  0  0  0  0  0  0  0  0  0
  153.5539  141.1679  160.7674 C   0  0  0  0  0  0  0  0  0  0  0  0
  154.1199  141.2394  162.0528 C   0  0  0  0  0  0  0  0  0  0  0  0
  153.7726  142.2936  162.9135 C   0  0  0  0  0  0  0  0  0  0  0  0
  152.8612  143.2754  162.4851 C   0  0  0  0  0  0  0  0  0  0  0  0
  152.2817  143.2250  161.1991 C   0  0  0  0  0  0  0  0  0  0  0  0
  151.4122  144.1909  160.8288 N   0  0  0  0  0  0  0  0  0  0  0  0
  149.7532  145.3298  158.1772 H   0  0  0  0  0  0  0  0  0  0  0  0
  150.2648  146.2133  159.6164 H   0  0  0  0  0  0  0  0  0  0  0  0
  148.9245  145.0630  159.7156 H   0  0  0  0  0  0  0  0  0  0  0  0
  150.6655  143.1375  157.7065 H   0  0  0  0  0  0  0  0  0  0  0  0
  152.8705  141.3623  157.1702 H   0  0  0  0  0  0  0  0  0  0  0  0
  153.1426  140.3023  158.5006 H   0  0  0  0  0  0  0  0  0  0  0  0
  148.2605  136.7557  158.5040 H   0  0  0  0  0  0  0  0  0  0  0  0
  148.7296  137.7346  159.8906 H   0  0  0  0  0  0  0  0  0  0  0  0
  149.8602  136.5552  159.2147 H   0  0  0  0  0  0  0  0  0  0  0  0
  148.3417  137.9596  156.5014 H   0  0  0  0  0  0  0  0  0  0  0  0
  149.8830  139.9006  153.8912 H   0  0  0  0  0  0  0  0  0  0  0  0
  148.3865  137.9365  153.7588 H   0  0  0  0  0  0  0  0  0  0  0  0
  147.2362  138.6984  154.9024 H   0  0  0  0  0  0  0  0  0  0  0  0
  147.9085  139.6463  152.1140 H   0  0  0  0  0  0  0  0  0  0  0  0
  145.4219  140.0122  152.7556 H   0  0  0  0  0  0  0  0  0  0  0  0
  147.8177  141.8226  152.8271 H   0  0  0  0  0  0  0  0  0  0  0  0
  145.2743  141.5845  153.5404 H   0  0  0  0  0  0  0  0  0  0  0  0
  145.9090  141.2726  155.1433 H   0  0  0  0  0  0  0  0  0  0  0  0
  146.0883  143.6104  153.6514 H   0  0  0  0  0  0  0  0  0  0  0  0
  153.8422  140.3448  160.1316 H   0  0  0  0  0  0  0  0  0  0  0  0
  154.8204  140.4843  162.3779 H   0  0  0  0  0  0  0  0  0  0  0  0
  154.2046  142.3505  163.9017 H   0  0  0  0  0  0  0  0  0  0  0  0
  152.6029  144.0818  163.1561 H   0  0  0  0  0  0  0  0  0  0  0  0
  1  2  1  0  0  0  0
  1 30  1  0  0  0  0
  1 31  1  0  0  0  0
  1 32  1  0  0  0  0
  2 29  1  0  0  0  0
  2  3  2  0  0  0  0
  3  4  1  0  0  0  0
  3 33  1  0  0  0  0
  4  5  1  0  0  0  0
  4 23  2  0  0  0  0
  5  6  1  0  0  0  0
  5 34  1  0  0  0  0
  5 35  1  0  0  0  0
  6 21  1  0  0  0  0
  6  7  1  0  0  0  0
  7  8  2  0  0  0  0
  7  9  1  0  0  0  0
  9 10  1  0  0  0  0
  9 11  2  0  0  0  0
 10 36  1  0  0  0  0
 10 37  1  0  0  0  0
 10 38  1  0  0  0  0
 11 12  1  0  0  0  0
 11 39  1  0  0  0  0
 12 13  1  0  0  0  0
 12 21  1  0  0  0  0
 13 20  1  0  0  0  0
 13 14  1  0  0  0  0
 13 40  1  0  0  0  0
 14 15  1  0  0  0  0
 14 41  1  0  0  0  0
 14 42  1  0  0  0  0
 15 16  1  0  0  0  0
 15 17  1  0  0  0  0
 15 43  1  0  0  0  0
 16 44  1  0  0  0  0
 17 18  1  0  0  0  0
 17 20  1  0  0  0  0
 17 45  1  0  0  0  0
 18 19  1  0  0  0  0
 18 46  1  0  0  0  0
 18 47  1  0  0  0  0
 19 48  1  0  0  0  0
 21 22  2  0  0  0  0
 23 28  1  0  0  0  0
 23 24  1  0  0  0  0
 24 25  2  0  0  0  0
 24 49  1  0  0  0  0
 25 26  1  0  0  0  0
 25 50  1  0  0  0  0
 26 27  2  0  0  0  0
 26 51  1  0  0  0  0
 27 28  1  0  0  0  0
 27 52  1  0  0  0  0
 28 29  2  0  0  0  0
M  END
> <s_m_source_file>
AV-unprocessed.smi

> <i_m_source_file_index>
113

> <i_lp_mmshare_version>
43012

> <i_f3d_flags>
0

> <s_epik_input>
W2NIXTFbY0hdW2NIXVtjSF1jKGMxMiluYyhbQ0gzXSlbY0hdYzJbQ0gyXW4zYyg9TyljKFtDSDNdKVtjSF1uKGMzPU8pW0NAQEhdNFtDSDJdW0NAQEhdKFtPSF0pW0NASF0oTzQpW0NIMl1bT0hd

> <s_epik_cmdline>
J2VwaWtfcHl0aG9uJywgJy1waCcsICc3LjAnLCAnLXRuJywgJzgnLCAnLW1hJywgJzIwMCcsICctbWV0YWxfYmluZGluZycsICctaW1hZScsICc8aW5maWxlLm1hZT4nLCAnLW9tYWUnLCAnPG91dGZpbGUubWFlPic=

> <r_lp_tautomer_probability>
1

> <r_epik_Ionization_Penalty>
0.214728

> <r_epik_Ionization_Penalty_Charging>
3.04883e-08

> <r_epik_Ionization_Penalty_Neutral>
0.214728

> <r_epik_State_Penalty>
0.204913

> <r_epik_Charging_Adjusted_Penalty>
0.204913

> <i_epik_Tot_Q>
0

> <i_epik_Tot_abs_Q>
0

> <r_epik_Metal_State_Penalty>
0.000244761

> <b_epik_Metal_Only>
0

> <s_epik_Chemistry_Notes>
This compound contains an acetal/aminal-like group ( X-CH(R)-Y where X, Y are N, S, or O) that may be acid/base labile, releasing an aldehyde.

> <s_lp_Force_Field>
OPLS_2005

> <r_lp_Energy>
43.3088

> <b_lp_Chiralities_Consistent>
1

> <s_lp_Variant>
AV-unprocessed.smi:113-2

> <Gold.Version>
5.8.1

> <Gold.Id.Protein>
6NUR|6NUR_protein|mol2

> <Gold.PLP.Fitness>
52.5497

> <Gold.PLP.PLP>
-49.6550

> <Gold.PLP.part.hbond>
-3.5522

> <Gold.PLP.part.metal>
0.0000

> <Gold.PLP.part.buried>
-1.9883

> <Gold.PLP.part.nonpolar>
-44.0114

> <Gold.PLP.part.repulsive>
0.2896

> <Gold.PLP.ligand.clash>
0.0000

> <Gold.PLP.ligand.torsion>
0.4768

> <Gold.PLP.Chemscore.Hbond>
1.2682

> <Gold.PLP.Chemscore.CHOScore>
0.0000

> <Gold.PLP.Chemscore.Metal>
0.0000

> <Gold.Chemscore.Hbonds>
donor molecule, donor type, donor heavy atom, donor atom, acceptor molecule, acceptor atom, score
      L1  H    16    44       P1 10175  0.85
      P1  H  7989  7998       L1    22  0.38

> <Gold.PLP.Chemscore.Internal.Correction>
0.0437

> <Gold.Rescore>
     Score         DG    S(hbond)    S(metal)    S(lipo)     H(rot)  DE(clash)    DE(int)     intcor
     14.35     -18.27       1.10        0.00     142.24       2.95       2.20       1.72       ----

> <Gold.Chemscore.Fitness>
14.3463

> <Gold.Chemscore.DG>
-18.2663

> <Gold.Chemscore.ZeroCoef>
-5.4800

> <Gold.Chemscore.Hbond>
1.1041

> <Gold.Chemscore.Metal>
0.0000

> <Gold.Chemscore.Lipo>
142.2427

> <Gold.Chemscore.Internal_Hbond>
0.0000

> <Gold.Chemscore.DEClash>
2.1968

> <Gold.Chemscore.DEInternal>
1.7232

> <Gold.Chemscore.Rot>
2.9469

> <Gold.Chemscore.Internal.Correction>
   9.000000E+99

> <Gold.Chemscore.Hbonds>
donor molecule, donor type, donor heavy atom, donor atom, acceptor molecule, acceptor atom, score
      L1  H    16    44       P1 10175  0.82
      P1  H  7989  7998       L1    22  0.37

> <Gold.Chemscore.Hbond.Weighted>
-3.6878

> <Gold.Chemscore.Metal.Weighted>
-0.0000

> <Gold.Chemscore.Lipo.Weighted>
-16.6424

> <Gold.Chemscore.Internal_Hbond.Weighted>
0.0000

> <Gold.Chemscore.DEClash.Weighted>
2.1968

> <Gold.Chemscore.DEInternal.Weighted>
1.7232

> <Gold.Chemscore.Rot.Weighted>
7.5439

> <Gold.Chemscore.Internal.Correction.Weighted>
   9.000000E+99

> <Gold.Protein.RotatedTorsions>
[ 6907 6896 6895 6894 ] final  -55.94 input  -60.11 | X-H torsion
[ 7974 7965 7964 7962 ] final  -35.73 input  175.53 | X-H torsion
[ 8008 7997 7996 7995 ] final -166.25 input   59.86 | X-H torsion
[ 10167 10162 10161 10158 ] final  158.52 input  -65.29 | X-H torsion
[ 10718 10713 10712 10709 ] final -122.58 input   66.30 | X-H torsion
[ 10763 10752 10751 10750 ] final   98.05 input  -60.55 | X-H torsion
[ 11005 11000 10999 10996 ] final  143.39 input  -57.11 | X-H torsion

> <Gold.Protein.ActiveResidues>
 VAL166  LYS551  ARG553  GLY616  TRP617  ASP618  TYR619  PRO620  LYS621  CYS622 
 ASP623  PHE694  ASN695  SER759  ASP760  ASP761  ALA762  ILE779  LEU786  VAL792 
 PHE793  MET794  SER795  GLU796  ALA797  LYS798  CYS799  TRP800  GLU811  SER814 

> <Gold.Protein.RotatedAtoms>
  150.8209  134.7415  159.6770 H   0  0  0  0  0  0  0  0  0  0  0  0  # atno 6907 bound_to 6896
  152.4324  134.5748  159.9941 H   0  0  0  0  0  0  0  0  0  0  0  0  # atno 6908 bound_to 6896
  151.5933  133.3327  159.3068 H   0  0  0  0  0  0  0  0  0  0  0  0  # atno 6909 bound_to 6896
  146.0722  140.6194  142.8947 H   0  0  0  0  0  0  0  0  0  0  0  0  # atno 7974 bound_to 7965
  155.8612  140.0978  157.1612 H   0  0  0  0  0  0  0  0  0  0  0  0  # atno 8008 bound_to 7997
  154.3990  140.1365  156.4025 H   0  0  0  0  0  0  0  0  0  0  0  0  # atno 8009 bound_to 7997
  155.7854  140.3457  155.5323 H   0  0  0  0  0  0  0  0  0  0  0  0  # atno 8010 bound_to 7997
  139.4827  144.4816  151.8435 H   0  0  0  0  0  0  0  0  0  0  0  0  # atno 10167 bound_to 10162
  156.1431  130.6480  150.9801 H   0  0  0  0  0  0  0  0  0  0  0  0  # atno 10718 bound_to 10713
  153.2843  135.4162  155.1108 H   0  0  0  0  0  0  0  0  0  0  0  0  # atno 10763 bound_to 10752
  154.8500  135.3503  154.6069 H   0  0  0  0  0  0  0  0  0  0  0  0  # atno 10764 bound_to 10752
  153.6490  135.7053  153.5273 H   0  0  0  0  0  0  0  0  0  0  0  0  # atno 10765 bound_to 10752
  140.0550  134.9235  157.1084 H   0  0  0  0  0  0  0  0  0  0  0  0  # atno 11005 bound_to 11000
  144.7239  140.4461  143.6988 LP  0  0  0  0  0  0  0  0  0  0  0  0  # atno 17320 bound_to 7965
  145.6371  139.1544  143.2936 LP  0  0  0  0  0  0  0  0  0  0  0  0  # atno 17321 bound_to 7965
  140.4293  144.2138  150.5887 LP  0  0  0  0  0  0  0  0  0  0  0  0  # atno 17342 bound_to 10162
  140.4796  143.2384  151.8975 LP  0  0  0  0  0  0  0  0  0  0  0  0  # atno 17343 bound_to 10162
  157.6593  131.0884  150.7876 LP  0  0  0  0  0  0  0  0  0  0  0  0  # atno 17370 bound_to 10713
  156.7950  130.4902  149.5379 LP  0  0  0  0  0  0  0  0  0  0  0  0  # atno 17371 bound_to 10713
  140.3858  134.2237  155.7168 LP  0  0  0  0  0  0  0  0  0  0  0  0  # atno 17394 bound_to 11000
  141.1948  133.8120  157.0743 LP  0  0  0  0  0  0  0  0  0  0  0  0  # atno 17395 bound_to 11000

$$$$
