#       Name:                AV-unprocessed.smi:1436
#       Creating user name   scv26
#       Creation time:       Fri Mar 27 05:53:17 2020


#       File generated by GOLD software.
#

@<TRIPOS>MOLECULE
AV-unprocessed.smi:1436
    51    52     1
SMALL
NO_CHARGES


@<TRIPOS>ATOM
      1 ****         0.0017   3.5954  -0.9326 C.3            1 S1                 0.0000
      2 ****        -1.0771   2.7428  -0.3296 C.2            1 S1                 0.0000
      3 ****        -1.4265   2.9358   0.9308 N.2            1 S1                 0.0000
      4 ****        -2.4192   1.9900   1.2016 O.3            1 S1                 0.0000
      5 ****        -2.6295   1.2536   0.0815 C.2            1 S1                 0.0000
      6 ****        -3.6472   0.1689   0.1866 C.3            1 S1                 0.0000
      7 ****        -1.8121   1.6796  -0.9302 C.2            1 S1                 0.0000
      8 ****        -1.6875   1.1452  -2.3364 C.3            1 S1                 0.0000
      9 ****        -0.4352   0.2747  -2.4442 C.2            1 S1                 0.0000
     10 ****         0.5075   0.6340  -3.1489 O.2            1 S1                 0.0000
     11 ****        -0.4325  -0.8552  -1.7194 N.am           1 S1                 0.0000
     12 ****         0.6959  -1.7680  -1.5628 C.3            1 S1                 0.0000
     13 ****         0.2075  -3.1431  -1.0831 C.3            1 S1                 0.0000
     14 ****         1.8188  -1.1743  -0.6742 C.3            1 S1                 0.0000
     15 ****         1.6035  -1.1867   0.7776 N.3            1 S1                 0.0000
     16 ****         2.8388  -0.8515   1.4800 C.3            1 S1                 0.0000
     17 ****         2.6571  -0.8492   3.0072 C.3            1 S1                 0.0000
     18 ****         1.6251   0.0651   3.3598 O.3            1 S1                 0.0000
     19 ****         0.3834  -0.2496   2.7398 C.3            1 S1                 0.0000
     20 ****         0.5537  -0.2659   1.2113 C.3            1 S1                 0.0000
     21 ****         0.9880   3.1928  -0.7013 H              1 S1                 0.0000
     22 ****        -0.0395   4.6176  -0.5552 H              1 S1                 0.0000
     23 ****        -0.0901   3.6422  -2.0176 H              1 S1                 0.0000
     24 ****        -3.3756  -0.5355   0.9729 H              1 S1                 0.0000
     25 ****        -3.7316  -0.3874  -0.7466 H              1 S1                 0.0000
     26 ****        -4.6279   0.5808   0.4246 H              1 S1                 0.0000
     27 ****        -2.5549   0.5502  -2.6227 H              1 S1                 0.0000
     28 ****        -1.6259   1.9558  -3.0634 H              1 S1                 0.0000
     29 ****        -1.2586  -1.0651  -1.1783 H              1 S1                 0.0000
     30 ****         1.1203  -1.9156  -2.5576 H              1 S1                 0.0000
     31 ****         1.0389  -3.8425  -0.9918 H              1 S1                 0.0000
     32 ****        -0.5081  -3.5716  -1.7856 H              1 S1                 0.0000
     33 ****        -0.2821  -3.0787  -0.1108 H              1 S1                 0.0000
     34 ****         2.7143  -1.7609  -0.8841 H              1 S1                 0.0000
     35 ****         2.0606  -0.1622  -1.0022 H              1 S1                 0.0000
     36 ****         3.6205  -1.5642   1.2147 H              1 S1                 0.0000
     37 ****         3.1915   0.1303   1.1599 H              1 S1                 0.0000
     38 ****         2.4097  -1.8481   3.3697 H              1 S1                 0.0000
     39 ****         3.5826  -0.5492   3.4989 H              1 S1                 0.0000
     40 ****         0.0256  -1.2162   3.0974 H              1 S1                 0.0000
     41 ****        -0.3598   0.4938   3.0287 H              1 S1                 0.0000
     42 ****         0.7779   0.7428   0.8616 H              1 S1                 0.0000
     43 ****        -0.4018  -0.5491   0.7750 H              1 S1                 0.0000
     44 ****        -1.0565   3.6183   1.5610 LP             1 S1                 0.0000
     45 ****        -3.2651   2.4544   1.4636 LP             1 S1                 0.0000
     46 ****        -2.1221   1.3930   1.9468 LP             1 S1                 0.0000
     47 ****         0.4552   1.4965  -3.6522 LP             1 S1                 0.0000
     48 ****         1.3258   0.0634  -3.2183 LP             1 S1                 0.0000
     49 ****         1.3094  -2.1153   1.0039 LP             1 S1                 0.0000
     50 ****         1.9006   0.9841   3.0778 LP             1 S1                 0.0000
     51 ****         1.5027   0.0435   4.3520 LP             1 S1                 0.0000
@<TRIPOS>BOND
    1    1    2 1     
    2    1   21 1     
    3    1   22 1     
    4    1   23 1     
    5    2    7 1     
    6    2    3 2     
    7    3    4 1     
    8    4    5 1     
    9    5    6 1     
   10    5    7 2     
   11    6   24 1     
   12    6   25 1     
   13    6   26 1     
   14    7    8 1     
   15    8    9 1     
   16    8   27 1     
   17    8   28 1     
   18    9   10 2     
   19    9   11 am    
   20   11   12 1     
   21   11   29 1     
   22   12   13 1     
   23   12   14 1     
   24   12   30 1     
   25   13   31 1     
   26   13   32 1     
   27   13   33 1     
   28   14   15 1     
   29   14   34 1     
   30   14   35 1     
   31   15   20 1     
   32   15   16 1     
   33   16   17 1     
   34   16   36 1     
   35   16   37 1     
   36   17   18 1     
   37   17   38 1     
   38   17   39 1     
   39   18   19 1     
   40   19   20 1     
   41   19   40 1     
   42   19   41 1     
   43   20   42 1     
   44   20   43 1     
   45    3   44 1     
   46    4   45 1     
   47    4   46 1     
   48   10   47 1     
   49   10   48 1     
   50   15   49 1     
   51   18   50 1     
   52   18   51 1     
@<TRIPOS>SUBSTRUCTURE
      1 S1             1
@<TRIPOS>SET
LONE_PAIRS      STATIC     ATOMS    <user>   **** ""
8 44 45 46 47 48 49 50 51
DONOR_HYDROGENS      STATIC     ATOMS    <user>   **** ""
1 29
ATOM$BLUE        STATIC     ATOMS    COLORGROUP SYSTEM
8 44 45 46 47 48 49 50 51
ATOM$RED        STATIC     ATOMS    COLORGROUP SYSTEM
1 29
