AV-unprocessed.smi:2086|AV-procd|sdf|8519|dock1
  -GOLD-   2272011233D 1   1.00000     0.00000
 Structure written by MMmdl.
 33 34  0  0  0  0  0  0  0  0  2 V2000
  150.2861  140.1968  158.6752 O   0  0  0  0  0  0  0  0  0  0  0  0
  150.7214  140.8182  157.6995 C   0  0  0  0  0  0  0  0  0  0  0  0
  151.1068  142.1204  157.5969 N   0  5  0  0  0  0  0  0  0  0  0  0
  150.4835  143.2166  158.3374 C   0  0  0  0  0  0  0  0  0  0  0  0
  151.5314  143.9694  159.1783 C   0  0  0  0  0  0  0  0  0  0  0  0
  152.2056  143.0930  159.9230 F   0  0  0  0  0  0  0  0  0  0  0  0
  152.3979  144.6107  158.3924 F   0  0  0  0  0  0  0  0  0  0  0  0
  150.9421  144.8483  159.9905 F   0  0  0  0  0  0  0  0  0  0  0  0
  150.9357  140.0504  156.4193 C   0  0  0  0  0  0  0  0  0  0  0  0
  152.0167  139.1430  156.3576 C   0  0  0  0  0  0  0  0  0  0  0  0
  152.2517  138.4175  155.1765 C   0  0  0  0  0  0  0  0  0  0  0  0
  151.3848  138.6214  154.0900 C   0  0  0  0  0  0  0  0  0  0  0  0
  150.3340  139.4643  154.1328 N   0  0  0  0  0  0  0  0  0  0  0  0
  150.0937  140.1657  155.2695 C   0  0  0  0  0  0  0  0  0  0  0  0
  148.9404  140.9776  155.2673 N   0  0  0  0  0  0  0  0  0  0  0  0
  148.2657  141.2013  153.9937 C   0  0  0  0  0  0  0  0  0  0  0  0
  147.2272  142.3254  154.1470 C   0  0  0  0  0  0  0  0  0  0  0  0
  146.3224  142.0029  155.2001 O   0  0  0  0  0  0  0  0  0  0  0  0
  146.9875  141.8631  156.4533 C   0  0  0  0  0  0  0  0  0  0  0  0
  148.0199  140.7262  156.3685 C   0  0  0  0  0  0  0  0  0  0  0  0
  149.9970  143.9291  157.6691 H   0  0  0  0  0  0  0  0  0  0  0  0
  149.6971  142.8492  158.9984 H   0  0  0  0  0  0  0  0  0  0  0  0
  152.6735  139.0103  157.2053 H   0  0  0  0  0  0  0  0  0  0  0  0
  153.0784  137.7266  155.1051 H   0  0  0  0  0  0  0  0  0  0  0  0
  151.5332  138.0863  153.1637 H   0  0  0  0  0  0  0  0  0  0  0  0
  148.9956  141.4674  153.2281 H   0  0  0  0  0  0  0  0  0  0  0  0
  147.7729  140.2826  153.6727 H   0  0  0  0  0  0  0  0  0  0  0  0
  147.7154  143.2794  154.3526 H   0  0  0  0  0  0  0  0  0  0  0  0
  146.6662  142.4476  153.2205 H   0  0  0  0  0  0  0  0  0  0  0  0
  147.4683  142.8030  156.7297 H   0  0  0  0  0  0  0  0  0  0  0  0
  146.2499  141.6437  157.2250 H   0  0  0  0  0  0  0  0  0  0  0  0
  147.5161  139.7735  156.2008 H   0  0  0  0  0  0  0  0  0  0  0  0
  148.5557  140.6408  157.3136 H   0  0  0  0  0  0  0  0  0  0  0  0
  1  2  2  0  0  0  0
  2  3  1  0  0  0  0
  2  9  1  0  0  0  0
  3  4  1  0  0  0  0
  4  5  1  0  0  0  0
  4 21  1  0  0  0  0
  4 22  1  0  0  0  0
  5  6  1  0  0  0  0
  5  7  1  0  0  0  0
  5  8  1  0  0  0  0
  9 14  1  0  0  0  0
  9 10  2  0  0  0  0
 10 11  1  0  0  0  0
 10 23  1  0  0  0  0
 11 12  2  0  0  0  0
 11 24  1  0  0  0  0
 12 13  1  0  0  0  0
 12 25  1  0  0  0  0
 13 14  2  0  0  0  0
 14 15  1  0  0  0  0
 15 20  1  0  0  0  0
 15 16  1  0  0  0  0
 16 17  1  0  0  0  0
 16 26  1  0  0  0  0
 16 27  1  0  0  0  0
 17 18  1  0  0  0  0
 17 28  1  0  0  0  0
 17 29  1  0  0  0  0
 18 19  1  0  0  0  0
 19 20  1  0  0  0  0
 19 30  1  0  0  0  0
 19 31  1  0  0  0  0
 20 32  1  0  0  0  0
 20 33  1  0  0  0  0
M  CHG  1   3  -1
M  END
> <s_m_source_file>
AV-unprocessed.smi

> <i_m_source_file_index>
2086

> <i_lp_mmshare_version>
43012

> <i_f3d_flags>
0

> <s_epik_input>
RkMoRikoRilbQ0gyXVtOSF1DKD1PKWMxW2NIXVtjSF1bY0hdbmMxTjJbQ0gyXVtDSDJdT1tDSDJdW0NIMl0y

> <s_epik_cmdline>
J2VwaWtfcHl0aG9uJywgJy1waCcsICc3LjAnLCAnLXRuJywgJzgnLCAnLW1hJywgJzIwMCcsICctbWV0YWxfYmluZGluZycsICctaW1hZScsICc8aW5maWxlLm1hZT4nLCAnLW9tYWUnLCAnPG91dGZpbGUubWFlPic=

> <r_lp_tautomer_probability>
1

> <r_epik_Ionization_Penalty>
6.70774

> <r_epik_Ionization_Penalty_Charging>
6.70732

> <r_epik_Ionization_Penalty_Neutral>
0.000422769

> <r_epik_State_Penalty>
6.70731

> <r_epik_Charging_Adjusted_Penalty>
13.4146

> <i_epik_Tot_Q>
-1

> <i_epik_Tot_abs_Q>
1

> <r_epik_Metal_State_Penalty>
2.62875

> <b_epik_Metal_Only>
1

> <s_lp_Force_Field>
OPLS_2005

> <r_lp_Energy>
34.3175

> <b_lp_Chiralities_Consistent>
1

> <s_lp_Variant>
AV-unprocessed.smi:2086-2

> <Gold.Version>
5.8.1

> <Gold.Id.Protein>
6NUR|6NUR_protein|mol2

> <Gold.PLP.Fitness>
42.4765

> <Gold.PLP.PLP>
-42.1248

> <Gold.PLP.part.hbond>
-1.0000

> <Gold.PLP.part.metal>
0.0000

> <Gold.PLP.part.buried>
-5.1903

> <Gold.PLP.part.nonpolar>
-36.3819

> <Gold.PLP.part.repulsive>
0.6965

> <Gold.PLP.ligand.clash>
0.0000

> <Gold.PLP.ligand.torsion>
1.7995

> <Gold.PLP.Chemscore.Hbond>
0.1225

> <Gold.PLP.Chemscore.CHOScore>
0.8729

> <Gold.PLP.Chemscore.Metal>
0.0000

> <Gold.Chemscore.Hbonds>
donor molecule, donor type, donor heavy atom, donor atom, acceptor molecule, acceptor atom, score
      P1  H  7989  7998       L1    13  0.18
      L1  C    12    25       P1  7949  0.57

> <Gold.PLP.Chemscore.Internal.Correction>
0.9645

> <Gold.Rescore>
     Score         DG    S(hbond)    S(metal)    S(lipo)     H(rot)  DE(clash)    DE(int)     intcor
      8.16      -9.60       0.00        0.00      64.02       1.32       0.02       1.42       ----

> <Gold.Chemscore.Fitness>
8.1605

> <Gold.Chemscore.DG>
-9.6031

> <Gold.Chemscore.ZeroCoef>
-5.4800

> <Gold.Chemscore.Hbond>
0.0000

> <Gold.Chemscore.Metal>
0.0000

> <Gold.Chemscore.Lipo>
64.0223

> <Gold.Chemscore.Internal_Hbond>
0.0000

> <Gold.Chemscore.DEClash>
0.0248

> <Gold.Chemscore.DEInternal>
1.4178

> <Gold.Chemscore.Rot>
1.3154

> <Gold.Chemscore.Internal.Correction>
   9.000000E+99

> <Gold.Chemscore.Hbond.Weighted>
-0.0000

> <Gold.Chemscore.Metal.Weighted>
-0.0000

> <Gold.Chemscore.Lipo.Weighted>
-7.4906

> <Gold.Chemscore.Internal_Hbond.Weighted>
0.0000

> <Gold.Chemscore.DEClash.Weighted>
0.0248

> <Gold.Chemscore.DEInternal.Weighted>
1.4178

> <Gold.Chemscore.Rot.Weighted>
3.3675

> <Gold.Chemscore.Internal.Correction.Weighted>
   9.000000E+99

> <Gold.Protein.RotatedTorsions>
[ 6907 6896 6895 6894 ] final  -34.00 input  -60.11 | X-H torsion
[ 7974 7965 7964 7962 ] final   14.78 input  175.53 | X-H torsion
[ 8008 7997 7996 7995 ] final   99.79 input   59.86 | X-H torsion
[ 10167 10162 10161 10158 ] final  104.96 input  -65.29 | X-H torsion
[ 10718 10713 10712 10709 ] final   71.29 input   66.30 | X-H torsion
[ 10763 10752 10751 10750 ] final -177.78 input  -60.55 | X-H torsion
[ 11005 11000 10999 10996 ] final   12.15 input  -57.11 | X-H torsion

> <Gold.Protein.ActiveResidues>
 VAL166  LYS551  ARG553  GLY616  TRP617  ASP618  TYR619  PRO620  LYS621  CYS622 
 ASP623  PHE694  ASN695  SER759  ASP760  ASP761  ALA762  ILE779  LEU786  VAL792 
 PHE793  MET794  SER795  GLU796  ALA797  LYS798  CYS799  TRP800  GLU811  SER814 

> <Gold.Protein.RotatedAtoms>
  151.0582  134.9719  159.8246 H   0  0  0  0  0  0  0  0  0  0  0  0  # atno 6907 bound_to 6896
  152.5391  134.2450  159.8887 H   0  0  0  0  0  0  0  0  0  0  0  0  # atno 6908 bound_to 6896
  151.2469  133.4327  159.2643 H   0  0  0  0  0  0  0  0  0  0  0  0  # atno 6909 bound_to 6896
  146.2296  139.8990  142.8542 H   0  0  0  0  0  0  0  0  0  0  0  0  # atno 7974 bound_to 7965
  156.1140  140.3223  155.8112 H   0  0  0  0  0  0  0  0  0  0  0  0  # atno 8008 bound_to 7997
  155.4623  140.0540  157.3006 H   0  0  0  0  0  0  0  0  0  0  0  0  # atno 8009 bound_to 7997
  154.4780  140.2040  155.9847 H   0  0  0  0  0  0  0  0  0  0  0  0  # atno 8010 bound_to 7997
  139.7133  144.7073  151.0991 H   0  0  0  0  0  0  0  0  0  0  0  0  # atno 10167 bound_to 10162
  157.6444  130.9521  150.0769 H   0  0  0  0  0  0  0  0  0  0  0  0  # atno 10718 bound_to 10713
  154.5559  135.2816  155.0965 H   0  0  0  0  0  0  0  0  0  0  0  0  # atno 10763 bound_to 10752
  154.2393  135.6360  153.5205 H   0  0  0  0  0  0  0  0  0  0  0  0  # atno 10764 bound_to 10752
  153.0015  135.5556  154.6139 H   0  0  0  0  0  0  0  0  0  0  0  0  # atno 10765 bound_to 10752
  140.4953  134.0800  155.7780 H   0  0  0  0  0  0  0  0  0  0  0  0  # atno 11005 bound_to 11000
  145.2342  140.9984  143.3973 LP  0  0  0  0  0  0  0  0  0  0  0  0  # atno 17320 bound_to 7965
  144.9505  139.4088  143.6404 LP  0  0  0  0  0  0  0  0  0  0  0  0  # atno 17321 bound_to 7965
  140.7738  143.5263  150.9476 LP  0  0  0  0  0  0  0  0  0  0  0  0  # atno 17342 bound_to 10162
  139.8949  143.6908  152.3140 LP  0  0  0  0  0  0  0  0  0  0  0  0  # atno 17343 bound_to 10162
  156.1757  130.3648  149.9104 LP  0  0  0  0  0  0  0  0  0  0  0  0  # atno 17370 bound_to 10713
  156.7069  130.8955  151.3605 LP  0  0  0  0  0  0  0  0  0  0  0  0  # atno 17371 bound_to 10713
  141.1463  133.9048  157.2206 LP  0  0  0  0  0  0  0  0  0  0  0  0  # atno 17394 bound_to 11000
  139.9745  135.0118  156.9597 LP  0  0  0  0  0  0  0  0  0  0  0  0  # atno 17395 bound_to 11000

$$$$
