AV-unprocessed.smi:2078|AV-procd|sdf|8467|dock8
  -GOLD-   2272011163D 1   1.00000     0.00000
 Structure written by MMmdl.
 41 42  0  0  0  0  0  0  0  0  3 V2000
  152.2112  140.9031  158.9486 C   0  0  0  0  0  0  0  0  0  0  0  0
  151.9505  140.2881  157.6161 C   0  0  0  0  0  0  0  0  0  0  0  0
  151.0264  140.5410  156.6425 C   0  0  0  0  0  0  0  0  0  0  0  0
  151.3401  139.5832  155.6400 C   0  0  0  0  0  0  0  0  0  0  0  0
  150.7113  139.4372  154.4635 N   0  5  0  0  0  0  0  0  0  0  0  0
  149.3796  139.6534  154.3720 C   0  0  0  0  0  0  0  0  0  0  0  0
  148.7286  140.4941  154.9973 O   0  0  0  0  0  0  0  0  0  0  0  0
  148.7604  138.8418  153.5029 N   0  0  0  0  0  0  0  0  0  0  0  0
  147.3320  138.8423  153.2111 C   0  0  0  0  0  0  0  0  0  0  0  0
  146.6146  137.6851  153.9313 C   0  0  0  0  0  0  0  0  0  0  0  0
  146.5287  136.4652  153.0908 N   0  3  1  0  0  0  0  0  0  0  0  0
  146.3630  135.2343  153.9058 C   0  0  0  0  0  0  0  0  0  0  0  0
  146.4121  133.9751  153.0254 C   0  0  0  0  0  0  0  0  0  0  0  0
  145.3561  134.0394  151.9150 C   0  0  0  0  0  0  0  0  0  0  0  0
  145.5203  135.3317  151.0973 C   0  0  1  0  0  0  0  0  0  0  0  0
  144.4569  135.4365  149.9949 C   0  0  0  0  0  0  0  0  0  0  0  0
  145.4910  136.5607  152.0285 C   0  0  0  0  0  0  0  0  0  0  0  0
  152.3734  138.8263  155.9692 N   0  0  0  0  0  0  0  0  0  0  0  0
  152.7679  139.2689  157.2376 O   0  0  0  0  0  0  0  0  0  0  0  0
  152.7605  141.8382  158.8400 H   0  0  0  0  0  0  0  0  0  0  0  0
  152.7987  140.2364  159.5803 H   0  0  0  0  0  0  0  0  0  0  0  0
  151.2753  141.1178  159.4646 H   0  0  0  0  0  0  0  0  0  0  0  0
  150.2477  141.2888  156.6473 H   0  0  0  0  0  0  0  0  0  0  0  0
  149.3305  138.1694  153.0103 H   0  0  0  0  0  0  0  0  0  0  0  0
  146.9122  139.8110  153.4827 H   0  0  0  0  0  0  0  0  0  0  0  0
  147.2079  138.7427  152.1327 H   0  0  0  0  0  0  0  0  0  0  0  0
  147.1738  137.4606  154.8407 H   0  0  0  0  0  0  0  0  0  0  0  0
  145.6138  137.9774  154.2530 H   0  0  0  0  0  0  0  0  0  0  0  0
  147.1554  135.1766  154.6530 H   0  0  0  0  0  0  0  0  0  0  0  0
  145.4172  135.2800  154.4481 H   0  0  0  0  0  0  0  0  0  0  0  0
  147.4043  133.8749  152.5834 H   0  0  0  0  0  0  0  0  0  0  0  0
  146.2549  133.0865  153.6376 H   0  0  0  0  0  0  0  0  0  0  0  0
  145.4451  133.1664  151.2673 H   0  0  0  0  0  0  0  0  0  0  0  0
  144.3586  134.0008  152.3555 H   0  0  0  0  0  0  0  0  0  0  0  0
  146.4962  135.3015  150.6100 H   0  0  0  0  0  0  0  0  0  0  0  0
  143.4513  135.4717  150.4153 H   0  0  0  0  0  0  0  0  0  0  0  0
  144.5055  134.5819  149.3196 H   0  0  0  0  0  0  0  0  0  0  0  0
  144.5983  136.3370  149.3964 H   0  0  0  0  0  0  0  0  0  0  0  0
  144.5074  136.6602  152.4910 H   0  0  0  0  0  0  0  0  0  0  0  0
  145.6476  137.4591  151.4325 H   0  0  0  0  0  0  0  0  0  0  0  0
  147.4214  136.3771  152.6266 H   0  0  0  0  0  0  0  0  0  0  0  0
  1  2  1  0  0  0  0
  1 20  1  0  0  0  0
  1 21  1  0  0  0  0
  1 22  1  0  0  0  0
  2 19  1  0  0  0  0
  2  3  2  0  0  0  0
  3  4  1  0  0  0  0
  3 23  1  0  0  0  0
  4  5  1  0  0  0  0
  4 18  2  0  0  0  0
  5  6  1  0  0  0  0
  6  7  2  0  0  0  0
  6  8  1  0  0  0  0
  8  9  1  0  0  0  0
  8 24  1  0  0  0  0
  9 10  1  0  0  0  0
  9 25  1  0  0  0  0
  9 26  1  0  0  0  0
 10 11  1  0  0  0  0
 10 27  1  0  0  0  0
 10 28  1  0  0  0  0
 11 17  1  0  0  0  0
 11 12  1  0  0  0  0
 11 41  1  0  0  0  0
 12 13  1  0  0  0  0
 12 29  1  0  0  0  0
 12 30  1  0  0  0  0
 13 14  1  0  0  0  0
 13 31  1  0  0  0  0
 13 32  1  0  0  0  0
 14 15  1  0  0  0  0
 14 33  1  0  0  0  0
 14 34  1  0  0  0  0
 15 16  1  0  0  0  0
 15 17  1  0  0  0  0
 15 35  1  0  0  0  0
 16 36  1  0  0  0  0
 16 37  1  0  0  0  0
 16 38  1  0  0  0  0
 17 39  1  0  0  0  0
 17 40  1  0  0  0  0
 18 19  1  0  0  0  0
M  CHG  1   5  -1
M  CHG  1  11   1
M  END
> <s_m_source_file>
AV-unprocessed.smi

> <i_m_source_file_index>
2078

> <i_lp_mmshare_version>
43012

> <i_f3d_flags>
0

> <s_epik_input>
W0NIM11jMVtjSF1jKG5vMSlbTkhdQyg9TylbTkhdW0NIMl1bQ0gyXU4yW0NIMl1bQ0gyXVtDSDJdW0NAQEhdKFtDSDNdKVtDSDJdMg==

> <s_epik_cmdline>
J2VwaWtfcHl0aG9uJywgJy1waCcsICc3LjAnLCAnLXRuJywgJzgnLCAnLW1hJywgJzIwMCcsICctbWV0YWxfYmluZGluZycsICctaW1hZScsICc8aW5maWxlLm1hZT4nLCAnLW9tYWUnLCAnPG91dGZpbGUubWFlPic=

> <r_epik_Ionization_Penalty>
6.22434

> <r_epik_Ionization_Penalty_Charging>
6.22425

> <r_epik_Ionization_Penalty_Neutral>
9.37855e-05

> <r_epik_State_Penalty>
6.22423

> <r_epik_Charging_Adjusted_Penalty>
12.4485

> <i_epik_Tot_Q>
0

> <i_epik_Tot_abs_Q>
2

> <r_epik_Metal_State_Penalty>
2.16764

> <b_epik_Metal_Only>
1

> <s_lp_Force_Field>
OPLS_2005

> <r_lp_Energy>
3.15807

> <b_lp_Chiralities_Consistent>
1

> <s_lp_Variant>
AV-unprocessed.smi:2078-5

> <Gold.Version>
5.8.1

> <Gold.Id.Protein>
6NUR|6NUR_protein|mol2

> <Gold.PLP.Fitness>
40.1107

> <Gold.PLP.PLP>
-30.3065

> <Gold.PLP.part.hbond>
-5.1083

> <Gold.PLP.part.metal>
0.0000

> <Gold.PLP.part.buried>
-1.8835

> <Gold.PLP.part.nonpolar>
-23.4908

> <Gold.PLP.part.repulsive>
0.3330

> <Gold.PLP.ligand.clash>
0.0000

> <Gold.PLP.ligand.torsion>
1.0004

> <Gold.PLP.Chemscore.Hbond>
3.9229

> <Gold.PLP.Chemscore.CHOScore>
0.0000

> <Gold.PLP.Chemscore.Metal>
0.0000

> <Gold.Chemscore.Hbonds>
donor molecule, donor type, donor heavy atom, donor atom, acceptor molecule, acceptor atom, score
      L1  H     8    24       P1  7948  0.33
      L1  H    11    41       P1  7948  2.00
      P1  H  7989  7998       L1     5  0.90
      P1  H  7997  8008       L1    19  0.60

> <Gold.PLP.Chemscore.Internal.Correction>
0.0363

> <Gold.Rescore>
     Score         DG    S(hbond)    S(metal)    S(lipo)     H(rot)  DE(clash)    DE(int)     intcor
     12.15     -14.86       1.96        0.00      57.83       1.54       0.38       2.33       ----

> <Gold.Chemscore.Fitness>
12.1504

> <Gold.Chemscore.DG>
-14.8557

> <Gold.Chemscore.ZeroCoef>
-5.4800

> <Gold.Chemscore.Hbond>
1.9623

> <Gold.Chemscore.Metal>
0.0000

> <Gold.Chemscore.Lipo>
57.8319

> <Gold.Chemscore.Internal_Hbond>
0.0000

> <Gold.Chemscore.DEClash>
0.3768

> <Gold.Chemscore.DEInternal>
2.3285

> <Gold.Chemscore.Rot>
1.5409

> <Gold.Chemscore.Internal.Correction>
   9.000000E+99

> <Gold.Chemscore.Hbonds>
donor molecule, donor type, donor heavy atom, donor atom, acceptor molecule, acceptor atom, score
      L1  H     8    24       P1  7948  0.32
      L1  H    11    41       P1  7948  1.00
      P1  H  7989  7998       L1     5  0.12
      P1  H  7997  8008       L1    19  0.02

> <Gold.Chemscore.Hbond.Weighted>
-6.5539

> <Gold.Chemscore.Metal.Weighted>
-0.0000

> <Gold.Chemscore.Lipo.Weighted>
-6.7663

> <Gold.Chemscore.Internal_Hbond.Weighted>
0.0000

> <Gold.Chemscore.DEClash.Weighted>
0.3768

> <Gold.Chemscore.DEInternal.Weighted>
2.3285

> <Gold.Chemscore.Rot.Weighted>
3.9446

> <Gold.Chemscore.Internal.Correction.Weighted>
   9.000000E+99

> <Gold.Protein.RotatedTorsions>
[ 6907 6896 6895 6894 ] final  -12.86 input  -60.11 | X-H torsion
[ 7974 7965 7964 7962 ] final  -80.50 input  175.53 | X-H torsion
[ 8008 7997 7996 7995 ] final  -52.95 input   59.86 | X-H torsion
[ 10167 10162 10161 10158 ] final  -79.62 input  -65.29 | X-H torsion
[ 10718 10713 10712 10709 ] final  141.59 input   66.30 | X-H torsion
[ 10763 10752 10751 10750 ] final   41.78 input  -60.55 | X-H torsion
[ 11005 11000 10999 10996 ] final -156.02 input  -57.11 | X-H torsion

> <Gold.Protein.ActiveResidues>
 VAL166  LYS551  ARG553  GLY616  TRP617  ASP618  TYR619  PRO620  LYS621  CYS622 
 ASP623  PHE694  ASN695  SER759  ASP760  ASP761  ALA762  ILE779  LEU786  VAL792 
 PHE793  MET794  SER795  GLU796  ALA797  LYS798  CYS799  TRP800  GLU811  SER814 

> <Gold.Protein.RotatedAtoms>
  151.3640  135.0909  159.9443 H   0  0  0  0  0  0  0  0  0  0  0  0  # atno 6907 bound_to 6896
  152.5154  133.9230  159.7554 H   0  0  0  0  0  0  0  0  0  0  0  0  # atno 6908 bound_to 6896
  150.9630  133.6370  159.2780 H   0  0  0  0  0  0  0  0  0  0  0  0  # atno 6909 bound_to 6896
  145.5591  140.9485  143.1457 H   0  0  0  0  0  0  0  0  0  0  0  0  # atno 7974 bound_to 7965
  154.4120  140.1211  156.5075 H   0  0  0  0  0  0  0  0  0  0  0  0  # atno 8008 bound_to 7997
  155.6832  140.3496  155.4844 H   0  0  0  0  0  0  0  0  0  0  0  0  # atno 8009 bound_to 7997
  155.9533  140.1109  157.0948 H   0  0  0  0  0  0  0  0  0  0  0  0  # atno 8010 bound_to 7997
  140.4577  143.2463  151.8395 H   0  0  0  0  0  0  0  0  0  0  0  0  # atno 10167 bound_to 10162
  157.3902  131.1004  151.0654 H   0  0  0  0  0  0  0  0  0  0  0  0  # atno 10718 bound_to 10713
  152.9899  135.6151  154.2843 H   0  0  0  0  0  0  0  0  0  0  0  0  # atno 10763 bound_to 10752
  154.2571  135.2783  155.2795 H   0  0  0  0  0  0  0  0  0  0  0  0  # atno 10764 bound_to 10752
  154.5238  135.5807  153.6760 H   0  0  0  0  0  0  0  0  0  0  0  0  # atno 10765 bound_to 10752
  140.6802  134.4153  157.5227 H   0  0  0  0  0  0  0  0  0  0  0  0  # atno 11005 bound_to 11000
  144.7491  139.7240  143.7280 LP  0  0  0  0  0  0  0  0  0  0  0  0  # atno 17320 bound_to 7965
  146.1863  139.5081  142.9834 LP  0  0  0  0  0  0  0  0  0  0  0  0  # atno 17321 bound_to 7965
  139.4803  144.5045  151.9016 LP  0  0  0  0  0  0  0  0  0  0  0  0  # atno 17342 bound_to 10162
  140.4131  144.2342  150.5888 LP  0  0  0  0  0  0  0  0  0  0  0  0  # atno 17343 bound_to 10162
  157.1690  130.6259  149.5634 LP  0  0  0  0  0  0  0  0  0  0  0  0  # atno 17370 bound_to 10713
  155.9796  130.4791  150.6727 LP  0  0  0  0  0  0  0  0  0  0  0  0  # atno 17371 bound_to 10713
  139.8954  134.8683  156.2133 LP  0  0  0  0  0  0  0  0  0  0  0  0  # atno 17394 bound_to 11000
  141.0324  133.6982  156.1453 LP  0  0  0  0  0  0  0  0  0  0  0  0  # atno 17395 bound_to 11000

$$$$
