AV-unprocessed.smi:1575|AV-procd|sdf|6339|dock1
  -GOLD-   22720 6553D 1   1.00000     0.00000
 Structure written by MMmdl.
 41 41  0  0  0  0  0  0  0  0  1 V2000
  150.3319  138.6911  158.2430 C   0  0  0  0  0  0  0  0  0  0  0  0
  150.3053  140.0711  157.7841 N   0  0  0  0  0  0  0  0  0  0  0  0
  151.3621  140.7154  157.2684 C   0  0  0  0  0  0  0  0  0  0  0  0
  152.4653  140.1860  157.1219 O   0  0  0  0  0  0  0  0  0  0  0  0
  151.1263  142.1734  156.8386 C   0  0  2  0  0  0  0  0  0  0  0  0
  150.8440  143.0045  158.1130 C   0  0  0  0  0  0  0  0  0  0  0  0
  152.1005  143.5102  158.8593 C   0  0  0  0  0  0  0  0  0  0  0  0
  151.7942  143.9458  160.3022 C   0  0  0  0  0  0  0  0  0  0  0  0
  152.7636  144.6585  158.0837 C   0  0  0  0  0  0  0  0  0  0  0  0
  149.9594  142.2513  155.9602 N   0  0  0  0  0  0  0  0  0  0  0  0
  149.6655  141.3843  154.9794 C   0  0  0  0  0  0  0  0  0  0  0  0
  150.3648  140.4061  154.7117 O   0  0  0  0  0  0  0  0  0  0  0  0
  148.3711  141.6577  154.2020 C   0  0  0  0  0  0  0  0  0  0  0  0
  147.4120  140.5472  154.2859 N   0  0  0  0  0  0  0  0  0  0  0  0
  147.7269  139.3064  153.7503 C   0  0  0  0  0  0  0  0  0  0  0  0
  146.8876  138.2442  153.7868 C   0  0  0  0  0  0  0  0  0  0  0  0
  145.5740  138.3617  154.4106 C   0  0  0  0  0  0  0  0  0  0  0  0
  144.7457  137.4578  154.4955 O   0  0  0  0  0  0  0  0  0  0  0  0
  145.2932  139.6263  154.9349 N   0  0  0  0  0  0  0  0  0  0  0  0
  146.1522  140.7258  154.8981 C   0  0  0  0  0  0  0  0  0  0  0  0
  145.8033  141.8000  155.3867 O   0  0  0  0  0  0  0  0  0  0  0  0
  144.3939  139.7559  155.3750 H   0  0  0  0  0  0  0  0  0  0  0  0
  149.3435  138.3974  158.5960 H   0  0  0  0  0  0  0  0  0  0  0  0
  151.0379  138.5705  159.0657 H   0  0  0  0  0  0  0  0  0  0  0  0
  150.6194  138.0175  157.4347 H   0  0  0  0  0  0  0  0  0  0  0  0
  149.4317  140.5704  157.8687 H   0  0  0  0  0  0  0  0  0  0  0  0
  152.0150  142.5487  156.3285 H   0  0  0  0  0  0  0  0  0  0  0  0
  150.2267  143.8652  157.8478 H   0  0  0  0  0  0  0  0  0  0  0  0
  150.2430  142.4139  158.8067 H   0  0  0  0  0  0  0  0  0  0  0  0
  152.8293  142.7002  158.9053 H   0  0  0  0  0  0  0  0  0  0  0  0
  151.0286  144.7218  160.3284 H   0  0  0  0  0  0  0  0  0  0  0  0
  152.6858  144.3439  160.7876 H   0  0  0  0  0  0  0  0  0  0  0  0
  151.4474  143.1108  160.9106 H   0  0  0  0  0  0  0  0  0  0  0  0
  152.0995  145.5200  158.0053 H   0  0  0  0  0  0  0  0  0  0  0  0
  153.0293  144.3496  157.0723 H   0  0  0  0  0  0  0  0  0  0  0  0
  153.6794  144.9877  158.5754 H   0  0  0  0  0  0  0  0  0  0  0  0
  149.3222  143.0177  156.1212 H   0  0  0  0  0  0  0  0  0  0  0  0
  147.9280  142.5728  154.5972 H   0  0  0  0  0  0  0  0  0  0  0  0
  148.5998  141.8772  153.1569 H   0  0  0  0  0  0  0  0  0  0  0  0
  148.6883  139.1742  153.2745 H   0  0  0  0  0  0  0  0  0  0  0  0
  147.1897  137.3028  153.3513 H   0  0  0  0  0  0  0  0  0  0  0  0
  1  2  1  0  0  0  0
  1 23  1  0  0  0  0
  1 24  1  0  0  0  0
  1 25  1  0  0  0  0
  2  3  1  0  0  0  0
  2 26  1  0  0  0  0
  3  4  2  0  0  0  0
  3  5  1  0  0  0  0
  5  6  1  0  0  0  0
  5 10  1  0  0  0  0
  5 27  1  0  0  0  0
  6  7  1  0  0  0  0
  6 28  1  0  0  0  0
  6 29  1  0  0  0  0
  7  8  1  0  0  0  0
  7  9  1  0  0  0  0
  7 30  1  0  0  0  0
  8 31  1  0  0  0  0
  8 32  1  0  0  0  0
  8 33  1  0  0  0  0
  9 34  1  0  0  0  0
  9 35  1  0  0  0  0
  9 36  1  0  0  0  0
 10 11  1  0  0  0  0
 10 37  1  0  0  0  0
 11 12  2  0  0  0  0
 11 13  1  0  0  0  0
 13 14  1  0  0  0  0
 13 38  1  0  0  0  0
 13 39  1  0  0  0  0
 14 20  1  0  0  0  0
 14 15  1  0  0  0  0
 15 16  2  0  0  0  0
 15 40  1  0  0  0  0
 16 17  1  0  0  0  0
 16 41  1  0  0  0  0
 17 18  2  0  0  0  0
 17 19  1  0  0  0  0
 19 22  1  0  0  0  0
 19 20  1  0  0  0  0
 20 21  2  0  0  0  0
M  END
> <s_m_source_file>
AV-unprocessed.smi

> <i_m_source_file_index>
1575

> <i_lp_mmshare_version>
43012

> <i_f3d_flags>
0

> <s_epik_input>
W0NIM11bTkhdQyg9TylbQ0BIXShbQ0gyXVtDSF0oW0NIM10pW0NIM10pW05IXUMoPU8pW0NIMl1uMVtjSF1bY0hdYyg9TylbbkhdYzE9Tw==

> <s_epik_cmdline>
J2VwaWtfcHl0aG9uJywgJy1waCcsICc3LjAnLCAnLXRuJywgJzgnLCAnLW1hJywgJzIwMCcsICctbWV0YWxfYmluZGluZycsICctaW1hZScsICc8aW5maWxlLm1hZT4nLCAnLW9tYWUnLCAnPG91dGZpbGUubWFlPic=

> <r_lp_tautomer_probability>
0.999537

> <r_epik_Ionization_Penalty>
0.00357166

> <r_epik_Ionization_Penalty_Charging>
0.00357161

> <r_epik_Ionization_Penalty_Neutral>
5.44484e-08

> <r_epik_State_Penalty>
0.00253761

> <r_epik_Charging_Adjusted_Penalty>
0.00610921

> <i_epik_Tot_Q>
0

> <i_epik_Tot_abs_Q>
0

> <r_epik_Metal_State_Penalty>
0.368734

> <b_epik_Metal_Only>
0

> <s_lp_Force_Field>
OPLS_2005

> <r_lp_Energy>
6.26633

> <b_lp_Chiralities_Consistent>
1

> <s_lp_Variant>
AV-unprocessed.smi:1575-1

> <Gold.Version>
5.8.1

> <Gold.Id.Protein>
6NUR|6NUR_protein|mol2

> <Gold.PLP.Fitness>
46.0514

> <Gold.PLP.PLP>
-35.5787

> <Gold.PLP.part.hbond>
-4.0000

> <Gold.PLP.part.metal>
0.0000

> <Gold.PLP.part.buried>
-3.3601

> <Gold.PLP.part.nonpolar>
-27.5294

> <Gold.PLP.part.repulsive>
0.5372

> <Gold.PLP.ligand.clash>
0.0000

> <Gold.PLP.ligand.torsion>
0.7619

> <Gold.PLP.Chemscore.Hbond>
2.9520

> <Gold.PLP.Chemscore.CHOScore>
0.9937

> <Gold.PLP.Chemscore.Metal>
0.0000

> <Gold.Chemscore.Hbonds>
donor molecule, donor type, donor heavy atom, donor atom, acceptor molecule, acceptor atom, score
      L1  H    10    37       P1  8028  0.91
      P1  H  7989  7998       L1    12  1.00
      P1  H  7997  8009       L1     4  0.96
      L1  C    15    40       P1  7957  1.00

> <Gold.PLP.Chemscore.Internal.Correction>
0.1596

> <Gold.Rescore>
     Score         DG    S(hbond)    S(metal)    S(lipo)     H(rot)  DE(clash)    DE(int)     intcor
     13.41     -15.92       2.61        0.00      76.09       2.81       0.23       2.29       ----

> <Gold.Chemscore.Fitness>
13.4103

> <Gold.Chemscore.DG>
-15.9214

> <Gold.Chemscore.ZeroCoef>
-5.4800

> <Gold.Chemscore.Hbond>
2.6125

> <Gold.Chemscore.Metal>
0.0000

> <Gold.Chemscore.Lipo>
76.0865

> <Gold.Chemscore.Internal_Hbond>
0.0000

> <Gold.Chemscore.DEClash>
0.2256

> <Gold.Chemscore.DEInternal>
2.2855

> <Gold.Chemscore.Rot>
2.8072

> <Gold.Chemscore.Internal.Correction>
   9.000000E+99

> <Gold.Chemscore.Hbonds>
donor molecule, donor type, donor heavy atom, donor atom, acceptor molecule, acceptor atom, score
      L1  H    10    37       P1  8028  0.88
      P1  H  7989  7998       L1    12  0.67
      P1  H  7997  8009       L1     4  0.89

> <Gold.Chemscore.Hbond.Weighted>
-8.7257

> <Gold.Chemscore.Metal.Weighted>
-0.0000

> <Gold.Chemscore.Lipo.Weighted>
-8.9021

> <Gold.Chemscore.Internal_Hbond.Weighted>
0.0000

> <Gold.Chemscore.DEClash.Weighted>
0.2256

> <Gold.Chemscore.DEInternal.Weighted>
2.2855

> <Gold.Chemscore.Rot.Weighted>
7.1864

> <Gold.Chemscore.Internal.Correction.Weighted>
   9.000000E+99

> <Gold.Protein.RotatedTorsions>
[ 6907 6896 6895 6894 ] final -174.79 input  -60.11 | X-H torsion
[ 7974 7965 7964 7962 ] final  -26.46 input  175.53 | X-H torsion
[ 8008 7997 7996 7995 ] final  169.93 input   59.86 | X-H torsion
[ 10167 10162 10161 10158 ] final   80.98 input  -65.29 | X-H torsion
[ 10718 10713 10712 10709 ] final  100.57 input   66.30 | X-H torsion
[ 10763 10752 10751 10750 ] final   40.52 input  -60.55 | X-H torsion
[ 11005 11000 10999 10996 ] final  158.08 input  -57.11 | X-H torsion

> <Gold.Protein.ActiveResidues>
 VAL166  LYS551  ARG553  GLY616  TRP617  ASP618  TYR619  PRO620  LYS621  CYS622 
 ASP623  PHE694  ASN695  SER759  ASP760  ASP761  ALA762  ILE779  LEU786  VAL792 
 PHE793  MET794  SER795  GLU796  ALA797  LYS798  CYS799  TRP800  GLU811  SER814 

> <Gold.Protein.RotatedAtoms>
  151.5781  133.3381  159.3002 H   0  0  0  0  0  0  0  0  0  0  0  0  # atno 6907 bound_to 6896
  150.8329  134.7593  159.6880 H   0  0  0  0  0  0  0  0  0  0  0  0  # atno 6908 bound_to 6896
  152.4410  134.5598  159.9942 H   0  0  0  0  0  0  0  0  0  0  0  0  # atno 6909 bound_to 6896
  146.1424  140.5023  142.8646 H   0  0  0  0  0  0  0  0  0  0  0  0  # atno 7974 bound_to 7965
  156.1413  140.1551  156.8917 H   0  0  0  0  0  0  0  0  0  0  0  0  # atno 8008 bound_to 7997
  154.4989  140.0830  156.7795 H   0  0  0  0  0  0  0  0  0  0  0  0  # atno 8009 bound_to 7997
  155.4074  140.3417  155.4263 H   0  0  0  0  0  0  0  0  0  0  0  0  # atno 8010 bound_to 7997
  139.9440  144.6071  150.8224 H   0  0  0  0  0  0  0  0  0  0  0  0  # atno 10167 bound_to 10162
  157.6851  131.0702  150.5120 H   0  0  0  0  0  0  0  0  0  0  0  0  # atno 10718 bound_to 10713
  152.9934  135.6189  154.2639 H   0  0  0  0  0  0  0  0  0  0  0  0  # atno 10763 bound_to 10752
  154.2374  135.2790  155.2869 H   0  0  0  0  0  0  0  0  0  0  0  0  # atno 10764 bound_to 10752
  154.5398  135.5764  153.6888 H   0  0  0  0  0  0  0  0  0  0  0  0  # atno 10765 bound_to 10752
  140.1830  134.8462  157.2825 H   0  0  0  0  0  0  0  0  0  0  0  0  # atno 11005 bound_to 11000
  144.7807  140.5834  143.6607 LP  0  0  0  0  0  0  0  0  0  0  0  0  # atno 17320 bound_to 7965
  145.5017  139.1483  143.3653 LP  0  0  0  0  0  0  0  0  0  0  0  0  # atno 17321 bound_to 7965
  140.7602  143.3147  151.2761 LP  0  0  0  0  0  0  0  0  0  0  0  0  # atno 17342 bound_to 10162
  139.6681  144.0068  152.2736 LP  0  0  0  0  0  0  0  0  0  0  0  0  # atno 17343 bound_to 10162
  156.5437  130.4214  149.6141 LP  0  0  0  0  0  0  0  0  0  0  0  0  # atno 17370 bound_to 10713
  156.2963  130.7152  151.2013 LP  0  0  0  0  0  0  0  0  0  0  0  0  # atno 17371 bound_to 10713
  140.2245  134.3983  155.7550 LP  0  0  0  0  0  0  0  0  0  0  0  0  # atno 17394 bound_to 11000
  141.2224  133.7183  156.8543 LP  0  0  0  0  0  0  0  0  0  0  0  0  # atno 17395 bound_to 11000

$$$$
