AV-unprocessed.smi:2110|AV-procd|sdf|8609|dock1
  -GOLD-   2272011353D 1   1.00000     0.00000
 Structure written by MMmdl.
 47 48  0  0  0  0  0  0  0  0  2 V2000
  146.1562  133.9776  162.3512 C   0  0  0  0  0  0  0  0  0  0  0  0
  147.5633  134.2584  161.8086 C   0  0  0  0  0  0  0  0  0  0  0  0
  147.7731  135.7024  161.6190 N   0  0  0  0  0  0  0  0  0  0  0  0
  147.3271  136.5859  162.7085 C   0  0  0  0  0  0  0  0  0  0  0  0
  145.9811  137.2479  162.3815 C   0  0  0  0  0  0  0  0  0  0  0  0
  147.9785  136.3444  160.0213 S   0  0  0  0  0  0  0  0  0  0  0  0
  147.2440  137.6147  159.9153 O   0  0  0  0  0  0  0  0  0  0  0  0
  149.4020  136.2517  159.6646 O   0  0  0  0  0  0  0  0  0  0  0  0
  147.1175  135.1424  159.1284 N   0  0  0  0  0  0  0  0  0  0  0  0
  147.8150  134.1171  158.3486 C   0  0  0  0  0  0  0  0  0  0  0  0
  148.1034  134.5284  156.9154 C   0  0  0  0  0  0  0  0  0  0  0  0
  147.6933  133.7039  155.8476 C   0  0  0  0  0  0  0  0  0  0  0  0
  147.9660  134.1089  154.5282 C   0  0  0  0  0  0  0  0  0  0  0  0
  148.6135  135.2717  154.3025 N   0  3  0  0  0  0  0  0  0  0  0  0
  149.0366  136.1053  155.2846 C   0  0  0  0  0  0  0  0  0  0  0  0
  149.6901  137.2998  154.9078 N   0  0  0  0  0  0  0  0  0  0  0  0
  151.1348  137.3551  155.1273 C   0  0  0  0  0  0  0  0  0  0  0  0
  151.7510  138.5489  154.3785 C   0  0  0  0  0  0  0  0  0  0  0  0
  151.0790  139.7471  154.7485 O   0  0  0  0  0  0  0  0  0  0  0  0
  149.7030  139.7102  154.3895 C   0  0  0  0  0  0  0  0  0  0  0  0
  149.0008  138.5662  155.1400 C   0  0  0  0  0  0  0  0  0  0  0  0
  148.7857  135.7328  156.6298 C   0  0  0  0  0  0  0  0  0  0  0  0
  145.9987  132.9064  162.4769 H   0  0  0  0  0  0  0  0  0  0  0  0
  145.3897  134.3479  161.6700 H   0  0  0  0  0  0  0  0  0  0  0  0
  145.9965  134.4484  163.3208 H   0  0  0  0  0  0  0  0  0  0  0  0
  148.3182  133.8739  162.4951 H   0  0  0  0  0  0  0  0  0  0  0  0
  147.7070  133.7275  160.8669 H   0  0  0  0  0  0  0  0  0  0  0  0
  147.2252  136.0073  163.6268 H   0  0  0  0  0  0  0  0  0  0  0  0
  148.0919  137.3391  162.9016 H   0  0  0  0  0  0  0  0  0  0  0  0
  145.6487  137.8719  163.2111 H   0  0  0  0  0  0  0  0  0  0  0  0
  145.2078  136.5014  162.2003 H   0  0  0  0  0  0  0  0  0  0  0  0
  146.0468  137.8845  161.4993 H   0  0  0  0  0  0  0  0  0  0  0  0
  146.2022  135.4286  158.7813 H   0  0  0  0  0  0  0  0  0  0  0  0
  148.7648  133.8994  158.8370 H   0  0  0  0  0  0  0  0  0  0  0  0
  147.2364  133.1938  158.3669 H   0  0  0  0  0  0  0  0  0  0  0  0
  147.1710  132.7767  156.0335 H   0  0  0  0  0  0  0  0  0  0  0  0
  147.6844  133.5441  153.6513 H   0  0  0  0  0  0  0  0  0  0  0  0
  151.3238  137.4480  156.1973 H   0  0  0  0  0  0  0  0  0  0  0  0
  151.6271  136.4421  154.7930 H   0  0  0  0  0  0  0  0  0  0  0  0
  152.8077  138.6432  154.6290 H   0  0  0  0  0  0  0  0  0  0  0  0
  151.6927  138.4035  153.2986 H   0  0  0  0  0  0  0  0  0  0  0  0
  149.2430  140.6646  154.6454 H   0  0  0  0  0  0  0  0  0  0  0  0
  149.6008  139.5881  153.3098 H   0  0  0  0  0  0  0  0  0  0  0  0
  147.9683  138.5065  154.7951 H   0  0  0  0  0  0  0  0  0  0  0  0
  148.9812  138.7745  156.2105 H   0  0  0  0  0  0  0  0  0  0  0  0
  149.1054  136.3532  157.4532 H   0  0  0  0  0  0  0  0  0  0  0  0
  148.7894  135.5415  153.3344 H   0  0  0  0  0  0  0  0  0  0  0  0
  1  2  1  0  0  0  0
  1 23  1  0  0  0  0
  1 24  1  0  0  0  0
  1 25  1  0  0  0  0
  2  3  1  0  0  0  0
  2 26  1  0  0  0  0
  2 27  1  0  0  0  0
  3  4  1  0  0  0  0
  3  6  1  0  0  0  0
  4  5  1  0  0  0  0
  4 28  1  0  0  0  0
  4 29  1  0  0  0  0
  5 30  1  0  0  0  0
  5 31  1  0  0  0  0
  5 32  1  0  0  0  0
  6  7  2  0  0  0  0
  6  8  2  0  0  0  0
  6  9  1  0  0  0  0
  9 10  1  0  0  0  0
  9 33  1  0  0  0  0
 10 11  1  0  0  0  0
 10 34  1  0  0  0  0
 10 35  1  0  0  0  0
 11 22  1  0  0  0  0
 11 12  2  0  0  0  0
 12 13  1  0  0  0  0
 12 36  1  0  0  0  0
 13 14  2  0  0  0  0
 13 37  1  0  0  0  0
 14 15  1  0  0  0  0
 14 47  1  0  0  0  0
 15 16  1  0  0  0  0
 15 22  2  0  0  0  0
 16 21  1  0  0  0  0
 16 17  1  0  0  0  0
 17 18  1  0  0  0  0
 17 38  1  0  0  0  0
 17 39  1  0  0  0  0
 18 19  1  0  0  0  0
 18 40  1  0  0  0  0
 18 41  1  0  0  0  0
 19 20  1  0  0  0  0
 20 21  1  0  0  0  0
 20 42  1  0  0  0  0
 20 43  1  0  0  0  0
 21 44  1  0  0  0  0
 21 45  1  0  0  0  0
 22 46  1  0  0  0  0
M  CHG  1  14   1
M  END
> <s_m_source_file>
AV-unprocessed.smi

> <i_m_source_file_index>
2110

> <i_lp_mmshare_version>
43012

> <i_f3d_flags>
0

> <s_epik_input>
W0NIM11bQ0gyXU4oW0NIMl1bQ0gzXSlTKD1PKSg9TylbTkhdW0NIMl1jMVtjSF1bY0hdbmMoW2NIXTEpTjJbQ0gyXVtDSDJdT1tDSDJdW0NIMl0y

> <s_epik_cmdline>
J2VwaWtfcHl0aG9uJywgJy1waCcsICc3LjAnLCAnLXRuJywgJzgnLCAnLW1hJywgJzIwMCcsICctbWV0YWxfYmluZGluZycsICctaW1hZScsICc8aW5maWxlLm1hZT4nLCAnLW9tYWUnLCAnPG91dGZpbGUubWFlPic=

> <r_lp_tautomer_probability>
0.999994

> <r_epik_Ionization_Penalty>
1.66934

> <r_epik_Ionization_Penalty_Charging>
1.61364

> <r_epik_Ionization_Penalty_Neutral>
0.0557011

> <r_epik_State_Penalty>
1.67389

> <r_epik_Charging_Adjusted_Penalty>
3.28753

> <i_epik_Tot_Q>
1

> <i_epik_Tot_abs_Q>
1

> <r_epik_Metal_State_Penalty>
4.64949

> <b_epik_Metal_Only>
0

> <s_lp_Force_Field>
OPLS_2005

> <r_lp_Energy>
18.4454

> <b_lp_Chiralities_Consistent>
1

> <s_lp_Variant>
AV-unprocessed.smi:2110-2

> <Gold.Version>
5.8.1

> <Gold.Id.Protein>
6NUR|6NUR_protein|mol2

> <Gold.PLP.Fitness>
48.8128

> <Gold.PLP.PLP>
-34.7592

> <Gold.PLP.part.hbond>
-4.1711

> <Gold.PLP.part.metal>
0.0000

> <Gold.PLP.part.buried>
-5.6606

> <Gold.PLP.part.nonpolar>
-25.5298

> <Gold.PLP.part.repulsive>
0.2455

> <Gold.PLP.ligand.clash>
0.0000

> <Gold.PLP.ligand.torsion>
2.3656

> <Gold.PLP.Chemscore.Hbond>
4.9280

> <Gold.PLP.Chemscore.CHOScore>
0.0000

> <Gold.PLP.Chemscore.Metal>
0.0000

> <Gold.Chemscore.Hbonds>
donor molecule, donor type, donor heavy atom, donor atom, acceptor molecule, acceptor atom, score
      L1  H    14    47       P1  7948  2.00
      P1  H  6896  6908       L1     8  1.00
      P1  H  6934  6947       L1     7  0.93
      P1  H  7989  7998       L1    19  0.90

> <Gold.PLP.Chemscore.Internal.Correction>
4.0008

> <Gold.Rescore>
     Score         DG    S(hbond)    S(metal)    S(lipo)     H(rot)  DE(clash)    DE(int)     intcor
     15.14     -18.80       2.91        0.00      69.53       1.77       0.01       3.65       ----

> <Gold.Chemscore.Fitness>
15.1432

> <Gold.Chemscore.DG>
-18.8032

> <Gold.Chemscore.ZeroCoef>
-5.4800

> <Gold.Chemscore.Hbond>
2.9086

> <Gold.Chemscore.Metal>
0.0000

> <Gold.Chemscore.Lipo>
69.5273

> <Gold.Chemscore.Internal_Hbond>
0.0000

> <Gold.Chemscore.DEClash>
0.0052

> <Gold.Chemscore.DEInternal>
3.6548

> <Gold.Chemscore.Rot>
1.7680

> <Gold.Chemscore.Internal.Correction>
   9.000000E+99

> <Gold.Chemscore.Hbonds>
donor molecule, donor type, donor heavy atom, donor atom, acceptor molecule, acceptor atom, score
      L1  H    14    47       P1  7948  0.90
      P1  H  6896  6908       L1     8  0.95
      P1  H  6934  6947       L1     7  0.91
      P1  H  7989  7998       L1    19  0.05

> <Gold.Chemscore.Hbond.Weighted>
-9.7146

> <Gold.Chemscore.Metal.Weighted>
-0.0000

> <Gold.Chemscore.Lipo.Weighted>
-8.1347

> <Gold.Chemscore.Internal_Hbond.Weighted>
0.0000

> <Gold.Chemscore.DEClash.Weighted>
0.0052

> <Gold.Chemscore.DEInternal.Weighted>
3.6548

> <Gold.Chemscore.Rot.Weighted>
4.5261

> <Gold.Chemscore.Internal.Correction.Weighted>
   9.000000E+99

> <Gold.Protein.RotatedTorsions>
[ 6907 6896 6895 6894 ] final -178.50 input  -60.11 | X-H torsion
[ 7974 7965 7964 7962 ] final  112.02 input  175.53 | X-H torsion
[ 8008 7997 7996 7995 ] final  140.00 input   59.86 | X-H torsion
[ 10167 10162 10161 10158 ] final   31.18 input  -65.29 | X-H torsion
[ 10718 10713 10712 10709 ] final  111.91 input   66.30 | X-H torsion
[ 10763 10752 10751 10750 ] final -112.89 input  -60.55 | X-H torsion
[ 11005 11000 10999 10996 ] final -167.24 input  -57.11 | X-H torsion

> <Gold.Protein.ActiveResidues>
 VAL166  LYS551  ARG553  GLY616  TRP617  ASP618  TYR619  PRO620  LYS621  CYS622 
 ASP623  PHE694  ASN695  SER759  ASP760  ASP761  ALA762  ILE779  LEU786  VAL792 
 PHE793  MET794  SER795  GLU796  ALA797  LYS798  CYS799  TRP800  GLU811  SER814 

> <Gold.Protein.RotatedAtoms>
  151.6382  133.3327  159.3123 H   0  0  0  0  0  0  0  0  0  0  0  0  # atno 6907 bound_to 6896
  150.8021  134.7126  159.6622 H   0  0  0  0  0  0  0  0  0  0  0  0  # atno 6908 bound_to 6896
  152.4114  134.6121  160.0080 H   0  0  0  0  0  0  0  0  0  0  0  0  # atno 6909 bound_to 6896
  145.2349  139.2803  143.4148 H   0  0  0  0  0  0  0  0  0  0  0  0  # atno 7974 bound_to 7965
  156.2984  140.2353  156.4330 H   0  0  0  0  0  0  0  0  0  0  0  0  # atno 8008 bound_to 7997
  154.8254  140.0435  157.1460 H   0  0  0  0  0  0  0  0  0  0  0  0  # atno 8009 bound_to 7997
  154.9268  140.3011  155.5191 H   0  0  0  0  0  0  0  0  0  0  0  0  # atno 8010 bound_to 7997
  140.4611  144.0905  150.6213 H   0  0  0  0  0  0  0  0  0  0  0  0  # atno 10167 bound_to 10162
  157.6420  131.0959  150.6817 H   0  0  0  0  0  0  0  0  0  0  0  0  # atno 10718 bound_to 10713
  154.8371  135.4474  154.1263 H   0  0  0  0  0  0  0  0  0  0  0  0  # atno 10763 bound_to 10752
  153.2486  135.6924  153.7710 H   0  0  0  0  0  0  0  0  0  0  0  0  # atno 10764 bound_to 10752
  153.7031  135.3368  155.3205 H   0  0  0  0  0  0  0  0  0  0  0  0  # atno 10765 bound_to 10752
  140.5555  134.5386  157.5132 H   0  0  0  0  0  0  0  0  0  0  0  0  # atno 11005 bound_to 11000
  146.3343  140.2695  142.8605 LP  0  0  0  0  0  0  0  0  0  0  0  0  # atno 17320 bound_to 7965
  144.9642  140.8306  143.5494 LP  0  0  0  0  0  0  0  0  0  0  0  0  # atno 17321 bound_to 7965
  140.4092  143.2665  151.9854 LP  0  0  0  0  0  0  0  0  0  0  0  0  # atno 17342 bound_to 10162
  139.4806  144.5930  151.7738 LP  0  0  0  0  0  0  0  0  0  0  0  0  # atno 17343 bound_to 10162
  156.7140  130.4660  149.5540 LP  0  0  0  0  0  0  0  0  0  0  0  0  # atno 17370 bound_to 10713
  156.1711  130.6437  151.0838 LP  0  0  0  0  0  0  0  0  0  0  0  0  # atno 17371 bound_to 10713
  139.9434  134.7746  156.0622 LP  0  0  0  0  0  0  0  0  0  0  0  0  # atno 17394 bound_to 11000
  141.1146  133.6632  156.3062 LP  0  0  0  0  0  0  0  0  0  0  0  0  # atno 17395 bound_to 11000

$$$$
