#       Name:                AV-unprocessed.smi:2863
#       Creating user name   scv26
#       Creation time:       Fri Mar 27 15:47:34 2020


#       File generated by GOLD software.
#

@<TRIPOS>MOLECULE
AV-unprocessed.smi:2863
    47    48     1
SMALL
NO_CHARGES


@<TRIPOS>ATOM
      1 ****        -6.8672   2.6940  -0.6548 C.3            1 S1                 0.0000
      2 ****        -5.6722   1.8048  -0.6580 C.2            1 S1                 0.0000
      3 ****        -4.3921   2.1703  -0.6776 N.2            1 S1                 0.0000
      4 ****        -3.6833   0.9770  -0.6717 C.2            1 S1                 0.0000
      5 ****        -2.1858   0.9390  -0.6774 C.3            1 S1                 0.0000
      6 ****        -1.5992   1.1641   0.7255 C.3            1 S1                 0.0000
      7 ****        -0.1413   1.1459   0.7108 N.am           1 S1                 0.0000
      8 ****         0.6119   0.0374   0.6965 C.2            1 S1                 0.0000
      9 ****         0.1557  -1.1062   0.6851 O.2            1 S1                 0.0000
     10 ****         1.9209   0.3259   0.6945 N.am           1 S1                 0.0000
     11 ****         3.0004  -0.6568   0.6868 C.3            1 S1                 0.0000
     12 ****         4.2668  -0.0366   1.3071 C.3            1 S1                 0.0000
     13 ****         5.4511  -1.0160   1.2668 C.3            1 S1                 0.0000
     14 ****         5.7245  -1.5003  -0.1657 C.3            1 S1                 0.0000
     15 ****         4.4661  -2.1247  -0.7890 C.3            1 S1                 0.0000
     16 ****         3.2788  -1.1489  -0.7489 C.3            1 S1                 0.0000
     17 ****        -4.5854  -0.0558  -0.6427 C.2            1 S1                 0.0000
     18 ****        -4.4343  -1.5389  -0.6141 C.3            1 S1                 0.0000
     19 ****        -5.8546   0.4570  -0.6370 O.3            1 S1                 0.0000
     20 ****        -6.5621   3.7408  -0.6549 H              1 S1                 0.0000
     21 ****        -7.4702   2.5043   0.2331 H              1 S1                 0.0000
     22 ****        -7.4743   2.5053  -1.5401 H              1 S1                 0.0000
     23 ****        -1.8439  -0.0186  -1.0717 H              1 S1                 0.0000
     24 ****        -1.7996   1.6973  -1.3596 H              1 S1                 0.0000
     25 ****        -1.9205   2.1316   1.1122 H              1 S1                 0.0000
     26 ****        -1.9749   0.4115   1.4212 H              1 S1                 0.0000
     27 ****         0.3257   2.0410   0.7175 H              1 S1                 0.0000
     28 ****         2.1928   1.2980   0.7033 H              1 S1                 0.0000
     29 ****         2.7070  -1.5105   1.3012 H              1 S1                 0.0000
     30 ****         4.5346   0.8743   0.7696 H              1 S1                 0.0000
     31 ****         4.0717   0.2593   2.3386 H              1 S1                 0.0000
     32 ****         6.3425  -0.5381   1.6745 H              1 S1                 0.0000
     33 ****         5.2389  -1.8722   1.9081 H              1 S1                 0.0000
     34 ****         6.0587  -0.6618  -0.7779 H              1 S1                 0.0000
     35 ****         6.5383  -2.2261  -0.1640 H              1 S1                 0.0000
     36 ****         4.6688  -2.4211  -1.8185 H              1 S1                 0.0000
     37 ****         4.2063  -3.0369  -0.2504 H              1 S1                 0.0000
     38 ****         2.3936  -1.6366  -1.1590 H              1 S1                 0.0000
     39 ****         3.4893  -0.2971  -1.3971 H              1 S1                 0.0000
     40 ****        -3.5034  -1.8250  -0.1240 H              1 S1                 0.0000
     41 ****        -4.4228  -1.9445  -1.6258 H              1 S1                 0.0000
     42 ****        -5.2569  -2.0041  -0.0706 H              1 S1                 0.0000
     43 ****        -4.0228   3.0994  -0.6932 LP             1 S1                 0.0000
     44 ****        -0.8339  -1.2498   0.6862 LP             1 S1                 0.0000
     45 ****         0.7748  -1.8915   0.6747 LP             1 S1                 0.0000
     46 ****        -6.3622   0.1555  -1.4442 LP             1 S1                 0.0000
     47 ****        -6.3455   0.1787   0.1885 LP             1 S1                 0.0000
@<TRIPOS>BOND
    1    1    2 1     
    2    1   20 1     
    3    1   21 1     
    4    1   22 1     
    5    2   19 1     
    6    2    3 2     
    7    3    4 1     
    8    4    5 1     
    9    4   17 2     
   10    5    6 1     
   11    5   23 1     
   12    5   24 1     
   13    6    7 1     
   14    6   25 1     
   15    6   26 1     
   16    7    8 am    
   17    7   27 1     
   18    8    9 2     
   19    8   10 am    
   20   10   11 1     
   21   10   28 1     
   22   11   16 1     
   23   11   12 1     
   24   11   29 1     
   25   12   13 1     
   26   12   30 1     
   27   12   31 1     
   28   13   14 1     
   29   13   32 1     
   30   13   33 1     
   31   14   15 1     
   32   14   34 1     
   33   14   35 1     
   34   15   16 1     
   35   15   36 1     
   36   15   37 1     
   37   16   38 1     
   38   16   39 1     
   39   17   18 1     
   40   17   19 1     
   41   18   40 1     
   42   18   41 1     
   43   18   42 1     
   44    3   43 1     
   45    9   44 1     
   46    9   45 1     
   47   19   46 1     
   48   19   47 1     
@<TRIPOS>SUBSTRUCTURE
      1 S1             1
@<TRIPOS>SET
LONE_PAIRS      STATIC     ATOMS    <user>   **** ""
5 43 44 45 46 47
DONOR_HYDROGENS      STATIC     ATOMS    <user>   **** ""
2 27 28
ATOM$BLUE        STATIC     ATOMS    COLORGROUP SYSTEM
5 43 44 45 46 47
ATOM$RED        STATIC     ATOMS    COLORGROUP SYSTEM
2 27 28
