AV-unprocessed.smi:997|AV-procd|sdf|4348|dock4
  -GOLD-   22720 2243D 1   1.00000     0.00000
 Structure written by MMmdl.
 33 35  0  0  0  0  0  0  0  0  2 V2000
  155.3998  139.0734  162.6806 C   0  0  0  0  0  0  0  0  0  0  0  0
  154.6558  140.3743  162.7197 C   0  0  0  0  0  0  0  0  0  0  0  0
  154.6820  141.0925  163.8194 N   0  0  0  0  0  0  0  0  0  0  0  0
  153.9716  142.2183  163.5691 N   0  0  0  0  0  0  0  0  0  0  0  0
  153.8311  143.2066  164.6228 C   0  0  0  0  0  0  0  0  0  0  0  0
  154.8214  142.9499  165.7663 C   0  0  0  0  0  0  0  0  0  0  0  0
  155.0074  144.1323  166.5138 O   0  0  0  0  0  0  0  0  0  0  0  0
  153.4577  142.2500  162.2859 C   0  0  0  0  0  0  0  0  0  0  0  0
  152.7100  143.2426  161.7250 N   0  0  0  0  0  0  0  0  0  0  0  0
  152.3507  143.0224  160.4440 C   0  0  0  0  0  0  0  0  0  0  0  0
  151.5301  144.1118  159.8261 C   0  0  0  0  0  0  0  0  0  0  0  0
  151.0940  144.0433  158.3791 C   0  0  0  0  0  0  0  0  0  0  0  0
  152.1313  145.0517  158.8058 C   0  0  0  0  0  0  0  0  0  0  0  0
  152.6849  141.8563  159.7257 C   0  0  0  0  0  0  0  0  0  0  0  0
  153.4467  140.8335  160.3408 C   0  0  0  0  0  0  0  0  0  0  0  0
  153.7590  139.5897  159.5511 C   0  0  0  0  0  0  0  0  0  0  0  0
  153.8190  139.6451  158.3051 O   0  0  0  0  0  0  0  0  0  0  0  0
  153.9816  138.5276  160.1748 O   0  5  0  0  0  0  0  0  0  0  0  0
  153.8777  141.0277  161.6878 C   0  0  0  0  0  0  0  0  0  0  0  0
  156.0391  139.0096  161.8001 H   0  0  0  0  0  0  0  0  0  0  0  0
  154.7139  138.2265  162.6678 H   0  0  0  0  0  0  0  0  0  0  0  0
  156.0451  138.9506  163.5512 H   0  0  0  0  0  0  0  0  0  0  0  0
  153.9828  144.2015  164.2011 H   0  0  0  0  0  0  0  0  0  0  0  0
  152.8053  143.1753  164.9922 H   0  0  0  0  0  0  0  0  0  0  0  0
  154.4503  142.1664  166.4280 H   0  0  0  0  0  0  0  0  0  0  0  0
  155.7845  142.6201  165.3756 H   0  0  0  0  0  0  0  0  0  0  0  0
  155.8920  144.1414  166.8459 H   0  0  0  0  0  0  0  0  0  0  0  0
  150.8275  144.5275  160.5459 H   0  0  0  0  0  0  0  0  0  0  0  0
  151.4365  143.2043  157.7764 H   0  0  0  0  0  0  0  0  0  0  0  0
  150.1087  144.4295  158.1272 H   0  0  0  0  0  0  0  0  0  0  0  0
  151.8222  146.0944  158.8318 H   0  0  0  0  0  0  0  0  0  0  0  0
  153.1585  144.8743  158.4932 H   0  0  0  0  0  0  0  0  0  0  0  0
  152.3407  141.7459  158.7073 H   0  0  0  0  0  0  0  0  0  0  0  0
  1  2  1  0  0  0  0
  1 20  1  0  0  0  0
  1 21  1  0  0  0  0
  1 22  1  0  0  0  0
  2 19  1  0  0  0  0
  2  3  2  0  0  0  0
  3  4  1  0  0  0  0
  4  5  1  0  0  0  0
  4  8  1  0  0  0  0
  5  6  1  0  0  0  0
  5 23  1  0  0  0  0
  5 24  1  0  0  0  0
  6  7  1  0  0  0  0
  6 25  1  0  0  0  0
  6 26  1  0  0  0  0
  7 27  1  0  0  0  0
  8 19  1  0  0  0  0
  8  9  2  0  0  0  0
  9 10  1  0  0  0  0
 10 11  1  0  0  0  0
 10 14  2  0  0  0  0
 11 13  1  0  0  0  0
 11 12  1  0  0  0  0
 11 28  1  0  0  0  0
 12 13  1  0  0  0  0
 12 29  1  0  0  0  0
 12 30  1  0  0  0  0
 13 31  1  0  0  0  0
 13 32  1  0  0  0  0
 14 15  1  0  0  0  0
 14 33  1  0  0  0  0
 15 16  1  0  0  0  0
 15 19  2  0  0  0  0
 16 17  2  0  0  0  0
 16 18  1  0  0  0  0
M  CHG  1  18  -1
M  END
> <s_m_source_file>
AV-unprocessed.smi

> <i_m_source_file_index>
997

> <i_lp_mmshare_version>
43012

> <i_f3d_flags>
0

> <s_epik_input>
W09IXVtDSDJdW0NIMl1uMW5jKFtDSDNdKWMoYzEyKWMoQyg9TylbT0hdKVtjSF1jKG4yKVtDSF0zW0NIMl1bQ0gyXTM=

> <s_epik_cmdline>
J2VwaWtfcHl0aG9uJywgJy1waCcsICc3LjAnLCAnLXRuJywgJzgnLCAnLW1hJywgJzIwMCcsICctbWV0YWxfYmluZGluZycsICctaW1hZScsICc8aW5maWxlLm1hZT4nLCAnLW9tYWUnLCAnPG91dGZpbGUubWFlPic=

> <r_epik_Ionization_Penalty>
0.00209497

> <r_epik_Ionization_Penalty_Charging>
0.0019185

> <r_epik_Ionization_Penalty_Neutral>
0.000176473

> <r_epik_State_Penalty>
0.00130684

> <r_epik_Charging_Adjusted_Penalty>
0.00322534

> <i_epik_Tot_Q>
-1

> <i_epik_Tot_abs_Q>
1

> <r_epik_Metal_State_Penalty>
-0

> <b_epik_Metal_Only>
0

> <s_lp_Force_Field>
OPLS_2005

> <r_lp_Energy>
10.3232

> <b_lp_Chiralities_Consistent>
1

> <s_lp_Variant>
AV-unprocessed.smi:997-1

> <Gold.Version>
5.8.1

> <Gold.Id.Protein>
6NUR|6NUR_protein|mol2

> <Gold.PLP.Fitness>
48.5396

> <Gold.PLP.PLP>
-43.8724

> <Gold.PLP.part.hbond>
-3.0000

> <Gold.PLP.part.metal>
0.0000

> <Gold.PLP.part.buried>
-0.6778

> <Gold.PLP.part.nonpolar>
-37.4612

> <Gold.PLP.part.repulsive>
0.0941

> <Gold.PLP.ligand.clash>
0.0000

> <Gold.PLP.ligand.torsion>
0.7361

> <Gold.PLP.Chemscore.Hbond>
2.0000

> <Gold.PLP.Chemscore.CHOScore>
0.0000

> <Gold.PLP.Chemscore.Metal>
0.0000

> <Gold.Chemscore.Hbonds>
donor molecule, donor type, donor heavy atom, donor atom, acceptor molecule, acceptor atom, score
      P1  H  7997  8009       L1    17  1.92

> <Gold.PLP.Chemscore.Internal.Correction>
0.1393

> <Gold.Rescore>
     Score         DG    S(hbond)    S(metal)    S(lipo)     H(rot)  DE(clash)    DE(int)     intcor
     15.20     -16.33       1.00        0.00     108.78       2.04       0.25       0.88       ----

> <Gold.Chemscore.Fitness>
15.2027

> <Gold.Chemscore.DG>
-16.3276

> <Gold.Chemscore.ZeroCoef>
-5.4800

> <Gold.Chemscore.Hbond>
0.9988

> <Gold.Chemscore.Metal>
0.0000

> <Gold.Chemscore.Lipo>
108.7752

> <Gold.Chemscore.Internal_Hbond>
0.0000

> <Gold.Chemscore.DEClash>
0.2473

> <Gold.Chemscore.DEInternal>
0.8776

> <Gold.Chemscore.Rot>
2.0372

> <Gold.Chemscore.Internal.Correction>
   9.000000E+99

> <Gold.Chemscore.Hbonds>
donor molecule, donor type, donor heavy atom, donor atom, acceptor molecule, acceptor atom, score
      P1  H  7997  8009       L1    17  0.91

> <Gold.Chemscore.Hbond.Weighted>
-3.3361

> <Gold.Chemscore.Metal.Weighted>
-0.0000

> <Gold.Chemscore.Lipo.Weighted>
-12.7267

> <Gold.Chemscore.Internal_Hbond.Weighted>
0.0000

> <Gold.Chemscore.DEClash.Weighted>
0.2473

> <Gold.Chemscore.DEInternal.Weighted>
0.8776

> <Gold.Chemscore.Rot.Weighted>
5.2152

> <Gold.Chemscore.Internal.Correction.Weighted>
   9.000000E+99

> <Gold.Protein.RotatedTorsions>
[ 6907 6896 6895 6894 ] final   30.63 input  -60.11 | X-H torsion
[ 7974 7965 7964 7962 ] final   -1.70 input  175.53 | X-H torsion
[ 8008 7997 7996 7995 ] final  141.25 input   59.86 | X-H torsion
[ 10167 10162 10161 10158 ] final -133.38 input  -65.29 | X-H torsion
[ 10718 10713 10712 10709 ] final  163.66 input   66.30 | X-H torsion
[ 10763 10752 10751 10750 ] final  153.23 input  -60.55 | X-H torsion
[ 11005 11000 10999 10996 ] final  119.86 input  -57.11 | X-H torsion

> <Gold.Protein.ActiveResidues>
 VAL166  LYS551  ARG553  GLY616  TRP617  ASP618  TYR619  PRO620  LYS621  CYS622 
 ASP623  PHE694  ASN695  SER759  ASP760  ASP761  ALA762  ILE779  LEU786  VAL792 
 PHE793  MET794  SER795  GLU796  ALA797  LYS798  CYS799  TRP800  GLU811  SER814 

> <Gold.Protein.RotatedAtoms>
  152.0487  134.9667  160.0574 H   0  0  0  0  0  0  0  0  0  0  0  0  # atno 6907 bound_to 6896
  152.1077  133.4279  159.4624 H   0  0  0  0  0  0  0  0  0  0  0  0  # atno 6908 bound_to 6896
  150.6842  134.2604  159.4590 H   0  0  0  0  0  0  0  0  0  0  0  0  # atno 6909 bound_to 6896
  146.2414  140.1461  142.8334 H   0  0  0  0  0  0  0  0  0  0  0  0  # atno 7974 bound_to 7965
  156.2968  140.2320  156.4534 H   0  0  0  0  0  0  0  0  0  0  0  0  # atno 8008 bound_to 7997
  154.8081  140.0444  157.1343 H   0  0  0  0  0  0  0  0  0  0  0  0  # atno 8009 bound_to 7997
  154.9455  140.3035  155.5103 H   0  0  0  0  0  0  0  0  0  0  0  0  # atno 8010 bound_to 7997
  139.8989  143.6632  152.2598 H   0  0  0  0  0  0  0  0  0  0  0  0  # atno 10167 bound_to 10162
  157.1054  131.0454  151.2480 H   0  0  0  0  0  0  0  0  0  0  0  0  # atno 10718 bound_to 10713
  154.1328  135.2825  155.3181 H   0  0  0  0  0  0  0  0  0  0  0  0  # atno 10763 bound_to 10752
  154.6343  135.5424  153.7720 H   0  0  0  0  0  0  0  0  0  0  0  0  # atno 10764 bound_to 10752
  153.0276  135.6470  154.1478 H   0  0  0  0  0  0  0  0  0  0  0  0  # atno 10765 bound_to 10752
  139.9162  134.9631  156.7719 H   0  0  0  0  0  0  0  0  0  0  0  0  # atno 11005 bound_to 11000
  145.0207  140.8791  143.5169 LP  0  0  0  0  0  0  0  0  0  0  0  0  # atno 17320 bound_to 7965
  145.1509  139.2515  143.5441 LP  0  0  0  0  0  0  0  0  0  0  0  0  # atno 17321 bound_to 7965
  139.7043  144.7630  151.1220 LP  0  0  0  0  0  0  0  0  0  0  0  0  # atno 17342 bound_to 10162
  140.7711  143.5416  150.9306 LP  0  0  0  0  0  0  0  0  0  0  0  0  # atno 17343 bound_to 10162
  157.4605  130.7650  149.7232 LP  0  0  0  0  0  0  0  0  0  0  0  0  # atno 17370 bound_to 10713
  155.9863  130.3976  150.3218 LP  0  0  0  0  0  0  0  0  0  0  0  0  # atno 17371 bound_to 10713
  140.6614  133.9641  155.7807 LP  0  0  0  0  0  0  0  0  0  0  0  0  # atno 17394 bound_to 11000
  141.0641  134.0303  157.3619 LP  0  0  0  0  0  0  0  0  0  0  0  0  # atno 17395 bound_to 11000

$$$$
