AV-unprocessed.smi:712|AV-procd|sdf|3468|dock1
  -GOLD-   22720 0453D 1   1.00000     0.00000
 Structure written by MMmdl.
 51 52  0  0  0  0  0  0  0  0  2 V2000
  152.2631  143.9033  161.1098 C   0  0  0  0  0  0  0  0  0  0  0  0
  151.9954  143.1352  159.8321 C   0  0  0  0  0  0  0  0  0  0  0  0
  151.1146  143.6726  158.8160 C   0  0  0  0  0  0  0  0  0  0  0  0
  150.9018  142.9661  157.6952 C   0  0  0  0  0  0  0  0  0  0  0  0
  151.5094  141.7159  157.4782 N   0  0  0  0  0  0  0  0  0  0  0  0
  151.2027  141.0261  156.2143 C   0  0  0  0  0  0  0  0  0  0  0  0
  150.6337  139.6177  156.4312 C   0  0  0  0  0  0  0  0  0  0  0  0
  151.3864  138.6495  156.5438 O   0  0  0  0  0  0  0  0  0  0  0  0
  149.2970  139.5223  156.4921 N   0  0  0  0  0  0  0  0  0  0  0  0
  148.5495  138.2764  156.6226 C   0  0  0  0  0  0  0  0  0  0  0  0
  149.0394  137.2195  155.6157 C   0  0  2  0  0  0  0  0  0  0  0  0
  147.9371  136.2004  155.2663 C   0  0  0  0  0  0  0  0  0  0  0  0
  148.4582  135.1702  154.3333 N   0  3  2  0  0  0  0  0  0  0  0  0
  147.4381  134.1801  153.9018 C   0  0  0  0  0  0  0  0  0  0  0  0
  147.9647  133.1816  152.8476 C   0  0  0  0  0  0  0  0  0  0  0  0
  146.8060  132.6250  152.0071 C   0  0  0  0  0  0  0  0  0  0  0  0
  148.7608  132.0331  153.4902 C   0  0  0  0  0  0  0  0  0  0  0  0
  149.6667  134.5254  154.8989 C   0  0  0  0  0  0  0  0  0  0  0  0
  150.7143  135.5847  155.2756 C   0  0  0  0  0  0  0  0  0  0  0  0
  150.1384  136.5133  156.1835 O   0  0  0  0  0  0  0  0  0  0  0  0
  152.3456  141.1496  158.4002 C   0  0  0  0  0  0  0  0  0  0  0  0
  152.8724  140.0507  158.2195 O   0  0  0  0  0  0  0  0  0  0  0  0
  152.5734  141.9323  159.6202 C   0  0  0  0  0  0  0  0  0  0  0  0
  151.7787  144.8798  161.0919 H   0  0  0  0  0  0  0  0  0  0  0  0
  153.3341  144.0581  161.2436 H   0  0  0  0  0  0  0  0  0  0  0  0
  151.8845  143.3506  161.9701 H   0  0  0  0  0  0  0  0  0  0  0  0
  150.6302  144.6279  158.9559 H   0  0  0  0  0  0  0  0  0  0  0  0
  150.2520  143.3076  156.9026 H   0  0  0  0  0  0  0  0  0  0  0  0
  150.4829  141.5948  155.6239 H   0  0  0  0  0  0  0  0  0  0  0  0
  152.1022  140.9725  155.5977 H   0  0  0  0  0  0  0  0  0  0  0  0
  148.7576  140.3716  156.4054 H   0  0  0  0  0  0  0  0  0  0  0  0
  148.6015  137.8946  157.6438 H   0  0  0  0  0  0  0  0  0  0  0  0
  147.5007  138.5062  156.4330 H   0  0  0  0  0  0  0  0  0  0  0  0
  149.3646  137.7262  154.7045 H   0  0  0  0  0  0  0  0  0  0  0  0
  147.5667  135.7198  156.1732 H   0  0  0  0  0  0  0  0  0  0  0  0
  147.0952  136.7255  154.8172 H   0  0  0  0  0  0  0  0  0  0  0  0
  147.0999  133.6117  154.7698 H   0  0  0  0  0  0  0  0  0  0  0  0
  146.5614  134.7099  153.5259 H   0  0  0  0  0  0  0  0  0  0  0  0
  148.6270  133.7036  152.1577 H   0  0  0  0  0  0  0  0  0  0  0  0
  146.0925  132.0802  152.6262 H   0  0  0  0  0  0  0  0  0  0  0  0
  147.1695  131.9414  151.2393 H   0  0  0  0  0  0  0  0  0  0  0  0
  146.2654  133.4261  151.5022 H   0  0  0  0  0  0  0  0  0  0  0  0
  148.1494  131.4743  154.1993 H   0  0  0  0  0  0  0  0  0  0  0  0
  149.6362  132.4032  154.0240 H   0  0  0  0  0  0  0  0  0  0  0  0
  149.1163  131.3316  152.7348 H   0  0  0  0  0  0  0  0  0  0  0  0
  149.3916  133.9418  155.7790 H   0  0  0  0  0  0  0  0  0  0  0  0
  150.0932  133.8319  154.1732 H   0  0  0  0  0  0  0  0  0  0  0  0
  151.5739  135.1124  155.7517 H   0  0  0  0  0  0  0  0  0  0  0  0
  151.0852  136.1025  154.3896 H   0  0  0  0  0  0  0  0  0  0  0  0
  153.2308  141.5256  160.3751 H   0  0  0  0  0  0  0  0  0  0  0  0
  148.7611  135.6525  153.4989 H   0  0  0  0  0  0  0  0  0  0  0  0
  1  2  1  0  0  0  0
  1 24  1  0  0  0  0
  1 25  1  0  0  0  0
  1 26  1  0  0  0  0
  2 23  2  0  0  0  0
  2  3  1  0  0  0  0
  3  4  2  0  0  0  0
  3 27  1  0  0  0  0
  4  5  1  0  0  0  0
  4 28  1  0  0  0  0
  5  6  1  0  0  0  0
  5 21  1  0  0  0  0
  6  7  1  0  0  0  0
  6 29  1  0  0  0  0
  6 30  1  0  0  0  0
  7  8  2  0  0  0  0
  7  9  1  0  0  0  0
  9 10  1  0  0  0  0
  9 31  1  0  0  0  0
 10 11  1  0  0  0  0
 10 32  1  0  0  0  0
 10 33  1  0  0  0  0
 11 20  1  0  0  0  0
 11 12  1  0  0  0  0
 11 34  1  0  0  0  0
 12 13  1  0  0  0  0
 12 35  1  0  0  0  0
 12 36  1  0  0  0  0
 13 14  1  0  0  0  0
 13 18  1  0  0  0  0
 13 51  1  0  0  0  0
 14 15  1  0  0  0  0
 14 37  1  0  0  0  0
 14 38  1  0  0  0  0
 15 16  1  0  0  0  0
 15 17  1  0  0  0  0
 15 39  1  0  0  0  0
 16 40  1  0  0  0  0
 16 41  1  0  0  0  0
 16 42  1  0  0  0  0
 17 43  1  0  0  0  0
 17 44  1  0  0  0  0
 17 45  1  0  0  0  0
 18 19  1  0  0  0  0
 18 46  1  0  0  0  0
 18 47  1  0  0  0  0
 19 20  1  0  0  0  0
 19 48  1  0  0  0  0
 19 49  1  0  0  0  0
 21 22  2  0  0  0  0
 21 23  1  0  0  0  0
 23 50  1  0  0  0  0
M  CHG  1  13   1
M  END
> <s_m_source_file>
AV-unprocessed.smi

> <i_m_source_file_index>
712

> <i_lp_mmshare_version>
43012

> <i_f3d_flags>
0

> <s_epik_input>
W0NIM11jMVtjSF1bY0hdbihjKD1PKVtjSF0xKVtDSDJdQyg9TylbTkhdW0NIMl1bQ0BASF0yW0NIMl1OKFtDSDJdW0NIMl1PMilbQ0gyXVtDSF0oW0NIM10pW0NIM10=

> <s_epik_cmdline>
J2VwaWtfcHl0aG9uJywgJy1waCcsICc3LjAnLCAnLXRuJywgJzgnLCAnLW1hJywgJzIwMCcsICctbWV0YWxfYmluZGluZycsICctaW1hZScsICc8aW5maWxlLm1hZT4nLCAnLW9tYWUnLCAnPG91dGZpbGUubWFlPic=

> <r_lp_tautomer_probability>
1

> <r_epik_Ionization_Penalty>
0.0975935

> <r_epik_Ionization_Penalty_Charging>
0.0975934

> <r_epik_Ionization_Penalty_Neutral>
6.27044e-08

> <r_epik_State_Penalty>
0.0877056

> <r_epik_Charging_Adjusted_Penalty>
0.185299

> <i_epik_Tot_Q>
1

> <i_epik_Tot_abs_Q>
1

> <r_epik_Metal_State_Penalty>
0.0877109

> <b_epik_Metal_Only>
0

> <s_lp_Force_Field>
OPLS_2005

> <r_lp_Energy>
27.343

> <b_lp_Chiralities_Consistent>
1

> <s_lp_Variant>
AV-unprocessed.smi:712-1

> <Gold.Version>
5.8.1

> <Gold.Id.Protein>
6NUR|6NUR_protein|mol2

> <Gold.PLP.Fitness>
48.1862

> <Gold.PLP.PLP>
-38.0241

> <Gold.PLP.part.hbond>
-2.0000

> <Gold.PLP.part.metal>
0.0000

> <Gold.PLP.part.buried>
-4.0724

> <Gold.PLP.part.nonpolar>
-31.7846

> <Gold.PLP.part.repulsive>
0.0340

> <Gold.PLP.ligand.clash>
0.0000

> <Gold.PLP.ligand.torsion>
1.0053

> <Gold.PLP.Chemscore.Hbond>
3.0000

> <Gold.PLP.Chemscore.CHOScore>
1.0000

> <Gold.PLP.Chemscore.Metal>
0.0000

> <Gold.Chemscore.Hbonds>
donor molecule, donor type, donor heavy atom, donor atom, acceptor molecule, acceptor atom, score
      L1  H    13    51       P1  7948  2.00
      P1  H  7997  8008       L1    22  0.84
      L1  C     4    28       P1  8028  1.00

> <Gold.PLP.Chemscore.Internal.Correction>
0.1728

> <Gold.Rescore>
     Score         DG    S(hbond)    S(metal)    S(lipo)     H(rot)  DE(clash)    DE(int)     intcor
     12.94     -17.63       1.91        0.00      90.70       1.89       0.00       4.70       ----

> <Gold.Chemscore.Fitness>
12.9363

> <Gold.Chemscore.DG>
-17.6337

> <Gold.Chemscore.ZeroCoef>
-5.4800

> <Gold.Chemscore.Hbond>
1.9079

> <Gold.Chemscore.Metal>
0.0000

> <Gold.Chemscore.Lipo>
90.7030

> <Gold.Chemscore.Internal_Hbond>
0.0000

> <Gold.Chemscore.DEClash>
0.0000

> <Gold.Chemscore.DEInternal>
4.6974

> <Gold.Chemscore.Rot>
1.8871

> <Gold.Chemscore.Internal.Correction>
   9.000000E+99

> <Gold.Chemscore.Hbonds>
donor molecule, donor type, donor heavy atom, donor atom, acceptor molecule, acceptor atom, score
      L1  H    13    51       P1  7948  0.96
      P1  H  7997  8008       L1    22  0.73

> <Gold.Chemscore.Hbond.Weighted>
-6.3724

> <Gold.Chemscore.Metal.Weighted>
-0.0000

> <Gold.Chemscore.Lipo.Weighted>
-10.6123

> <Gold.Chemscore.Internal_Hbond.Weighted>
0.0000

> <Gold.Chemscore.DEClash.Weighted>
0.0000

> <Gold.Chemscore.DEInternal.Weighted>
4.6974

> <Gold.Chemscore.Rot.Weighted>
4.8309

> <Gold.Chemscore.Internal.Correction.Weighted>
   9.000000E+99

> <Gold.Protein.RotatedTorsions>
[ 6907 6896 6895 6894 ] final -118.97 input  -60.11 | X-H torsion
[ 7974 7965 7964 7962 ] final   10.59 input  175.53 | X-H torsion
[ 8008 7997 7996 7995 ] final  -87.37 input   59.86 | X-H torsion
[ 10167 10162 10161 10158 ] final  -28.31 input  -65.29 | X-H torsion
[ 10718 10713 10712 10709 ] final   73.06 input   66.30 | X-H torsion
[ 10763 10752 10751 10750 ] final  -10.19 input  -60.55 | X-H torsion
[ 11005 11000 10999 10996 ] final -105.86 input  -57.11 | X-H torsion

> <Gold.Protein.ActiveResidues>
 VAL166  LYS551  ARG553  GLY616  TRP617  ASP618  TYR619  PRO620  LYS621  CYS622 
 ASP623  PHE694  ASN695  SER759  ASP760  ASP761  ALA762  ILE779  LEU786  VAL792 
 PHE793  MET794  SER795  GLU796  ALA797  LYS798  CYS799  TRP800  GLU811  SER814 

> <Gold.Protein.RotatedAtoms>
  150.8265  133.8163  159.3116 H   0  0  0  0  0  0  0  0  0  0  0  0  # atno 6907 bound_to 6896
  151.5905  135.1052  160.0047 H   0  0  0  0  0  0  0  0  0  0  0  0  # atno 6908 bound_to 6896
  152.4350  133.7303  159.6640 H   0  0  0  0  0  0  0  0  0  0  0  0  # atno 6909 bound_to 6896
  146.2386  139.9612  142.8458 H   0  0  0  0  0  0  0  0  0  0  0  0  # atno 7974 bound_to 7965
  154.6625  140.0566  157.0077 H   0  0  0  0  0  0  0  0  0  0  0  0  # atno 8008 bound_to 7997
  155.1208  140.3247  155.4479 H   0  0  0  0  0  0  0  0  0  0  0  0  # atno 8009 bound_to 7997
  156.2624  140.1998  156.6330 H   0  0  0  0  0  0  0  0  0  0  0  0  # atno 8010 bound_to 7997
  140.7271  143.4020  151.1248 H   0  0  0  0  0  0  0  0  0  0  0  0  # atno 10167 bound_to 10162
  157.6530  130.9610  150.1016 H   0  0  0  0  0  0  0  0  0  0  0  0  # atno 10718 bound_to 10713
  153.4657  135.7016  153.6023 H   0  0  0  0  0  0  0  0  0  0  0  0  # atno 10763 bound_to 10752
  153.4299  135.3805  155.2164 H   0  0  0  0  0  0  0  0  0  0  0  0  # atno 10764 bound_to 10752
  154.8726  135.3948  154.4088 H   0  0  0  0  0  0  0  0  0  0  0  0  # atno 10765 bound_to 10752
  141.1033  133.8844  157.1786 H   0  0  0  0  0  0  0  0  0  0  0  0  # atno 11005 bound_to 11000
  145.1769  140.9748  143.4289 LP  0  0  0  0  0  0  0  0  0  0  0  0  # atno 17320 bound_to 7965
  144.9977  139.3628  143.6183 LP  0  0  0  0  0  0  0  0  0  0  0  0  # atno 17321 bound_to 7965
  139.7642  143.8590  152.3107 LP  0  0  0  0  0  0  0  0  0  0  0  0  # atno 17342 bound_to 10162
  139.8487  144.7175  150.9241 LP  0  0  0  0  0  0  0  0  0  0  0  0  # atno 17343 bound_to 10162
  156.1937  130.3656  149.8877 LP  0  0  0  0  0  0  0  0  0  0  0  0  # atno 17370 bound_to 10713
  156.6799  130.8854  151.3574 LP  0  0  0  0  0  0  0  0  0  0  0  0  # atno 17371 bound_to 10713
  139.9892  135.0071  156.9936 LP  0  0  0  0  0  0  0  0  0  0  0  0  # atno 17394 bound_to 11000
  140.4967  134.1138  155.7243 LP  0  0  0  0  0  0  0  0  0  0  0  0  # atno 17395 bound_to 11000

$$$$
