AV-unprocessed.smi:1292|AV-procd|sdf|5395|dock4
  -GOLD-   22720 4553D 1   1.00000     0.00000
 Structure written by MMmdl.
 40 41  0  0  0  0  0  0  0  0  1 V2000
  151.5919  144.2288  158.8530 C   0  0  0  0  0  0  0  0  0  0  0  0
  151.9459  143.2222  159.9565 C   0  0  2  0  0  0  0  0  0  0  0  0
  152.4860  143.9278  161.2086 C   0  0  0  0  0  0  0  0  0  0  0  0
  152.8204  142.8889  162.2831 C   0  0  0  0  0  0  0  0  0  0  0  0
  153.8102  141.8384  161.7551 C   0  0  0  0  0  0  0  0  0  0  0  0
  153.3098  141.2084  160.5187 N   0  0  0  0  0  0  0  0  0  0  0  0
  154.0358  139.7086  160.0378 S   0  0  0  0  0  0  0  0  0  0  0  0
  152.9966  138.8728  159.4179 O   0  0  0  0  0  0  0  0  0  0  0  0
  155.3016  139.9953  159.3448 O   0  0  0  0  0  0  0  0  0  0  0  0
  154.4094  139.0586  161.5923 N   0  0  0  0  0  0  0  0  0  0  0  0
  153.8031  137.7943  162.0102 C   0  0  0  0  0  0  0  0  0  0  0  0
  154.0487  137.5510  163.5047 C   0  0  0  0  0  0  0  0  0  0  0  0
  154.5542  136.1470  163.7780 C   0  0  0  0  0  0  0  0  0  0  0  0
  154.7503  135.6984  165.1018 C   0  0  0  0  0  0  0  0  0  0  0  0
  155.2350  134.3913  165.3023 C   0  0  0  0  0  0  0  0  0  0  0  0
  155.5050  133.5879  164.1776 C   0  0  0  0  0  0  0  0  0  0  0  0
  155.2780  134.1301  162.8969 C   0  0  0  0  0  0  0  0  0  0  0  0
  154.8139  135.3822  162.6935 N   0  0  0  0  0  0  0  0  0  0  0  0
  152.9560  142.1718  159.4553 C   0  0  0  0  0  0  0  0  0  0  0  0
  152.4703  144.7882  158.5300 H   0  0  0  0  0  0  0  0  0  0  0  0
  150.8487  144.9469  159.2005 H   0  0  0  0  0  0  0  0  0  0  0  0
  151.1787  143.7243  157.9792 H   0  0  0  0  0  0  0  0  0  0  0  0
  151.0276  142.7002  160.2305 H   0  0  0  0  0  0  0  0  0  0  0  0
  153.3784  144.5043  160.9603 H   0  0  0  0  0  0  0  0  0  0  0  0
  151.7508  144.6355  161.5929 H   0  0  0  0  0  0  0  0  0  0  0  0
  153.2371  143.3828  163.1611 H   0  0  0  0  0  0  0  0  0  0  0  0
  151.9052  142.3948  162.6126 H   0  0  0  0  0  0  0  0  0  0  0  0
  154.7808  142.2934  161.5541 H   0  0  0  0  0  0  0  0  0  0  0  0
  153.9691  141.0777  162.5193 H   0  0  0  0  0  0  0  0  0  0  0  0
  155.3966  139.1459  161.8311 H   0  0  0  0  0  0  0  0  0  0  0  0
  152.7345  137.8227  161.7944 H   0  0  0  0  0  0  0  0  0  0  0  0
  154.2304  136.9781  161.4270 H   0  0  0  0  0  0  0  0  0  0  0  0
  154.7739  138.2715  163.8860 H   0  0  0  0  0  0  0  0  0  0  0  0
  153.1285  137.7139  164.0681 H   0  0  0  0  0  0  0  0  0  0  0  0
  154.5387  136.3404  165.9441 H   0  0  0  0  0  0  0  0  0  0  0  0
  155.3984  134.0128  166.3005 H   0  0  0  0  0  0  0  0  0  0  0  0
  155.8781  132.5812  164.2935 H   0  0  0  0  0  0  0  0  0  0  0  0
  155.4746  133.5426  162.0124 H   0  0  0  0  0  0  0  0  0  0  0  0
  152.5335  141.6416  158.6023 H   0  0  0  0  0  0  0  0  0  0  0  0
  153.8677  142.6553  159.1014 H   0  0  0  0  0  0  0  0  0  0  0  0
  1  2  1  0  0  0  0
  1 20  1  0  0  0  0
  1 21  1  0  0  0  0
  1 22  1  0  0  0  0
  2 19  1  0  0  0  0
  2  3  1  0  0  0  0
  2 23  1  0  0  0  0
  3  4  1  0  0  0  0
  3 24  1  0  0  0  0
  3 25  1  0  0  0  0
  4  5  1  0  0  0  0
  4 26  1  0  0  0  0
  4 27  1  0  0  0  0
  5  6  1  0  0  0  0
  5 28  1  0  0  0  0
  5 29  1  0  0  0  0
  6  7  1  0  0  0  0
  6 19  1  0  0  0  0
  7  8  2  0  0  0  0
  7  9  2  0  0  0  0
  7 10  1  0  0  0  0
 10 11  1  0  0  0  0
 10 30  1  0  0  0  0
 11 12  1  0  0  0  0
 11 31  1  0  0  0  0
 11 32  1  0  0  0  0
 12 13  1  0  0  0  0
 12 33  1  0  0  0  0
 12 34  1  0  0  0  0
 13 18  1  0  0  0  0
 13 14  2  0  0  0  0
 14 15  1  0  0  0  0
 14 35  1  0  0  0  0
 15 16  2  0  0  0  0
 15 36  1  0  0  0  0
 16 17  1  0  0  0  0
 16 37  1  0  0  0  0
 17 18  2  0  0  0  0
 17 38  1  0  0  0  0
 19 39  1  0  0  0  0
 19 40  1  0  0  0  0
M  END
> <s_m_source_file>
AV-unprocessed.smi

> <i_m_source_file_index>
1292

> <i_lp_mmshare_version>
43012

> <i_f3d_flags>
0

> <s_epik_input>
W0NIM11bQ0BASF0xW0NIMl1bQ0gyXVtDSDJdTihbQ0gyXTEpUyg9TykoPU8pW05IXVtDSDJdW0NIMl1jMltjSF1bY0hdW2NIXVtjSF1uMg==

> <s_epik_cmdline>
J2VwaWtfcHl0aG9uJywgJy1waCcsICc3LjAnLCAnLXRuJywgJzgnLCAnLW1hJywgJzIwMCcsICctbWV0YWxfYmluZGluZycsICctaW1hZScsICc8aW5maWxlLm1hZT4nLCAnLW9tYWUnLCAnPG91dGZpbGUubWFlPic=

> <r_epik_Ionization_Penalty>
0.0252758

> <r_epik_Ionization_Penalty_Charging>
0

> <r_epik_Ionization_Penalty_Neutral>
0.0252758

> <r_epik_State_Penalty>
0.0138562

> <r_epik_Charging_Adjusted_Penalty>
0.0138562

> <i_epik_Tot_Q>
0

> <i_epik_Tot_abs_Q>
0

> <r_epik_Metal_State_Penalty>
0.204365

> <b_epik_Metal_Only>
0

> <s_lp_Force_Field>
OPLS_2005

> <r_lp_Energy>
7.0541

> <b_lp_Chiralities_Consistent>
1

> <s_lp_Variant>
AV-unprocessed.smi:1292-1

> <Gold.Version>
5.8.1

> <Gold.Id.Protein>
6NUR|6NUR_protein|mol2

> <Gold.PLP.Fitness>
44.7126

> <Gold.PLP.PLP>
-42.9674

> <Gold.PLP.part.hbond>
-1.0000

> <Gold.PLP.part.metal>
0.0000

> <Gold.PLP.part.buried>
-4.9366

> <Gold.PLP.part.nonpolar>
-36.9322

> <Gold.PLP.part.repulsive>
0.0000

> <Gold.PLP.ligand.clash>
0.0000

> <Gold.PLP.ligand.torsion>
1.0434

> <Gold.PLP.Chemscore.Hbond>
0.9760

> <Gold.PLP.Chemscore.CHOScore>
0.0000

> <Gold.PLP.Chemscore.Metal>
0.0000

> <Gold.Chemscore.Hbonds>
donor molecule, donor type, donor heavy atom, donor atom, acceptor molecule, acceptor atom, score
      P1  H  7997  8010       L1     9  0.99

> <Gold.PLP.Chemscore.Internal.Correction>
0.9040

> <Gold.Rescore>
     Score         DG    S(hbond)    S(metal)    S(lipo)     H(rot)  DE(clash)    DE(int)     intcor
     17.49     -18.42       0.89        0.00     121.13       1.64       0.08       0.85       ----

> <Gold.Chemscore.Fitness>
17.4947

> <Gold.Chemscore.DG>
-18.4219

> <Gold.Chemscore.ZeroCoef>
-5.4800

> <Gold.Chemscore.Hbond>
0.8881

> <Gold.Chemscore.Metal>
0.0000

> <Gold.Chemscore.Lipo>
121.1331

> <Gold.Chemscore.Internal_Hbond>
0.0000

> <Gold.Chemscore.DEClash>
0.0757

> <Gold.Chemscore.DEInternal>
0.8515

> <Gold.Chemscore.Rot>
1.6394

> <Gold.Chemscore.Internal.Correction>
   9.000000E+99

> <Gold.Chemscore.Hbonds>
donor molecule, donor type, donor heavy atom, donor atom, acceptor molecule, acceptor atom, score
      P1  H  7997  8010       L1     9  0.91

> <Gold.Chemscore.Hbond.Weighted>
-2.9661

> <Gold.Chemscore.Metal.Weighted>
-0.0000

> <Gold.Chemscore.Lipo.Weighted>
-14.1726

> <Gold.Chemscore.Internal_Hbond.Weighted>
0.0000

> <Gold.Chemscore.DEClash.Weighted>
0.0757

> <Gold.Chemscore.DEInternal.Weighted>
0.8515

> <Gold.Chemscore.Rot.Weighted>
4.1968

> <Gold.Chemscore.Internal.Correction.Weighted>
   9.000000E+99

> <Gold.Protein.RotatedTorsions>
[ 6907 6896 6895 6894 ] final  145.64 input  -60.11 | X-H torsion
[ 7974 7965 7964 7962 ] final   -6.19 input  175.53 | X-H torsion
[ 8008 7997 7996 7995 ] final  -22.34 input   59.86 | X-H torsion
[ 10167 10162 10161 10158 ] final  -84.94 input  -65.29 | X-H torsion
[ 10718 10713 10712 10709 ] final -164.85 input   66.30 | X-H torsion
[ 10763 10752 10751 10750 ] final   85.16 input  -60.55 | X-H torsion
[ 11005 11000 10999 10996 ] final  165.27 input  -57.11 | X-H torsion

> <Gold.Protein.ActiveResidues>
 VAL166  LYS551  ARG553  GLY616  TRP617  ASP618  TYR619  PRO620  LYS621  CYS622 
 ASP623  PHE694  ASN695  SER759  ASP760  ASP761  ALA762  ILE779  LEU786  VAL792 
 PHE793  MET794  SER795  GLU796  ALA797  LYS798  CYS799  TRP800  GLU811  SER814 

> <Gold.Protein.RotatedAtoms>
  152.1783  133.4690  159.4944 H   0  0  0  0  0  0  0  0  0  0  0  0  # atno 6907 bound_to 6896
  150.6930  134.1866  159.4278 H   0  0  0  0  0  0  0  0  0  0  0  0  # atno 6908 bound_to 6896
  151.9776  135.0045  160.0606 H   0  0  0  0  0  0  0  0  0  0  0  0  # atno 6909 bound_to 6896
  146.2336  140.2133  142.8336 H   0  0  0  0  0  0  0  0  0  0  0  0  # atno 7974 bound_to 7965
  154.4650  140.2010  156.0143 H   0  0  0  0  0  0  0  0  0  0  0  0  # atno 8008 bound_to 7997
  156.0910  140.3258  155.7786 H   0  0  0  0  0  0  0  0  0  0  0  0  # atno 8009 bound_to 7997
  155.4957  140.0550  157.2938 H   0  0  0  0  0  0  0  0  0  0  0  0  # atno 8010 bound_to 7997
  140.4085  143.2632  151.9049 H   0  0  0  0  0  0  0  0  0  0  0  0  # atno 10167 bound_to 10162
  156.6450  130.8984  151.3003 H   0  0  0  0  0  0  0  0  0  0  0  0  # atno 10718 bound_to 10713
  153.1448  135.4627  154.9550 H   0  0  0  0  0  0  0  0  0  0  0  0  # atno 10763 bound_to 10752
  154.7777  135.3178  154.8059 H   0  0  0  0  0  0  0  0  0  0  0  0  # atno 10764 bound_to 10752
  153.8574  135.6916  153.4840 H   0  0  0  0  0  0  0  0  0  0  0  0  # atno 10765 bound_to 10752
  140.2544  134.7951  157.3532 H   0  0  0  0  0  0  0  0  0  0  0  0  # atno 11005 bound_to 11000
  144.9689  140.8349  143.5467 LP  0  0  0  0  0  0  0  0  0  0  0  0  # atno 17320 bound_to 7965
  145.2112  139.2204  143.5142 LP  0  0  0  0  0  0  0  0  0  0  0  0  # atno 17321 bound_to 7965
  139.4783  144.5561  151.8311 LP  0  0  0  0  0  0  0  0  0  0  0  0  # atno 17342 bound_to 10162
  140.4664  144.1650  150.5912 LP  0  0  0  0  0  0  0  0  0  0  0  0  # atno 17343 bound_to 10162
  157.7159  130.9497  150.1254 LP  0  0  0  0  0  0  0  0  0  0  0  0  # atno 17370 bound_to 10713
  156.2129  130.3668  149.8648 LP  0  0  0  0  0  0  0  0  0  0  0  0  # atno 17371 bound_to 10713
  140.1526  134.4830  155.7950 LP  0  0  0  0  0  0  0  0  0  0  0  0  # atno 17394 bound_to 11000
  141.2198  133.6868  156.7405 LP  0  0  0  0  0  0  0  0  0  0  0  0  # atno 17395 bound_to 11000

$$$$
