AV-unprocessed.smi:3330|AV-procd|sdf|12806|dock4
  -GOLD-   2272019173D 1   1.00000     0.00000
 Structure written by MMmdl.
 38 39  0  0  0  0  0  0  0  0  1 V2000
  150.0246  137.5005  156.6665 C   0  0  0  0  0  0  0  0  0  0  0  0
  150.2778  137.0073  155.2250 C   0  0  1  0  0  0  0  0  0  0  0  0
  149.0414  136.4385  154.6991 N   0  0  0  0  0  0  0  0  0  0  0  0
  148.7648  135.1216  155.2565 C   0  0  0  0  0  0  0  0  0  0  0  0
  147.3691  134.6425  154.8192 C   0  0  0  0  0  0  0  0  0  0  0  0
  147.4049  133.9561  153.5225 N   0  0  0  0  0  0  0  0  0  0  0  0
  146.5242  134.1594  152.5334 C   0  0  0  0  0  0  0  0  0  0  0  0
  145.5714  134.9383  152.5249 O   0  0  0  0  0  0  0  0  0  0  0  0
  146.8814  133.2494  151.3785 C   0  0  0  0  0  0  0  0  0  0  0  0
  148.0386  132.5922  151.9465 N   0  0  0  0  0  0  0  0  0  0  0  0
  148.3122  133.0207  153.1857 C   0  0  0  0  0  0  0  0  0  0  0  0
  149.2388  132.6155  153.8859 O   0  0  0  0  0  0  0  0  0  0  0  0
  150.7429  138.1341  154.2635 C   0  0  2  0  0  0  0  0  0  0  0  0
  152.2079  138.5484  154.5058 C   0  0  0  0  0  0  0  0  0  0  0  0
  149.8748  139.3042  154.3268 N   0  0  0  0  0  0  0  0  0  0  0  0
  148.5227  139.3774  154.0604 C   0  0  0  0  0  0  0  0  0  0  0  0
  148.1354  140.6712  154.2609 C   0  0  0  0  0  0  0  0  0  0  0  0
  149.3355  141.3259  154.6542 C   0  0  0  0  0  0  0  0  0  0  0  0
  150.3740  140.5071  154.6932 N   0  0  0  0  0  0  0  0  0  0  0  0
  150.9358  137.8841  157.1250 H   0  0  0  0  0  0  0  0  0  0  0  0
  149.6645  136.7036  157.3161 H   0  0  0  0  0  0  0  0  0  0  0  0
  149.2832  138.3001  156.6845 H   0  0  0  0  0  0  0  0  0  0  0  0
  151.0510  136.2376  155.2439 H   0  0  0  0  0  0  0  0  0  0  0  0
  149.1139  136.3545  153.6951 H   0  0  0  0  0  0  0  0  0  0  0  0
  149.5184  134.4230  154.8913 H   0  0  0  0  0  0  0  0  0  0  0  0
  148.8371  135.1285  156.3436 H   0  0  0  0  0  0  0  0  0  0  0  0
  146.9269  134.0062  155.5881 H   0  0  0  0  0  0  0  0  0  0  0  0
  146.7043  135.5041  154.7405 H   0  0  0  0  0  0  0  0  0  0  0  0
  146.0820  132.5401  151.1619 H   0  0  0  0  0  0  0  0  0  0  0  0
  147.1387  133.8158  150.4830 H   0  0  0  0  0  0  0  0  0  0  0  0
  148.5682  131.8870  151.4546 H   0  0  0  0  0  0  0  0  0  0  0  0
  150.6734  137.7566  153.2417 H   0  0  0  0  0  0  0  0  0  0  0  0
  152.8923  137.7169  154.3377 H   0  0  0  0  0  0  0  0  0  0  0  0
  152.3616  138.9004  155.5263 H   0  0  0  0  0  0  0  0  0  0  0  0
  152.5032  139.3512  153.8295 H   0  0  0  0  0  0  0  0  0  0  0  0
  147.9540  138.5110  153.7560 H   0  0  0  0  0  0  0  0  0  0  0  0
  147.1452  141.0864  154.1454 H   0  0  0  0  0  0  0  0  0  0  0  0
  149.4818  142.3644  154.9119 H   0  0  0  0  0  0  0  0  0  0  0  0
  1  2  1  0  0  0  0
  1 20  1  0  0  0  0
  1 21  1  0  0  0  0
  1 22  1  0  0  0  0
  2  3  1  0  0  0  0
  2 13  1  0  0  0  0
  2 23  1  0  0  0  0
  3  4  1  0  0  0  0
  3 24  1  0  0  0  0
  4  5  1  0  0  0  0
  4 25  1  0  0  0  0
  4 26  1  0  0  0  0
  5  6  1  0  0  0  0
  5 27  1  0  0  0  0
  5 28  1  0  0  0  0
  6 11  1  0  0  0  0
  6  7  1  0  0  0  0
  7  8  2  0  0  0  0
  7  9  1  0  0  0  0
  9 10  1  0  0  0  0
  9 29  1  0  0  0  0
  9 30  1  0  0  0  0
 10 11  1  0  0  0  0
 10 31  1  0  0  0  0
 11 12  2  0  0  0  0
 13 14  1  0  0  0  0
 13 15  1  0  0  0  0
 13 32  1  0  0  0  0
 14 33  1  0  0  0  0
 14 34  1  0  0  0  0
 14 35  1  0  0  0  0
 15 19  1  0  0  0  0
 15 16  1  0  0  0  0
 16 17  2  0  0  0  0
 16 36  1  0  0  0  0
 17 18  1  0  0  0  0
 17 37  1  0  0  0  0
 18 19  2  0  0  0  0
 18 38  1  0  0  0  0
M  END
> <s_m_source_file>
AV-unprocessed.smi

> <i_m_source_file_index>
3330

> <i_lp_mmshare_version>
43012

> <i_f3d_flags>
0

> <s_epik_input>
bjFbY0hdW2NIXVtjSF1uMVtDQEBIXShbQ0gzXSlbQ0BIXShbQ0gzXSlbTkhdW0NIMl1bQ0gyXU4yQyg9TylbQ0gyXVtOSF1DMj1P

> <s_epik_cmdline>
J2VwaWtfcHl0aG9uJywgJy1waCcsICc3LjAnLCAnLXRuJywgJzgnLCAnLW1hJywgJzIwMCcsICctbWV0YWxfYmluZGluZycsICctaW1hZScsICc8aW5maWxlLm1hZT4nLCAnLW9tYWUnLCAnPG91dGZpbGUubWFlPic=

> <r_lp_tautomer_probability>
1

> <r_epik_Ionization_Penalty>
2.2997

> <r_epik_Ionization_Penalty_Charging>
0

> <r_epik_Ionization_Penalty_Neutral>
2.2997

> <r_epik_State_Penalty>
2.44917

> <r_epik_Charging_Adjusted_Penalty>
2.44917

> <i_epik_Tot_Q>
0

> <i_epik_Tot_abs_Q>
0

> <r_epik_Metal_State_Penalty>
2.52438

> <b_epik_Metal_Only>
0

> <s_lp_Force_Field>
OPLS_2005

> <r_lp_Energy>
29.8527

> <b_lp_Chiralities_Consistent>
1

> <s_lp_Variant>
AV-unprocessed.smi:3330-6

> <Gold.Version>
5.8.1

> <Gold.Id.Protein>
6NUR|6NUR_protein|mol2

> <Gold.PLP.Fitness>
43.1445

> <Gold.PLP.PLP>
-32.3689

> <Gold.PLP.part.hbond>
-3.0000

> <Gold.PLP.part.metal>
0.0000

> <Gold.PLP.part.buried>
-3.4770

> <Gold.PLP.part.nonpolar>
-25.1099

> <Gold.PLP.part.repulsive>
0.3354

> <Gold.PLP.ligand.clash>
0.0000

> <Gold.PLP.ligand.torsion>
0.6915

> <Gold.PLP.Chemscore.Hbond>
2.9920

> <Gold.PLP.Chemscore.CHOScore>
0.9985

> <Gold.PLP.Chemscore.Metal>
0.0000

> <Gold.Chemscore.Hbonds>
donor molecule, donor type, donor heavy atom, donor atom, acceptor molecule, acceptor atom, score
      L1  H     3    24       P1  7948  1.00
      L1  H    10    31       P1 10747  1.00
      P1  H  7989  7998       L1    19  0.98
      L1  C    18    38       P1  8028  0.99

> <Gold.PLP.Chemscore.Internal.Correction>
0.1870

> <Gold.Rescore>
     Score         DG    S(hbond)    S(metal)    S(lipo)     H(rot)  DE(clash)    DE(int)     intcor
     13.15     -14.66       2.74        0.00      57.05       2.60       0.16       1.36       ----

> <Gold.Chemscore.Fitness>
13.1455

> <Gold.Chemscore.DG>
-14.6636

> <Gold.Chemscore.ZeroCoef>
-5.4800

> <Gold.Chemscore.Hbond>
2.7402

> <Gold.Chemscore.Metal>
0.0000

> <Gold.Chemscore.Lipo>
57.0510

> <Gold.Chemscore.Internal_Hbond>
0.0000

> <Gold.Chemscore.DEClash>
0.1568

> <Gold.Chemscore.DEInternal>
1.3613

> <Gold.Chemscore.Rot>
2.5952

> <Gold.Chemscore.Internal.Correction>
   9.000000E+99

> <Gold.Chemscore.Hbonds>
donor molecule, donor type, donor heavy atom, donor atom, acceptor molecule, acceptor atom, score
      L1  H     3    24       P1  7948  0.98
      L1  H    10    31       P1 10747  0.98
      P1  H  7989  7998       L1    19  0.44

> <Gold.Chemscore.Hbond.Weighted>
-9.1524

> <Gold.Chemscore.Metal.Weighted>
-0.0000

> <Gold.Chemscore.Lipo.Weighted>
-6.6750

> <Gold.Chemscore.Internal_Hbond.Weighted>
0.0000

> <Gold.Chemscore.DEClash.Weighted>
0.1568

> <Gold.Chemscore.DEInternal.Weighted>
1.3613

> <Gold.Chemscore.Rot.Weighted>
6.6437

> <Gold.Chemscore.Internal.Correction.Weighted>
   9.000000E+99

> <Gold.Protein.RotatedTorsions>
[ 6907 6896 6895 6894 ] final    0.13 input  -60.11 | X-H torsion
[ 7974 7965 7964 7962 ] final  -58.27 input  175.53 | X-H torsion
[ 8008 7997 7996 7995 ] final  -13.85 input   59.86 | X-H torsion
[ 10167 10162 10161 10158 ] final    6.49 input  -65.29 | X-H torsion
[ 10718 10713 10712 10709 ] final  -12.27 input   66.30 | X-H torsion
[ 10763 10752 10751 10750 ] final  -66.37 input  -60.55 | X-H torsion
[ 11005 11000 10999 10996 ] final   36.44 input  -57.11 | X-H torsion

> <Gold.Protein.ActiveResidues>
 VAL166  LYS551  ARG553  GLY616  TRP617  ASP618  TYR619  PRO620  LYS621  CYS622 
 ASP623  PHE694  ASN695  SER759  ASP760  ASP761  ALA762  ILE779  LEU786  VAL792 
 PHE793  MET794  SER795  GLU796  ALA797  LYS798  CYS799  TRP800  GLU811  SER814 

> <Gold.Protein.RotatedAtoms>
  151.5715  135.1062  159.9996 H   0  0  0  0  0  0  0  0  0  0  0  0  # atno 6907 bound_to 6896
  152.4398  133.7423  159.6658 H   0  0  0  0  0  0  0  0  0  0  0  0  # atno 6908 bound_to 6896
  150.8302  133.8035  159.3125 H   0  0  0  0  0  0  0  0  0  0  0  0  # atno 6909 bound_to 6896
  145.8413  140.8415  143.0033 H   0  0  0  0  0  0  0  0  0  0  0  0  # atno 7974 bound_to 7965
  154.5258  140.2238  155.8892 H   0  0  0  0  0  0  0  0  0  0  0  0  # atno 8008 bound_to 7997
  156.1712  140.3121  155.8941 H   0  0  0  0  0  0  0  0  0  0  0  0  # atno 8009 bound_to 7997
  155.3555  140.0458  157.3037 H   0  0  0  0  0  0  0  0  0  0  0  0  # atno 8010 bound_to 7997
  140.6425  143.7741  150.7449 H   0  0  0  0  0  0  0  0  0  0  0  0  # atno 10167 bound_to 10162
  156.6470  130.4944  149.6075 H   0  0  0  0  0  0  0  0  0  0  0  0  # atno 10718 bound_to 10713
  154.3588  135.6120  153.5680 H   0  0  0  0  0  0  0  0  0  0  0  0  # atno 10763 bound_to 10752
  152.9794  135.5810  154.4657 H   0  0  0  0  0  0  0  0  0  0  0  0  # atno 10764 bound_to 10752
  154.4391  135.2849  155.1837 H   0  0  0  0  0  0  0  0  0  0  0  0  # atno 10765 bound_to 10752
  140.2326  134.3510  155.7958 H   0  0  0  0  0  0  0  0  0  0  0  0  # atno 11005 bound_to 11000
  144.6733  140.0816  143.7469 LP  0  0  0  0  0  0  0  0  0  0  0  0  # atno 17320 bound_to 7965
  145.9462  139.2702  143.1239 LP  0  0  0  0  0  0  0  0  0  0  0  0  # atno 17321 bound_to 7965
  140.1376  143.4470  152.2215 LP  0  0  0  0  0  0  0  0  0  0  0  0  # atno 17342 bound_to 10162
  139.5634  144.7420  151.4090 LP  0  0  0  0  0  0  0  0  0  0  0  0  # atno 17343 bound_to 10162
  156.2114  130.6681  151.1273 LP  0  0  0  0  0  0  0  0  0  0  0  0  # atno 17370 bound_to 10713
  157.7153  131.0713  150.6350 LP  0  0  0  0  0  0  0  0  0  0  0  0  # atno 17371 bound_to 10713
  141.2216  133.7254  156.8756 LP  0  0  0  0  0  0  0  0  0  0  0  0  # atno 17394 bound_to 11000
  140.1735  134.9083  157.2862 LP  0  0  0  0  0  0  0  0  0  0  0  0  # atno 17395 bound_to 11000

$$$$
