AV-unprocessed.smi:2488|AV-procd|sdf|9793|dock9
  -GOLD-   2272013433D 1   1.00000     0.00000
 Structure written by MMmdl.
 33 34  0  0  0  0  0  0  0  0  1 V2000
  152.5868  143.3840  161.1844 C   0  0  0  0  0  0  0  0  0  0  0  0
  153.0792  143.2219  159.7419 C   0  0  0  0  0  0  0  0  0  0  0  0
  152.5538  141.9545  159.0937 C   0  0  0  0  0  0  0  0  0  0  0  0
  152.9299  140.7841  159.6556 N   0  0  0  0  0  0  0  0  0  0  0  0
  152.4758  139.6682  159.0808 C   0  0  0  0  0  0  0  0  0  0  0  0
  151.6890  139.5867  158.0055 N   0  0  0  0  0  0  0  0  0  0  0  0
  151.3109  140.7504  157.4204 C   0  0  0  0  0  0  0  0  0  0  0  0
  150.4704  140.7107  156.2893 N   0  0  0  0  0  0  0  0  0  0  0  0
  149.1608  141.2829  156.5911 C   0  0  0  0  0  0  0  0  0  0  0  0
  148.3178  141.4117  155.3143 C   0  0  0  0  0  0  0  0  0  0  0  0
  148.2177  140.1380  154.6919 O   0  0  0  0  0  0  0  0  0  0  0  0
  149.4925  139.6523  154.2887 C   0  0  0  0  0  0  0  0  0  0  0  0
  150.4142  139.4599  155.5161 C   0  0  1  0  0  0  0  0  0  0  0  0
  151.7790  138.9483  155.0188 C   0  0  0  0  0  0  0  0  0  0  0  0
  151.7992  137.7506  154.4287 N   0  0  0  0  0  0  0  0  0  0  0  0
  152.7959  139.6271  155.1534 O   0  0  0  0  0  0  0  0  0  0  0  0
  151.7263  141.9936  157.9507 C   0  0  0  0  0  0  0  0  0  0  0  0
  151.3576  143.1676  157.3817 F   0  0  0  0  0  0  0  0  0  0  0  0
  152.9777  144.2997  161.6278 H   0  0  0  0  0  0  0  0  0  0  0  0
  152.9107  142.5481  161.8052 H   0  0  0  0  0  0  0  0  0  0  0  0
  151.4983  143.4316  161.2269 H   0  0  0  0  0  0  0  0  0  0  0  0
  152.7664  144.0810  159.1472 H   0  0  0  0  0  0  0  0  0  0  0  0
  154.1693  143.2188  159.7215 H   0  0  0  0  0  0  0  0  0  0  0  0
  152.7739  138.7345  159.5338 H   0  0  0  0  0  0  0  0  0  0  0  0
  148.6461  140.6455  157.3119 H   0  0  0  0  0  0  0  0  0  0  0  0
  149.2649  142.2656  157.0530 H   0  0  0  0  0  0  0  0  0  0  0  0
  147.3166  141.7672  155.5585 H   0  0  0  0  0  0  0  0  0  0  0  0
  148.7556  142.1372  154.6264 H   0  0  0  0  0  0  0  0  0  0  0  0
  149.3459  138.7041  153.7699 H   0  0  0  0  0  0  0  0  0  0  0  0
  149.9336  140.3412  153.5651 H   0  0  0  0  0  0  0  0  0  0  0  0
  149.9672  138.6931  156.1521 H   0  0  0  0  0  0  0  0  0  0  0  0
  152.6692  137.3735  154.0822 H   0  0  0  0  0  0  0  0  0  0  0  0
  150.9413  137.2279  154.3279 H   0  0  0  0  0  0  0  0  0  0  0  0
  1  2  1  0  0  0  0
  1 19  1  0  0  0  0
  1 20  1  0  0  0  0
  1 21  1  0  0  0  0
  2  3  1  0  0  0  0
  2 22  1  0  0  0  0
  2 23  1  0  0  0  0
  3 17  1  0  0  0  0
  3  4  2  0  0  0  0
  4  5  1  0  0  0  0
  5  6  2  0  0  0  0
  5 24  1  0  0  0  0
  6  7  1  0  0  0  0
  7  8  1  0  0  0  0
  7 17  2  0  0  0  0
  8 13  1  0  0  0  0
  8  9  1  0  0  0  0
  9 10  1  0  0  0  0
  9 25  1  0  0  0  0
  9 26  1  0  0  0  0
 10 11  1  0  0  0  0
 10 27  1  0  0  0  0
 10 28  1  0  0  0  0
 11 12  1  0  0  0  0
 12 13  1  0  0  0  0
 12 29  1  0  0  0  0
 12 30  1  0  0  0  0
 13 14  1  0  0  0  0
 13 31  1  0  0  0  0
 14 15  1  0  0  0  0
 14 16  2  0  0  0  0
 15 32  1  0  0  0  0
 15 33  1  0  0  0  0
 17 18  1  0  0  0  0
M  END
> <s_m_source_file>
AV-unprocessed.smi

> <i_m_source_file_index>
2488

> <i_lp_mmshare_version>
43012

> <i_f3d_flags>
0

> <s_epik_input>
W0NIM11bQ0gyXWMxbltjSF1uYyhjMUYpTjJbQ0gyXVtDSDJdT1tDSDJdW0NASF0yQyg9TylbTkgyXQ==

> <s_epik_cmdline>
J2VwaWtfcHl0aG9uJywgJy1waCcsICc3LjAnLCAnLXRuJywgJzgnLCAnLW1hJywgJzIwMCcsICctbWV0YWxfYmluZGluZycsICctaW1hZScsICc8aW5maWxlLm1hZT4nLCAnLW9tYWUnLCAnPG91dGZpbGUubWFlPic=

> <r_lp_tautomer_probability>
1

> <r_epik_Ionization_Penalty>
2.73136e-05

> <r_epik_Ionization_Penalty_Charging>
0

> <r_epik_Ionization_Penalty_Neutral>
2.73136e-05

> <r_epik_State_Penalty>
-0

> <r_epik_Charging_Adjusted_Penalty>
0

> <i_epik_Tot_Q>
0

> <i_epik_Tot_abs_Q>
0

> <r_epik_Metal_State_Penalty>
-0

> <b_epik_Metal_Only>
0

> <s_lp_Force_Field>
OPLS_2005

> <r_lp_Energy>
12.1778

> <b_lp_Chiralities_Consistent>
1

> <s_lp_Variant>
AV-unprocessed.smi:2488-1

> <Gold.Version>
5.8.1

> <Gold.Id.Protein>
6NUR|6NUR_protein|mol2

> <Gold.PLP.Fitness>
35.4990

> <Gold.PLP.PLP>
-33.0673

> <Gold.PLP.part.hbond>
-2.0000

> <Gold.PLP.part.metal>
0.0000

> <Gold.PLP.part.buried>
-5.2186

> <Gold.PLP.part.nonpolar>
-26.7167

> <Gold.PLP.part.repulsive>
0.2707

> <Gold.PLP.ligand.clash>
0.0000

> <Gold.PLP.ligand.torsion>
0.3877

> <Gold.PLP.Chemscore.Hbond>
1.0000

> <Gold.PLP.Chemscore.CHOScore>
0.0000

> <Gold.PLP.Chemscore.Metal>
0.0000

> <Gold.Chemscore.Hbonds>
donor molecule, donor type, donor heavy atom, donor atom, acceptor molecule, acceptor atom, score
      P1  H  7997  8009       L1    16  1.00

> <Gold.PLP.Chemscore.Internal.Correction>
0.2071

> <Gold.Rescore>
     Score         DG    S(hbond)    S(metal)    S(lipo)     H(rot)  DE(clash)    DE(int)     intcor
     10.01     -11.86       1.00        0.00      66.64       1.86       0.01       1.83       ----

> <Gold.Chemscore.Fitness>
10.0149

> <Gold.Chemscore.DG>
-11.8599

> <Gold.Chemscore.ZeroCoef>
-5.4800

> <Gold.Chemscore.Hbond>
1.0000

> <Gold.Chemscore.Metal>
0.0000

> <Gold.Chemscore.Lipo>
66.6406

> <Gold.Chemscore.Internal_Hbond>
0.0000

> <Gold.Chemscore.DEClash>
0.0128

> <Gold.Chemscore.DEInternal>
1.8322

> <Gold.Chemscore.Rot>
1.8582

> <Gold.Chemscore.Internal.Correction>
   9.000000E+99

> <Gold.Chemscore.Hbonds>
donor molecule, donor type, donor heavy atom, donor atom, acceptor molecule, acceptor atom, score
      P1  H  7997  8009       L1    16  1.00

> <Gold.Chemscore.Hbond.Weighted>
-3.3399

> <Gold.Chemscore.Metal.Weighted>
-0.0000

> <Gold.Chemscore.Lipo.Weighted>
-7.7969

> <Gold.Chemscore.Internal_Hbond.Weighted>
0.0000

> <Gold.Chemscore.DEClash.Weighted>
0.0128

> <Gold.Chemscore.DEInternal.Weighted>
1.8322

> <Gold.Chemscore.Rot.Weighted>
4.7570

> <Gold.Chemscore.Internal.Correction.Weighted>
   9.000000E+99

> <Gold.Protein.RotatedTorsions>
[ 6907 6896 6895 6894 ] final -148.56 input  -60.11 | X-H torsion
[ 7974 7965 7964 7962 ] final   21.63 input  175.53 | X-H torsion
[ 8008 7997 7996 7995 ] final -131.53 input   59.86 | X-H torsion
[ 10167 10162 10161 10158 ] final   50.09 input  -65.29 | X-H torsion
[ 10718 10713 10712 10709 ] final -151.23 input   66.30 | X-H torsion
[ 10763 10752 10751 10750 ] final -176.90 input  -60.55 | X-H torsion
[ 11005 11000 10999 10996 ] final   96.43 input  -57.11 | X-H torsion

> <Gold.Protein.ActiveResidues>
 VAL166  LYS551  ARG553  GLY616  TRP617  ASP618  TYR619  PRO620  LYS621  CYS622 
 ASP623  PHE694  ASN695  SER759  ASP760  ASP761  ALA762  ILE779  LEU786  VAL792 
 PHE793  MET794  SER795  GLU796  ALA797  LYS798  CYS799  TRP800  GLU811  SER814 

> <Gold.Protein.RotatedAtoms>
  151.1716  133.4781  159.2593 H   0  0  0  0  0  0  0  0  0  0  0  0  # atno 6907 bound_to 6896
  151.1350  135.0150  159.8610 H   0  0  0  0  0  0  0  0  0  0  0  0  # atno 6908 bound_to 6896
  152.5461  134.1615  159.8613 H   0  0  0  0  0  0  0  0  0  0  0  0  # atno 6909 bound_to 6896
  146.2063  139.7999  142.8723 H   0  0  0  0  0  0  0  0  0  0  0  0  # atno 7974 bound_to 7965
  155.3139  140.0458  157.3036 H   0  0  0  0  0  0  0  0  0  0  0  0  # atno 8008 bound_to 7997
  154.5418  140.2290  155.8595 H   0  0  0  0  0  0  0  0  0  0  0  0  # atno 8009 bound_to 7997
  156.1887  140.3056  155.9296 H   0  0  0  0  0  0  0  0  0  0  0  0  # atno 8010 bound_to 7997
  140.2761  144.3210  150.6276 H   0  0  0  0  0  0  0  0  0  0  0  0  # atno 10167 bound_to 10162
  156.4566  130.8193  151.2424 H   0  0  0  0  0  0  0  0  0  0  0  0  # atno 10718 bound_to 10713
  154.5668  135.2824  155.0866 H   0  0  0  0  0  0  0  0  0  0  0  0  # atno 10763 bound_to 10752
  154.2254  135.6383  153.5162 H   0  0  0  0  0  0  0  0  0  0  0  0  # atno 10764 bound_to 10752
  153.0045  135.5524  154.6279 H   0  0  0  0  0  0  0  0  0  0  0  0  # atno 10765 bound_to 10752
  139.8781  134.8950  156.4157 H   0  0  0  0  0  0  0  0  0  0  0  0  # atno 11005 bound_to 11000
  145.3307  141.0266  143.3448 LP  0  0  0  0  0  0  0  0  0  0  0  0  # atno 17320 bound_to 7965
  144.8801  139.4916  143.6727 LP  0  0  0  0  0  0  0  0  0  0  0  0  # atno 17321 bound_to 7965
  140.5850  143.2170  151.7359 LP  0  0  0  0  0  0  0  0  0  0  0  0  # atno 17342 bound_to 10162
  139.4975  144.4024  152.0167 LP  0  0  0  0  0  0  0  0  0  0  0  0  # atno 17343 bound_to 10162
  157.7500  131.0121  150.3370 LP  0  0  0  0  0  0  0  0  0  0  0  0  # atno 17370 bound_to 10713
  156.3761  130.3872  149.7138 LP  0  0  0  0  0  0  0  0  0  0  0  0  # atno 17371 bound_to 10713
  140.9169  133.7672  155.9859 LP  0  0  0  0  0  0  0  0  0  0  0  0  # atno 17394 bound_to 11000
  140.8484  134.2984  157.5285 LP  0  0  0  0  0  0  0  0  0  0  0  0  # atno 17395 bound_to 11000

$$$$
