#       Name:                AV-unprocessed.smi:91
#       Creating user name   scv26
#       Creation time:       Thu Mar 26 17:25:58 2020


#       File generated by GOLD software.
#

@<TRIPOS>MOLECULE
AV-unprocessed.smi:91
    72    75     1
SMALL
NO_CHARGES


@<TRIPOS>ATOM
      1 ****        -5.3122  -3.7615   0.5604 C.3            1 S1                 0.0000
      2 ****        -4.8754  -2.9074  -0.4850 O.3            1 S1                 0.0000
      3 ****        -5.1754  -1.5328  -0.2801 C.3            1 S1                 0.0000
      4 ****        -4.2274  -0.8635   0.7310 C.3            1 S1                 0.0000
      5 ****        -2.7582  -0.9290   0.2765 C.3            1 S1                 0.0000
      6 ****        -1.9188  -0.1383   1.1695 N.3            1 S1                 0.0000
      7 ****        -0.5884  -0.4091   1.1357 C.ar           1 S1                 0.0000
      8 ****        -0.2099  -1.6833   1.4172 N.ar           1 S1                 0.0000
      9 ****         1.0811  -2.0253   1.4154 C.ar           1 S1                 0.0000
     10 ****         2.1446  -1.2633   1.1585 N.ar           1 S1                 0.0000
     11 ****         1.7763   0.0162   0.8664 C.ar           1 S1                 0.0000
     12 ****         0.4465   0.5290   0.8369 C.ar           1 S1                 0.0000
     13 ****         0.4794   1.8784   0.4978 N.2            1 S1                 0.0000
     14 ****         1.7463   2.1464   0.3435 C.2            1 S1                 0.0000
     15 ****         2.5947   1.0792   0.5259 N.pl3          1 S1                 0.0000
     16 ****         4.0430   1.0946   0.4180 C.3            1 S1                 0.0000
     17 ****         4.6269   0.2324  -0.7333 C.3            1 S1                 0.0000
     18 ****         6.1697   0.2670  -0.6081 C.3            1 S1                 0.0000
     19 ****         6.7764  -0.8621  -1.2020 O.3            1 S1                 0.0000
     20 ****         4.1311   0.6763  -2.1446 C.3            1 S1                 0.0000
     21 ****         2.6704   0.3543  -2.4683 C.3            1 S1                 0.0000
     22 ****         2.6494   0.0372  -3.9664 C.3            1 S1                 0.0000
     23 ****         3.9692   0.2883  -4.4200 O.3            1 S1                 0.0000
     24 ****         4.8389   0.0227  -3.3354 C.3            1 S1                 0.0000
     25 ****        -2.3627   1.2424   1.3124 C.3            1 S1                 0.0000
     26 ****        -3.8452   1.3083   1.7397 C.3            1 S1                 0.0000
     27 ****        -4.0415   0.8745   3.2084 C.3            1 S1                 0.0000
     28 ****        -4.3713   2.7409   1.5634 C.3            1 S1                 0.0000
     29 ****        -4.6273   0.5026   0.8508 O.3            1 S1                 0.0000
     30 ****        -5.1019  -4.7967   0.2922 H              1 S1                 0.0000
     31 ****        -6.3870  -3.6713   0.7229 H              1 S1                 0.0000
     32 ****        -4.7964  -3.5538   1.4976 H              1 S1                 0.0000
     33 ****        -5.0841  -1.0288  -1.2427 H              1 S1                 0.0000
     34 ****        -6.2155  -1.4140   0.0274 H              1 S1                 0.0000
     35 ****        -4.3371  -1.3521   1.6976 H              1 S1                 0.0000
     36 ****        -2.4367  -1.9701   0.2420 H              1 S1                 0.0000
     37 ****        -2.6587  -0.5339  -0.7354 H              1 S1                 0.0000
     38 ****         1.2914  -3.0575   1.6537 H              1 S1                 0.0000
     39 ****         2.0968   3.1328   0.0760 H              1 S1                 0.0000
     40 ****         4.3702   2.1294   0.3077 H              1 S1                 0.0000
     41 ****         4.4347   0.7523   1.3768 H              1 S1                 0.0000
     42 ****         4.3119  -0.7985  -0.5660 H              1 S1                 0.0000
     43 ****         6.5763   1.1792  -1.0458 H              1 S1                 0.0000
     44 ****         6.4722   0.2611   0.4394 H              1 S1                 0.0000
     45 ****         7.7123  -0.7949  -1.0897 H              1 S1                 0.0000
     46 ****         4.2711   1.7542  -2.2413 H              1 S1                 0.0000
     47 ****         2.3139  -0.5106  -1.9080 H              1 S1                 0.0000
     48 ****         2.0164   1.1951  -2.2397 H              1 S1                 0.0000
     49 ****         2.4021  -1.0122  -4.1333 H              1 S1                 0.0000
     50 ****         1.9297   0.6472  -4.5127 H              1 S1                 0.0000
     51 ****         5.8299   0.4378  -3.5204 H              1 S1                 0.0000
     52 ****         4.9313  -1.0568  -3.2035 H              1 S1                 0.0000
     53 ****        -1.7463   1.7666   2.0439 H              1 S1                 0.0000
     54 ****        -2.2322   1.7468   0.3540 H              1 S1                 0.0000
     55 ****        -3.5451   1.5674   3.8883 H              1 S1                 0.0000
     56 ****        -3.6295  -0.1136   3.4113 H              1 S1                 0.0000
     57 ****        -5.0987   0.8537   3.4740 H              1 S1                 0.0000
     58 ****        -3.8198   3.4458   2.1864 H              1 S1                 0.0000
     59 ****        -5.4250   2.8110   1.8355 H              1 S1                 0.0000
     60 ****        -4.2778   3.0715   0.5284 H              1 S1                 0.0000
     61 ****        -5.3150  -3.2010  -1.3339 LP             1 S1                 0.0000
     62 ****        -3.8838  -3.0020  -0.5733 LP             1 S1                 0.0000
     63 ****        -2.0887  -0.4899   2.0901 LP             1 S1                 0.0000
     64 ****        -0.9043  -2.3714   1.6277 LP             1 S1                 0.0000
     65 ****         3.0901  -1.5884   1.1776 LP             1 S1                 0.0000
     66 ****        -0.2950   2.5027   0.3954 LP             1 S1                 0.0000
     67 ****         6.5551  -0.8900  -2.1768 LP             1 S1                 0.0000
     68 ****         6.4430  -1.6952  -0.7606 LP             1 S1                 0.0000
     69 ****         4.0582   1.2425  -4.7055 LP             1 S1                 0.0000
     70 ****         4.1875  -0.3117  -5.1897 LP             1 S1                 0.0000
     71 ****        -5.5729   0.5175   1.1758 LP             1 S1                 0.0000
     72 ****        -4.5808   0.9162  -0.0585 LP             1 S1                 0.0000
@<TRIPOS>BOND
    1    1    2 1     
    2    1   30 1     
    3    1   31 1     
    4    1   32 1     
    5    2    3 1     
    6    3    4 1     
    7    3   33 1     
    8    3   34 1     
    9    4   29 1     
   10    4    5 1     
   11    4   35 1     
   12    5    6 1     
   13    5   36 1     
   14    5   37 1     
   15    6    7 1     
   16    6   25 1     
   17    7   12 ar    
   18    7    8 ar    
   19    8    9 ar    
   20    9   10 ar    
   21    9   38 1     
   22   10   11 ar    
   23   11   15 1     
   24   11   12 ar    
   25   12   13 1     
   26   13   14 2     
   27   14   15 1     
   28   14   39 1     
   29   15   16 1     
   30   16   17 1     
   31   16   40 1     
   32   16   41 1     
   33   17   18 1     
   34   17   20 1     
   35   17   42 1     
   36   18   19 1     
   37   18   43 1     
   38   18   44 1     
   39   19   45 1     
   40   20   24 1     
   41   20   21 1     
   42   20   46 1     
   43   21   22 1     
   44   21   47 1     
   45   21   48 1     
   46   22   23 1     
   47   22   49 1     
   48   22   50 1     
   49   23   24 1     
   50   24   51 1     
   51   24   52 1     
   52   25   26 1     
   53   25   53 1     
   54   25   54 1     
   55   26   27 1     
   56   26   28 1     
   57   26   29 1     
   58   27   55 1     
   59   27   56 1     
   60   27   57 1     
   61   28   58 1     
   62   28   59 1     
   63   28   60 1     
   64    2   61 1     
   65    2   62 1     
   66    6   63 1     
   67    8   64 1     
   68   10   65 1     
   69   13   66 1     
   70   19   67 1     
   71   19   68 1     
   72   23   69 1     
   73   23   70 1     
   74   29   71 1     
   75   29   72 1     
@<TRIPOS>SUBSTRUCTURE
      1 S1             1
@<TRIPOS>SET
LONE_PAIRS      STATIC     ATOMS    <user>   **** ""
12 61 62 63 64 65 66 67 68 69 70 71 72
DONOR_HYDROGENS      STATIC     ATOMS    <user>   **** ""
1 45
ATOM$BLUE        STATIC     ATOMS    COLORGROUP SYSTEM
12 61 62 63 64 65 66 67 68 69 70 71 72
ATOM$RED        STATIC     ATOMS    COLORGROUP SYSTEM
1 45
