AV-unprocessed.smi:3293|AV-procd|sdf|12631|dock9
  -GOLD-   2272018563D 1   1.00000     0.00000
 Structure written by MMmdl.
 44 45  0  0  0  0  0  0  0  0  2 V2000
  154.0048  140.6804  160.6821 C   0  0  0  0  0  0  0  0  0  0  0  0
  153.1791  141.9485  160.5415 C   0  0  0  0  0  0  0  0  0  0  0  0
  152.7368  142.5832  161.6438 C   0  0  0  0  0  0  0  0  0  0  0  0
  151.9724  143.8866  161.6272 C   0  0  0  0  0  0  0  0  0  0  0  0
  152.2039  144.6403  160.3157 C   0  0  0  0  0  0  0  0  0  0  0  0
  151.9786  143.7291  159.0980 C   0  0  1  0  0  0  0  0  0  0  0  0
  152.1354  144.5536  157.8059 C   0  0  0  0  0  0  0  0  0  0  0  0
  152.8999  142.4699  159.1168 C   0  0  2  0  0  0  0  0  0  0  0  0
  152.3197  141.3755  158.1819 C   0  0  0  0  0  0  0  0  0  0  0  0
  150.8708  141.1585  158.3746 N   0  3  0  0  0  0  0  0  0  0  0  0
  150.0430  141.5797  157.2279 C   0  0  0  0  0  0  0  0  0  0  0  0
  150.5258  140.9269  155.9261 C   0  0  0  0  0  0  0  0  0  0  0  0
  149.3899  140.7109  154.9655 C   0  0  0  0  0  0  0  0  0  0  0  0
  148.5221  141.6910  154.4045 C   0  0  0  0  0  0  0  0  0  0  0  0
  147.6239  141.1731  153.5831 N   0  0  0  0  0  0  0  0  0  0  0  0
  147.8842  139.8498  153.5906 N   0  0  0  0  0  0  0  0  0  0  0  0
  147.0768  138.9589  152.7851 C   0  0  0  0  0  0  0  0  0  0  0  0
  148.9420  139.5410  154.4184 C   0  0  0  0  0  0  0  0  0  0  0  0
  154.9225  140.7544  160.0982 H   0  0  0  0  0  0  0  0  0  0  0  0
  153.4412  139.8090  160.3502 H   0  0  0  0  0  0  0  0  0  0  0  0
  154.2882  140.5059  161.7206 H   0  0  0  0  0  0  0  0  0  0  0  0
  152.9356  142.1689  162.6216 H   0  0  0  0  0  0  0  0  0  0  0  0
  150.9129  143.6731  161.7722 H   0  0  0  0  0  0  0  0  0  0  0  0
  152.2945  144.5020  162.4676 H   0  0  0  0  0  0  0  0  0  0  0  0
  151.5406  145.5050  160.2742 H   0  0  0  0  0  0  0  0  0  0  0  0
  153.2221  145.0317  160.2957 H   0  0  0  0  0  0  0  0  0  0  0  0
  150.9425  143.3896  159.1487 H   0  0  0  0  0  0  0  0  0  0  0  0
  153.1557  144.9220  157.6942 H   0  0  0  0  0  0  0  0  0  0  0  0
  151.4739  145.4204  157.8147 H   0  0  0  0  0  0  0  0  0  0  0  0
  151.8918  143.9802  156.9127 H   0  0  0  0  0  0  0  0  0  0  0  0
  153.8711  142.7761  158.7248 H   0  0  0  0  0  0  0  0  0  0  0  0
  152.5171  141.6402  157.1421 H   0  0  0  0  0  0  0  0  0  0  0  0
  152.8073  140.4164  158.3493 H   0  0  0  0  0  0  0  0  0  0  0  0
  150.7129  140.1760  158.5471 H   0  0  0  0  0  0  0  0  0  0  0  0
  149.0042  141.3060  157.4182 H   0  0  0  0  0  0  0  0  0  0  0  0
  150.0804  142.6663  157.1381 H   0  0  0  0  0  0  0  0  0  0  0  0
  151.2940  141.5531  155.4710 H   0  0  0  0  0  0  0  0  0  0  0  0
  151.0142  139.9794  156.1573 H   0  0  0  0  0  0  0  0  0  0  0  0
  148.5199  142.7588  154.5671 H   0  0  0  0  0  0  0  0  0  0  0  0
  147.5439  137.9749  152.7349 H   0  0  0  0  0  0  0  0  0  0  0  0
  146.9799  139.3554  151.7740 H   0  0  0  0  0  0  0  0  0  0  0  0
  146.0856  138.8601  153.2282 H   0  0  0  0  0  0  0  0  0  0  0  0
  149.2869  138.5254  154.5461 H   0  0  0  0  0  0  0  0  0  0  0  0
  150.5769  141.6808  159.1877 H   0  0  0  0  0  0  0  0  0  0  0  0
  1  2  1  0  0  0  0
  1 19  1  0  0  0  0
  1 20  1  0  0  0  0
  1 21  1  0  0  0  0
  2  8  1  0  0  0  0
  2  3  2  0  0  0  0
  3  4  1  0  0  0  0
  3 22  1  0  0  0  0
  4  5  1  0  0  0  0
  4 23  1  0  0  0  0
  4 24  1  0  0  0  0
  5  6  1  0  0  0  0
  5 25  1  0  0  0  0
  5 26  1  0  0  0  0
  6  7  1  0  0  0  0
  6  8  1  0  0  0  0
  6 27  1  0  0  0  0
  7 28  1  0  0  0  0
  7 29  1  0  0  0  0
  7 30  1  0  0  0  0
  8  9  1  0  0  0  0
  8 31  1  0  0  0  0
  9 10  1  0  0  0  0
  9 32  1  0  0  0  0
  9 33  1  0  0  0  0
 10 11  1  0  0  0  0
 10 34  1  0  0  0  0
 10 44  1  0  0  0  0
 11 12  1  0  0  0  0
 11 35  1  0  0  0  0
 11 36  1  0  0  0  0
 12 13  1  0  0  0  0
 12 37  1  0  0  0  0
 12 38  1  0  0  0  0
 13 18  2  0  0  0  0
 13 14  1  0  0  0  0
 14 15  2  0  0  0  0
 14 39  1  0  0  0  0
 15 16  1  0  0  0  0
 16 17  1  0  0  0  0
 16 18  1  0  0  0  0
 17 40  1  0  0  0  0
 17 41  1  0  0  0  0
 17 42  1  0  0  0  0
 18 43  1  0  0  0  0
M  CHG  1  10   1
M  END
> <s_m_source_file>
AV-unprocessed.smi

> <i_m_source_file_index>
3293

> <i_lp_mmshare_version>
43012

> <i_f3d_flags>
0

> <s_epik_input>
W0NIM11DMT1bQ0hdW0NIMl1bQ0gyXVtDQEBIXShbQ0gzXSlbQ0BIXTFbQ0gyXVtOSF1bQ0gyXVtDSDJdYzJbY0hdbm4oW0NIM10pW2NIXTI=

> <s_epik_cmdline>
J2VwaWtfcHl0aG9uJywgJy1waCcsICc3LjAnLCAnLXRuJywgJzgnLCAnLW1hJywgJzIwMCcsICctbWV0YWxfYmluZGluZycsICctaW1hZScsICc8aW5maWxlLm1hZT4nLCAnLW9tYWUnLCAnPG91dGZpbGUubWFlPic=

> <r_lp_tautomer_probability>
1

> <r_epik_Ionization_Penalty>
0.000598621

> <r_epik_Ionization_Penalty_Charging>
0.000582095

> <r_epik_Ionization_Penalty_Neutral>
1.65262e-05

> <r_epik_State_Penalty>
-0

> <r_epik_Charging_Adjusted_Penalty>
0.000582095

> <i_epik_Tot_Q>
1

> <i_epik_Tot_abs_Q>
1

> <r_epik_Metal_State_Penalty>
-0

> <b_epik_Metal_Only>
0

> <s_lp_Force_Field>
OPLS_2005

> <r_lp_Energy>
11.8092

> <b_lp_Chiralities_Consistent>
1

> <s_lp_Variant>
AV-unprocessed.smi:3293-3

> <Gold.Version>
5.8.1

> <Gold.Id.Protein>
6NUR|6NUR_protein|mol2

> <Gold.PLP.Fitness>
48.9897

> <Gold.PLP.PLP>
-47.3435

> <Gold.PLP.part.hbond>
0.0000

> <Gold.PLP.part.metal>
0.0000

> <Gold.PLP.part.buried>
-2.2889

> <Gold.PLP.part.nonpolar>
-44.7695

> <Gold.PLP.part.repulsive>
0.3035

> <Gold.PLP.ligand.clash>
0.0000

> <Gold.PLP.ligand.torsion>
0.7041

> <Gold.PLP.Chemscore.Hbond>
0.0000

> <Gold.PLP.Chemscore.CHOScore>
1.0000

> <Gold.PLP.Chemscore.Metal>
0.0000

> <Gold.Chemscore.Hbonds>
donor molecule, donor type, donor heavy atom, donor atom, acceptor molecule, acceptor atom, score
      L1  C    14    39       P1  8028  1.00

> <Gold.PLP.Chemscore.Internal.Correction>
0.0544

> <Gold.Rescore>
     Score         DG    S(hbond)    S(metal)    S(lipo)     H(rot)  DE(clash)    DE(int)     intcor
     17.49     -18.19       0.00        0.00     141.10       1.48       0.06       0.64       ----

> <Gold.Chemscore.Fitness>
17.4856

> <Gold.Chemscore.DG>
-18.1876

> <Gold.Chemscore.ZeroCoef>
-5.4800

> <Gold.Chemscore.Hbond>
0.0000

> <Gold.Chemscore.Metal>
0.0000

> <Gold.Chemscore.Lipo>
141.0973

> <Gold.Chemscore.Internal_Hbond>
0.0000

> <Gold.Chemscore.DEClash>
0.0628

> <Gold.Chemscore.DEInternal>
0.6391

> <Gold.Chemscore.Rot>
1.4847

> <Gold.Chemscore.Internal.Correction>
   9.000000E+99

> <Gold.Chemscore.Hbond.Weighted>
-0.0000

> <Gold.Chemscore.Metal.Weighted>
-0.0000

> <Gold.Chemscore.Lipo.Weighted>
-16.5084

> <Gold.Chemscore.Internal_Hbond.Weighted>
0.0000

> <Gold.Chemscore.DEClash.Weighted>
0.0628

> <Gold.Chemscore.DEInternal.Weighted>
0.6391

> <Gold.Chemscore.Rot.Weighted>
3.8008

> <Gold.Chemscore.Internal.Correction.Weighted>
   9.000000E+99

> <Gold.Protein.RotatedTorsions>
[ 6907 6896 6895 6894 ] final  -16.49 input  -60.11 | X-H torsion
[ 7974 7965 7964 7962 ] final  163.11 input  175.53 | X-H torsion
[ 8008 7997 7996 7995 ] final  110.52 input   59.86 | X-H torsion
[ 10167 10162 10161 10158 ] final -162.47 input  -65.29 | X-H torsion
[ 10718 10713 10712 10709 ] final  -54.95 input   66.30 | X-H torsion
[ 10763 10752 10751 10750 ] final -148.20 input  -60.55 | X-H torsion
[ 11005 11000 10999 10996 ] final -135.90 input  -57.11 | X-H torsion

> <Gold.Protein.ActiveResidues>
 VAL166  LYS551  ARG553  GLY616  TRP617  ASP618  TYR619  PRO620  LYS621  CYS622 
 ASP623  PHE694  ASN695  SER759  ASP760  ASP761  ALA762  ILE779  LEU786  VAL792 
 PHE793  MET794  SER795  GLU796  ALA797  LYS798  CYS799  TRP800  GLU811  SER814 

> <Gold.Protein.RotatedAtoms>
  151.3078  135.0786  159.9261 H   0  0  0  0  0  0  0  0  0  0  0  0  # atno 6907 bound_to 6896
  152.5284  133.9767  159.7798 H   0  0  0  0  0  0  0  0  0  0  0  0  # atno 6908 bound_to 6896
  151.0065  133.5954  159.2718 H   0  0  0  0  0  0  0  0  0  0  0  0  # atno 6909 bound_to 6896
  144.7605  139.8135  143.6334 H   0  0  0  0  0  0  0  0  0  0  0  0  # atno 7974 bound_to 7965
  156.2059  140.3037  155.9625 H   0  0  0  0  0  0  0  0  0  0  0  0  # atno 8008 bound_to 7997
  155.2843  140.0439  157.3035 H   0  0  0  0  0  0  0  0  0  0  0  0  # atno 8009 bound_to 7997
  154.5632  140.2326  155.8312 H   0  0  0  0  0  0  0  0  0  0  0  0  # atno 8010 bound_to 7997
  139.6390  144.0295  152.2077 H   0  0  0  0  0  0  0  0  0  0  0  0  # atno 10167 bound_to 10162
  156.1408  130.4154  150.0106 H   0  0  0  0  0  0  0  0  0  0  0  0  # atno 10718 bound_to 10713
  154.8246  135.3340  154.6936 H   0  0  0  0  0  0  0  0  0  0  0  0  # atno 10763 bound_to 10752
  153.7564  135.6935  153.4939 H   0  0  0  0  0  0  0  0  0  0  0  0  # atno 10764 bound_to 10752
  153.2140  135.4472  155.0363 H   0  0  0  0  0  0  0  0  0  0  0  0  # atno 10765 bound_to 10752
  140.8855  134.1878  157.4563 H   0  0  0  0  0  0  0  0  0  0  0  0  # atno 11005 bound_to 11000
  146.1663  139.4795  142.9956 LP  0  0  0  0  0  0  0  0  0  0  0  0  # atno 17320 bound_to 7965
  145.6635  141.0234  143.1696 LP  0  0  0  0  0  0  0  0  0  0  0  0  # atno 17321 bound_to 7965
  139.9980  144.6314  150.7755 LP  0  0  0  0  0  0  0  0  0  0  0  0  # atno 17342 bound_to 10162
  140.7481  143.2916  151.3315 LP  0  0  0  0  0  0  0  0  0  0  0  0  # atno 17343 bound_to 10162
  156.7992  130.9284  151.3646 LP  0  0  0  0  0  0  0  0  0  0  0  0  # atno 17370 bound_to 10713
  157.6574  130.8936  149.9758 LP  0  0  0  0  0  0  0  0  0  0  0  0  # atno 17371 bound_to 10713
  139.8724  134.9836  156.5203 LP  0  0  0  0  0  0  0  0  0  0  0  0  # atno 17394 bound_to 11000
  140.8410  133.8205  155.9075 LP  0  0  0  0  0  0  0  0  0  0  0  0  # atno 17395 bound_to 11000

$$$$
