AV-unprocessed.smi:100|AV-procd|sdf|899|dock9
  -GOLD-   2262017393D 1   1.00000     0.00000
 Structure written by MMmdl.
 31 33  0  0  0  0  0  0  0  0  1 V2000
  150.6975  138.9206  153.8265 N   0  0  0  0  0  0  0  0  0  0  0  0
  151.3042  139.0974  155.0082 C   0  0  0  0  0  0  0  0  0  0  0  0
  152.2442  138.2006  155.3895 N   0  0  0  0  0  0  0  0  0  0  0  0
  152.8648  138.3548  156.5641 C   0  0  0  0  0  0  0  0  0  0  0  0
  152.6951  139.3127  157.4803 N   0  0  0  0  0  0  0  0  0  0  0  0
  151.7439  140.2125  157.0934 C   0  0  0  0  0  0  0  0  0  0  0  0
  151.0079  140.1776  155.8772 C   0  0  0  0  0  0  0  0  0  0  0  0
  150.1343  141.2561  155.8227 N   0  0  0  0  0  0  0  0  0  0  0  0
  150.3456  141.8890  156.9462 C   0  0  0  0  0  0  0  0  0  0  0  0
  151.2955  141.3250  157.7710 N   0  0  0  0  0  0  0  0  0  0  0  0
  151.7706  141.7975  159.1048 C   0  0  2  0  0  0  0  0  0  0  0  0
  150.8811  142.7828  159.5386 O   0  0  0  0  0  0  0  0  0  0  0  0
  151.6167  143.8655  160.0884 C   0  0  2  0  0  0  0  0  0  0  0  0
  150.7707  145.1481  160.1151 C   0  0  0  0  0  0  0  0  0  0  0  0
  151.5779  146.2612  160.4361 O   0  0  0  0  0  0  0  0  0  0  0  0
  152.8723  143.9160  159.2159 C   0  0  2  0  0  0  0  0  0  0  0  0
  152.6189  144.5181  158.0519 F   0  0  0  0  0  0  0  0  0  0  0  0
  153.1610  142.4443  158.9643 C   0  0  1  0  0  0  0  0  0  0  0  0
  154.0768  141.9473  159.9194 O   0  0  0  0  0  0  0  0  0  0  0  0
  149.9926  139.5757  153.5203 H   0  0  0  0  0  0  0  0  0  0  0  0
  150.9437  138.1317  153.2465 H   0  0  0  0  0  0  0  0  0  0  0  0
  153.6014  137.6024  156.8049 H   0  0  0  0  0  0  0  0  0  0  0  0
  149.8097  142.7906  157.2058 H   0  0  0  0  0  0  0  0  0  0  0  0
  151.7403  140.9240  159.7581 H   0  0  0  0  0  0  0  0  0  0  0  0
  151.8953  143.5881  161.1069 H   0  0  0  0  0  0  0  0  0  0  0  0
  150.2752  145.3165  159.1589 H   0  0  0  0  0  0  0  0  0  0  0  0
  149.9883  145.0629  160.8698 H   0  0  0  0  0  0  0  0  0  0  0  0
  151.5913  146.3607  161.3758 H   0  0  0  0  0  0  0  0  0  0  0  0
  153.6988  144.4544  159.6813 H   0  0  0  0  0  0  0  0  0  0  0  0
  153.5787  142.2748  157.9703 H   0  0  0  0  0  0  0  0  0  0  0  0
  153.6413  141.9057  160.7575 H   0  0  0  0  0  0  0  0  0  0  0  0
  1  2  1  0  0  0  0
  1 20  1  0  0  0  0
  1 21  1  0  0  0  0
  2  7  1  0  0  0  0
  2  3  2  0  0  0  0
  3  4  1  0  0  0  0
  4  5  2  0  0  0  0
  4 22  1  0  0  0  0
  5  6  1  0  0  0  0
  6 10  1  0  0  0  0
  6  7  2  0  0  0  0
  7  8  1  0  0  0  0
  8  9  2  0  0  0  0
  9 10  1  0  0  0  0
  9 23  1  0  0  0  0
 10 11  1  0  0  0  0
 11 18  1  0  0  0  0
 11 12  1  0  0  0  0
 11 24  1  0  0  0  0
 12 13  1  0  0  0  0
 13 14  1  0  0  0  0
 13 16  1  0  0  0  0
 13 25  1  0  0  0  0
 14 15  1  0  0  0  0
 14 26  1  0  0  0  0
 14 27  1  0  0  0  0
 15 28  1  0  0  0  0
 16 17  1  0  0  0  0
 16 18  1  0  0  0  0
 16 29  1  0  0  0  0
 18 19  1  0  0  0  0
 18 30  1  0  0  0  0
 19 31  1  0  0  0  0
M  END
> <s_m_source_file>
AV-unprocessed.smi

> <i_m_source_file_index>
100

> <i_lp_mmshare_version>
43012

> <i_f3d_flags>
0

> <s_epik_input>
bjFbY0hdbmMoW05IMl0pYyhjMTIpbltjSF1uMltDQEBIXTNPW0NAQEhdKFtDSDJdW09IXSlbQ0BIXShGKVtDQEhdM1tPSF0=

> <s_epik_cmdline>
J2VwaWtfcHl0aG9uJywgJy1waCcsICc3LjAnLCAnLXRuJywgJzgnLCAnLW1hJywgJzIwMCcsICctbWV0YWxfYmluZGluZycsICctaW1hZScsICc8aW5maWxlLm1hZT4nLCAnLW9tYWUnLCAnPG91dGZpbGUubWFlPic=

> <r_lp_tautomer_probability>
1

> <r_epik_Ionization_Penalty>
0.000750324

> <r_epik_Ionization_Penalty_Charging>
0

> <r_epik_Ionization_Penalty_Neutral>
0.000750324

> <r_epik_State_Penalty>
-0

> <r_epik_Charging_Adjusted_Penalty>
0

> <i_epik_Tot_Q>
0

> <i_epik_Tot_abs_Q>
0

> <r_epik_Metal_State_Penalty>
-0

> <b_epik_Metal_Only>
0

> <s_epik_Chemistry_Notes>
This compound contains an acetal/aminal-like group ( X-CH(R)-Y where X, Y are N, S, or O) that may be acid/base labile, releasing an aldehyde.

> <s_lp_Force_Field>
OPLS_2005

> <r_lp_Energy>
28.7864

> <b_lp_Chiralities_Consistent>
1

> <s_lp_Variant>
AV-unprocessed.smi:100-3

> <Gold.Version>
5.8.1

> <Gold.Id.Protein>
6NUR|6NUR_protein|mol2

> <Gold.PLP.Fitness>
42.6216

> <Gold.PLP.PLP>
-38.6207

> <Gold.PLP.part.hbond>
-5.6986

> <Gold.PLP.part.metal>
0.0000

> <Gold.PLP.part.buried>
-4.0486

> <Gold.PLP.part.nonpolar>
-29.1161

> <Gold.PLP.part.repulsive>
1.0989

> <Gold.PLP.ligand.clash>
0.0000

> <Gold.PLP.ligand.torsion>
0.3645

> <Gold.PLP.Chemscore.Hbond>
0.5883

> <Gold.PLP.Chemscore.CHOScore>
0.9845

> <Gold.PLP.Chemscore.Metal>
0.0000

> <Gold.Chemscore.Hbonds>
donor molecule, donor type, donor heavy atom, donor atom, acceptor molecule, acceptor atom, score
      P1  H  7997  8010       L1     5  0.38
      L1  C     9    23       P1  8028  0.74

> <Gold.PLP.Chemscore.Internal.Correction>
0.0117

> <Gold.Rescore>
     Score         DG    S(hbond)    S(metal)    S(lipo)     H(rot)  DE(clash)    DE(int)     intcor
      2.11      -3.78       0.06        0.00      53.68       3.19       1.29       0.38       ----

> <Gold.Chemscore.Fitness>
2.1118

> <Gold.Chemscore.DG>
-3.7833

> <Gold.Chemscore.ZeroCoef>
-5.4800

> <Gold.Chemscore.Hbond>
0.0567

> <Gold.Chemscore.Metal>
0.0000

> <Gold.Chemscore.Lipo>
53.6799

> <Gold.Chemscore.Internal_Hbond>
0.0000

> <Gold.Chemscore.DEClash>
1.2927

> <Gold.Chemscore.DEInternal>
0.3788

> <Gold.Chemscore.Rot>
3.1901

> <Gold.Chemscore.Internal.Correction>
   9.000000E+99

> <Gold.Chemscore.Hbonds>
donor molecule, donor type, donor heavy atom, donor atom, acceptor molecule, acceptor atom, score
      L1  H     1    20       P1  7957  0.03
      P1  H  7997  8010       L1     5  0.01

> <Gold.Chemscore.Hbond.Weighted>
-0.1894

> <Gold.Chemscore.Metal.Weighted>
-0.0000

> <Gold.Chemscore.Lipo.Weighted>
-6.2805

> <Gold.Chemscore.Internal_Hbond.Weighted>
0.0000

> <Gold.Chemscore.DEClash.Weighted>
1.2927

> <Gold.Chemscore.DEInternal.Weighted>
0.3788

> <Gold.Chemscore.Rot.Weighted>
8.1667

> <Gold.Chemscore.Internal.Correction.Weighted>
   9.000000E+99

> <Gold.Protein.RotatedTorsions>
[ 6907 6896 6895 6894 ] final   41.33 input  -60.11 | X-H torsion
[ 7974 7965 7964 7962 ] final  166.03 input  175.53 | X-H torsion
[ 8008 7997 7996 7995 ] final   37.95 input   59.86 | X-H torsion
[ 10167 10162 10161 10158 ] final  147.21 input  -65.29 | X-H torsion
[ 10718 10713 10712 10709 ] final   94.44 input   66.30 | X-H torsion
[ 10763 10752 10751 10750 ] final -176.80 input  -60.55 | X-H torsion
[ 11005 11000 10999 10996 ] final   68.81 input  -57.11 | X-H torsion

> <Gold.Protein.ActiveResidues>
 VAL166  LYS551  ARG553  GLY616  TRP617  ASP618  TYR619  PRO620  LYS621  CYS622 
 ASP623  PHE694  ASN695  SER759  ASP760  ASP761  ALA762  ILE779  LEU786  VAL792 
 PHE793  MET794  SER795  GLU796  ALA797  LYS798  CYS799  TRP800  GLU811  SER814 

> <Gold.Protein.RotatedAtoms>
  152.1938  134.8648  160.0514 H   0  0  0  0  0  0  0  0  0  0  0  0  # atno 6907 bound_to 6896
  151.9527  133.3666  159.4014 H   0  0  0  0  0  0  0  0  0  0  0  0  # atno 6908 bound_to 6896
  150.6940  134.4247  159.5265 H   0  0  0  0  0  0  0  0  0  0  0  0  # atno 6909 bound_to 6896
  144.7479  139.8555  143.6376 H   0  0  0  0  0  0  0  0  0  0  0  0  # atno 7974 bound_to 7965
  155.2122  140.3324  155.4327 H   0  0  0  0  0  0  0  0  0  0  0  0  # atno 8008 bound_to 7997
  156.2366  140.1875  156.7151 H   0  0  0  0  0  0  0  0  0  0  0  0  # atno 8009 bound_to 7997
  154.6070  140.0614  156.9430 H   0  0  0  0  0  0  0  0  0  0  0  0  # atno 8010 bound_to 7997
  139.4894  144.5772  151.6942 H   0  0  0  0  0  0  0  0  0  0  0  0  # atno 10167 bound_to 10162
  157.6948  131.0512  150.4186 H   0  0  0  0  0  0  0  0  0  0  0  0  # atno 10718 bound_to 10713
  154.5679  135.2825  155.0856 H   0  0  0  0  0  0  0  0  0  0  0  0  # atno 10763 bound_to 10752
  154.2239  135.6386  153.5157 H   0  0  0  0  0  0  0  0  0  0  0  0  # atno 10764 bound_to 10752
  153.0048  135.5521  154.6294 H   0  0  0  0  0  0  0  0  0  0  0  0  # atno 10765 bound_to 10752
  139.9689  134.6933  156.0487 H   0  0  0  0  0  0  0  0  0  0  0  0  # atno 11005 bound_to 11000
  146.1385  139.4436  143.0124 LP  0  0  0  0  0  0  0  0  0  0  0  0  # atno 17320 bound_to 7965
  145.7054  141.0123  143.1482 LP  0  0  0  0  0  0  0  0  0  0  0  0  # atno 17321 bound_to 7965
  140.5371  144.0639  150.6074 LP  0  0  0  0  0  0  0  0  0  0  0  0  # atno 17342 bound_to 10162
  140.3648  143.2887  152.0343 LP  0  0  0  0  0  0  0  0  0  0  0  0  # atno 17343 bound_to 10162
  156.4563  130.4022  149.6604 LP  0  0  0  0  0  0  0  0  0  0  0  0  # atno 17370 bound_to 10713
  156.3735  130.7542  151.2528 LP  0  0  0  0  0  0  0  0  0  0  0  0  # atno 17371 bound_to 10713
  141.1369  133.6573  156.3619 LP  0  0  0  0  0  0  0  0  0  0  0  0  # atno 17394 bound_to 11000
  140.5335  134.6189  157.5357 LP  0  0  0  0  0  0  0  0  0  0  0  0  # atno 17395 bound_to 11000

$$$$
