AV-unprocessed.smi:213|AV-procd|sdf|1648|dock6
  -GOLD-   2262020 23D 1   1.00000     0.00000
 Structure written by MMmdl.
 58 61  0  0  0  0  0  0  0  0  1 V2000
  144.3416  136.7037  153.2611 C   0  0  0  0  0  0  0  0  0  0  0  0
  145.7150  136.6982  152.5595 C   0  0  1  0  0  0  0  0  0  0  0  0
  145.6122  136.3597  151.0522 C   0  0  0  0  0  0  0  0  0  0  0  0
  145.3581  134.9540  150.7320 N   0  0  0  0  0  0  0  0  0  0  0  0
  144.0384  134.5445  151.2000 C   0  0  0  0  0  0  0  0  0  0  0  0
  143.7329  133.0787  150.8508 C   0  0  0  0  0  0  0  0  0  0  0  0
  144.7420  132.2414  151.4047 O   0  0  0  0  0  0  0  0  0  0  0  0
  146.0446  132.5731  150.9359 C   0  0  0  0  0  0  0  0  0  0  0  0
  146.3629  134.0416  151.2689 C   0  0  0  0  0  0  0  0  0  0  0  0
  146.3823  137.9875  152.7627 N   0  0  0  0  0  0  0  0  0  0  0  0
  146.7808  138.8128  151.6241 C   0  0  0  0  0  0  0  0  0  0  0  0
  146.8222  138.3605  153.9951 C   0  0  0  0  0  0  0  0  0  0  0  0
  146.7441  137.4440  154.9968 N   0  0  0  0  0  0  0  0  0  0  0  0
  147.1684  137.7418  156.2277 C   0  0  0  0  0  0  0  0  0  0  0  0
  147.6953  138.8820  156.6743 N   0  0  0  0  0  0  0  0  0  0  0  0
  147.7656  139.8147  155.6829 C   0  0  0  0  0  0  0  0  0  0  0  0
  147.3553  139.6432  154.3283 C   0  0  0  0  0  0  0  0  0  0  0  0
  147.5676  140.8276  153.6295 N   0  0  0  0  0  0  0  0  0  0  0  0
  148.0830  141.6405  154.5089 C   0  0  0  0  0  0  0  0  0  0  0  0
  148.2367  141.1130  155.7688 N   0  0  0  0  0  0  0  0  0  0  0  0
  148.7770  141.7951  156.9312 C   0  0  0  0  0  0  0  0  0  0  0  0
  150.2470  141.4202  157.2011 C   0  0  1  0  0  0  0  0  0  0  0  0
  150.9828  141.3790  155.9930 O   0  0  0  0  0  0  0  0  0  0  0  0
  150.9232  142.3570  158.2229 C   0  0  1  0  0  0  0  0  0  0  0  0
  152.3382  141.9779  158.6674 C   0  0  0  0  0  0  0  0  0  0  0  0
  152.8512  143.3092  159.1695 C   0  0  0  0  0  0  0  0  0  0  0  0
  152.2399  144.2815  158.1625 C   0  0  0  0  0  0  0  0  0  0  0  0
  151.0048  143.6999  157.7522 O   0  0  0  0  0  0  0  0  0  0  0  0
  143.8493  135.7347  153.2072 H   0  0  0  0  0  0  0  0  0  0  0  0
  143.6619  137.4323  152.8191 H   0  0  0  0  0  0  0  0  0  0  0  0
  144.4482  136.9504  154.3178 H   0  0  0  0  0  0  0  0  0  0  0  0
  146.3043  135.9288  153.0572 H   0  0  0  0  0  0  0  0  0  0  0  0
  144.8658  136.9963  150.5749 H   0  0  0  0  0  0  0  0  0  0  0  0
  146.5600  136.6326  150.5854 H   0  0  0  0  0  0  0  0  0  0  0  0
  143.9712  134.6789  152.2808 H   0  0  0  0  0  0  0  0  0  0  0  0
  143.2738  135.1843  150.7577 H   0  0  0  0  0  0  0  0  0  0  0  0
  142.7636  132.7858  151.2545 H   0  0  0  0  0  0  0  0  0  0  0  0
  143.6862  132.9401  149.7693 H   0  0  0  0  0  0  0  0  0  0  0  0
  146.7728  131.9118  151.4058 H   0  0  0  0  0  0  0  0  0  0  0  0
  146.1039  132.4019  149.8599 H   0  0  0  0  0  0  0  0  0  0  0  0
  147.3413  134.2756  150.8521 H   0  0  0  0  0  0  0  0  0  0  0  0
  146.4373  134.1641  152.3503 H   0  0  0  0  0  0  0  0  0  0  0  0
  147.7891  139.2066  151.7570 H   0  0  0  0  0  0  0  0  0  0  0  0
  146.0945  139.6520  151.5078 H   0  0  0  0  0  0  0  0  0  0  0  0
  146.7747  138.2384  150.6979 H   0  0  0  0  0  0  0  0  0  0  0  0
  147.0731  136.9533  156.9593 H   0  0  0  0  0  0  0  0  0  0  0  0
  148.3625  142.6542  154.2614 H   0  0  0  0  0  0  0  0  0  0  0  0
  148.6737  142.8711  156.7858 H   0  0  0  0  0  0  0  0  0  0  0  0
  148.1597  141.5370  157.7923 H   0  0  0  0  0  0  0  0  0  0  0  0
  150.2746  140.4101  157.6116 H   0  0  0  0  0  0  0  0  0  0  0  0
  151.5650  142.1227  155.9698 H   0  0  0  0  0  0  0  0  0  0  0  0
  150.2958  142.3951  159.1152 H   0  0  0  0  0  0  0  0  0  0  0  0
  152.3503  141.1986  159.4299 H   0  0  0  0  0  0  0  0  0  0  0  0
  152.9502  141.6454  157.8284 H   0  0  0  0  0  0  0  0  0  0  0  0
  152.4614  143.5078  160.1689 H   0  0  0  0  0  0  0  0  0  0  0  0
  153.9395  143.3641  159.2092 H   0  0  0  0  0  0  0  0  0  0  0  0
  152.0929  145.2770  158.5819 H   0  0  0  0  0  0  0  0  0  0  0  0
  152.8835  144.3752  157.2870 H   0  0  0  0  0  0  0  0  0  0  0  0
  1  2  1  0  0  0  0
  1 29  1  0  0  0  0
  1 30  1  0  0  0  0
  1 31  1  0  0  0  0
  2  3  1  0  0  0  0
  2 10  1  0  0  0  0
  2 32  1  0  0  0  0
  3  4  1  0  0  0  0
  3 33  1  0  0  0  0
  3 34  1  0  0  0  0
  4  9  1  0  0  0  0
  4  5  1  0  0  0  0
  5  6  1  0  0  0  0
  5 35  1  0  0  0  0
  5 36  1  0  0  0  0
  6  7  1  0  0  0  0
  6 37  1  0  0  0  0
  6 38  1  0  0  0  0
  7  8  1  0  0  0  0
  8  9  1  0  0  0  0
  8 39  1  0  0  0  0
  8 40  1  0  0  0  0
  9 41  1  0  0  0  0
  9 42  1  0  0  0  0
 10 11  1  0  0  0  0
 10 12  1  0  0  0  0
 11 43  1  0  0  0  0
 11 44  1  0  0  0  0
 11 45  1  0  0  0  0
 12 17  1  0  0  0  0
 12 13  2  0  0  0  0
 13 14  1  0  0  0  0
 14 15  2  0  0  0  0
 14 46  1  0  0  0  0
 15 16  1  0  0  0  0
 16 20  1  0  0  0  0
 16 17  2  0  0  0  0
 17 18  1  0  0  0  0
 18 19  2  0  0  0  0
 19 20  1  0  0  0  0
 19 47  1  0  0  0  0
 20 21  1  0  0  0  0
 21 22  1  0  0  0  0
 21 48  1  0  0  0  0
 21 49  1  0  0  0  0
 22 23  1  0  0  0  0
 22 24  1  0  0  0  0
 22 50  1  0  0  0  0
 23 51  1  0  0  0  0
 24 28  1  0  0  0  0
 24 25  1  0  0  0  0
 24 52  1  0  0  0  0
 25 26  1  0  0  0  0
 25 53  1  0  0  0  0
 25 54  1  0  0  0  0
 26 27  1  0  0  0  0
 26 55  1  0  0  0  0
 26 56  1  0  0  0  0
 27 28  1  0  0  0  0
 27 57  1  0  0  0  0
 27 58  1  0  0  0  0
M  END
> <s_m_source_file>
AV-unprocessed.smi

> <i_m_source_file_index>
213

> <i_lp_mmshare_version>
43012

> <i_f3d_flags>
0

> <s_epik_input>
W0NIMl0xW0NIMl1PW0NIMl1bQ0gyXU4xW0NIMl1bQ0BASF0oW0NIM10pTihbQ0gzXSljKG5bY0hdbjIpYyhjMjMpbltjSF1uM1tDSDJdW0NASF0oW09IXSlbQ0BASF00W0NIMl1bQ0gyXVtDSDJdTzQ=

> <s_epik_cmdline>
J2VwaWtfcHl0aG9uJywgJy1waCcsICc3LjAnLCAnLXRuJywgJzgnLCAnLW1hJywgJzIwMCcsICctbWV0YWxfYmluZGluZycsICctaW1hZScsICc8aW5maWxlLm1hZT4nLCAnLW9tYWUnLCAnPG91dGZpbGUubWFlPic=

> <r_lp_tautomer_probability>
1

> <r_epik_Ionization_Penalty>
0.423322

> <r_epik_Ionization_Penalty_Charging>
0

> <r_epik_Ionization_Penalty_Neutral>
0.423322

> <r_epik_State_Penalty>
0.569486

> <r_epik_Charging_Adjusted_Penalty>
0.569486

> <i_epik_Tot_Q>
0

> <i_epik_Tot_abs_Q>
0

> <r_epik_Metal_State_Penalty>
0.568671

> <b_epik_Metal_Only>
0

> <s_lp_Force_Field>
OPLS_2005

> <r_lp_Energy>
55.4432

> <b_lp_Chiralities_Consistent>
1

> <s_lp_Variant>
AV-unprocessed.smi:213-16

> <Gold.Version>
5.8.1

> <Gold.Id.Protein>
6NUR|6NUR_protein|mol2

> <Gold.PLP.Fitness>
44.4149

> <Gold.PLP.PLP>
-42.2815

> <Gold.PLP.part.hbond>
-0.2470

> <Gold.PLP.part.metal>
0.0000

> <Gold.PLP.part.buried>
-5.1431

> <Gold.PLP.part.nonpolar>
-38.7963

> <Gold.PLP.part.repulsive>
1.0224

> <Gold.PLP.ligand.clash>
0.0000

> <Gold.PLP.ligand.torsion>
0.7367

> <Gold.PLP.Chemscore.Hbond>
0.0000

> <Gold.PLP.Chemscore.CHOScore>
1.0000

> <Gold.PLP.Chemscore.Metal>
0.0000

> <Gold.Chemscore.Hbonds>
donor molecule, donor type, donor heavy atom, donor atom, acceptor molecule, acceptor atom, score
      L1  C    19    47       P1  8028  1.00

> <Gold.PLP.Chemscore.Internal.Correction>
0.6068

> <Gold.Rescore>
     Score         DG    S(hbond)    S(metal)    S(lipo)     H(rot)  DE(clash)    DE(int)     intcor
      8.76     -10.88       0.00        0.00     106.08       2.74       0.09       2.04       ----

> <Gold.Chemscore.Fitness>
8.7606

> <Gold.Chemscore.DG>
-10.8829

> <Gold.Chemscore.ZeroCoef>
-5.4800

> <Gold.Chemscore.Hbond>
0.0000

> <Gold.Chemscore.Metal>
0.0000

> <Gold.Chemscore.Lipo>
106.0817

> <Gold.Chemscore.Internal_Hbond>
0.0000

> <Gold.Chemscore.DEClash>
0.0853

> <Gold.Chemscore.DEInternal>
2.0370

> <Gold.Chemscore.Rot>
2.7378

> <Gold.Chemscore.Internal.Correction>
   9.000000E+99

> <Gold.Chemscore.Hbond.Weighted>
-0.0001

> <Gold.Chemscore.Metal.Weighted>
-0.0000

> <Gold.Chemscore.Lipo.Weighted>
-12.4116

> <Gold.Chemscore.Internal_Hbond.Weighted>
0.0000

> <Gold.Chemscore.DEClash.Weighted>
0.0853

> <Gold.Chemscore.DEInternal.Weighted>
2.0370

> <Gold.Chemscore.Rot.Weighted>
7.0087

> <Gold.Chemscore.Internal.Correction.Weighted>
   9.000000E+99

> <Gold.Protein.RotatedTorsions>
[ 6907 6896 6895 6894 ] final   23.29 input  -60.11 | X-H torsion
[ 7974 7965 7964 7962 ] final   13.14 input  175.53 | X-H torsion
[ 8008 7997 7996 7995 ] final  -83.27 input   59.86 | X-H torsion
[ 10167 10162 10161 10158 ] final  -30.08 input  -65.29 | X-H torsion
[ 10718 10713 10712 10709 ] final  -48.10 input   66.30 | X-H torsion
[ 10763 10752 10751 10750 ] final  134.23 input  -60.55 | X-H torsion
[ 11005 11000 10999 10996 ] final   17.76 input  -57.11 | X-H torsion

> <Gold.Protein.ActiveResidues>
 VAL166  LYS551  ARG553  GLY616  TRP617  ASP618  TYR619  PRO620  LYS621  CYS622 
 ASP623  PHE694  ASN695  SER759  ASP760  ASP761  ALA762  ILE779  LEU786  VAL792 
 PHE793  MET794  SER795  GLU796  ALA797  LYS798  CYS799  TRP800  GLU811  SER814 

> <Gold.Protein.RotatedAtoms>
  151.9401  135.0217  160.0534 H   0  0  0  0  0  0  0  0  0  0  0  0  # atno 6907 bound_to 6896
  152.2044  133.4860  159.5084 H   0  0  0  0  0  0  0  0  0  0  0  0  # atno 6908 bound_to 6896
  150.6962  134.1466  159.4167 H   0  0  0  0  0  0  0  0  0  0  0  0  # atno 6909 bound_to 6896
  146.2336  139.9232  142.8507 H   0  0  0  0  0  0  0  0  0  0  0  0  # atno 7974 bound_to 7965
  154.6173  140.0621  156.9570 H   0  0  0  0  0  0  0  0  0  0  0  0  # atno 8008 bound_to 7997
  155.1875  140.3304  155.4346 H   0  0  0  0  0  0  0  0  0  0  0  0  # atno 8009 bound_to 7997
  156.2411  140.1887  156.6967 H   0  0  0  0  0  0  0  0  0  0  0  0  # atno 8010 bound_to 7997
  140.7253  143.3877  151.1485 H   0  0  0  0  0  0  0  0  0  0  0  0  # atno 10167 bound_to 10162
  156.2020  130.4156  149.9228 H   0  0  0  0  0  0  0  0  0  0  0  0  # atno 10718 bound_to 10713
  153.8202  135.3117  155.3409 H   0  0  0  0  0  0  0  0  0  0  0  0  # atno 10763 bound_to 10752
  154.8016  135.4723  154.0292 H   0  0  0  0  0  0  0  0  0  0  0  0  # atno 10764 bound_to 10752
  153.1698  135.6876  153.8713 H   0  0  0  0  0  0  0  0  0  0  0  0  # atno 10765 bound_to 10752
  140.4324  134.1407  155.7682 H   0  0  0  0  0  0  0  0  0  0  0  0  # atno 11005 bound_to 11000
  145.2116  140.9898  143.4097 LP  0  0  0  0  0  0  0  0  0  0  0  0  # atno 17320 bound_to 7965
  144.9686  139.3903  143.6320 LP  0  0  0  0  0  0  0  0  0  0  0  0  # atno 17321 bound_to 7965
  139.7477  143.8827  152.3068 LP  0  0  0  0  0  0  0  0  0  0  0  0  # atno 17342 bound_to 10162
  139.8669  144.7088  150.9033 LP  0  0  0  0  0  0  0  0  0  0  0  0  # atno 17343 bound_to 10162
  156.6934  130.8904  151.3591 LP  0  0  0  0  0  0  0  0  0  0  0  0  # atno 17370 bound_to 10713
  157.6991  130.9314  150.0732 LP  0  0  0  0  0  0  0  0  0  0  0  0  # atno 17371 bound_to 10713
  141.1740  133.8551  157.1480 LP  0  0  0  0  0  0  0  0  0  0  0  0  # atno 17394 bound_to 11000
  140.0125  134.9982  157.0426 LP  0  0  0  0  0  0  0  0  0  0  0  0  # atno 17395 bound_to 11000

$$$$
