#       Name:                AV-unprocessed.smi:2361
#       Creating user name   scv26
#       Creation time:       Fri Mar 27 13:04:58 2020


#       File generated by GOLD software.
#

@<TRIPOS>MOLECULE
AV-unprocessed.smi:2361
    31    32     1
SMALL
NO_CHARGES


@<TRIPOS>ATOM
      1 ****        -0.1272   0.6378  -1.4089 O.2            1 S1                 0.0000
      2 ****         0.2497   0.1721  -0.3334 C.2            1 S1                 0.0000
      3 ****        -0.5514  -0.4458   0.5535 N.am           1 S1                 0.0000
      4 ****        -1.9519  -0.6852   0.4718 C.ar           1 S1                 0.0000
      5 ****        -2.8367   0.1099  -0.2983 C.ar           1 S1                 0.0000
      6 ****        -4.1683  -0.1020  -0.3599 N.ar           1 S1                 0.0000
      7 ****        -4.6811  -1.1228   0.3571 C.ar           1 S1                 0.0000
      8 ****        -3.8998  -1.9671   1.1692 C.ar           1 S1                 0.0000
      9 ****        -4.6496  -3.2430   2.0609 Cl             1 S1                 0.0000
     10 ****        -2.5076  -1.7411   1.2315 C.ar           1 S1                 0.0000
     11 ****        -1.5005  -2.7459   2.2190 Cl             1 S1                 0.0000
     12 ****         1.7268   0.2694   0.0671 C.3            1 S1                 0.0000
     13 ****         2.7148   0.0790  -1.0997 C.3            1 S1                 0.0000
     14 ****         3.3058   1.4609  -1.2985 C.3            1 S1                 0.0000
     15 ****         3.2255   2.0389   0.1068 C.3            1 S1                 0.0000
     16 ****         1.9632   1.5841   0.5676 O.3            1 S1                 0.0000
     17 ****        -0.0894  -0.8519   1.3545 H              1 S1                 0.0000
     18 ****        -2.4918   0.9574  -0.8696 H              1 S1                 0.0000
     19 ****        -5.7492  -1.2662   0.2854 H              1 S1                 0.0000
     20 ****         1.9501  -0.4542   0.8532 H              1 S1                 0.0000
     21 ****         3.4981  -0.6204  -0.8053 H              1 S1                 0.0000
     22 ****         2.2627  -0.3083  -2.0137 H              1 S1                 0.0000
     23 ****         4.3208   1.4403  -1.6958 H              1 S1                 0.0000
     24 ****         2.6812   2.0424  -1.9779 H              1 S1                 0.0000
     25 ****         4.0148   1.6337   0.7419 H              1 S1                 0.0000
     26 ****         3.2911   3.1269   0.1222 H              1 S1                 0.0000
     27 ****        -1.0891   0.5697  -1.6737 LP             1 S1                 0.0000
     28 ****         0.5286   1.0843  -2.0178 LP             1 S1                 0.0000
     29 ****        -4.7570   0.4805  -0.9204 LP             1 S1                 0.0000
     30 ****         1.9584   1.5672   1.5674 LP             1 S1                 0.0000
     31 ****         1.2463   2.2002   0.2412 LP             1 S1                 0.0000
@<TRIPOS>BOND
    1    1    2 2     
    2    2    3 am    
    3    2   12 1     
    4    3    4 1     
    5    3   17 1     
    6    4   10 ar    
    7    4    5 ar    
    8    5    6 ar    
    9    5   18 1     
   10    6    7 ar    
   11    7    8 ar    
   12    7   19 1     
   13    8    9 1     
   14    8   10 ar    
   15   10   11 1     
   16   12   16 1     
   17   12   13 1     
   18   12   20 1     
   19   13   14 1     
   20   13   21 1     
   21   13   22 1     
   22   14   15 1     
   23   14   23 1     
   24   14   24 1     
   25   15   16 1     
   26   15   25 1     
   27   15   26 1     
   28    1   27 1     
   29    1   28 1     
   30    6   29 1     
   31   16   30 1     
   32   16   31 1     
@<TRIPOS>SUBSTRUCTURE
      1 S1             1
@<TRIPOS>SET
LONE_PAIRS      STATIC     ATOMS    <user>   **** ""
5 27 28 29 30 31
DONOR_HYDROGENS      STATIC     ATOMS    <user>   **** ""
1 17
ATOM$BLUE        STATIC     ATOMS    COLORGROUP SYSTEM
5 27 28 29 30 31
ATOM$RED        STATIC     ATOMS    COLORGROUP SYSTEM
1 17
