#       Name:                AV-unprocessed.smi:3000
#       Creating user name   scv26
#       Creation time:       Fri Mar 27 16:35:33 2020


#       File generated by GOLD software.
#

@<TRIPOS>MOLECULE
AV-unprocessed.smi:3000
    49    50     1
SMALL
NO_CHARGES


@<TRIPOS>ATOM
      1 ****        -6.3703   3.0371   0.1728 C.3            1 S1                 0.0000
      2 ****        -4.9329   2.8840   0.1018 N.pl3          1 S1                 0.0000
      3 ****        -4.1932   1.7185   0.1180 C.2            1 S1                 0.0000
      4 ****        -2.8901   2.1052   0.0241 C.2            1 S1                 0.0000
      5 ****        -1.7837   1.2197   0.0031 N.am           1 S1                 0.0000
      6 ****        -0.4833   1.5440  -0.0754 C.2            1 S1                 0.0000
      7 ****        -0.0481   2.6931  -0.1400 O.2            1 S1                 0.0000
      8 ****         0.2860   0.4426  -0.0704 N.am           1 S1                 0.0000
      9 ****         1.7523   0.3371  -0.1309 C.3            1 S1                 0.0000
     10 ****         2.2722   1.0055  -1.4295 C.3            1 S1                 0.0000
     11 ****         2.3708   1.0801   1.0900 C.3            1 S1                 0.0000
     12 ****         3.7622   0.8590   1.2053 O.3            1 S1                 0.0000
     13 ****         2.1124  -1.1916  -0.1205 C.3            1 S1                 0.0000
     14 ****         1.5457  -1.9720  -1.3381 C.3            1 S1                 0.0000
     15 ****         1.9601  -3.4522  -1.3263 C.3            1 S1                 0.0000
     16 ****         1.5325  -4.1408  -0.0245 C.3            1 S1                 0.0000
     17 ****         2.1002  -3.3984   1.1911 C.3            1 S1                 0.0000
     18 ****         1.6880  -1.9179   1.1851 C.3            1 S1                 0.0000
     19 ****        -2.9106   3.5270  -0.0460 C.2            1 S1                 0.0000
     20 ****        -4.1522   3.9869   0.0007 N.2            1 S1                 0.0000
     21 ****        -6.8360   2.0841   0.4254 H              1 S1                 0.0000
     22 ****        -6.7519   3.3745  -0.7912 H              1 S1                 0.0000
     23 ****        -6.6290   3.7703   0.9376 H              1 S1                 0.0000
     24 ****        -4.6475   0.7415   0.1922 H              1 S1                 0.0000
     25 ****        -2.0053   0.2365   0.0555 H              1 S1                 0.0000
     26 ****        -0.1993  -0.4407  -0.0144 H              1 S1                 0.0000
     27 ****         3.3237   0.7729  -1.6001 H              1 S1                 0.0000
     28 ****         2.1923   2.0918  -1.3886 H              1 S1                 0.0000
     29 ****         1.7155   0.6850  -2.3095 H              1 S1                 0.0000
     30 ****         2.2186   2.1566   1.0141 H              1 S1                 0.0000
     31 ****         1.8929   0.7780   2.0219 H              1 S1                 0.0000
     32 ****         4.0846   1.3557   1.9419 H              1 S1                 0.0000
     33 ****         3.1984  -1.2715  -0.1876 H              1 S1                 0.0000
     34 ****         0.4573  -1.9082  -1.3572 H              1 S1                 0.0000
     35 ****         1.8958  -1.5369  -2.2730 H              1 S1                 0.0000
     36 ****         1.5195  -3.9679  -2.1801 H              1 S1                 0.0000
     37 ****         3.0417  -3.5299  -1.4439 H              1 S1                 0.0000
     38 ****         0.4438  -4.1696   0.0369 H              1 S1                 0.0000
     39 ****         1.8719  -5.1769  -0.0213 H              1 S1                 0.0000
     40 ****         1.7568  -3.8752   2.1096 H              1 S1                 0.0000
     41 ****         3.1883  -3.4744   1.1920 H              1 S1                 0.0000
     42 ****         2.1389  -1.4441   2.0557 H              1 S1                 0.0000
     43 ****         0.6083  -1.8490   1.3221 H              1 S1                 0.0000
     44 ****        -2.0966   4.2314  -0.1287 H              1 S1                 0.0000
     45 ****        -0.6801   3.4680  -0.1362 LP             1 S1                 0.0000
     46 ****         0.9375   2.8520  -0.1963 LP             1 S1                 0.0000
     47 ****         4.2219   1.1586   0.3693 LP             1 S1                 0.0000
     48 ****         3.9382  -0.1145   1.3519 LP             1 S1                 0.0000
     49 ****        -4.4490   4.9413  -0.0316 LP             1 S1                 0.0000
@<TRIPOS>BOND
    1    1    2 1     
    2    1   21 1     
    3    1   22 1     
    4    1   23 1     
    5    2   20 1     
    6    2    3 1     
    7    3    4 2     
    8    3   24 1     
    9    4    5 1     
   10    4   19 1     
   11    5    6 am    
   12    5   25 1     
   13    6    7 2     
   14    6    8 am    
   15    8    9 1     
   16    8   26 1     
   17    9   10 1     
   18    9   11 1     
   19    9   13 1     
   20   10   27 1     
   21   10   28 1     
   22   10   29 1     
   23   11   12 1     
   24   11   30 1     
   25   11   31 1     
   26   12   32 1     
   27   13   18 1     
   28   13   14 1     
   29   13   33 1     
   30   14   15 1     
   31   14   34 1     
   32   14   35 1     
   33   15   16 1     
   34   15   36 1     
   35   15   37 1     
   36   16   17 1     
   37   16   38 1     
   38   16   39 1     
   39   17   18 1     
   40   17   40 1     
   41   17   41 1     
   42   18   42 1     
   43   18   43 1     
   44   19   20 2     
   45   19   44 1     
   46    7   45 1     
   47    7   46 1     
   48   12   47 1     
   49   12   48 1     
   50   20   49 1     
@<TRIPOS>SUBSTRUCTURE
      1 S1             1
@<TRIPOS>SET
LONE_PAIRS      STATIC     ATOMS    <user>   **** ""
5 45 46 47 48 49
DONOR_HYDROGENS      STATIC     ATOMS    <user>   **** ""
3 25 26 32
ATOM$BLUE        STATIC     ATOMS    COLORGROUP SYSTEM
5 45 46 47 48 49
ATOM$RED        STATIC     ATOMS    COLORGROUP SYSTEM
3 25 26 32
