AV-unprocessed.smi:671|AV-procd|sdf|3277|dock10
  -GOLD-   22720 0233D 1   1.00000     0.00000
 Structure written by MMmdl.
 49 50  0  0  0  0  0  0  0  0  1 V2000
  153.0842  138.9506  154.9036 C   0  0  0  0  0  0  0  0  0  0  0  0
  151.5966  139.1590  154.9348 C   0  0  0  0  0  0  0  0  0  0  0  0
  151.1252  140.3927  154.9952 N   0  0  0  0  0  0  0  0  0  0  0  0
  149.7850  140.2492  155.0113 N   0  0  0  0  0  0  0  0  0  0  0  0
  148.9442  141.4289  155.0768 C   0  0  0  0  0  0  0  0  0  0  0  0
  149.4080  138.9215  154.9593 C   0  0  0  0  0  0  0  0  0  0  0  0
  147.9728  138.5027  154.9625 C   0  0  0  0  0  0  0  0  0  0  0  0
  150.5587  138.1806  154.9084 C   0  0  0  0  0  0  0  0  0  0  0  0
  150.7177  136.6833  154.8412 C   0  0  0  0  0  0  0  0  0  0  0  0
  149.4726  135.9361  155.3696 C   0  0  2  0  0  0  0  0  0  0  0  0
  149.8336  134.6236  156.0828 C   0  0  0  0  0  0  0  0  0  0  0  0
  148.5485  135.6387  154.2717 N   0  0  0  0  0  0  0  0  0  0  0  0
  147.4645  134.8410  154.2910 C   0  0  0  0  0  0  0  0  0  0  0  0
  147.1224  134.2346  155.3042 O   0  0  0  0  0  0  0  0  0  0  0  0
  146.8097  134.7652  153.1201 N   0  0  0  0  0  0  0  0  0  0  0  0
  145.6241  133.9583  152.8359 C   0  0  2  0  0  0  0  0  0  0  0  0
  145.9628  132.4632  152.9975 C   0  0  0  0  0  0  0  0  0  0  0  0
  145.9599  131.8484  151.5905 C   0  0  0  0  0  0  0  0  0  0  0  0
  145.9166  133.0268  150.6178 C   0  0  0  0  0  0  0  0  0  0  0  0
  145.1522  134.1128  151.3755 C   0  0  2  0  0  0  0  0  0  0  0  0
  145.2829  135.5152  150.7566 C   0  0  0  0  0  0  0  0  0  0  0  0
  153.3383  137.9016  154.7599 H   0  0  0  0  0  0  0  0  0  0  0  0
  153.5450  139.2749  155.8367 H   0  0  0  0  0  0  0  0  0  0  0  0
  153.5434  139.5129  154.0904 H   0  0  0  0  0  0  0  0  0  0  0  0
  148.3420  141.5002  154.1709 H   0  0  0  0  0  0  0  0  0  0  0  0
  149.5510  142.3308  155.1690 H   0  0  0  0  0  0  0  0  0  0  0  0
  148.2826  141.3599  155.9406 H   0  0  0  0  0  0  0  0  0  0  0  0
  147.8691  137.4367  154.7625 H   0  0  0  0  0  0  0  0  0  0  0  0
  147.4097  139.0379  154.1977 H   0  0  0  0  0  0  0  0  0  0  0  0
  147.5126  138.7089  155.9290 H   0  0  0  0  0  0  0  0  0  0  0  0
  150.9143  136.3886  153.8102 H   0  0  0  0  0  0  0  0  0  0  0  0
  151.5979  136.3567  155.3958 H   0  0  0  0  0  0  0  0  0  0  0  0
  148.9583  136.5663  156.0971 H   0  0  0  0  0  0  0  0  0  0  0  0
  150.4580  134.8047  156.9579 H   0  0  0  0  0  0  0  0  0  0  0  0
  150.3758  133.9474  155.4211 H   0  0  0  0  0  0  0  0  0  0  0  0
  148.9379  134.1057  156.4272 H   0  0  0  0  0  0  0  0  0  0  0  0
  148.7670  136.0746  153.3874 H   0  0  0  0  0  0  0  0  0  0  0  0
  147.1732  135.3082  152.3507 H   0  0  0  0  0  0  0  0  0  0  0  0
  144.8153  134.2292  153.5169 H   0  0  0  0  0  0  0  0  0  0  0  0
  146.9292  132.3171  153.4823 H   0  0  0  0  0  0  0  0  0  0  0  0
  145.2212  131.9657  153.6231 H   0  0  0  0  0  0  0  0  0  0  0  0
  146.8240  131.2063  151.4178 H   0  0  0  0  0  0  0  0  0  0  0  0
  145.0665  131.2363  151.4624 H   0  0  0  0  0  0  0  0  0  0  0  0
  146.9314  133.3648  150.4034 H   0  0  0  0  0  0  0  0  0  0  0  0
  145.4462  132.7660  149.6694 H   0  0  0  0  0  0  0  0  0  0  0  0
  144.0956  133.8408  151.3514 H   0  0  0  0  0  0  0  0  0  0  0  0
  146.3241  135.8280  150.6723 H   0  0  0  0  0  0  0  0  0  0  0  0
  144.7570  136.2570  151.3581 H   0  0  0  0  0  0  0  0  0  0  0  0
  144.8534  135.5371  149.7549 H   0  0  0  0  0  0  0  0  0  0  0  0
  1  2  1  0  0  0  0
  1 22  1  0  0  0  0
  1 23  1  0  0  0  0
  1 24  1  0  0  0  0
  2  8  1  0  0  0  0
  2  3  2  0  0  0  0
  3  4  1  0  0  0  0
  4  5  1  0  0  0  0
  4  6  1  0  0  0  0
  5 25  1  0  0  0  0
  5 26  1  0  0  0  0
  5 27  1  0  0  0  0
  6  7  1  0  0  0  0
  6  8  2  0  0  0  0
  7 28  1  0  0  0  0
  7 29  1  0  0  0  0
  7 30  1  0  0  0  0
  8  9  1  0  0  0  0
  9 10  1  0  0  0  0
  9 31  1  0  0  0  0
  9 32  1  0  0  0  0
 10 11  1  0  0  0  0
 10 12  1  0  0  0  0
 10 33  1  0  0  0  0
 11 34  1  0  0  0  0
 11 35  1  0  0  0  0
 11 36  1  0  0  0  0
 12 13  1  0  0  0  0
 12 37  1  0  0  0  0
 13 14  2  0  0  0  0
 13 15  1  0  0  0  0
 15 16  1  0  0  0  0
 15 38  1  0  0  0  0
 16 20  1  0  0  0  0
 16 17  1  0  0  0  0
 16 39  1  0  0  0  0
 17 18  1  0  0  0  0
 17 40  1  0  0  0  0
 17 41  1  0  0  0  0
 18 19  1  0  0  0  0
 18 42  1  0  0  0  0
 18 43  1  0  0  0  0
 19 20  1  0  0  0  0
 19 44  1  0  0  0  0
 19 45  1  0  0  0  0
 20 21  1  0  0  0  0
 20 46  1  0  0  0  0
 21 47  1  0  0  0  0
 21 48  1  0  0  0  0
 21 49  1  0  0  0  0
M  END
> <s_m_source_file>
AV-unprocessed.smi

> <i_m_source_file_index>
671

> <i_lp_mmshare_version>
43012

> <i_f3d_flags>
0

> <s_epik_input>
W0NIM11jMW5uKFtDSDNdKWMoW0NIM10pYzFbQ0gyXVtDQEhdKFtDSDNdKVtOSF1DKD1PKVtOSF1bQ0BASF0yW0NIMl1bQ0gyXVtDSDJdW0NASF0yW0NIM10=

> <s_epik_cmdline>
J2VwaWtfcHl0aG9uJywgJy1waCcsICc3LjAnLCAnLXRuJywgJzgnLCAnLW1hJywgJzIwMCcsICctbWV0YWxfYmluZGluZycsICctaW1hZScsICc8aW5maWxlLm1hZT4nLCAnLW9tYWUnLCAnPG91dGZpbGUubWFlPic=

> <r_lp_tautomer_probability>
1

> <r_epik_Ionization_Penalty>
0.0126855

> <r_epik_Ionization_Penalty_Charging>
0

> <r_epik_Ionization_Penalty_Neutral>
0.0126855

> <r_epik_State_Penalty>
0.00977547

> <r_epik_Charging_Adjusted_Penalty>
0.00977547

> <i_epik_Tot_Q>
0

> <i_epik_Tot_abs_Q>
0

> <r_epik_Metal_State_Penalty>
0.00957132

> <b_epik_Metal_Only>
0

> <s_lp_Force_Field>
OPLS_2005

> <r_lp_Energy>
22.3824

> <b_lp_Chiralities_Consistent>
1

> <s_lp_Variant>
AV-unprocessed.smi:671-5

> <Gold.Version>
5.8.1

> <Gold.Id.Protein>
6NUR|6NUR_protein|mol2

> <Gold.PLP.Fitness>
42.2484

> <Gold.PLP.PLP>
-36.0282

> <Gold.PLP.part.hbond>
-2.7906

> <Gold.PLP.part.metal>
0.0000

> <Gold.PLP.part.buried>
-3.1268

> <Gold.PLP.part.nonpolar>
-30.3698

> <Gold.PLP.part.repulsive>
0.0875

> <Gold.PLP.ligand.clash>
0.0000

> <Gold.PLP.ligand.torsion>
0.9004

> <Gold.PLP.Chemscore.Hbond>
2.6620

> <Gold.PLP.Chemscore.CHOScore>
0.0000

> <Gold.PLP.Chemscore.Metal>
0.0000

> <Gold.Chemscore.Hbonds>
donor molecule, donor type, donor heavy atom, donor atom, acceptor molecule, acceptor atom, score
      L1  H    12    37       P1  7948  1.00
      L1  H    15    38       P1  7948  0.73
      P1  H  7989  7998       L1     3  0.85

> <Gold.PLP.Chemscore.Internal.Correction>
0.0350

> <Gold.Rescore>
     Score         DG    S(hbond)    S(metal)    S(lipo)     H(rot)  DE(clash)    DE(int)     intcor
     15.63     -19.65       2.38        0.00      85.02       1.45       0.02       4.00       ----

> <Gold.Chemscore.Fitness>
15.6319

> <Gold.Chemscore.DG>
-19.6521

> <Gold.Chemscore.ZeroCoef>
-5.4800

> <Gold.Chemscore.Hbond>
2.3762

> <Gold.Chemscore.Metal>
0.0000

> <Gold.Chemscore.Lipo>
85.0204

> <Gold.Chemscore.Internal_Hbond>
0.0000

> <Gold.Chemscore.DEClash>
0.0199

> <Gold.Chemscore.DEInternal>
4.0002

> <Gold.Chemscore.Rot>
1.4499

> <Gold.Chemscore.Internal.Correction>
   9.000000E+99

> <Gold.Chemscore.Hbonds>
donor molecule, donor type, donor heavy atom, donor atom, acceptor molecule, acceptor atom, score
      L1  H    12    37       P1  7948  0.93
      L1  H    15    38       P1  7948  0.70
      P1  H  7989  7998       L1     3  0.11

> <Gold.Chemscore.Hbond.Weighted>
-7.9365

> <Gold.Chemscore.Metal.Weighted>
-0.0000

> <Gold.Chemscore.Lipo.Weighted>
-9.9474

> <Gold.Chemscore.Internal_Hbond.Weighted>
0.0000

> <Gold.Chemscore.DEClash.Weighted>
0.0199

> <Gold.Chemscore.DEInternal.Weighted>
4.0002

> <Gold.Chemscore.Rot.Weighted>
3.7118

> <Gold.Chemscore.Internal.Correction.Weighted>
   9.000000E+99

> <Gold.Protein.RotatedTorsions>
[ 6907 6896 6895 6894 ] final  -53.82 input  -60.11 | X-H torsion
[ 7974 7965 7964 7962 ] final   33.76 input  175.53 | X-H torsion
[ 8008 7997 7996 7995 ] final   65.71 input   59.86 | X-H torsion
[ 10167 10162 10161 10158 ] final  -73.21 input  -65.29 | X-H torsion
[ 10718 10713 10712 10709 ] final -151.00 input   66.30 | X-H torsion
[ 10763 10752 10751 10750 ] final  -10.15 input  -60.55 | X-H torsion
[ 11005 11000 10999 10996 ] final  -34.68 input  -57.11 | X-H torsion

> <Gold.Protein.ActiveResidues>
 VAL166  LYS551  ARG553  GLY616  TRP617  ASP618  TYR619  PRO620  LYS621  CYS622 
 ASP623  PHE694  ASN695  SER759  ASP760  ASP761  ALA762  ILE779  LEU786  VAL792 
 PHE793  MET794  SER795  GLU796  ALA797  LYS798  CYS799  TRP800  GLU811  SER814 

> <Gold.Protein.RotatedAtoms>
  150.8393  134.7679  159.6918 H   0  0  0  0  0  0  0  0  0  0  0  0  # atno 6907 bound_to 6896
  152.4483  134.5443  159.9858 H   0  0  0  0  0  0  0  0  0  0  0  0  # atno 6908 bound_to 6896
  151.5587  133.3368  159.3002 H   0  0  0  0  0  0  0  0  0  0  0  0  # atno 6909 bound_to 6896
  146.1399  139.6356  142.9170 H   0  0  0  0  0  0  0  0  0  0  0  0  # atno 7974 bound_to 7965
  155.6660  140.3497  155.4800 H   0  0  0  0  0  0  0  0  0  0  0  0  # atno 8008 bound_to 7997
  155.9728  140.1159  157.0820 H   0  0  0  0  0  0  0  0  0  0  0  0  # atno 8009 bound_to 7997
  154.4171  140.1153  156.5316 H   0  0  0  0  0  0  0  0  0  0  0  0  # atno 8010 bound_to 7997
  140.5129  143.2342  151.7562 H   0  0  0  0  0  0  0  0  0  0  0  0  # atno 10167 bound_to 10162
  156.4535  130.8179  151.2410 H   0  0  0  0  0  0  0  0  0  0  0  0  # atno 10718 bound_to 10713
  153.4651  135.7016  153.6027 H   0  0  0  0  0  0  0  0  0  0  0  0  # atno 10763 bound_to 10752
  153.4305  135.3804  155.2167 H   0  0  0  0  0  0  0  0  0  0  0  0  # atno 10764 bound_to 10752
  154.8726  135.3949  154.4081 H   0  0  0  0  0  0  0  0  0  0  0  0  # atno 10765 bound_to 10752
  140.9735  133.7096  156.1564 H   0  0  0  0  0  0  0  0  0  0  0  0  # atno 11005 bound_to 11000
  145.5071  141.0436  143.2508 LP  0  0  0  0  0  0  0  0  0  0  0  0  # atno 17320 bound_to 7965
  144.7781  139.6586  143.7166 LP  0  0  0  0  0  0  0  0  0  0  0  0  # atno 17321 bound_to 7965
  139.4901  144.4365  151.9813 LP  0  0  0  0  0  0  0  0  0  0  0  0  # atno 17342 bound_to 10162
  140.3458  144.3148  150.5958 LP  0  0  0  0  0  0  0  0  0  0  0  0  # atno 17343 bound_to 10162
  157.7501  131.0130  150.3407 LP  0  0  0  0  0  0  0  0  0  0  0  0  # atno 17370 bound_to 10713
  156.3791  130.3877  149.7115 LP  0  0  0  0  0  0  0  0  0  0  0  0  # atno 17371 bound_to 10713
  140.7293  134.4272  157.5567 LP  0  0  0  0  0  0  0  0  0  0  0  0  # atno 17394 bound_to 11000
  139.8921  134.8762  156.2285 LP  0  0  0  0  0  0  0  0  0  0  0  0  # atno 17395 bound_to 11000

$$$$
