#       Name:                AV-unprocessed.smi:92
#       Creating user name   scv26
#       Creation time:       Thu Mar 26 17:28:18 2020


#       File generated by GOLD software.
#

@<TRIPOS>MOLECULE
AV-unprocessed.smi:92
    68    71     1
SMALL
NO_CHARGES


@<TRIPOS>ATOM
      1 ****        -6.8772  -3.4173   1.6837 C.3            1 S1                 0.0000
      2 ****        -5.4378  -3.6892   1.2228 C.3            1 S1                 0.0000
      3 ****        -4.6139  -2.4550   1.1624 N.4            1 S1                 1.0000
      4 ****        -3.4368  -2.6131   0.2721 C.3            1 S1                 0.0000
      5 ****        -2.6937  -1.2809   0.1047 C.3            1 S1                 0.0000
      6 ****        -2.2583  -0.7120   1.4689 C.3            1 S1                 0.0000
      7 ****        -1.5268   0.5517   1.3142 N.pl3          1 S1                 0.0000
      8 ****        -2.1940   1.7389   0.7868 C.3            1 S1                 0.0000
      9 ****        -0.2002   0.4290   1.0621 C.ar           1 S1                 0.0000
     10 ****         0.5719  -0.1302   2.0291 N.ar           1 S1                 0.0000
     11 ****         1.8849  -0.2844   1.8380 C.ar           1 S1                 0.0000
     12 ****         2.6162   0.0437   0.7718 N.ar           1 S1                 0.0000
     13 ****         1.8463   0.6021  -0.2057 C.ar           1 S1                 0.0000
     14 ****         0.4410   0.8254  -0.1479 C.ar           1 S1                 0.0000
     15 ****         0.0048   1.3790  -1.3466 N.2            1 S1                 0.0000
     16 ****         1.0885   1.4834  -2.0660 C.2            1 S1                 0.0000
     17 ****         2.2446   1.0669  -1.4467 N.pl3          1 S1                 0.0000
     18 ****         3.5589   1.0303  -2.0170 C.3            1 S1                 0.0000
     19 ****         4.7845   1.4497  -1.2030 C.3            1 S1                 0.0000
     20 ****         5.4541   1.9706  -2.4946 C.3            1 S1                 0.0000
     21 ****         6.2038   3.3058  -2.3581 C.3            1 S1                 0.0000
     22 ****         6.4013   3.9127  -3.6189 O.3            1 S1                 0.0000
     23 ****         6.3567   0.9543  -3.2232 C.3            1 S1                 0.0000
     24 ****         7.4822   0.6100  -2.4409 O.3            1 S1                 0.0000
     25 ****         4.0119   2.0767  -3.0382 C.3            1 S1                 0.0000
     26 ****        -3.4814  -0.5935   2.4095 C.3            1 S1                 0.0000
     27 ****        -3.0843  -0.1081   3.8146 C.3            1 S1                 0.0000
     28 ****        -4.2141  -1.9490   2.5025 C.3            1 S1                 0.0000
     29 ****        -7.4756  -4.3268   1.6247 H              1 S1                 0.0000
     30 ****        -7.3572  -2.6670   1.0549 H              1 S1                 0.0000
     31 ****        -6.9206  -3.0711   2.7157 H              1 S1                 0.0000
     32 ****        -4.9595  -4.4289   1.8665 H              1 S1                 0.0000
     33 ****        -5.4902  -4.1341   0.2282 H              1 S1                 0.0000
     34 ****        -2.7666  -3.3720   0.6796 H              1 S1                 0.0000
     35 ****        -3.7581  -2.9662  -0.7086 H              1 S1                 0.0000
     36 ****        -1.8231  -1.4278  -0.5357 H              1 S1                 0.0000
     37 ****        -3.3426  -0.5735  -0.4128 H              1 S1                 0.0000
     38 ****        -1.5890  -1.4454   1.9215 H              1 S1                 0.0000
     39 ****        -1.5271   2.6020   0.8050 H              1 S1                 0.0000
     40 ****        -3.0644   1.9937   1.3903 H              1 S1                 0.0000
     41 ****        -2.5244   1.5843  -0.2402 H              1 S1                 0.0000
     42 ****         2.4275  -0.7349   2.6561 H              1 S1                 0.0000
     43 ****         1.0725   1.8729  -3.0737 H              1 S1                 0.0000
     44 ****         3.6864   0.0216  -2.4129 H              1 S1                 0.0000
     45 ****         4.5561   2.2436  -0.4892 H              1 S1                 0.0000
     46 ****         5.3009   0.6246  -0.7118 H              1 S1                 0.0000
     47 ****         5.6403   4.0039  -1.7382 H              1 S1                 0.0000
     48 ****         7.1699   3.1769  -1.8698 H              1 S1                 0.0000
     49 ****         6.8569   4.7306  -3.4898 H              1 S1                 0.0000
     50 ****         5.8147   0.0354  -3.4468 H              1 S1                 0.0000
     51 ****         6.7011   1.3414  -4.1825 H              1 S1                 0.0000
     52 ****         7.9936  -0.0280  -2.9145 H              1 S1                 0.0000
     53 ****         3.8908   1.7757  -4.0791 H              1 S1                 0.0000
     54 ****         3.5630   3.0559  -2.8603 H              1 S1                 0.0000
     55 ****        -4.1846   0.1274   1.9906 H              1 S1                 0.0000
     56 ****        -2.3650  -0.7840   4.2782 H              1 S1                 0.0000
     57 ****        -3.9536  -0.0471   4.4698 H              1 S1                 0.0000
     58 ****        -2.6339   0.8843   3.7842 H              1 S1                 0.0000
     59 ****        -5.0956  -1.8284   3.1312 H              1 S1                 0.0000
     60 ****        -3.5787  -2.6887   2.9927 H              1 S1                 0.0000
     61 ****        -5.1940  -1.7449   0.7388 H              1 S1                 0.0000
     62 ****         0.1556  -0.4280   2.8882 LP             1 S1                 0.0000
     63 ****         3.6029  -0.1013   0.6986 LP             1 S1                 0.0000
     64 ****        -0.9273   1.6381  -1.5997 LP             1 S1                 0.0000
     65 ****         5.5169   4.0840  -4.0530 LP             1 S1                 0.0000
     66 ****         6.9474   3.3105  -4.2013 LP             1 S1                 0.0000
     67 ****         7.1813   0.2215  -1.5699 LP             1 S1                 0.0000
     68 ****         8.0353   1.4251  -2.2690 LP             1 S1                 0.0000
@<TRIPOS>BOND
    1    1    2 1     
    2    1   29 1     
    3    1   30 1     
    4    1   31 1     
    5    2    3 1     
    6    2   32 1     
    7    2   33 1     
    8    3   28 1     
    9    3    4 1     
   10    3   61 1     
   11    4    5 1     
   12    4   34 1     
   13    4   35 1     
   14    5    6 1     
   15    5   36 1     
   16    5   37 1     
   17    6    7 1     
   18    6   26 1     
   19    6   38 1     
   20    7    8 1     
   21    7    9 1     
   22    8   39 1     
   23    8   40 1     
   24    8   41 1     
   25    9   14 ar    
   26    9   10 ar    
   27   10   11 ar    
   28   11   12 ar    
   29   11   42 1     
   30   12   13 ar    
   31   13   17 1     
   32   13   14 ar    
   33   14   15 1     
   34   15   16 2     
   35   16   17 1     
   36   16   43 1     
   37   17   18 1     
   38   18   25 1     
   39   18   19 1     
   40   18   44 1     
   41   19   20 1     
   42   19   45 1     
   43   19   46 1     
   44   20   21 1     
   45   20   23 1     
   46   20   25 1     
   47   21   22 1     
   48   21   47 1     
   49   21   48 1     
   50   22   49 1     
   51   23   24 1     
   52   23   50 1     
   53   23   51 1     
   54   24   52 1     
   55   25   53 1     
   56   25   54 1     
   57   26   27 1     
   58   26   28 1     
   59   26   55 1     
   60   27   56 1     
   61   27   57 1     
   62   27   58 1     
   63   28   59 1     
   64   28   60 1     
   65   10   62 1     
   66   12   63 1     
   67   15   64 1     
   68   22   65 1     
   69   22   66 1     
   70   24   67 1     
   71   24   68 1     
@<TRIPOS>SUBSTRUCTURE
      1 S1             1
@<TRIPOS>SET
LONE_PAIRS      STATIC     ATOMS    <user>   **** ""
7 62 63 64 65 66 67 68
DONOR_HYDROGENS      STATIC     ATOMS    <user>   **** ""
3 61 49 52
ATOM$BLUE        STATIC     ATOMS    COLORGROUP SYSTEM
7 62 63 64 65 66 67 68
ATOM$RED        STATIC     ATOMS    COLORGROUP SYSTEM
3 61 49 52
