#       Name:                AV-unprocessed.smi:2505
#       Creating user name   scv26
#       Creation time:       Fri Mar 27 13:48:53 2020


#       File generated by GOLD software.
#

@<TRIPOS>MOLECULE
AV-unprocessed.smi:2505
    54    58     1
SMALL
NO_CHARGES


@<TRIPOS>ATOM
      1 ****        -0.0094   3.0877  -0.6812 O.2            1 S1                 0.0000
      2 ****        -0.3323   1.9039  -0.6157 C.2            1 S1                 0.0000
      3 ****         0.5311   0.8740  -0.5333 N.am           1 S1                 0.0000
      4 ****         1.9506   0.8970  -0.5357 C.ar           1 S1                 0.0000
      5 ****         2.7525   1.9898  -0.9479 C.ar           1 S1                 0.0000
      6 ****         4.1015   1.9215  -0.9399 N.ar           1 S1                 0.0000
      7 ****         4.6483   0.7707  -0.5384 C.ar           1 S1                 0.0000
      8 ****         6.1439   0.7143  -0.5003 C.3            1 S1                 0.0000
      9 ****         6.9639   1.0301  -1.7349 C.3            1 S1                 0.0000
     10 ****         6.8963  -0.3827  -1.2262 C.3            1 S1                 0.0000
     11 ****         3.9962  -0.3188  -0.1234 N.ar           1 S1                 0.0000
     12 ****         2.6477  -0.2599  -0.1293 C.ar           1 S1                 0.0000
     13 ****        -1.6244   1.5338  -0.5913 N.am           1 S1                 0.0000
     14 ****        -2.8012   2.4023  -0.6622 C.3            1 S1                 0.0000
     15 ****        -4.1049   1.6283  -0.4062 C.3            1 S1                 0.0000
     16 ****        -4.9292   1.9312   0.8154 C.3            1 S1                 0.0000
     17 ****        -5.9745   2.9158   0.2849 C.3            1 S1                 0.0000
     18 ****        -5.3818   3.4694  -0.8878 O.3            1 S1                 0.0000
     19 ****        -4.7040   2.4127  -1.5634 C.3            1 S1                 0.0000
     20 ****        -3.2891   2.7216  -2.0968 C.3            1 S1                 0.0000
     21 ****        -3.0529   4.1181  -2.6670 C.3            1 S1                 0.0000
     22 ****        -3.3622   4.0503  -4.1662 C.3            1 S1                 0.0000
     23 ****        -3.2590   2.5694  -4.5459 C.3            1 S1                 0.0000
     24 ****        -2.8267   1.8494  -3.2671 C.3            1 S1                 0.0000
     25 ****         0.1140  -0.0381  -0.4166 H              1 S1                 0.0000
     26 ****         2.3387   2.9197  -1.3043 H              1 S1                 0.0000
     27 ****         6.5282   1.0433   0.4633 H              1 S1                 0.0000
     28 ****         6.4305   1.2555  -2.6564 H              1 S1                 0.0000
     29 ****         7.8960   1.5725  -1.5914 H              1 S1                 0.0000
     30 ****         7.7834  -0.7866  -0.7428 H              1 S1                 0.0000
     31 ****         6.3172  -1.0964  -1.8090 H              1 S1                 0.0000
     32 ****         2.1212  -1.1456   0.1952 H              1 S1                 0.0000
     33 ****        -1.8102   0.5460  -0.4924 H              1 S1                 0.0000
     34 ****        -2.7381   3.2974  -0.0390 H              1 S1                 0.0000
     35 ****        -4.0187   0.5670  -0.6468 H              1 S1                 0.0000
     36 ****        -5.3948   1.0411   1.2394 H              1 S1                 0.0000
     37 ****        -4.3190   2.3940   1.5918 H              1 S1                 0.0000
     38 ****        -6.8891   2.3903   0.0059 H              1 S1                 0.0000
     39 ****        -6.2323   3.6886   1.0092 H              1 S1                 0.0000
     40 ****        -5.3505   1.8248  -2.2167 H              1 S1                 0.0000
     41 ****        -3.6503   4.8842  -2.1724 H              1 S1                 0.0000
     42 ****        -2.0096   4.4032  -2.5302 H              1 S1                 0.0000
     43 ****        -4.3713   4.4143  -4.3635 H              1 S1                 0.0000
     44 ****        -2.6720   4.6682  -4.7413 H              1 S1                 0.0000
     45 ****        -4.2343   2.2036  -4.8693 H              1 S1                 0.0000
     46 ****        -2.5559   2.3994  -5.3619 H              1 S1                 0.0000
     47 ****        -1.7399   1.7583  -3.2708 H              1 S1                 0.0000
     48 ****        -3.2287   0.8366  -3.2219 H              1 S1                 0.0000
     49 ****         0.9573   3.3433  -0.6754 LP             1 S1                 0.0000
     50 ****        -0.7134   3.7954  -0.7403 LP             1 S1                 0.0000
     51 ****         4.6655   2.6976  -1.2219 LP             1 S1                 0.0000
     52 ****         4.4836  -1.1386   0.1772 LP             1 S1                 0.0000
     53 ****        -4.7317   4.1863  -0.6361 LP             1 S1                 0.0000
     54 ****        -6.0900   3.8543  -1.4795 LP             1 S1                 0.0000
@<TRIPOS>BOND
    1    1    2 2     
    2    2    3 am    
    3    2   13 am    
    4    3    4 1     
    5    3   25 1     
    6    4   12 ar    
    7    4    5 ar    
    8    5    6 ar    
    9    5   26 1     
   10    6    7 ar    
   11    7    8 1     
   12    7   11 ar    
   13    8   10 1     
   14    8    9 1     
   15    8   27 1     
   16    9   10 1     
   17    9   28 1     
   18    9   29 1     
   19   10   30 1     
   20   10   31 1     
   21   11   12 ar    
   22   12   32 1     
   23   13   14 1     
   24   13   33 1     
   25   14   20 1     
   26   14   15 1     
   27   14   34 1     
   28   15   19 1     
   29   15   16 1     
   30   15   35 1     
   31   16   17 1     
   32   16   36 1     
   33   16   37 1     
   34   17   18 1     
   35   17   38 1     
   36   17   39 1     
   37   18   19 1     
   38   19   20 1     
   39   19   40 1     
   40   20   24 1     
   41   20   21 1     
   42   21   22 1     
   43   21   41 1     
   44   21   42 1     
   45   22   23 1     
   46   22   43 1     
   47   22   44 1     
   48   23   24 1     
   49   23   45 1     
   50   23   46 1     
   51   24   47 1     
   52   24   48 1     
   53    1   49 1     
   54    1   50 1     
   55    6   51 1     
   56   11   52 1     
   57   18   53 1     
   58   18   54 1     
@<TRIPOS>SUBSTRUCTURE
      1 S1             1
@<TRIPOS>SET
LONE_PAIRS      STATIC     ATOMS    <user>   **** ""
6 49 50 51 52 53 54
DONOR_HYDROGENS      STATIC     ATOMS    <user>   **** ""
2 25 33
ATOM$BLUE        STATIC     ATOMS    COLORGROUP SYSTEM
6 49 50 51 52 53 54
ATOM$RED        STATIC     ATOMS    COLORGROUP SYSTEM
2 25 33
