AV-unprocessed.smi:1331|AV-procd|sdf|5487|dock5
  -GOLD-   22720 5 63D 1   1.00000     0.00000
 Structure written by MMmdl.
 38 39  0  0  0  0  0  0  0  0  1 V2000
  149.3278  140.0084  154.4699 C   0  0  0  0  0  0  0  0  0  0  0  0
  148.4426  141.0914  155.1046 C   0  0  2  0  0  0  0  0  0  0  0  0
  147.8078  142.0053  154.0391 C   0  0  0  0  0  0  0  0  0  0  0  0
  146.5776  142.6212  154.5062 N   0  0  0  0  0  0  0  0  0  0  0  0
  145.7424  143.4843  153.8288 C   0  0  0  0  0  0  0  0  0  0  0  0
  144.7068  143.7875  154.6654 C   0  0  0  0  0  0  0  0  0  0  0  0
  145.0002  143.0515  155.8473 C   0  0  0  0  0  0  0  0  0  0  0  0
  146.1211  142.3553  155.7497 N   0  0  0  0  0  0  0  0  0  0  0  0
  149.2308  141.8886  156.0415 N   0  0  0  0  0  0  0  0  0  0  0  0
  150.0011  141.4013  157.0258 C   0  0  0  0  0  0  0  0  0  0  0  0
  150.1657  140.1970  157.2235 O   0  0  0  0  0  0  0  0  0  0  0  0
  150.6844  142.4360  157.9291 C   0  0  0  0  0  0  0  0  0  0  0  0
  151.4783  143.4648  157.0958 C   0  0  0  0  0  0  0  0  0  0  0  0
  152.1793  144.4933  157.9983 C   0  0  0  0  0  0  0  0  0  0  0  0
  153.0927  143.8029  159.0233 C   0  0  0  0  0  0  0  0  0  0  0  0
  152.3143  142.7709  159.8550 C   0  0  0  0  0  0  0  0  0  0  0  0
  151.6101  141.7443  158.9527 C   0  0  0  0  0  0  0  0  0  0  0  0
  148.7554  139.3909  153.7775 H   0  0  0  0  0  0  0  0  0  0  0  0
  149.7467  139.3466  155.2289 H   0  0  0  0  0  0  0  0  0  0  0  0
  150.1578  140.4482  153.9159 H   0  0  0  0  0  0  0  0  0  0  0  0
  147.6329  140.5933  155.6416 H   0  0  0  0  0  0  0  0  0  0  0  0
  148.5069  142.7852  153.7323 H   0  0  0  0  0  0  0  0  0  0  0  0
  147.5724  141.4294  153.1433 H   0  0  0  0  0  0  0  0  0  0  0  0
  145.9511  143.8039  152.8184 H   0  0  0  0  0  0  0  0  0  0  0  0
  143.8667  144.4351  154.4635 H   0  0  0  0  0  0  0  0  0  0  0  0
  144.4359  143.0031  156.7670 H   0  0  0  0  0  0  0  0  0  0  0  0
  149.1529  142.8920  155.9583 H   0  0  0  0  0  0  0  0  0  0  0  0
  149.9106  142.9734  158.4809 H   0  0  0  0  0  0  0  0  0  0  0  0
  152.2263  142.9584  156.4834 H   0  0  0  0  0  0  0  0  0  0  0  0
  150.8121  143.9818  156.4039 H   0  0  0  0  0  0  0  0  0  0  0  0
  152.7608  145.1865  157.3899 H   0  0  0  0  0  0  0  0  0  0  0  0
  151.4314  145.0922  158.5197 H   0  0  0  0  0  0  0  0  0  0  0  0
  153.9146  143.3082  158.5045 H   0  0  0  0  0  0  0  0  0  0  0  0
  153.5442  144.5467  159.6803 H   0  0  0  0  0  0  0  0  0  0  0  0
  152.9909  142.2600  160.5407 H   0  0  0  0  0  0  0  0  0  0  0  0
  151.5750  143.2817  160.4731 H   0  0  0  0  0  0  0  0  0  0  0  0
  151.0355  141.0514  159.5693 H   0  0  0  0  0  0  0  0  0  0  0  0
  152.3626  141.1460  158.4362 H   0  0  0  0  0  0  0  0  0  0  0  0
  1  2  1  0  0  0  0
  1 18  1  0  0  0  0
  1 19  1  0  0  0  0
  1 20  1  0  0  0  0
  2  3  1  0  0  0  0
  2  9  1  0  0  0  0
  2 21  1  0  0  0  0
  3  4  1  0  0  0  0
  3 22  1  0  0  0  0
  3 23  1  0  0  0  0
  4  8  1  0  0  0  0
  4  5  1  0  0  0  0
  5  6  2  0  0  0  0
  5 24  1  0  0  0  0
  6  7  1  0  0  0  0
  6 25  1  0  0  0  0
  7  8  2  0  0  0  0
  7 26  1  0  0  0  0
  9 10  1  0  0  0  0
  9 27  1  0  0  0  0
 10 11  2  0  0  0  0
 10 12  1  0  0  0  0
 12 17  1  0  0  0  0
 12 13  1  0  0  0  0
 12 28  1  0  0  0  0
 13 14  1  0  0  0  0
 13 29  1  0  0  0  0
 13 30  1  0  0  0  0
 14 15  1  0  0  0  0
 14 31  1  0  0  0  0
 14 32  1  0  0  0  0
 15 16  1  0  0  0  0
 15 33  1  0  0  0  0
 15 34  1  0  0  0  0
 16 17  1  0  0  0  0
 16 35  1  0  0  0  0
 16 36  1  0  0  0  0
 17 37  1  0  0  0  0
 17 38  1  0  0  0  0
M  END
> <s_m_source_file>
AV-unprocessed.smi

> <i_m_source_file_index>
1331

> <i_lp_mmshare_version>
43012

> <i_f3d_flags>
0

> <s_epik_input>
bjFbY0hdW2NIXVtjSF1uMVtDSDJdW0NAQEhdKFtDSDNdKVtOSF1DKD1PKVtDSF0yW0NIMl1bQ0gyXVtDSDJdW0NIMl1bQ0gyXTI=

> <s_epik_cmdline>
J2VwaWtfcHl0aG9uJywgJy1waCcsICc3LjAnLCAnLXRuJywgJzgnLCAnLW1hJywgJzIwMCcsICctbWV0YWxfYmluZGluZycsICctaW1hZScsICc8aW5maWxlLm1hZT4nLCAnLW9tYWUnLCAnPG91dGZpbGUubWFlPic=

> <r_lp_tautomer_probability>
1

> <r_epik_Ionization_Penalty>
0.000326658

> <r_epik_Ionization_Penalty_Charging>
0

> <r_epik_Ionization_Penalty_Neutral>
0.000326658

> <r_epik_State_Penalty>
-0

> <r_epik_Charging_Adjusted_Penalty>
0

> <i_epik_Tot_Q>
0

> <i_epik_Tot_abs_Q>
0

> <r_epik_Metal_State_Penalty>
-0

> <b_epik_Metal_Only>
0

> <s_lp_Force_Field>
OPLS_2005

> <r_lp_Energy>
10.6365

> <b_lp_Chiralities_Consistent>
1

> <s_lp_Variant>
AV-unprocessed.smi:1331-1

> <Gold.Version>
5.8.1

> <Gold.Id.Protein>
6NUR|6NUR_protein|mol2

> <Gold.PLP.Fitness>
42.4846

> <Gold.PLP.PLP>
-40.2010

> <Gold.PLP.part.hbond>
-1.0000

> <Gold.PLP.part.metal>
0.0000

> <Gold.PLP.part.buried>
-4.6307

> <Gold.PLP.part.nonpolar>
-35.0121

> <Gold.PLP.part.repulsive>
0.2199

> <Gold.PLP.ligand.clash>
0.0000

> <Gold.PLP.ligand.torsion>
0.3775

> <Gold.PLP.Chemscore.Hbond>
1.0000

> <Gold.PLP.Chemscore.CHOScore>
0.0000

> <Gold.PLP.Chemscore.Metal>
0.0000

> <Gold.Chemscore.Hbonds>
donor molecule, donor type, donor heavy atom, donor atom, acceptor molecule, acceptor atom, score
      L1  H     9    27       P1  8028  1.00

> <Gold.PLP.Chemscore.Internal.Correction>
0.0386

> <Gold.Rescore>
     Score         DG    S(hbond)    S(metal)    S(lipo)     H(rot)  DE(clash)    DE(int)     intcor
     15.80     -16.88       1.00        0.00     101.50       1.49       0.09       1.00       ----

> <Gold.Chemscore.Fitness>
15.7957

> <Gold.Chemscore.DG>
-16.8804

> <Gold.Chemscore.ZeroCoef>
-5.4800

> <Gold.Chemscore.Hbond>
1.0000

> <Gold.Chemscore.Metal>
0.0000

> <Gold.Chemscore.Lipo>
101.4980

> <Gold.Chemscore.Internal_Hbond>
0.0000

> <Gold.Chemscore.DEClash>
0.0870

> <Gold.Chemscore.DEInternal>
0.9977

> <Gold.Chemscore.Rot>
1.4902

> <Gold.Chemscore.Internal.Correction>
   9.000000E+99

> <Gold.Chemscore.Hbonds>
donor molecule, donor type, donor heavy atom, donor atom, acceptor molecule, acceptor atom, score
      L1  H     9    27       P1  8028  1.00

> <Gold.Chemscore.Hbond.Weighted>
-3.3400

> <Gold.Chemscore.Metal.Weighted>
-0.0000

> <Gold.Chemscore.Lipo.Weighted>
-11.8753

> <Gold.Chemscore.Internal_Hbond.Weighted>
0.0000

> <Gold.Chemscore.DEClash.Weighted>
0.0870

> <Gold.Chemscore.DEInternal.Weighted>
0.9977

> <Gold.Chemscore.Rot.Weighted>
3.8149

> <Gold.Chemscore.Internal.Correction.Weighted>
   9.000000E+99

> <Gold.Protein.RotatedTorsions>
[ 6907 6896 6895 6894 ] final -165.38 input  -60.11 | X-H torsion
[ 7974 7965 7964 7962 ] final  175.61 input  175.53 | X-H torsion
[ 8008 7997 7996 7995 ] final   51.51 input   59.86 | X-H torsion
[ 10167 10162 10161 10158 ] final   60.52 input  -65.29 | X-H torsion
[ 10718 10713 10712 10709 ] final  112.32 input   66.30 | X-H torsion
[ 10763 10752 10751 10750 ] final  -61.85 input  -60.55 | X-H torsion
[ 11005 11000 10999 10996 ] final   47.93 input  -57.11 | X-H torsion

> <Gold.Protein.ActiveResidues>
 VAL166  LYS551  ARG553  GLY616  TRP617  ASP618  TYR619  PRO620  LYS621  CYS622 
 ASP623  PHE694  ASN695  SER759  ASP760  ASP761  ALA762  ILE779  LEU786  VAL792 
 PHE793  MET794  SER795  GLU796  ALA797  LYS798  CYS799  TRP800  GLU811  SER814 

> <Gold.Protein.RotatedAtoms>
  151.4267  133.3682  159.2763 H   0  0  0  0  0  0  0  0  0  0  0  0  # atno 6907 bound_to 6896
  150.9254  134.8672  159.7527 H   0  0  0  0  0  0  0  0  0  0  0  0  # atno 6908 bound_to 6896
  152.5002  134.4208  159.9532 H   0  0  0  0  0  0  0  0  0  0  0  0  # atno 6909 bound_to 6896
  144.7199  139.9972  143.6440 H   0  0  0  0  0  0  0  0  0  0  0  0  # atno 7974 bound_to 7965
  155.4364  140.3452  155.4285 H   0  0  0  0  0  0  0  0  0  0  0  0  # atno 8008 bound_to 7997
  156.1305  140.1513  156.9102 H   0  0  0  0  0  0  0  0  0  0  0  0  # atno 8009 bound_to 7997
  154.4891  140.0846  156.7534 H   0  0  0  0  0  0  0  0  0  0  0  0  # atno 8010 bound_to 7997
  140.1647  144.4336  150.6691 H   0  0  0  0  0  0  0  0  0  0  0  0  # atno 10167 bound_to 10162
  157.6399  131.0965  150.6878 H   0  0  0  0  0  0  0  0  0  0  0  0  # atno 10718 bound_to 10713
  154.2908  135.6254  153.5384 H   0  0  0  0  0  0  0  0  0  0  0  0  # atno 10763 bound_to 10752
  152.9853  135.5655  154.5392 H   0  0  0  0  0  0  0  0  0  0  0  0  # atno 10764 bound_to 10752
  154.5002  135.2871  155.1402 H   0  0  0  0  0  0  0  0  0  0  0  0  # atno 10765 bound_to 10752
  140.1236  134.4797  155.8577 H   0  0  0  0  0  0  0  0  0  0  0  0  # atno 11005 bound_to 11000
  146.0364  139.3381  143.0724 LP  0  0  0  0  0  0  0  0  0  0  0  0  # atno 17320 bound_to 7965
  145.8389  140.9591  143.0810 LP  0  0  0  0  0  0  0  0  0  0  0  0  # atno 17321 bound_to 7965
  140.6620  143.2255  151.5832 LP  0  0  0  0  0  0  0  0  0  0  0  0  # atno 17342 bound_to 10162
  139.5365  144.2767  152.1262 LP  0  0  0  0  0  0  0  0  0  0  0  0  # atno 17343 bound_to 10162
  156.7203  130.4678  149.5524 LP  0  0  0  0  0  0  0  0  0  0  0  0  # atno 17370 bound_to 10713
  156.1670  130.6412  151.0790 LP  0  0  0  0  0  0  0  0  0  0  0  0  # atno 17371 bound_to 10713
  141.2156  133.6769  156.6935 LP  0  0  0  0  0  0  0  0  0  0  0  0  # atno 17394 bound_to 11000
  140.2933  134.8223  157.4035 LP  0  0  0  0  0  0  0  0  0  0  0  0  # atno 17395 bound_to 11000

$$$$
