AV-unprocessed.smi:1208|AV-procd|sdf|5066|dock2
  -GOLD-   22720 4103D 1   1.00000     0.00000
 Structure written by MMmdl.
 36 37  0  0  0  0  0  0  0  0  1 V2000
  151.1113  140.3999  157.5228 C   0  0  0  0  0  0  0  0  0  0  0  0
  151.1727  141.8304  156.9683 C   0  0  1  0  0  0  0  0  0  0  0  0
  150.0110  142.0542  156.1100 N   0  0  0  0  0  0  0  0  0  0  0  0
  149.6462  141.2955  155.0645 C   0  0  0  0  0  0  0  0  0  0  0  0
  150.2470  140.2760  154.7227 O   0  0  0  0  0  0  0  0  0  0  0  0
  148.4020  141.7610  154.2955 C   0  0  0  0  0  0  0  0  0  0  0  0
  147.2794  142.1062  155.1790 N   0  0  0  0  0  0  0  0  0  0  0  0
  147.5147  141.8530  156.5219 N   0  0  0  0  0  0  0  0  0  0  0  0
  146.5980  142.1022  157.3949 C   0  0  0  0  0  0  0  0  0  0  0  0
  146.8712  141.8321  158.7131 O   0  0  0  0  0  0  0  0  0  0  0  0
  145.3187  142.6506  157.0017 C   0  0  0  0  0  0  0  0  0  0  0  0
  145.1002  142.8975  155.6916 C   0  0  0  0  0  0  0  0  0  0  0  0
  146.1169  142.6238  154.6745 C   0  0  0  0  0  0  0  0  0  0  0  0
  145.9447  142.8369  153.4743 O   0  0  0  0  0  0  0  0  0  0  0  0
  151.2163  142.8806  158.0975 C   0  0  2  0  0  0  0  0  0  0  0  0
  151.6340  144.2868  157.6650 C   0  0  0  0  0  0  0  0  0  0  0  0
  152.1462  144.9101  158.9521 C   0  0  0  0  0  0  0  0  0  0  0  0
  152.4484  143.7078  159.8517 C   0  0  0  0  0  0  0  0  0  0  0  0
  152.2232  142.5593  159.0444 O   0  0  0  0  0  0  0  0  0  0  0  0
  147.0008  142.6751  159.1196 H   0  0  0  0  0  0  0  0  0  0  0  0
  151.9791  140.1817  158.1457 H   0  0  0  0  0  0  0  0  0  0  0  0
  151.0956  139.6663  156.7162 H   0  0  0  0  0  0  0  0  0  0  0  0
  150.2190  140.2468  158.1310 H   0  0  0  0  0  0  0  0  0  0  0  0
  152.0887  141.9154  156.3807 H   0  0  0  0  0  0  0  0  0  0  0  0
  149.4508  142.8688  156.3153 H   0  0  0  0  0  0  0  0  0  0  0  0
  148.6852  142.6208  153.6860 H   0  0  0  0  0  0  0  0  0  0  0  0
  148.0912  140.9896  153.5880 H   0  0  0  0  0  0  0  0  0  0  0  0
  144.5626  142.8548  157.7454 H   0  0  0  0  0  0  0  0  0  0  0  0
  144.1493  143.3072  155.3839 H   0  0  0  0  0  0  0  0  0  0  0  0
  150.2533  142.9259  158.6100 H   0  0  0  0  0  0  0  0  0  0  0  0
  152.4461  144.2311  156.9388 H   0  0  0  0  0  0  0  0  0  0  0  0
  150.8179  144.8531  157.2152 H   0  0  0  0  0  0  0  0  0  0  0  0
  153.0308  145.5218  158.7723 H   0  0  0  0  0  0  0  0  0  0  0  0
  151.3860  145.5443  159.4096 H   0  0  0  0  0  0  0  0  0  0  0  0
  153.4707  143.7176  160.2308 H   0  0  0  0  0  0  0  0  0  0  0  0
  151.7696  143.6878  160.7053 H   0  0  0  0  0  0  0  0  0  0  0  0
  1  2  1  0  0  0  0
  1 21  1  0  0  0  0
  1 22  1  0  0  0  0
  1 23  1  0  0  0  0
  2  3  1  0  0  0  0
  2 15  1  0  0  0  0
  2 24  1  0  0  0  0
  3  4  1  0  0  0  0
  3 25  1  0  0  0  0
  4  5  2  0  0  0  0
  4  6  1  0  0  0  0
  6 26  1  0  0  0  0
  6 27  1  0  0  0  0
  6  7  1  0  0  0  0
  7  8  1  0  0  0  0
  7 13  1  0  0  0  0
  8  9  2  0  0  0  0
  9 10  1  0  0  0  0
  9 11  1  0  0  0  0
 10 20  1  0  0  0  0
 11 28  1  0  0  0  0
 11 12  2  0  0  0  0
 12 29  1  0  0  0  0
 12 13  1  0  0  0  0
 13 14  2  0  0  0  0
 15 19  1  0  0  0  0
 15 16  1  0  0  0  0
 15 30  1  0  0  0  0
 16 17  1  0  0  0  0
 16 31  1  0  0  0  0
 16 32  1  0  0  0  0
 17 18  1  0  0  0  0
 17 33  1  0  0  0  0
 17 34  1  0  0  0  0
 18 19  1  0  0  0  0
 18 35  1  0  0  0  0
 18 36  1  0  0  0  0
M  END
> <s_m_source_file>
AV-unprocessed.smi

> <i_m_source_file_index>
1208

> <i_lp_mmshare_version>
43012

> <i_f3d_flags>
0

> <s_epik_input>
TzFbQ0gyXVtDSDJdW0NIMl1bQ0BIXTFbQ0BIXShbQ0gzXSlbTkhdQyg9TylbQ0gyXW4yW25IXWMoPU8pW2NIXVtjSF1jMj1P

> <s_epik_cmdline>
J2VwaWtfcHl0aG9uJywgJy1waCcsICc3LjAnLCAnLXRuJywgJzgnLCAnLW1hJywgJzIwMCcsICctbWV0YWxfYmluZGluZycsICctaW1hZScsICc8aW5maWxlLm1hZT4nLCAnLW9tYWUnLCAnPG91dGZpbGUubWFlPic=

> <r_lp_tautomer_probability>
0.9996

> <r_epik_Ionization_Penalty>
2.12735

> <r_epik_Ionization_Penalty_Charging>
3.86665e-08

> <r_epik_Ionization_Penalty_Neutral>
2.12735

> <r_epik_State_Penalty>
1.70441

> <r_epik_Charging_Adjusted_Penalty>
1.70441

> <i_epik_Tot_Q>
0

> <i_epik_Tot_abs_Q>
0

> <r_epik_Metal_State_Penalty>
1.70441

> <b_epik_Metal_Only>
0

> <s_lp_Force_Field>
OPLS_2005

> <r_lp_Energy>
29.1408

> <b_lp_Chiralities_Consistent>
1

> <s_lp_Variant>
AV-unprocessed.smi:1208-6

> <Gold.Version>
5.8.1

> <Gold.Id.Protein>
6NUR|6NUR_protein|mol2

> <Gold.PLP.Fitness>
44.1918

> <Gold.PLP.PLP>
-38.2794

> <Gold.PLP.part.hbond>
-3.0000

> <Gold.PLP.part.metal>
0.0000

> <Gold.PLP.part.buried>
-4.4196

> <Gold.PLP.part.nonpolar>
-31.3162

> <Gold.PLP.part.repulsive>
0.5392

> <Gold.PLP.ligand.clash>
0.0000

> <Gold.PLP.ligand.torsion>
0.3263

> <Gold.PLP.Chemscore.Hbond>
2.1684

> <Gold.PLP.Chemscore.CHOScore>
0.0000

> <Gold.PLP.Chemscore.Metal>
0.0000

> <Gold.Chemscore.Hbonds>
donor molecule, donor type, donor heavy atom, donor atom, acceptor molecule, acceptor atom, score
      L1  H     3    25       P1  8028  0.87
      P1  H  6934  6946       L1    10  0.18
      P1  H  7989  7998       L1     5  1.00

> <Gold.PLP.Chemscore.Internal.Correction>
0.0600

> <Gold.Rescore>
     Score         DG    S(hbond)    S(metal)    S(lipo)     H(rot)  DE(clash)    DE(int)     intcor
     10.87     -13.13       1.60        0.00      77.26       2.63       0.47       1.80       ----

> <Gold.Chemscore.Fitness>
10.8695

> <Gold.Chemscore.DG>
-13.1325

> <Gold.Chemscore.ZeroCoef>
-5.4800

> <Gold.Chemscore.Hbond>
1.5977

> <Gold.Chemscore.Metal>
0.0000

> <Gold.Chemscore.Lipo>
77.2633

> <Gold.Chemscore.Internal_Hbond>
0.0000

> <Gold.Chemscore.DEClash>
0.4653

> <Gold.Chemscore.DEInternal>
1.7977

> <Gold.Chemscore.Rot>
2.6264

> <Gold.Chemscore.Internal.Correction>
   9.000000E+99

> <Gold.Chemscore.Hbonds>
donor molecule, donor type, donor heavy atom, donor atom, acceptor molecule, acceptor atom, score
      L1  H     3    25       P1  8028  0.80
      P1  H  6934  6946       L1    10  0.01
      P1  H  7989  7998       L1     5  0.48

> <Gold.Chemscore.Hbond.Weighted>
-5.3364

> <Gold.Chemscore.Metal.Weighted>
-0.0000

> <Gold.Chemscore.Lipo.Weighted>
-9.0398

> <Gold.Chemscore.Internal_Hbond.Weighted>
0.0000

> <Gold.Chemscore.DEClash.Weighted>
0.4653

> <Gold.Chemscore.DEInternal.Weighted>
1.7977

> <Gold.Chemscore.Rot.Weighted>
6.7237

> <Gold.Chemscore.Internal.Correction.Weighted>
   9.000000E+99

> <Gold.Protein.RotatedTorsions>
[ 6907 6896 6895 6894 ] final  113.93 input  -60.11 | X-H torsion
[ 7974 7965 7964 7962 ] final   47.24 input  175.53 | X-H torsion
[ 8008 7997 7996 7995 ] final   83.80 input   59.86 | X-H torsion
[ 10167 10162 10161 10158 ] final -128.40 input  -65.29 | X-H torsion
[ 10718 10713 10712 10709 ] final -138.73 input   66.30 | X-H torsion
[ 10763 10752 10751 10750 ] final   98.67 input  -60.55 | X-H torsion
[ 11005 11000 10999 10996 ] final  106.07 input  -57.11 | X-H torsion

> <Gold.Protein.ActiveResidues>
 VAL166  LYS551  ARG553  GLY616  TRP617  ASP618  TYR619  PRO620  LYS621  CYS622 
 ASP623  PHE694  ASN695  SER759  ASP760  ASP761  ALA762  ILE779  LEU786  VAL792 
 PHE793  MET794  SER795  GLU796  ALA797  LYS798  CYS799  TRP800  GLU811  SER814 

> <Gold.Protein.RotatedAtoms>
  152.4832  133.8307  159.7101 H   0  0  0  0  0  0  0  0  0  0  0  0  # atno 6907 bound_to 6896
  150.8898  133.7249  159.2914 H   0  0  0  0  0  0  0  0  0  0  0  0  # atno 6908 bound_to 6896
  151.4726  135.1050  159.9808 H   0  0  0  0  0  0  0  0  0  0  0  0  # atno 6909 bound_to 6896
  146.0316  139.4770  142.9834 H   0  0  0  0  0  0  0  0  0  0  0  0  # atno 7974 bound_to 7965
  155.9286  140.3416  155.6231 H   0  0  0  0  0  0  0  0  0  0  0  0  # atno 8008 bound_to 7997
  155.7185  140.0780  157.2359 H   0  0  0  0  0  0  0  0  0  0  0  0  # atno 8009 bound_to 7997
  154.4081  140.1610  156.2363 H   0  0  0  0  0  0  0  0  0  0  0  0  # atno 8010 bound_to 7997
  139.9507  143.6059  152.2476 H   0  0  0  0  0  0  0  0  0  0  0  0  # atno 10167 bound_to 10162
  156.3026  130.7437  151.1493 H   0  0  0  0  0  0  0  0  0  0  0  0  # atno 10718 bound_to 10713
  153.2919  135.4140  155.1175 H   0  0  0  0  0  0  0  0  0  0  0  0  # atno 10763 bound_to 10752
  154.8523  135.3520  154.5969 H   0  0  0  0  0  0  0  0  0  0  0  0  # atno 10764 bound_to 10752
  153.6392  135.7057  153.5305 H   0  0  0  0  0  0  0  0  0  0  0  0  # atno 10765 bound_to 10752
  139.8809  134.9357  156.5610 H   0  0  0  0  0  0  0  0  0  0  0  0  # atno 11005 bound_to 11000
  145.7032  141.0129  143.1493 LP  0  0  0  0  0  0  0  0  0  0  0  0  # atno 17320 bound_to 7965
  144.7033  139.8669  143.7438 LP  0  0  0  0  0  0  0  0  0  0  0  0  # atno 17321 bound_to 7965
  139.6631  144.7662  151.1925 LP  0  0  0  0  0  0  0  0  0  0  0  0  # atno 17342 bound_to 10162
  140.7584  143.5980  150.8729 LP  0  0  0  0  0  0  0  0  0  0  0  0  # atno 17343 bound_to 10162
  157.7372  131.0554  150.5371 LP  0  0  0  0  0  0  0  0  0  0  0  0  # atno 17370 bound_to 10713
  156.5500  130.4229  149.6112 LP  0  0  0  0  0  0  0  0  0  0  0  0  # atno 17371 bound_to 10713
  140.8169  133.8384  155.8860 LP  0  0  0  0  0  0  0  0  0  0  0  0  # atno 17394 bound_to 11000
  140.9454  134.1847  157.4767 LP  0  0  0  0  0  0  0  0  0  0  0  0  # atno 17395 bound_to 11000

$$$$
