#       Name:                AV-unprocessed.smi:247
#       Creating user name   scv26
#       Creation time:       Thu Mar 26 20:56:02 2020


#       File generated by GOLD software.
#

@<TRIPOS>MOLECULE
AV-unprocessed.smi:247
    73    77     1
SMALL
NO_CHARGES


@<TRIPOS>ATOM
      1 ****        -4.3537   3.0820  -2.1573 O.3            1 S1                 0.0000
      2 ****        -3.7796   2.0099  -1.4353 C.3            1 S1                 0.0000
      3 ****        -4.2358   1.9490   0.0492 C.3            1 S1                 0.0000
      4 ****        -3.6189   0.6737   0.7064 C.3            1 S1                 0.0000
      5 ****        -2.1636   0.6202   0.7058 N.pl3          1 S1                 0.0000
      6 ****        -1.3187   1.1339   1.6642 C.2            1 S1                 0.0000
      7 ****        -0.0462   0.9522   1.4412 N.2            1 S1                 0.0000
      8 ****        -0.0079   0.2441   0.2460 C.ar           1 S1                 0.0000
      9 ****         1.0406  -0.2832  -0.5602 C.ar           1 S1                 0.0000
     10 ****         2.3530  -0.1302  -0.2446 N.3            1 S1                 0.0000
     11 ****         2.7959   1.2310   0.0388 C.3            1 S1                 0.0000
     12 ****         4.2061   1.3560  -0.5452 C.3            1 S1                 0.0000
     13 ****         4.6945  -0.0867  -0.6201 C.3            1 S1                 0.0000
     14 ****         3.4083  -0.8527  -0.9563 C.3            1 S1                 0.0000
     15 ****         3.4381  -2.3882  -0.6924 C.3            1 S1                 0.0000
     16 ****         4.4465  -3.0742  -1.6400 C.3            1 S1                 0.0000
     17 ****         4.4177  -4.4878  -1.4761 O.3            1 S1                 0.0000
     18 ****         4.8070  -4.9022  -0.1726 C.3            1 S1                 0.0000
     19 ****         3.8136  -4.3488   0.8578 C.3            1 S1                 0.0000
     20 ****         3.7374  -2.8179   0.7666 C.3            1 S1                 0.0000
     21 ****         2.7279  -2.3846   1.6562 O.3            1 S1                 0.0000
     22 ****         0.6826  -0.9556  -1.6861 N.ar           1 S1                 0.0000
     23 ****        -0.6061  -1.1030  -2.0056 C.ar           1 S1                 0.0000
     24 ****        -1.6829  -0.6618  -1.3532 N.ar           1 S1                 0.0000
     25 ****        -1.3327   0.0144  -0.2218 C.ar           1 S1                 0.0000
     26 ****        -3.8086   3.2462   0.7841 C.3            1 S1                 0.0000
     27 ****        -4.4278   3.3541   2.1891 C.3            1 S1                 0.0000
     28 ****        -5.8458   3.2884   2.0977 O.3            1 S1                 0.0000
     29 ****        -6.3144   2.0560   1.5637 C.3            1 S1                 0.0000
     30 ****        -5.7819   1.8596   0.1311 C.3            1 S1                 0.0000
     31 ****        -4.0373   3.0481  -3.0471 H              1 S1                 0.0000
     32 ****        -4.0365   1.0827  -1.9488 H              1 S1                 0.0000
     33 ****        -2.6975   2.1203  -1.5042 H              1 S1                 0.0000
     34 ****        -3.9429   0.5612   1.7398 H              1 S1                 0.0000
     35 ****        -3.9849  -0.2169   0.1936 H              1 S1                 0.0000
     36 ****        -1.6782   1.6566   2.5386 H              1 S1                 0.0000
     37 ****         2.1292   1.9851  -0.3825 H              1 S1                 0.0000
     38 ****         2.8199   1.3688   1.1202 H              1 S1                 0.0000
     39 ****         4.1509   1.7752  -1.5507 H              1 S1                 0.0000
     40 ****         4.8564   1.9969   0.0507 H              1 S1                 0.0000
     41 ****         5.4797  -0.2259  -1.3635 H              1 S1                 0.0000
     42 ****         5.0926  -0.3754   0.3516 H              1 S1                 0.0000
     43 ****         3.2265  -0.7032  -2.0220 H              1 S1                 0.0000
     44 ****         2.4590  -2.7922  -0.9512 H              1 S1                 0.0000
     45 ****         4.1987  -2.8479  -2.6774 H              1 S1                 0.0000
     46 ****         5.4601  -2.7077  -1.4712 H              1 S1                 0.0000
     47 ****         4.8161  -5.9917  -0.1367 H              1 S1                 0.0000
     48 ****         5.8226  -4.5668   0.0430 H              1 S1                 0.0000
     49 ****         2.8298  -4.7834   0.6740 H              1 S1                 0.0000
     50 ****         4.1084  -4.6550   1.8623 H              1 S1                 0.0000
     51 ****         4.6891  -2.4059   1.0997 H              1 S1                 0.0000
     52 ****         2.6719  -1.4421   1.6085 H              1 S1                 0.0000
     53 ****        -0.8023  -1.6508  -2.9157 H              1 S1                 0.0000
     54 ****        -2.7241   3.3307   0.8395 H              1 S1                 0.0000
     55 ****        -4.1371   4.1174   0.2166 H              1 S1                 0.0000
     56 ****        -4.0555   2.5758   2.8555 H              1 S1                 0.0000
     57 ****        -4.1538   4.3072   2.6413 H              1 S1                 0.0000
     58 ****        -6.0331   1.2306   2.2178 H              1 S1                 0.0000
     59 ****        -7.4042   2.0786   1.5503 H              1 S1                 0.0000
     60 ****        -6.2376   2.6301  -0.4911 H              1 S1                 0.0000
     61 ****        -6.1309   0.9073  -0.2697 H              1 S1                 0.0000
     62 ****        -4.0894   3.9506  -1.7383 LP             1 S1                 0.0000
     63 ****        -5.3501   2.9980  -2.1503 LP             1 S1                 0.0000
     64 ****         0.7251   1.2534   2.0019 LP             1 S1                 0.0000
     65 ****         2.2588  -0.6565   0.6004 LP             1 S1                 0.0000
     66 ****         5.0413  -4.8988  -2.1411 LP             1 S1                 0.0000
     67 ****         3.4869  -4.8101  -1.6486 LP             1 S1                 0.0000
     68 ****         2.9579  -2.6624   2.5889 LP             1 S1                 0.0000
     69 ****         1.8513  -2.7886   1.3946 LP             1 S1                 0.0000
     70 ****         1.3887  -1.3425  -2.2792 LP             1 S1                 0.0000
     71 ****        -2.6251  -0.8080  -1.6548 LP             1 S1                 0.0000
     72 ****        -6.1614   4.0314   1.5075 LP             1 S1                 0.0000
     73 ****        -6.2294   3.4046   3.0138 LP             1 S1                 0.0000
@<TRIPOS>BOND
    1    1    2 1     
    2    1   31 1     
    3    2    3 1     
    4    2   32 1     
    5    2   33 1     
    6    3   30 1     
    7    3    4 1     
    8    3   26 1     
    9    4    5 1     
   10    4   34 1     
   11    4   35 1     
   12    5   25 1     
   13    5    6 1     
   14    6    7 2     
   15    6   36 1     
   16    7    8 1     
   17    8   25 ar    
   18    8    9 ar    
   19    9   10 1     
   20    9   22 ar    
   21   10   14 1     
   22   10   11 1     
   23   11   12 1     
   24   11   37 1     
   25   11   38 1     
   26   12   13 1     
   27   12   39 1     
   28   12   40 1     
   29   13   14 1     
   30   13   41 1     
   31   13   42 1     
   32   14   15 1     
   33   14   43 1     
   34   15   20 1     
   35   15   16 1     
   36   15   44 1     
   37   16   17 1     
   38   16   45 1     
   39   16   46 1     
   40   17   18 1     
   41   18   19 1     
   42   18   47 1     
   43   18   48 1     
   44   19   20 1     
   45   19   49 1     
   46   19   50 1     
   47   20   21 1     
   48   20   51 1     
   49   21   52 1     
   50   22   23 ar    
   51   23   24 ar    
   52   23   53 1     
   53   24   25 ar    
   54   26   27 1     
   55   26   54 1     
   56   26   55 1     
   57   27   28 1     
   58   27   56 1     
   59   27   57 1     
   60   28   29 1     
   61   29   30 1     
   62   29   58 1     
   63   29   59 1     
   64   30   60 1     
   65   30   61 1     
   66    1   62 1     
   67    1   63 1     
   68    7   64 1     
   69   10   65 1     
   70   17   66 1     
   71   17   67 1     
   72   21   68 1     
   73   21   69 1     
   74   22   70 1     
   75   24   71 1     
   76   28   72 1     
   77   28   73 1     
@<TRIPOS>SUBSTRUCTURE
      1 S1             1
@<TRIPOS>SET
LONE_PAIRS      STATIC     ATOMS    <user>   **** ""
12 62 63 64 65 66 67 68 69 70 71 72 73
DONOR_HYDROGENS      STATIC     ATOMS    <user>   **** ""
2 31 52
ATOM$BLUE        STATIC     ATOMS    COLORGROUP SYSTEM
12 62 63 64 65 66 67 68 69 70 71 72 73
ATOM$RED        STATIC     ATOMS    COLORGROUP SYSTEM
2 31 52
