AV-unprocessed.smi:2485|AV-procd|sdf|9788|dock7
  -GOLD-   2272013423D 1   1.00000     0.00000
 Structure written by MMmdl.
 39 40  0  0  0  0  0  0  0  0  1 V2000
  145.8847  131.9292  149.2527 C   0  0  0  0  0  0  0  0  0  0  0  0
  145.5448  132.3123  150.7010 C   0  0  0  0  0  0  0  0  0  0  0  0
  145.3116  131.0588  151.5616 C   0  0  0  0  0  0  0  0  0  0  0  0
  146.5947  133.2457  151.3158 C   0  0  0  0  0  0  0  0  0  0  0  0
  145.7692  134.1587  152.2000 C   0  0  1  0  0  0  0  0  0  0  0  0
  146.4483  135.4302  152.4404 N   0  0  0  0  0  0  0  0  0  0  0  0
  145.9162  136.4816  153.0787 C   0  0  0  0  0  0  0  0  0  0  0  0
  144.7851  136.4817  153.5645 O   0  0  0  0  0  0  0  0  0  0  0  0
  146.7753  137.5146  153.1087 N   0  0  0  0  0  0  0  0  0  0  0  0
  146.5742  138.8040  153.6670 C   0  0  0  0  0  0  0  0  0  0  0  0
  147.2942  139.8481  153.0488 C   0  0  0  0  0  0  0  0  0  0  0  0
  147.1406  141.1519  153.5502 C   0  0  0  0  0  0  0  0  0  0  0  0
  146.2713  141.3233  154.6411 C   0  0  0  0  0  0  0  0  0  0  0  0
  145.6006  140.2940  155.2019 N   0  0  0  0  0  0  0  0  0  0  0  0
  145.7527  139.0555  154.7198 N   0  0  0  0  0  0  0  0  0  0  0  0
  144.4529  134.2930  151.4029 C   0  0  0  0  0  0  0  0  0  0  0  0
  143.2277  134.4383  152.3193 C   0  0  0  0  0  0  0  0  0  0  0  0
  144.4680  135.4047  150.3325 C   0  0  0  0  0  0  0  0  0  0  0  0
  144.3282  133.0578  150.6992 O   0  0  0  0  0  0  0  0  0  0  0  0
  146.8194  131.3699  149.2021 H   0  0  0  0  0  0  0  0  0  0  0  0
  145.9908  132.8137  148.6238 H   0  0  0  0  0  0  0  0  0  0  0  0
  145.1013  131.3095  148.8155 H   0  0  0  0  0  0  0  0  0  0  0  0
  146.2126  130.4478  151.6217 H   0  0  0  0  0  0  0  0  0  0  0  0
  144.5185  130.4382  151.1434 H   0  0  0  0  0  0  0  0  0  0  0  0
  145.0193  131.3194  152.5790 H   0  0  0  0  0  0  0  0  0  0  0  0
  147.3737  132.7147  151.8642 H   0  0  0  0  0  0  0  0  0  0  0  0
  147.0861  133.8286  150.5350 H   0  0  0  0  0  0  0  0  0  0  0  0
  145.5870  133.6406  153.1435 H   0  0  0  0  0  0  0  0  0  0  0  0
  147.3848  135.5196  152.0742 H   0  0  0  0  0  0  0  0  0  0  0  0
  147.6735  137.3643  152.6739 H   0  0  0  0  0  0  0  0  0  0  0  0
  147.9495  139.6576  152.2116 H   0  0  0  0  0  0  0  0  0  0  0  0
  147.6686  141.9877  153.1157 H   0  0  0  0  0  0  0  0  0  0  0  0
  146.1107  142.3007  155.0713 H   0  0  0  0  0  0  0  0  0  0  0  0
  143.2642  135.3688  152.8858 H   0  0  0  0  0  0  0  0  0  0  0  0
  143.1679  133.6162  153.0331 H   0  0  0  0  0  0  0  0  0  0  0  0
  142.3026  134.4391  151.7424 H   0  0  0  0  0  0  0  0  0  0  0  0
  144.5137  136.3965  150.7831 H   0  0  0  0  0  0  0  0  0  0  0  0
  143.5655  135.3682  149.7217 H   0  0  0  0  0  0  0  0  0  0  0  0
  145.3198  135.3040  149.6598 H   0  0  0  0  0  0  0  0  0  0  0  0
  1  2  1  0  0  0  0
  1 20  1  0  0  0  0
  1 21  1  0  0  0  0
  1 22  1  0  0  0  0
  2 19  1  0  0  0  0
  2  3  1  0  0  0  0
  2  4  1  0  0  0  0
  3 23  1  0  0  0  0
  3 24  1  0  0  0  0
  3 25  1  0  0  0  0
  4  5  1  0  0  0  0
  4 26  1  0  0  0  0
  4 27  1  0  0  0  0
  5  6  1  0  0  0  0
  5 16  1  0  0  0  0
  5 28  1  0  0  0  0
  6  7  1  0  0  0  0
  6 29  1  0  0  0  0
  7  8  2  0  0  0  0
  7  9  1  0  0  0  0
  9 10  1  0  0  0  0
  9 30  1  0  0  0  0
 10 15  1  0  0  0  0
 10 11  2  0  0  0  0
 11 12  1  0  0  0  0
 11 31  1  0  0  0  0
 12 13  2  0  0  0  0
 12 32  1  0  0  0  0
 13 14  1  0  0  0  0
 13 33  1  0  0  0  0
 14 15  2  0  0  0  0
 16 17  1  0  0  0  0
 16 18  1  0  0  0  0
 16 19  1  0  0  0  0
 17 34  1  0  0  0  0
 17 35  1  0  0  0  0
 17 36  1  0  0  0  0
 18 37  1  0  0  0  0
 18 38  1  0  0  0  0
 18 39  1  0  0  0  0
M  END
> <s_m_source_file>
AV-unprocessed.smi

> <i_m_source_file_index>
2485

> <i_lp_mmshare_version>
43012

> <i_f3d_flags>
0

> <s_epik_input>
W0NIM11DMShbQ0gzXSlbQ0gyXVtDQEhdKEMoTzEpKFtDSDNdKVtDSDNdKVtOSF1DKD1PKVtOSF1jMltjSF1bY0hdW2NIXW5uMg==

> <s_epik_cmdline>
J2VwaWtfcHl0aG9uJywgJy1waCcsICc3LjAnLCAnLXRuJywgJzgnLCAnLW1hJywgJzIwMCcsICctbWV0YWxfYmluZGluZycsICctaW1hZScsICc8aW5maWxlLm1hZT4nLCAnLW9tYWUnLCAnPG91dGZpbGUubWFlPic=

> <r_lp_tautomer_probability>
1

> <r_epik_Ionization_Penalty>
0.00480341

> <r_epik_Ionization_Penalty_Charging>
0

> <r_epik_Ionization_Penalty_Neutral>
0.00480341

> <r_epik_State_Penalty>
-0

> <r_epik_Charging_Adjusted_Penalty>
0

> <i_epik_Tot_Q>
0

> <i_epik_Tot_abs_Q>
0

> <r_epik_Metal_State_Penalty>
-0

> <b_epik_Metal_Only>
0

> <s_lp_Force_Field>
OPLS_2005

> <r_lp_Energy>
24.1228

> <b_lp_Chiralities_Consistent>
1

> <s_lp_Variant>
AV-unprocessed.smi:2485-1

> <Gold.Version>
5.8.1

> <Gold.Id.Protein>
6NUR|6NUR_protein|mol2

> <Gold.PLP.Fitness>
36.5700

> <Gold.PLP.PLP>
-30.9573

> <Gold.PLP.part.hbond>
-2.0000

> <Gold.PLP.part.metal>
0.0000

> <Gold.PLP.part.buried>
-3.3622

> <Gold.PLP.part.nonpolar>
-25.9097

> <Gold.PLP.part.repulsive>
0.4762

> <Gold.PLP.ligand.clash>
0.0000

> <Gold.PLP.ligand.torsion>
0.1992

> <Gold.PLP.Chemscore.Hbond>
2.0000

> <Gold.PLP.Chemscore.CHOScore>
0.0000

> <Gold.PLP.Chemscore.Metal>
0.0000

> <Gold.Chemscore.Hbonds>
donor molecule, donor type, donor heavy atom, donor atom, acceptor molecule, acceptor atom, score
      L1  H     6    29       P1  7948  1.00
      L1  H     9    30       P1  7948  1.00

> <Gold.PLP.Chemscore.Internal.Correction>
0.0111

> <Gold.Rescore>
     Score         DG    S(hbond)    S(metal)    S(lipo)     H(rot)  DE(clash)    DE(int)     intcor
     16.05     -18.61       1.96        0.00      78.01       1.00       0.02       2.53       ----

> <Gold.Chemscore.Fitness>
16.0526

> <Gold.Chemscore.DG>
-18.6077

> <Gold.Chemscore.ZeroCoef>
-5.4800

> <Gold.Chemscore.Hbond>
1.9642

> <Gold.Chemscore.Metal>
0.0000

> <Gold.Chemscore.Lipo>
78.0103

> <Gold.Chemscore.Internal_Hbond>
0.0000

> <Gold.Chemscore.DEClash>
0.0202

> <Gold.Chemscore.DEInternal>
2.5349

> <Gold.Chemscore.Rot>
1.0000

> <Gold.Chemscore.Internal.Correction>
   9.000000E+99

> <Gold.Chemscore.Hbonds>
donor molecule, donor type, donor heavy atom, donor atom, acceptor molecule, acceptor atom, score
      L1  H     6    29       P1  7948  0.99
      L1  H     9    30       P1  7948  0.96

> <Gold.Chemscore.Hbond.Weighted>
-6.5605

> <Gold.Chemscore.Metal.Weighted>
-0.0000

> <Gold.Chemscore.Lipo.Weighted>
-9.1272

> <Gold.Chemscore.Internal_Hbond.Weighted>
0.0000

> <Gold.Chemscore.DEClash.Weighted>
0.0202

> <Gold.Chemscore.DEInternal.Weighted>
2.5349

> <Gold.Chemscore.Rot.Weighted>
2.5600

> <Gold.Chemscore.Internal.Correction.Weighted>
   9.000000E+99

> <Gold.Protein.RotatedTorsions>
[ 6907 6896 6895 6894 ] final  147.96 input  -60.11 | X-H torsion
[ 7974 7965 7964 7962 ] final   80.49 input  175.53 | X-H torsion
[ 8008 7997 7996 7995 ] final  -42.14 input   59.86 | X-H torsion
[ 10167 10162 10161 10158 ] final -130.57 input  -65.29 | X-H torsion
[ 10718 10713 10712 10709 ] final  -48.05 input   66.30 | X-H torsion
[ 10763 10752 10751 10750 ] final -178.59 input  -60.55 | X-H torsion
[ 11005 11000 10999 10996 ] final   93.59 input  -57.11 | X-H torsion

> <Gold.Protein.ActiveResidues>
 VAL166  LYS551  ARG553  GLY616  TRP617  ASP618  TYR619  PRO620  LYS621  CYS622 
 ASP623  PHE694  ASN695  SER759  ASP760  ASP761  ALA762  ILE779  LEU786  VAL792 
 PHE793  MET794  SER795  GLU796  ALA797  LYS798  CYS799  TRP800  GLU811  SER814 

> <Gold.Protein.RotatedAtoms>
  152.1479  133.4503  159.4798 H   0  0  0  0  0  0  0  0  0  0  0  0  # atno 6907 bound_to 6896
  150.6892  134.2226  159.4412 H   0  0  0  0  0  0  0  0  0  0  0  0  # atno 6908 bound_to 6896
  152.0120  134.9870  160.0619 H   0  0  0  0  0  0  0  0  0  0  0  0  # atno 6909 bound_to 6896
  145.6505  139.2446  143.1979 H   0  0  0  0  0  0  0  0  0  0  0  0  # atno 7974 bound_to 7965
  154.4000  140.1481  156.3306 H   0  0  0  0  0  0  0  0  0  0  0  0  # atno 8008 bound_to 7997
  155.8446  140.3460  155.5633 H   0  0  0  0  0  0  0  0  0  0  0  0  # atno 8009 bound_to 7997
  155.8049  140.0875  157.1927 H   0  0  0  0  0  0  0  0  0  0  0  0  # atno 8010 bound_to 7997
  139.9280  143.6305  152.2537 H   0  0  0  0  0  0  0  0  0  0  0  0  # atno 10167 bound_to 10162
  156.2025  130.4157  149.9222 H   0  0  0  0  0  0  0  0  0  0  0  0  # atno 10718 bound_to 10713
  154.5457  135.2809  155.1054 H   0  0  0  0  0  0  0  0  0  0  0  0  # atno 10763 bound_to 10752
  154.2519  135.6338  153.5247 H   0  0  0  0  0  0  0  0  0  0  0  0  # atno 10764 bound_to 10752
  152.9990  135.5585  154.6009 H   0  0  0  0  0  0  0  0  0  0  0  0  # atno 10765 bound_to 10752
  139.8808  134.8798  156.3741 H   0  0  0  0  0  0  0  0  0  0  0  0  # atno 11005 bound_to 11000
  146.1207  140.7312  142.9459 LP  0  0  0  0  0  0  0  0  0  0  0  0  # atno 17320 bound_to 7965
  144.7124  140.4088  143.7070 LP  0  0  0  0  0  0  0  0  0  0  0  0  # atno 17321 bound_to 7965
  139.6806  144.7655  151.1615 LP  0  0  0  0  0  0  0  0  0  0  0  0  # atno 17342 bound_to 10162
  140.7645  143.5730  150.8975 LP  0  0  0  0  0  0  0  0  0  0  0  0  # atno 17343 bound_to 10162
  156.6927  130.8902  151.3590 LP  0  0  0  0  0  0  0  0  0  0  0  0  # atno 17370 bound_to 10713
  157.6994  130.9316  150.0739 LP  0  0  0  0  0  0  0  0  0  0  0  0  # atno 17371 bound_to 10713
  140.9444  133.7493  156.0189 LP  0  0  0  0  0  0  0  0  0  0  0  0  # atno 17394 bound_to 11000
  140.8181  134.3321  157.5390 LP  0  0  0  0  0  0  0  0  0  0  0  0  # atno 17395 bound_to 11000

$$$$
