AV-unprocessed.smi:110|AV-procd|sdf|1071|dock6
  -GOLD-   2262018153D 1   1.00000     0.00000
 Structure written by MMmdl.
 46 50  0  0  0  0  0  0  0  0  1 V2000
  145.0840  141.4915  156.2560 O   0  0  0  0  0  0  0  0  0  0  0  0
  146.3567  141.9702  155.8775 C   0  0  0  0  0  0  0  0  0  0  0  0
  146.5448  141.8098  154.3501 C   0  0  1  0  0  0  0  0  0  0  0  0
  147.8459  142.2380  153.9598 O   0  0  0  0  0  0  0  0  0  0  0  0
  148.7774  141.2000  154.0646 C   0  0  1  0  0  0  0  0  0  0  0  0
  149.5781  141.3921  155.3237 N   0  0  0  0  0  0  0  0  0  0  0  0
  149.3069  142.2143  156.3980 C   0  0  0  0  0  0  0  0  0  0  0  0
  150.1656  142.1599  157.3784 N   0  0  0  0  0  0  0  0  0  0  0  0
  151.0828  141.1975  156.9773 C   0  0  0  0  0  0  0  0  0  0  0  0
  152.2527  140.6304  157.5592 C   0  0  0  0  0  0  0  0  0  0  0  0
  152.7662  140.9901  158.7585 N   0  0  0  0  0  0  0  0  0  0  0  0
  153.4773  139.9910  159.5685 C   0  0  0  0  0  0  0  0  0  0  0  0
  153.5546  140.5310  161.0092 C   0  0  0  0  0  0  0  0  0  0  0  0
  152.9412  141.8838  160.8411 C   0  0  0  0  0  0  0  0  0  0  0  0
  152.7958  142.8811  161.8210 C   0  0  0  0  0  0  0  0  0  0  0  0
  152.2067  144.1060  161.4411 C   0  0  0  0  0  0  0  0  0  0  0  0
  151.7889  144.3144  160.1062 C   0  0  0  0  0  0  0  0  0  0  0  0
  151.9472  143.2986  159.1379 C   0  0  0  0  0  0  0  0  0  0  0  0
  152.5158  142.0691  159.5295 C   0  0  0  0  0  0  0  0  0  0  0  0
  152.8653  139.6232  156.8872 N   0  0  0  0  0  0  0  0  0  0  0  0
  152.3923  139.2216  155.7050 C   0  0  0  0  0  0  0  0  0  0  0  0
  151.3346  139.6774  155.0328 N   0  0  0  0  0  0  0  0  0  0  0  0
  150.6980  140.6782  155.7084 C   0  0  0  0  0  0  0  0  0  0  0  0
  147.9663  139.8861  154.0968 C   0  0  2  0  0  0  0  0  0  0  0  0
  148.3729  138.9931  153.0798 O   0  0  0  0  0  0  0  0  0  0  0  0
  146.5456  140.3676  153.8268 C   0  0  1  0  0  0  0  0  0  0  0  0
  145.5829  139.5479  154.4606 O   0  0  0  0  0  0  0  0  0  0  0  0
  145.7855  142.3935  153.8278 H   0  0  0  0  0  0  0  0  0  0  0  0
  149.5163  141.2606  153.2647 H   0  0  0  0  0  0  0  0  0  0  0  0
  148.0232  139.4126  155.0769 H   0  0  0  0  0  0  0  0  0  0  0  0
  146.3492  140.3879  152.7533 H   0  0  0  0  0  0  0  0  0  0  0  0
  144.4454  142.1667  156.0845 H   0  0  0  0  0  0  0  0  0  0  0  0
  146.4884  142.9965  156.2159 H   0  0  0  0  0  0  0  0  0  0  0  0
  147.0858  141.3673  156.4181 H   0  0  0  0  0  0  0  0  0  0  0  0
  148.4485  142.8684  156.4392 H   0  0  0  0  0  0  0  0  0  0  0  0
  152.9601  139.0309  159.5387 H   0  0  0  0  0  0  0  0  0  0  0  0
  154.4785  139.8435  159.1619 H   0  0  0  0  0  0  0  0  0  0  0  0
  152.9671  139.9298  161.7035 H   0  0  0  0  0  0  0  0  0  0  0  0
  154.5809  140.6038  161.3696 H   0  0  0  0  0  0  0  0  0  0  0  0
  153.1304  142.7170  162.8344 H   0  0  0  0  0  0  0  0  0  0  0  0
  152.0822  144.8915  162.1717 H   0  0  0  0  0  0  0  0  0  0  0  0
  151.3497  145.2596  159.8233 H   0  0  0  0  0  0  0  0  0  0  0  0
  151.6401  143.4707  158.1171 H   0  0  0  0  0  0  0  0  0  0  0  0
  152.9401  138.4223  155.2281 H   0  0  0  0  0  0  0  0  0  0  0  0
  148.6906  139.4972  152.3463 H   0  0  0  0  0  0  0  0  0  0  0  0
  144.7667  139.6306  153.9911 H   0  0  0  0  0  0  0  0  0  0  0  0
  1  2  1  0  0  0  0
  1 32  1  0  0  0  0
  2  3  1  0  0  0  0
  2 33  1  0  0  0  0
  2 34  1  0  0  0  0
  3 28  1  0  0  0  0
  3 26  1  0  0  0  0
  3  4  1  0  0  0  0
  4  5  1  0  0  0  0
  5 29  1  0  0  0  0
  5  6  1  0  0  0  0
  5 24  1  0  0  0  0
  6 23  1  0  0  0  0
  6  7  1  0  0  0  0
  7  8  2  0  0  0  0
  7 35  1  0  0  0  0
  8  9  1  0  0  0  0
  9 23  2  0  0  0  0
  9 10  1  0  0  0  0
 10 11  1  0  0  0  0
 10 20  2  0  0  0  0
 11 19  1  0  0  0  0
 11 12  1  0  0  0  0
 12 13  1  0  0  0  0
 12 36  1  0  0  0  0
 12 37  1  0  0  0  0
 13 14  1  0  0  0  0
 13 38  1  0  0  0  0
 13 39  1  0  0  0  0
 14 19  2  0  0  0  0
 14 15  1  0  0  0  0
 15 16  2  0  0  0  0
 15 40  1  0  0  0  0
 16 17  1  0  0  0  0
 16 41  1  0  0  0  0
 17 18  2  0  0  0  0
 17 42  1  0  0  0  0
 18 19  1  0  0  0  0
 18 43  1  0  0  0  0
 20 21  1  0  0  0  0
 21 22  2  0  0  0  0
 21 44  1  0  0  0  0
 22 23  1  0  0  0  0
 24 30  1  0  0  0  0
 24 25  1  0  0  0  0
 24 26  1  0  0  0  0
 25 45  1  0  0  0  0
 26 31  1  0  0  0  0
 26 27  1  0  0  0  0
 27 46  1  0  0  0  0
M  END
> <s_m_source_file>
AV-unprocessed.smi

> <i_m_source_file_index>
110

> <i_lp_mmshare_version>
43012

> <i_f3d_flags>
0

> <s_epik_input>
W09IXVtDSDJdW0NASF0xT1tDQEhdKFtDQEhdKFtPSF0pW0NAQEhdMVtPSF0pbihbY0hdbjIpYyhjMjMpbltjSF1uYzNOKFtDSDJdW0NIMl00KWMoYzQ1KVtjSF1bY0hdW2NIXVtjSF01

> <s_epik_cmdline>
J2VwaWtfcHl0aG9uJywgJy1waCcsICc3LjAnLCAnLXRuJywgJzgnLCAnLW1hJywgJzIwMCcsICctbWV0YWxfYmluZGluZycsICctaW1hZScsICc8aW5maWxlLm1hZT4nLCAnLW9tYWUnLCAnPG91dGZpbGUubWFlPic=

> <r_lp_tautomer_probability>
1

> <r_epik_Ionization_Penalty>
0.00068475

> <r_epik_Ionization_Penalty_Charging>
0

> <r_epik_Ionization_Penalty_Neutral>
0.00068475

> <r_epik_State_Penalty>
0.000417442

> <r_epik_Charging_Adjusted_Penalty>
0.000417442

> <i_epik_Tot_Q>
0

> <i_epik_Tot_abs_Q>
0

> <r_epik_Metal_State_Penalty>
-0

> <b_epik_Metal_Only>
0

> <s_epik_Chemistry_Notes>
This compound contains an acetal/aminal-like group ( X-CH(R)-Y where X, Y are N, S, or O) that may be acid/base labile, releasing an aldehyde.

> <s_lp_Force_Field>
OPLS_2005

> <r_lp_Energy>
59.87

> <b_lp_Chiralities_Consistent>
1

> <s_lp_Variant>
AV-unprocessed.smi:110-9

> <Gold.Version>
5.8.1

> <Gold.Id.Protein>
6NUR|6NUR_protein|mol2

> <Gold.PLP.Fitness>
63.9586

> <Gold.PLP.PLP>
-52.1857

> <Gold.PLP.part.hbond>
-5.6451

> <Gold.PLP.part.metal>
0.0000

> <Gold.PLP.part.buried>
-0.5638

> <Gold.PLP.part.nonpolar>
-47.0581

> <Gold.PLP.part.repulsive>
0.3246

> <Gold.PLP.ligand.clash>
0.0000

> <Gold.PLP.ligand.torsion>
0.5333

> <Gold.PLP.Chemscore.Hbond>
3.6000

> <Gold.PLP.Chemscore.CHOScore>
0.6386

> <Gold.PLP.Chemscore.Metal>
0.0000

> <Gold.Chemscore.Hbonds>
donor molecule, donor type, donor heavy atom, donor atom, acceptor molecule, acceptor atom, score
      L1  H    25    45       P1  7957  1.00
      L1  H    27    46       P1 10175  0.98
      P1  H  7989  7998       L1    22  0.55
      P1  H  7997  8009       L1    20  1.00
      L1  C     7    35       P1  8028  0.64

> <Gold.PLP.Chemscore.Internal.Correction>
0.1236

> <Gold.Rescore>
     Score         DG    S(hbond)    S(metal)    S(lipo)     H(rot)  DE(clash)    DE(int)     intcor
     13.23     -18.02       2.45        0.00     111.35       3.38       1.66       3.13       ----

> <Gold.Chemscore.Fitness>
13.2339

> <Gold.Chemscore.DG>
-18.0241

> <Gold.Chemscore.ZeroCoef>
-5.4800

> <Gold.Chemscore.Hbond>
2.4488

> <Gold.Chemscore.Metal>
0.0000

> <Gold.Chemscore.Lipo>
111.3455

> <Gold.Chemscore.Internal_Hbond>
0.0000

> <Gold.Chemscore.DEClash>
1.6634

> <Gold.Chemscore.DEInternal>
3.1269

> <Gold.Chemscore.Rot>
3.3837

> <Gold.Chemscore.Internal.Correction>
   9.000000E+99

> <Gold.Chemscore.Hbonds>
donor molecule, donor type, donor heavy atom, donor atom, acceptor molecule, acceptor atom, score
      L1  H    25    45       P1  7957  0.98
      L1  H    27    46       P1 10175  0.86
      P1  H  7989  7998       L1    22  0.03
      P1  H  7997  8009       L1    20  0.18

> <Gold.Chemscore.Hbond.Weighted>
-8.1789

> <Gold.Chemscore.Metal.Weighted>
-0.0000

> <Gold.Chemscore.Lipo.Weighted>
-13.0274

> <Gold.Chemscore.Internal_Hbond.Weighted>
0.0000

> <Gold.Chemscore.DEClash.Weighted>
1.6634

> <Gold.Chemscore.DEInternal.Weighted>
3.1269

> <Gold.Chemscore.Rot.Weighted>
8.6622

> <Gold.Chemscore.Internal.Correction.Weighted>
   9.000000E+99

> <Gold.Protein.RotatedTorsions>
[ 6907 6896 6895 6894 ] final  134.34 input  -60.11 | X-H torsion
[ 7974 7965 7964 7962 ] final  -50.82 input  175.53 | X-H torsion
[ 8008 7997 7996 7995 ] final -168.78 input   59.86 | X-H torsion
[ 10167 10162 10161 10158 ] final  -20.35 input  -65.29 | X-H torsion
[ 10718 10713 10712 10709 ] final -126.01 input   66.30 | X-H torsion
[ 10763 10752 10751 10750 ] final   15.06 input  -60.55 | X-H torsion
[ 11005 11000 10999 10996 ] final  166.01 input  -57.11 | X-H torsion

> <Gold.Protein.ActiveResidues>
 VAL166  LYS551  ARG553  GLY616  TRP617  ASP618  TYR619  PRO620  LYS621  CYS622 
 ASP623  PHE694  ASN695  SER759  ASP760  ASP761  ALA762  ILE779  LEU786  VAL792 
 PHE793  MET794  SER795  GLU796  ALA797  LYS798  CYS799  TRP800  GLU811  SER814 

> <Gold.Protein.RotatedAtoms>
  152.3123  133.5766  159.5688 H   0  0  0  0  0  0  0  0  0  0  0  0  # atno 6907 bound_to 6896
  150.7329  134.0134  159.3686 H   0  0  0  0  0  0  0  0  0  0  0  0  # atno 6908 bound_to 6896
  151.8025  135.0705  160.0453 H   0  0  0  0  0  0  0  0  0  0  0  0  # atno 6909 bound_to 6896
  145.9257  140.7794  142.9625 H   0  0  0  0  0  0  0  0  0  0  0  0  # atno 7974 bound_to 7965
  155.8961  140.1033  157.1384 H   0  0  0  0  0  0  0  0  0  0  0  0  # atno 8008 bound_to 7997
  154.4020  140.1301  156.4440 H   0  0  0  0  0  0  0  0  0  0  0  0  # atno 8009 bound_to 7997
  155.7478  140.3465  155.5138 H   0  0  0  0  0  0  0  0  0  0  0  0  # atno 8010 bound_to 7997
  140.7275  143.4730  151.0220 H   0  0  0  0  0  0  0  0  0  0  0  0  # atno 10167 bound_to 10162
  156.1726  130.6678  151.0200 H   0  0  0  0  0  0  0  0  0  0  0  0  # atno 10718 bound_to 10713
  153.1561  135.6787  153.8810 H   0  0  0  0  0  0  0  0  0  0  0  0  # atno 10763 bound_to 10752
  153.8221  135.3129  155.3412 H   0  0  0  0  0  0  0  0  0  0  0  0  # atno 10764 bound_to 10752
  154.7898  135.4841  154.0116 H   0  0  0  0  0  0  0  0  0  0  0  0  # atno 10765 bound_to 10752
  140.2620  134.7895  157.3598 H   0  0  0  0  0  0  0  0  0  0  0  0  # atno 11005 bound_to 11000
  144.6758  140.2047  143.7383 LP  0  0  0  0  0  0  0  0  0  0  0  0  # atno 17320 bound_to 7965
  145.8492  139.2167  143.1782 LP  0  0  0  0  0  0  0  0  0  0  0  0  # atno 17321 bound_to 7965
  139.8424  143.7546  152.3180 LP  0  0  0  0  0  0  0  0  0  0  0  0  # atno 17342 bound_to 10162
  139.7700  144.7479  151.0239 LP  0  0  0  0  0  0  0  0  0  0  0  0  # atno 17343 bound_to 10162
  157.6813  131.0837  150.7361 LP  0  0  0  0  0  0  0  0  0  0  0  0  # atno 17370 bound_to 10713
  156.7419  130.4742  149.5475 LP  0  0  0  0  0  0  0  0  0  0  0  0  # atno 17371 bound_to 10713
  140.1456  134.4916  155.7999 LP  0  0  0  0  0  0  0  0  0  0  0  0  # atno 17394 bound_to 11000
  141.2189  133.6842  156.7287 LP  0  0  0  0  0  0  0  0  0  0  0  0  # atno 17395 bound_to 11000

$$$$
