AV-unprocessed.smi:798|AV-procd|sdf|3782|dock10
  -GOLD-   22720 1213D 1   1.00000     0.00000
 Structure written by MMmdl.
 33 35  0  0  0  0  0  0  0  0  2 V2000
  151.9673  140.5285  157.8987 O   0  0  0  0  0  0  0  0  0  0  0  0
  151.2776  141.2217  157.1477 C   0  0  0  0  0  0  0  0  0  0  0  0
  150.9409  140.9298  155.8707 N   0  5  0  0  0  0  0  0  0  0  0  0
  151.3878  139.8002  155.2973 C   0  0  0  0  0  0  0  0  0  0  0  0
  152.6586  139.3855  155.4230 N   0  0  0  0  0  0  0  0  0  0  0  0
  152.9166  138.2023  154.7439 N   0  0  0  0  0  0  0  0  0  0  0  0
  151.8298  137.7565  154.1142 C   0  0  0  0  0  0  0  0  0  0  0  0
  150.3936  138.7420  154.2920 S   0  0  0  0  0  0  0  0  0  0  0  0
  150.7800  142.3881  157.5818 N   0  0  0  0  0  0  0  0  0  0  0  0
  150.9620  142.9569  158.9158 C   0  0  1  0  0  0  0  0  0  0  0  0
  152.4617  142.9969  159.2831 C   0  0  2  0  0  0  0  0  0  0  0  0
  152.5965  143.2196  160.8005 C   0  0  0  0  0  0  0  0  0  0  0  0
  152.1912  144.6971  160.9575 C   0  0  0  0  0  0  0  0  0  0  0  0
  151.8557  145.1197  159.5108 C   0  0  1  0  0  0  0  0  0  0  0  0
  152.9120  144.3466  158.7317 C   0  0  0  0  0  0  0  0  0  0  0  0
  150.5567  144.4520  158.9933 C   0  0  2  0  0  0  0  0  0  0  0  0
  149.2823  144.7160  159.8190 C   0  0  0  0  0  0  0  0  0  0  0  0
  148.1804  144.0296  159.2634 O   0  0  0  0  0  0  0  0  0  0  0  0
  151.8750  136.8442  153.5389 H   0  0  0  0  0  0  0  0  0  0  0  0
  150.2220  142.9223  156.9321 H   0  0  0  0  0  0  0  0  0  0  0  0
  150.4166  142.3483  159.6397 H   0  0  0  0  0  0  0  0  0  0  0  0
  153.0297  142.1375  158.9243 H   0  0  0  0  0  0  0  0  0  0  0  0
  151.9615  142.5483  161.3797 H   0  0  0  0  0  0  0  0  0  0  0  0
  153.6264  143.0686  161.1262 H   0  0  0  0  0  0  0  0  0  0  0  0
  151.3664  144.8392  161.6542 H   0  0  0  0  0  0  0  0  0  0  0  0
  153.0330  145.2787  161.3354 H   0  0  0  0  0  0  0  0  0  0  0  0
  151.8808  146.1988  159.3555 H   0  0  0  0  0  0  0  0  0  0  0  0
  153.9350  144.6080  159.0079 H   0  0  0  0  0  0  0  0  0  0  0  0
  152.8033  144.4317  157.6490 H   0  0  0  0  0  0  0  0  0  0  0  0
  150.3759  144.8275  157.9838 H   0  0  0  0  0  0  0  0  0  0  0  0
  149.4230  144.3634  160.8407 H   0  0  0  0  0  0  0  0  0  0  0  0
  149.0535  145.7788  159.8878 H   0  0  0  0  0  0  0  0  0  0  0  0
  147.8462  144.5367  158.5395 H   0  0  0  0  0  0  0  0  0  0  0  0
  1  2  2  0  0  0  0
  2  3  1  0  0  0  0
  2  9  1  0  0  0  0
  3  4  1  0  0  0  0
  4  8  1  0  0  0  0
  4  5  2  0  0  0  0
  5  6  1  0  0  0  0
  6  7  2  0  0  0  0
  7  8  1  0  0  0  0
  7 19  1  0  0  0  0
  9 10  1  0  0  0  0
  9 20  1  0  0  0  0
 10 16  1  0  0  0  0
 10 11  1  0  0  0  0
 10 21  1  0  0  0  0
 11 15  1  0  0  0  0
 11 12  1  0  0  0  0
 11 22  1  0  0  0  0
 12 13  1  0  0  0  0
 12 23  1  0  0  0  0
 12 24  1  0  0  0  0
 13 14  1  0  0  0  0
 13 25  1  0  0  0  0
 13 26  1  0  0  0  0
 14 15  1  0  0  0  0
 14 16  1  0  0  0  0
 14 27  1  0  0  0  0
 15 28  1  0  0  0  0
 15 29  1  0  0  0  0
 16 17  1  0  0  0  0
 16 30  1  0  0  0  0
 17 18  1  0  0  0  0
 17 31  1  0  0  0  0
 17 32  1  0  0  0  0
 18 33  1  0  0  0  0
M  CHG  1   3  -1
M  END
> <s_m_source_file>
AV-unprocessed.smi

> <i_m_source_file_index>
798

> <i_lp_mmshare_version>
43012

> <i_f3d_flags>
0

> <s_epik_input>
W0NIMl0xW0NIMl1bQ0BASF0oW0NIMl0yKVtDQEBIXShbQ0gyXVtPSF0pW0NAQEhdKFtDQEhdMTIpW05IXUMoPU8pW05IXWMzbm5bY0hdczM=

> <s_epik_cmdline>
J2VwaWtfcHl0aG9uJywgJy1waCcsICc3LjAnLCAnLXRuJywgJzgnLCAnLW1hJywgJzIwMCcsICctbWV0YWxfYmluZGluZycsICctaW1hZScsICc8aW5maWxlLm1hZT4nLCAnLW9tYWUnLCAnPG91dGZpbGUubWFlPic=

> <r_lp_tautomer_probability>
1

> <r_epik_Ionization_Penalty>
4.53732

> <r_epik_Ionization_Penalty_Charging>
4.48632

> <r_epik_Ionization_Penalty_Neutral>
0.0510007

> <r_epik_State_Penalty>
4.48602

> <r_epik_Charging_Adjusted_Penalty>
8.97234

> <i_epik_Tot_Q>
-1

> <i_epik_Tot_abs_Q>
1

> <r_epik_Metal_State_Penalty>
0.812492

> <b_epik_Metal_Only>
1

> <s_lp_Force_Field>
OPLS_2005

> <r_lp_Energy>
47.3152

> <b_lp_Chiralities_Consistent>
1

> <s_lp_Variant>
AV-unprocessed.smi:798-14

> <Gold.Version>
5.8.1

> <Gold.Id.Protein>
6NUR|6NUR_protein|mol2

> <Gold.PLP.Fitness>
48.7640

> <Gold.PLP.PLP>
-40.6728

> <Gold.PLP.part.hbond>
-2.8342

> <Gold.PLP.part.metal>
0.0000

> <Gold.PLP.part.buried>
-5.1210

> <Gold.PLP.part.nonpolar>
-32.1302

> <Gold.PLP.part.repulsive>
0.0905

> <Gold.PLP.ligand.clash>
0.0000

> <Gold.PLP.ligand.torsion>
0.4663

> <Gold.PLP.Chemscore.Hbond>
2.0000

> <Gold.PLP.Chemscore.CHOScore>
1.0000

> <Gold.PLP.Chemscore.Metal>
0.0000

> <Gold.Chemscore.Hbonds>
donor molecule, donor type, donor heavy atom, donor atom, acceptor molecule, acceptor atom, score
      L1  H    18    33       P1  8029  1.00
      P1  H  7997  8010       L1     5  1.00
      L1  C     7    19       P1  7949  1.00

> <Gold.PLP.Chemscore.Internal.Correction>
0.0238

> <Gold.Rescore>
     Score         DG    S(hbond)    S(metal)    S(lipo)     H(rot)  DE(clash)    DE(int)     intcor
     15.25     -18.59       1.77        0.00     103.47       1.92       0.18       3.16       ----

> <Gold.Chemscore.Fitness>
15.2478

> <Gold.Chemscore.DG>
-18.5863

> <Gold.Chemscore.ZeroCoef>
-5.4800

> <Gold.Chemscore.Hbond>
1.7717

> <Gold.Chemscore.Metal>
0.0000

> <Gold.Chemscore.Lipo>
103.4682

> <Gold.Chemscore.Internal_Hbond>
0.0000

> <Gold.Chemscore.DEClash>
0.1817

> <Gold.Chemscore.DEInternal>
3.1568

> <Gold.Chemscore.Rot>
1.9207

> <Gold.Chemscore.Internal.Correction>
   9.000000E+99

> <Gold.Chemscore.Hbonds>
donor molecule, donor type, donor heavy atom, donor atom, acceptor molecule, acceptor atom, score
      L1  H    18    33       P1  8029  0.92
      P1  H  7997  8010       L1     5  0.68

> <Gold.Chemscore.Hbond.Weighted>
-5.9174

> <Gold.Chemscore.Metal.Weighted>
-0.0000

> <Gold.Chemscore.Lipo.Weighted>
-12.1058

> <Gold.Chemscore.Internal_Hbond.Weighted>
0.0000

> <Gold.Chemscore.DEClash.Weighted>
0.1817

> <Gold.Chemscore.DEInternal.Weighted>
3.1568

> <Gold.Chemscore.Rot.Weighted>
4.9169

> <Gold.Chemscore.Internal.Correction.Weighted>
   9.000000E+99

> <Gold.Protein.RotatedTorsions>
[ 6907 6896 6895 6894 ] final  -86.84 input  -60.11 | X-H torsion
[ 7974 7965 7964 7962 ] final  -81.97 input  175.53 | X-H torsion
[ 8008 7997 7996 7995 ] final   92.45 input   59.86 | X-H torsion
[ 10167 10162 10161 10158 ] final  -26.44 input  -65.29 | X-H torsion
[ 10718 10713 10712 10709 ] final  120.98 input   66.30 | X-H torsion
[ 10763 10752 10751 10750 ] final  -85.20 input  -60.55 | X-H torsion
[ 11005 11000 10999 10996 ] final  109.31 input  -57.11 | X-H torsion

> <Gold.Protein.ActiveResidues>
 VAL166  LYS551  ARG553  GLY616  TRP617  ASP618  TYR619  PRO620  LYS621  CYS622 
 ASP623  PHE694  ASN695  SER759  ASP760  ASP761  ALA762  ILE779  LEU786  VAL792 
 PHE793  MET794  SER795  GLU796  ALA797  LYS798  CYS799  TRP800  GLU811  SER814 

> <Gold.Protein.RotatedAtoms>
  150.6866  134.2988  159.4697 H   0  0  0  0  0  0  0  0  0  0  0  0  # atno 6907 bound_to 6896
  152.0886  134.9420  160.0581 H   0  0  0  0  0  0  0  0  0  0  0  0  # atno 6908 bound_to 6896
  152.0745  133.4088  159.4511 H   0  0  0  0  0  0  0  0  0  0  0  0  # atno 6909 bound_to 6896
  145.5395  140.9511  143.1558 H   0  0  0  0  0  0  0  0  0  0  0  0  # atno 7974 bound_to 7965
  156.0355  140.3325  155.7186 H   0  0  0  0  0  0  0  0  0  0  0  0  # atno 8008 bound_to 7997
  155.5822  140.0638  157.2798 H   0  0  0  0  0  0  0  0  0  0  0  0  # atno 8009 bound_to 7997
  154.4371  140.1842  156.0976 H   0  0  0  0  0  0  0  0  0  0  0  0  # atno 8010 bound_to 7997
  140.7283  143.4178  151.1000 H   0  0  0  0  0  0  0  0  0  0  0  0  # atno 10167 bound_to 10162
  157.5851  131.1071  150.8110 H   0  0  0  0  0  0  0  0  0  0  0  0  # atno 10718 bound_to 10713
  154.6084  135.5493  153.7447 H   0  0  0  0  0  0  0  0  0  0  0  0  # atno 10763 bound_to 10752
  153.0184  135.6383  154.1614 H   0  0  0  0  0  0  0  0  0  0  0  0  # atno 10764 bound_to 10752
  154.1552  135.2900  155.3104 H   0  0  0  0  0  0  0  0  0  0  0  0  # atno 10765 bound_to 10752
  139.8860  134.9455  156.6107 H   0  0  0  0  0  0  0  0  0  0  0  0  # atno 11005 bound_to 11000
  144.7584  139.7017  143.7244 LP  0  0  0  0  0  0  0  0  0  0  0  0  # atno 17320 bound_to 7965
  146.1990  139.5274  142.9755 LP  0  0  0  0  0  0  0  0  0  0  0  0  # atno 17321 bound_to 7965
  139.7820  143.8341  152.3139 LP  0  0  0  0  0  0  0  0  0  0  0  0  # atno 17342 bound_to 10162
  139.8296  144.7260  150.9468 LP  0  0  0  0  0  0  0  0  0  0  0  0  # atno 17343 bound_to 10162
  156.8546  130.5092  149.5309 LP  0  0  0  0  0  0  0  0  0  0  0  0  # atno 17370 bound_to 10713
  156.0900  130.5888  150.9715 LP  0  0  0  0  0  0  0  0  0  0  0  0  # atno 17371 bound_to 10713
  140.7814  133.8657  155.8571 LP  0  0  0  0  0  0  0  0  0  0  0  0  # atno 17394 bound_to 11000
  140.9757  134.1472  157.4538 LP  0  0  0  0  0  0  0  0  0  0  0  0  # atno 17395 bound_to 11000

$$$$
