AV-unprocessed.smi:1362|AV-procd|sdf|5562|dock3
  -GOLD-   22720 5153D 1   1.00000     0.00000
 Structure written by MMmdl.
 38 38  0  0  0  0  0  0  0  0  2 V2000
  151.8997  145.7402  160.0921 C   0  0  0  0  0  0  0  0  0  0  0  0
  151.9006  144.2960  159.6388 C   0  0  0  0  0  0  0  0  0  0  0  0
  152.8131  143.5080  160.0647 N   0  0  0  0  0  0  0  0  0  0  0  0
  152.8194  142.1669  159.6451 C   0  0  0  0  0  0  0  0  0  0  0  0
  153.9404  141.3033  160.1966 C   0  0  0  0  0  0  0  0  0  0  0  0
  151.8685  141.6900  158.7917 C   0  0  0  0  0  0  0  0  0  0  0  0
  151.8347  140.2418  158.3019 C   0  0  0  0  0  0  0  0  0  0  0  0
  151.8060  140.0367  156.7850 C   0  0  0  0  0  0  0  0  0  0  0  0
  152.8143  139.6756  156.1773 O   0  0  0  0  0  0  0  0  0  0  0  0
  150.6305  140.2792  156.1849 N   0  0  0  0  0  0  0  0  0  0  0  0
  150.3613  140.1497  154.7533 C   0  0  2  0  0  0  0  0  0  0  0  0
  149.1221  140.9962  154.4031 C   0  0  0  0  0  0  0  0  0  0  0  0
  150.2104  138.6529  154.3716 C   0  0  0  0  0  0  0  0  0  0  0  0
  149.0869  137.9578  155.1661 C   0  0  0  0  0  0  0  0  0  0  0  0
  151.5225  137.8669  154.5463 C   0  0  0  0  0  0  0  0  0  0  0  0
  150.8305  142.6286  158.3296 C   0  0  0  0  0  0  0  0  0  0  0  0
  149.9400  142.2457  157.5716 O   0  0  0  0  0  0  0  0  0  0  0  0
  150.8982  143.9158  158.7747 N   0  5  0  0  0  0  0  0  0  0  0  0
  152.6070  145.8960  160.9077 H   0  0  0  0  0  0  0  0  0  0  0  0
  150.9083  146.0297  160.4422 H   0  0  0  0  0  0  0  0  0  0  0  0
  152.1796  146.3935  159.2654 H   0  0  0  0  0  0  0  0  0  0  0  0
  154.6003  140.9780  159.3923 H   0  0  0  0  0  0  0  0  0  0  0  0
  153.5374  140.4216  160.6949 H   0  0  0  0  0  0  0  0  0  0  0  0
  154.5414  141.8515  160.9231 H   0  0  0  0  0  0  0  0  0  0  0  0
  152.6753  139.6802  158.7105 H   0  0  0  0  0  0  0  0  0  0  0  0
  150.9515  139.7596  158.7212 H   0  0  0  0  0  0  0  0  0  0  0  0
  149.8588  140.5720  156.7661 H   0  0  0  0  0  0  0  0  0  0  0  0
  151.2134  140.5495  154.2003 H   0  0  0  0  0  0  0  0  0  0  0  0
  148.9509  141.0379  153.3280 H   0  0  0  0  0  0  0  0  0  0  0  0
  149.2402  142.0263  154.7409 H   0  0  0  0  0  0  0  0  0  0  0  0
  148.2226  140.5963  154.8722 H   0  0  0  0  0  0  0  0  0  0  0  0
  149.9390  138.5996  153.3163 H   0  0  0  0  0  0  0  0  0  0  0  0
  149.2719  138.0104  156.2394 H   0  0  0  0  0  0  0  0  0  0  0  0
  149.0082  136.9044  154.8957 H   0  0  0  0  0  0  0  0  0  0  0  0
  148.1126  138.4070  154.9741 H   0  0  0  0  0  0  0  0  0  0  0  0
  151.8919  137.9338  155.5701 H   0  0  0  0  0  0  0  0  0  0  0  0
  152.3053  138.2307  153.8816 H   0  0  0  0  0  0  0  0  0  0  0  0
  151.3804  136.8111  154.3146 H   0  0  0  0  0  0  0  0  0  0  0  0
  1  2  1  0  0  0  0
  1 19  1  0  0  0  0
  1 20  1  0  0  0  0
  1 21  1  0  0  0  0
  2 18  1  0  0  0  0
  2  3  2  0  0  0  0
  3  4  1  0  0  0  0
  4  5  1  0  0  0  0
  4  6  2  0  0  0  0
  5 22  1  0  0  0  0
  5 23  1  0  0  0  0
  5 24  1  0  0  0  0
  6  7  1  0  0  0  0
  6 16  1  0  0  0  0
  7  8  1  0  0  0  0
  7 25  1  0  0  0  0
  7 26  1  0  0  0  0
  8  9  2  0  0  0  0
  8 10  1  0  0  0  0
 10 11  1  0  0  0  0
 10 27  1  0  0  0  0
 11 12  1  0  0  0  0
 11 13  1  0  0  0  0
 11 28  1  0  0  0  0
 12 29  1  0  0  0  0
 12 30  1  0  0  0  0
 12 31  1  0  0  0  0
 13 14  1  0  0  0  0
 13 15  1  0  0  0  0
 13 32  1  0  0  0  0
 14 33  1  0  0  0  0
 14 34  1  0  0  0  0
 14 35  1  0  0  0  0
 15 36  1  0  0  0  0
 15 37  1  0  0  0  0
 15 38  1  0  0  0  0
 16 17  2  0  0  0  0
 16 18  1  0  0  0  0
M  CHG  1  18  -1
M  END
> <s_m_source_file>
AV-unprocessed.smi

> <i_m_source_file_index>
1362

> <i_lp_mmshare_version>
43012

> <i_f3d_flags>
0

> <s_epik_input>
W0NIM11jMW5jKFtDSDNdKWMoYyg9TylbbkhdMSlbQ0gyXUMoPU8pW05IXVtDQEhdKFtDSDNdKVtDSF0oW0NIM10pW0NIM10=

> <s_epik_cmdline>
J2VwaWtfcHl0aG9uJywgJy1waCcsICc3LjAnLCAnLXRuJywgJzgnLCAnLW1hJywgJzIwMCcsICctbWV0YWxfYmluZGluZycsICctaW1hZScsICc8aW5maWxlLm1hZT4nLCAnLW9tYWUnLCAnPG91dGZpbGUubWFlPic=

> <r_lp_tautomer_probability>
0.839158

> <r_epik_Ionization_Penalty>
6.62204

> <r_epik_Ionization_Penalty_Charging>
7.30593e-08

> <r_epik_Ionization_Penalty_Neutral>
6.62204

> <r_epik_State_Penalty>
4.44062

> <r_epik_Charging_Adjusted_Penalty>
4.44062

> <i_epik_Tot_Q>
-1

> <i_epik_Tot_abs_Q>
1

> <r_epik_Metal_State_Penalty>
0.802984

> <b_epik_Metal_Only>
1

> <s_lp_Force_Field>
OPLS_2005

> <r_lp_Energy>
10.6651

> <b_lp_Chiralities_Consistent>
1

> <s_lp_Variant>
AV-unprocessed.smi:1362-5

> <Gold.Version>
5.8.1

> <Gold.Id.Protein>
6NUR|6NUR_protein|mol2

> <Gold.PLP.Fitness>
40.0240

> <Gold.PLP.PLP>
-38.0186

> <Gold.PLP.part.hbond>
-1.0000

> <Gold.PLP.part.metal>
0.0000

> <Gold.PLP.part.buried>
-4.4367

> <Gold.PLP.part.nonpolar>
-33.3327

> <Gold.PLP.part.repulsive>
0.3288

> <Gold.PLP.ligand.clash>
0.0000

> <Gold.PLP.ligand.torsion>
0.5190

> <Gold.PLP.Chemscore.Hbond>
1.0000

> <Gold.PLP.Chemscore.CHOScore>
0.0000

> <Gold.PLP.Chemscore.Metal>
0.0000

> <Gold.Chemscore.Hbonds>
donor molecule, donor type, donor heavy atom, donor atom, acceptor molecule, acceptor atom, score
      P1  H  7997  8008       L1     9  1.00

> <Gold.PLP.Chemscore.Internal.Correction>
0.0434

> <Gold.Rescore>
     Score         DG    S(hbond)    S(metal)    S(lipo)     H(rot)  DE(clash)    DE(int)     intcor
     10.32     -13.85       0.97        0.00      79.71       1.64       0.05       3.48       ----

> <Gold.Chemscore.Fitness>
10.3170

> <Gold.Chemscore.DG>
-13.8461

> <Gold.Chemscore.ZeroCoef>
-5.4800

> <Gold.Chemscore.Hbond>
0.9720

> <Gold.Chemscore.Metal>
0.0000

> <Gold.Chemscore.Lipo>
79.7149

> <Gold.Chemscore.Internal_Hbond>
0.0000

> <Gold.Chemscore.DEClash>
0.0476

> <Gold.Chemscore.DEInternal>
3.4815

> <Gold.Chemscore.Rot>
1.6433

> <Gold.Chemscore.Internal.Correction>
   9.000000E+99

> <Gold.Chemscore.Hbonds>
donor molecule, donor type, donor heavy atom, donor atom, acceptor molecule, acceptor atom, score
      P1  H  7997  8008       L1     9  0.99

> <Gold.Chemscore.Hbond.Weighted>
-3.2464

> <Gold.Chemscore.Metal.Weighted>
-0.0000

> <Gold.Chemscore.Lipo.Weighted>
-9.3266

> <Gold.Chemscore.Internal_Hbond.Weighted>
0.0000

> <Gold.Chemscore.DEClash.Weighted>
0.0476

> <Gold.Chemscore.DEInternal.Weighted>
3.4815

> <Gold.Chemscore.Rot.Weighted>
4.2069

> <Gold.Chemscore.Internal.Correction.Weighted>
   9.000000E+99

> <Gold.Protein.RotatedTorsions>
[ 6907 6896 6895 6894 ] final   52.79 input  -60.11 | X-H torsion
[ 7974 7965 7964 7962 ] final  -54.81 input  175.53 | X-H torsion
[ 8008 7997 7996 7995 ] final  -35.27 input   59.86 | X-H torsion
[ 10167 10162 10161 10158 ] final   39.30 input  -65.29 | X-H torsion
[ 10718 10713 10712 10709 ] final    8.26 input   66.30 | X-H torsion
[ 10763 10752 10751 10750 ] final  125.19 input  -60.55 | X-H torsion
[ 11005 11000 10999 10996 ] final  145.12 input  -57.11 | X-H torsion

> <Gold.Protein.ActiveResidues>
 VAL166  LYS551  ARG553  GLY616  TRP617  ASP618  TYR619  PRO620  LYS621  CYS622 
 ASP623  PHE694  ASN695  SER759  ASP760  ASP761  ALA762  ILE779  LEU786  VAL792 
 PHE793  MET794  SER795  GLU796  ALA797  LYS798  CYS799  TRP800  GLU811  SER814 

> <Gold.Protein.RotatedAtoms>
  152.3269  134.7309  160.0299 H   0  0  0  0  0  0  0  0  0  0  0  0  # atno 6907 bound_to 6896
  151.7739  133.3338  159.3460 H   0  0  0  0  0  0  0  0  0  0  0  0  # atno 6908 bound_to 6896
  150.7401  134.5925  159.6039 H   0  0  0  0  0  0  0  0  0  0  0  0  # atno 6909 bound_to 6896
  145.8813  140.8142  142.9838 H   0  0  0  0  0  0  0  0  0  0  0  0  # atno 7974 bound_to 7965
  154.4099  140.1661  156.2184 H   0  0  0  0  0  0  0  0  0  0  0  0  # atno 8008 bound_to 7997
  155.9384  140.3410  155.6284 H   0  0  0  0  0  0  0  0  0  0  0  0  # atno 8009 bound_to 7997
  155.7019  140.0746  157.2397 H   0  0  0  0  0  0  0  0  0  0  0  0  # atno 8010 bound_to 7997
  140.3853  144.1925  150.6130 H   0  0  0  0  0  0  0  0  0  0  0  0  # atno 10167 bound_to 10162
  156.9490  130.5890  149.5656 H   0  0  0  0  0  0  0  0  0  0  0  0  # atno 10718 bound_to 10713
  153.6734  135.3326  155.3159 H   0  0  0  0  0  0  0  0  0  0  0  0  # atno 10763 bound_to 10752
  154.8485  135.4391  154.1682 H   0  0  0  0  0  0  0  0  0  0  0  0  # atno 10764 bound_to 10752
  153.2679  135.6997  153.7587 H   0  0  0  0  0  0  0  0  0  0  0  0  # atno 10765 bound_to 10752
  140.0687  134.9164  157.1308 H   0  0  0  0  0  0  0  0  0  0  0  0  # atno 11005 bound_to 11000
  144.6727  140.1388  143.7438 LP  0  0  0  0  0  0  0  0  0  0  0  0  # atno 17320 bound_to 7965
  145.9020  139.2436  143.1488 LP  0  0  0  0  0  0  0  0  0  0  0  0  # atno 17321 bound_to 7965
  140.4895  143.2352  151.8839 LP  0  0  0  0  0  0  0  0  0  0  0  0  # atno 17342 bound_to 10162
  139.4792  144.5181  151.8840 LP  0  0  0  0  0  0  0  0  0  0  0  0  # atno 17343 bound_to 10162
  156.0371  130.5457  150.8680 LP  0  0  0  0  0  0  0  0  0  0  0  0  # atno 17370 bound_to 10713
  157.5734  131.0946  150.9383 LP  0  0  0  0  0  0  0  0  0  0  0  0  # atno 17371 bound_to 10713
  140.3660  134.2442  155.7182 LP  0  0  0  0  0  0  0  0  0  0  0  0  # atno 17394 bound_to 11000
  141.2003  133.7990  157.0495 LP  0  0  0  0  0  0  0  0  0  0  0  0  # atno 17395 bound_to 11000

$$$$
