#       Name:                AV-unprocessed.smi:837
#       Creating user name   scv26
#       Creation time:       Fri Mar 27 01:36:28 2020


#       File generated by GOLD software.
#

@<TRIPOS>MOLECULE
AV-unprocessed.smi:837
    56    58     1
SMALL
NO_CHARGES


@<TRIPOS>ATOM
      1 ****        -3.9854   1.9701   0.0951 C.3            1 S1                 0.0000
      2 ****        -2.9303   2.9002  -0.5427 C.3            1 S1                 0.0000
      3 ****        -3.2621   4.3806  -0.2537 C.3            1 S1                 0.0000
      4 ****        -2.2918   5.3348  -0.9657 C.3            1 S1                 0.0000
      5 ****        -0.8372   5.0322  -0.5840 C.3            1 S1                 0.0000
      6 ****        -0.4795   3.5637  -0.8719 C.3            1 S1                 0.0000
      7 ****        -1.4459   2.5656  -0.1816 C.3            1 S1                 0.0000
      8 ****        -1.2242   2.5677   1.2561 N.pl3          1 S1                -1.0000
      9 ****        -0.7749   1.3486   1.6337 C.2            1 S1                 0.0000
     10 ****        -0.4703   0.9980   2.7734 O.2            1 S1                 0.0000
     11 ****        -0.6905   0.5155   0.5791 N.am           1 S1                 0.0000
     12 ****        -0.2180  -0.8736   0.6453 C.3            1 S1                 0.0000
     13 ****         1.3118  -0.9817   0.5980 C.2            1 S1                 0.0000
     14 ****         1.9760  -0.2156  -0.1013 O.2            1 S1                 0.0000
     15 ****         1.8572  -1.9636   1.3312 N.am           1 S1                 0.0000
     16 ****         3.2860  -2.2471   1.4198 C.3            1 S1                 0.0000
     17 ****         3.8137  -3.0168   0.1941 C.3            1 S1                 0.0000
     18 ****         3.0372  -4.2896  -0.0956 C.ar           1 S1                 0.0000
     19 ****         2.0763  -4.3364  -1.1271 C.ar           1 S1                 0.0000
     20 ****         1.3778  -5.5389  -1.3485 C.ar           1 S1                 0.0000
     21 ****         1.6708  -6.6459  -0.5272 C.ar           1 S1                 0.0000
     22 ****         2.5885  -6.6125   0.4629 N.ar           1 S1                 0.0000
     23 ****         3.2547  -5.4560   0.6679 C.ar           1 S1                 0.0000
     24 ****        -1.0615   1.1378  -0.5454 C.2            1 S1                 0.0000
     25 ****        -1.0966   0.6713  -1.6852 O.2            1 S1                 0.0000
     26 ****        -3.9748   2.0386   1.1830 H              1 S1                 0.0000
     27 ****        -3.8260   0.9265  -0.1753 H              1 S1                 0.0000
     28 ****        -4.9885   2.2365  -0.2379 H              1 S1                 0.0000
     29 ****        -3.0296   2.7705  -1.6219 H              1 S1                 0.0000
     30 ****        -4.2812   4.6022  -0.5723 H              1 S1                 0.0000
     31 ****        -3.2323   4.5649   0.8211 H              1 S1                 0.0000
     32 ****        -2.4141   5.2433  -2.0457 H              1 S1                 0.0000
     33 ****        -2.5342   6.3673  -0.7125 H              1 S1                 0.0000
     34 ****        -0.1649   5.6914  -1.1334 H              1 S1                 0.0000
     35 ****        -0.6831   5.2498   0.4736 H              1 S1                 0.0000
     36 ****        -0.5065   3.4093  -1.9518 H              1 S1                 0.0000
     37 ****         0.5521   3.3740  -0.5696 H              1 S1                 0.0000
     38 ****        -0.5965  -1.3461   1.5535 H              1 S1                 0.0000
     39 ****        -0.6278  -1.4555  -0.1818 H              1 S1                 0.0000
     40 ****         1.2393  -2.5521   1.8709 H              1 S1                 0.0000
     41 ****         3.8464  -1.3211   1.5568 H              1 S1                 0.0000
     42 ****         3.4485  -2.8394   2.3208 H              1 S1                 0.0000
     43 ****         3.7860  -2.3739  -0.6866 H              1 S1                 0.0000
     44 ****         4.8630  -3.2722   0.3463 H              1 S1                 0.0000
     45 ****         1.8737  -3.4666  -1.7349 H              1 S1                 0.0000
     46 ****         0.6340  -5.6109  -2.1281 H              1 S1                 0.0000
     47 ****         1.1533  -7.5831  -0.6684 H              1 S1                 0.0000
     48 ****         3.9797  -5.4599   1.4685 H              1 S1                 0.0000
     49 ****        -1.3788   3.3445   1.8666 LP             1 S1                 0.0000
     50 ****        -0.5455   1.6447   3.5324 LP             1 S1                 0.0000
     51 ****        -0.1476   0.0663   2.9405 LP             1 S1                 0.0000
     52 ****         1.5188   0.4869  -0.6467 LP             1 S1                 0.0000
     53 ****         2.9725  -0.2961  -0.1237 LP             1 S1                 0.0000
     54 ****         2.7690  -7.4187   1.0264 LP             1 S1                 0.0000
     55 ****        -1.3937   1.2425  -2.4503 LP             1 S1                 0.0000
     56 ****        -0.8279  -0.2786  -1.8452 LP             1 S1                 0.0000
@<TRIPOS>BOND
    1    1    2 1     
    2    1   26 1     
    3    1   27 1     
    4    1   28 1     
    5    2    7 1     
    6    2    3 1     
    7    2   29 1     
    8    3    4 1     
    9    3   30 1     
   10    3   31 1     
   11    4    5 1     
   12    4   32 1     
   13    4   33 1     
   14    5    6 1     
   15    5   34 1     
   16    5   35 1     
   17    6    7 1     
   18    6   36 1     
   19    6   37 1     
   20    7   24 1     
   21    7    8 1     
   22    8    9 1     
   23    9   10 2     
   24    9   11 am    
   25   11   12 1     
   26   11   24 am    
   27   12   13 1     
   28   12   38 1     
   29   12   39 1     
   30   13   14 2     
   31   13   15 am    
   32   15   16 1     
   33   15   40 1     
   34   16   17 1     
   35   16   41 1     
   36   16   42 1     
   37   17   18 1     
   38   17   43 1     
   39   17   44 1     
   40   18   23 ar    
   41   18   19 ar    
   42   19   20 ar    
   43   19   45 1     
   44   20   21 ar    
   45   20   46 1     
   46   21   22 ar    
   47   21   47 1     
   48   22   23 ar    
   49   23   48 1     
   50   24   25 2     
   51    8   49 1     
   52   10   50 1     
   53   10   51 1     
   54   14   52 1     
   55   14   53 1     
   56   22   54 1     
   57   25   55 1     
   58   25   56 1     
@<TRIPOS>SUBSTRUCTURE
      1 S1             1
@<TRIPOS>SET
LONE_PAIRS      STATIC     ATOMS    <user>   **** ""
8 49 50 51 52 53 54 55 56
DONOR_HYDROGENS      STATIC     ATOMS    <user>   **** ""
1 40
ATOM$BLUE        STATIC     ATOMS    COLORGROUP SYSTEM
8 49 50 51 52 53 54 55 56
ATOM$RED        STATIC     ATOMS    COLORGROUP SYSTEM
1 40
