#       Name:                AV-unprocessed.smi:897
#       Creating user name   scv26
#       Creation time:       Fri Mar 27 01:57:00 2020


#       File generated by GOLD software.
#

@<TRIPOS>MOLECULE
AV-unprocessed.smi:897
    39    41     1
SMALL
NO_CHARGES


@<TRIPOS>ATOM
      1 ****        -3.2532   2.2594  -0.1922 C.3            1 S1                 0.0000
      2 ****        -2.6145   0.8917  -0.3122 C.ar           1 S1                 0.0000
      3 ****        -3.3830  -0.2804  -0.1868 C.ar           1 S1                 0.0000
      4 ****        -2.7382  -1.5280  -0.3065 C.ar           1 S1                 0.0000
      5 ****        -3.5600  -2.8017  -0.1756 C.3            1 S1                 0.0000
      6 ****        -1.3392  -1.5522  -0.5459 C.ar           1 S1                 0.0000
      7 ****        -0.6301  -2.8243  -0.6704 C.1            1 S1                 0.0000
      8 ****        -0.0683  -3.8310  -0.7687 N.1            1 S1                 0.0000
      9 ****        -0.6509  -0.3121  -0.6548 C.ar           1 S1                 0.0000
     10 ****         0.7354  -0.2837  -0.8960 N.pl3          1 S1                 0.0000
     11 ****         1.5201   0.9265  -0.6693 C.3            1 S1                 0.0000
     12 ****         2.9869   0.7721  -1.0780 C.3            1 S1                 0.0000
     13 ****         3.7187   1.1966   0.2033 C.3            1 S1                 0.0000
     14 ****         3.6414   0.1095   1.2829 C.3            1 S1                 0.0000
     15 ****         2.1815   0.2104   1.7205 C.3            1 S1                 0.0000
     16 ****         1.6537   1.3343   0.8122 C.3            1 S1                 0.0000
     17 ****         2.8109   2.1493   0.7312 O.3            1 S1                 0.0000
     18 ****        -1.2862   0.8784  -0.5408 N.ar           1 S1                 0.0000
     19 ****        -4.3401   2.1851  -0.1481 H              1 S1                 0.0000
     20 ****        -2.9904   2.8794  -1.0497 H              1 S1                 0.0000
     21 ****        -2.9076   2.7591   0.7129 H              1 S1                 0.0000
     22 ****        -4.4461  -0.2226  -0.0034 H              1 S1                 0.0000
     23 ****        -3.1957  -3.4098   0.6529 H              1 S1                 0.0000
     24 ****        -3.5004  -3.3912  -1.0912 H              1 S1                 0.0000
     25 ****        -4.6111  -2.5792   0.0111 H              1 S1                 0.0000
     26 ****         1.2318  -1.1619  -0.9441 H              1 S1                 0.0000
     27 ****         1.0882   1.7509  -1.2388 H              1 S1                 0.0000
     28 ****         3.2554  -0.2403  -1.3838 H              1 S1                 0.0000
     29 ****         3.2211   1.4465  -1.9023 H              1 S1                 0.0000
     30 ****         4.7254   1.5789   0.0323 H              1 S1                 0.0000
     31 ****         3.9022  -0.8774   0.8992 H              1 S1                 0.0000
     32 ****         4.3068   0.3403   2.1156 H              1 S1                 0.0000
     33 ****         1.6360  -0.7265   1.6058 H              1 S1                 0.0000
     34 ****         2.1203   0.5063   2.7683 H              1 S1                 0.0000
     35 ****         0.7784   1.8474   1.2112 H              1 S1                 0.0000
     36 ****         0.4173  -4.7011  -0.8537 LP             1 S1                 0.0000
     37 ****         2.6805   2.9249   0.1136 LP             1 S1                 0.0000
     38 ****         3.0979   2.4829   1.6292 LP             1 S1                 0.0000
     39 ****        -0.7773   1.7351  -0.6250 LP             1 S1                 0.0000
@<TRIPOS>BOND
    1    1    2 1     
    2    1   19 1     
    3    1   20 1     
    4    1   21 1     
    5    2   18 ar    
    6    2    3 ar    
    7    3    4 ar    
    8    3   22 1     
    9    4    5 1     
   10    4    6 ar    
   11    5   23 1     
   12    5   24 1     
   13    5   25 1     
   14    6    7 1     
   15    6    9 ar    
   16    7    8 3     
   17    9   10 1     
   18    9   18 ar    
   19   10   11 1     
   20   10   26 1     
   21   11   16 1     
   22   11   12 1     
   23   11   27 1     
   24   12   13 1     
   25   12   28 1     
   26   12   29 1     
   27   13   17 1     
   28   13   14 1     
   29   13   30 1     
   30   14   15 1     
   31   14   31 1     
   32   14   32 1     
   33   15   16 1     
   34   15   33 1     
   35   15   34 1     
   36   16   17 1     
   37   16   35 1     
   38    8   36 1     
   39   17   37 1     
   40   17   38 1     
   41   18   39 1     
@<TRIPOS>SUBSTRUCTURE
      1 S1             1
@<TRIPOS>SET
LONE_PAIRS      STATIC     ATOMS    <user>   **** ""
4 36 37 38 39
DONOR_HYDROGENS      STATIC     ATOMS    <user>   **** ""
1 26
ATOM$BLUE        STATIC     ATOMS    COLORGROUP SYSTEM
4 36 37 38 39
ATOM$RED        STATIC     ATOMS    COLORGROUP SYSTEM
1 26
