#       Name:                AV-unprocessed.smi:2667
#       Creating user name   scv26
#       Creation time:       Fri Mar 27 14:35:45 2020


#       File generated by GOLD software.
#

@<TRIPOS>MOLECULE
AV-unprocessed.smi:2667
    51    53     1
SMALL
NO_CHARGES


@<TRIPOS>ATOM
      1 ****        -4.5773   5.6136  -0.6773 C.3            1 S1                 0.0000
      2 ****        -3.7019   4.3512  -0.6332 C.3            1 S1                 0.0000
      3 ****        -2.2155   4.6315  -0.3626 C.2            1 S1                 0.0000
      4 ****        -1.8305   5.7910  -0.2048 O.2            1 S1                 0.0000
      5 ****        -1.2963   3.4580  -0.3025 C.ar           1 S1                 0.0000
      6 ****        -1.7597   2.1335  -0.4816 C.ar           1 S1                 0.0000
      7 ****        -0.8643   1.0489  -0.4165 C.ar           1 S1                 0.0000
      8 ****         0.5068   1.2558  -0.1708 C.ar           1 S1                 0.0000
      9 ****         1.3067   0.1359  -0.1177 O.3            1 S1                 0.0000
     10 ****         2.6858   0.2996   0.1836 C.3            1 S1                 0.0000
     11 ****         3.3925  -1.0652   0.2987 C.3            1 S1                 0.0000
     12 ****         3.4488  -1.6655  -0.9787 O.3            1 S1                 0.0000
     13 ****         2.8537  -2.0323   1.3824 C.3            1 S1                 0.0000
     14 ****         1.4450  -2.4309   1.2302 N.pl3          1 S1                 0.0000
     15 ****         0.3259  -1.9023   1.7979 C.2            1 S1                 0.0000
     16 ****        -0.7427  -2.6157   1.3481 N.pl3          1 S1                 1.0000
     17 ****        -0.3004  -3.6287   0.4952 C.ar           1 S1                 0.0000
     18 ****        -1.0059  -4.6083  -0.1971 C.ar           1 S1                 0.0000
     19 ****        -0.2461  -5.5005  -0.9817 C.ar           1 S1                 0.0000
     20 ****         1.1584  -5.4009  -1.0544 C.ar           1 S1                 0.0000
     21 ****         1.8631  -4.4041  -0.3478 C.ar           1 S1                 0.0000
     22 ****         1.1051  -3.5216   0.4210 C.ar           1 S1                 0.0000
     23 ****         0.9743   2.5806   0.0054 C.ar           1 S1                 0.0000
     24 ****         0.0802   3.6666  -0.0596 C.ar           1 S1                 0.0000
     25 ****        -5.6183   5.3509  -0.8658 H              1 S1                 0.0000
     26 ****        -4.2601   6.2908  -1.4712 H              1 S1                 0.0000
     27 ****        -4.5412   6.1573   0.2675 H              1 S1                 0.0000
     28 ****        -4.0763   3.6827   0.1423 H              1 S1                 0.0000
     29 ****        -3.7890   3.8211  -1.5820 H              1 S1                 0.0000
     30 ****        -2.8013   1.9220  -0.6709 H              1 S1                 0.0000
     31 ****        -1.2352   0.0439  -0.5557 H              1 S1                 0.0000
     32 ****         3.1694   0.9052  -0.5846 H              1 S1                 0.0000
     33 ****         2.7909   0.8254   1.1339 H              1 S1                 0.0000
     34 ****         4.4306  -0.8555   0.5587 H              1 S1                 0.0000
     35 ****         4.0306  -2.4086  -0.9360 H              1 S1                 0.0000
     36 ****         3.4645  -2.9343   1.4321 H              1 S1                 0.0000
     37 ****         2.9425  -1.5587   2.3610 H              1 S1                 0.0000
     38 ****         0.2912  -1.0569   2.4703 H              1 S1                 0.0000
     39 ****        -2.0815  -4.6891  -0.1408 H              1 S1                 0.0000
     40 ****        -0.7505  -6.2778  -1.5377 H              1 S1                 0.0000
     41 ****         1.7069  -6.1030  -1.6652 H              1 S1                 0.0000
     42 ****         2.9386  -4.3371  -0.4111 H              1 S1                 0.0000
     43 ****         2.0161   2.7923   0.1914 H              1 S1                 0.0000
     44 ****         0.4684   4.6653   0.0801 H              1 S1                 0.0000
     45 ****        -1.7017  -2.4250   1.6088 H              1 S1                 0.0000
     46 ****        -2.4845   6.5459  -0.2530 LP             1 S1                 0.0000
     47 ****        -0.8640   5.9773  -0.0285 LP             1 S1                 0.0000
     48 ****         1.2509  -0.3091  -1.0115 LP             1 S1                 0.0000
     49 ****         0.9221  -0.4685   0.5800 LP             1 S1                 0.0000
     50 ****         3.7932  -1.0056  -1.6465 LP             1 S1                 0.0000
     51 ****         2.5349  -1.9679  -1.2497 LP             1 S1                 0.0000
@<TRIPOS>BOND
    1    1    2 1     
    2    1   25 1     
    3    1   26 1     
    4    1   27 1     
    5    2    3 1     
    6    2   28 1     
    7    2   29 1     
    8    3    4 2     
    9    3    5 1     
   10    5   24 ar    
   11    5    6 ar    
   12    6    7 ar    
   13    6   30 1     
   14    7    8 ar    
   15    7   31 1     
   16    8    9 1     
   17    8   23 ar    
   18    9   10 1     
   19   10   11 1     
   20   10   32 1     
   21   10   33 1     
   22   11   12 1     
   23   11   13 1     
   24   11   34 1     
   25   12   35 1     
   26   13   14 1     
   27   13   36 1     
   28   13   37 1     
   29   14   22 1     
   30   14   15 1     
   31   15   16 2     
   32   15   38 1     
   33   16   17 1     
   34   16   45 1     
   35   17   22 ar    
   36   17   18 ar    
   37   18   19 ar    
   38   18   39 1     
   39   19   20 ar    
   40   19   40 1     
   41   20   21 ar    
   42   20   41 1     
   43   21   22 ar    
   44   21   42 1     
   45   23   24 ar    
   46   23   43 1     
   47   24   44 1     
   48    4   46 1     
   49    4   47 1     
   50    9   48 1     
   51    9   49 1     
   52   12   50 1     
   53   12   51 1     
@<TRIPOS>SUBSTRUCTURE
      1 S1             1
@<TRIPOS>SET
LONE_PAIRS      STATIC     ATOMS    <user>   **** ""
6 46 47 48 49 50 51
DONOR_HYDROGENS      STATIC     ATOMS    <user>   **** ""
2 35 45
ATOM$BLUE        STATIC     ATOMS    COLORGROUP SYSTEM
6 46 47 48 49 50 51
ATOM$RED        STATIC     ATOMS    COLORGROUP SYSTEM
2 35 45
