#       Name:                AV-unprocessed.smi:2528
#       Creating user name   scv26
#       Creation time:       Fri Mar 27 13:59:10 2020


#       File generated by GOLD software.
#

@<TRIPOS>MOLECULE
AV-unprocessed.smi:2528
    49    51     1
SMALL
NO_CHARGES


@<TRIPOS>ATOM
      1 ****        -1.4662   2.7846   0.2853 O.2            1 S1                 0.0000
      2 ****        -1.9606   1.7049   0.6109 C.2            1 S1                 0.0000
      3 ****        -1.2294   0.6122   0.8748 N.am           1 S1                 0.0000
      4 ****         0.2267   0.5510   0.8088 C.3            1 S1                 0.0000
      5 ****         0.7268   0.3887  -0.6449 C.3            1 S1                 0.0000
      6 ****         2.2623   0.3812  -0.7659 C.3            1 S1                 0.0000
      7 ****         2.8393  -0.8862  -0.2604 N.4            1 S1                 1.0000
      8 ****         4.3226  -0.8939  -0.3348 C.3            1 S1                 0.0000
      9 ****         4.9028  -2.1813   0.2703 C.3            1 S1                 0.0000
     10 ****         4.3163  -3.4172  -0.4226 C.3            1 S1                 0.0000
     11 ****         2.7842  -3.3784  -0.3506 C.3            1 S1                 0.0000
     12 ****         2.2250  -2.0637  -0.9321 C.3            1 S1                 0.0000
     13 ****         0.6918  -2.0064  -0.7939 C.3            1 S1                 0.0000
     14 ****         0.1911  -0.7685  -1.2875 O.3            1 S1                 0.0000
     15 ****        -3.2758   1.4585   0.7435 N.am           1 S1                 0.0000
     16 ****        -4.3593   2.3602   0.5662 C.ar           1 S1                 0.0000
     17 ****        -5.6421   1.8007   0.7623 C.ar           1 S1                 0.0000
     18 ****        -6.7828   2.6131   0.6127 C.ar           1 S1                 0.0000
     19 ****        -6.6113   3.9663   0.2707 C.ar           1 S1                 0.0000
     20 ****        -5.3000   4.4440   0.0928 C.ar           1 S1                 0.0000
     21 ****        -4.2052   3.6671   0.2357 N.ar           1 S1                 0.0000
     22 ****        -1.7126  -0.2358   1.1335 H              1 S1                 0.0000
     23 ****         0.6488   1.4564   1.2484 H              1 S1                 0.0000
     24 ****         0.5670  -0.2681   1.4413 H              1 S1                 0.0000
     25 ****         0.3659   1.2467  -1.2132 H              1 S1                 0.0000
     26 ****         2.5445   0.5067  -1.8126 H              1 S1                 0.0000
     27 ****         2.6858   1.2275  -0.2233 H              1 S1                 0.0000
     28 ****         4.6377  -0.7950  -1.3750 H              1 S1                 0.0000
     29 ****         4.7186  -0.0299   0.2003 H              1 S1                 0.0000
     30 ****         5.9892  -2.1814   0.1774 H              1 S1                 0.0000
     31 ****         4.6825  -2.2181   1.3381 H              1 S1                 0.0000
     32 ****         4.6373  -3.4440  -1.4648 H              1 S1                 0.0000
     33 ****         4.6941  -4.3269   0.0453 H              1 S1                 0.0000
     34 ****         2.3703  -4.2313  -0.8896 H              1 S1                 0.0000
     35 ****         2.4688  -3.4880   0.6881 H              1 S1                 0.0000
     36 ****         2.4773  -2.0168  -1.9931 H              1 S1                 0.0000
     37 ****         0.2362  -2.8120  -1.3701 H              1 S1                 0.0000
     38 ****         0.3826  -2.1591   0.2402 H              1 S1                 0.0000
     39 ****        -3.5334   0.5191   1.0070 H              1 S1                 0.0000
     40 ****        -5.7563   0.7591   1.0253 H              1 S1                 0.0000
     41 ****        -7.7717   2.2043   0.7590 H              1 S1                 0.0000
     42 ****        -7.4617   4.6206   0.1479 H              1 S1                 0.0000
     43 ****        -5.1246   5.4765  -0.1702 H              1 S1                 0.0000
     44 ****         2.5967  -0.9488   0.7180 H              1 S1                 0.0000
     45 ****        -0.4735   2.8767   0.2069 LP             1 S1                 0.0000
     46 ****        -2.0573   3.5694   0.0993 LP             1 S1                 0.0000
     47 ****         0.4064  -0.7115  -2.2624 LP             1 S1                 0.0000
     48 ****        -0.8013  -0.7622  -1.1644 LP             1 S1                 0.0000
     49 ****        -3.2916   4.0503   0.0996 LP             1 S1                 0.0000
@<TRIPOS>BOND
    1    1    2 2     
    2    2    3 am    
    3    2   15 am    
    4    3    4 1     
    5    3   22 1     
    6    4    5 1     
    7    4   23 1     
    8    4   24 1     
    9    5   14 1     
   10    5    6 1     
   11    5   25 1     
   12    6    7 1     
   13    6   26 1     
   14    6   27 1     
   15    7   12 1     
   16    7    8 1     
   17    7   44 1     
   18    8    9 1     
   19    8   28 1     
   20    8   29 1     
   21    9   10 1     
   22    9   30 1     
   23    9   31 1     
   24   10   11 1     
   25   10   32 1     
   26   10   33 1     
   27   11   12 1     
   28   11   34 1     
   29   11   35 1     
   30   12   13 1     
   31   12   36 1     
   32   13   14 1     
   33   13   37 1     
   34   13   38 1     
   35   15   16 1     
   36   15   39 1     
   37   16   21 ar    
   38   16   17 ar    
   39   17   18 ar    
   40   17   40 1     
   41   18   19 ar    
   42   18   41 1     
   43   19   20 ar    
   44   19   42 1     
   45   20   21 ar    
   46   20   43 1     
   47    1   45 1     
   48    1   46 1     
   49   14   47 1     
   50   14   48 1     
   51   21   49 1     
@<TRIPOS>SUBSTRUCTURE
      1 S1             1
@<TRIPOS>SET
LONE_PAIRS      STATIC     ATOMS    <user>   **** ""
5 45 46 47 48 49
DONOR_HYDROGENS      STATIC     ATOMS    <user>   **** ""
3 22 44 39
ATOM$BLUE        STATIC     ATOMS    COLORGROUP SYSTEM
5 45 46 47 48 49
ATOM$RED        STATIC     ATOMS    COLORGROUP SYSTEM
3 22 44 39
