AV-unprocessed.smi:297|AV-procd|sdf|2259|dock2
  -GOLD-   2262022143D 1   1.00000     0.00000
 Structure written by MMmdl.
 29 30  0  0  0  0  0  0  0  0  1 V2000
  155.2033  138.9024  160.7425 N   0  0  0  0  0  0  0  0  0  0  0  0
  154.4330  139.6120  160.2501 C   0  0  0  0  0  0  0  0  0  0  0  0
  153.4646  140.5044  159.6316 C   0  0  0  0  0  0  0  0  0  0  0  0
  153.0745  140.1952  158.3750 N   0  0  0  0  0  0  0  0  0  0  0  0
  152.1714  140.9908  157.7546 C   0  0  0  0  0  0  0  0  0  0  0  0
  151.7709  140.6556  156.4537 N   0  0  0  0  0  0  0  0  0  0  0  0
  152.1174  139.2935  156.0701 C   0  0  0  0  0  0  0  0  0  0  0  0
  151.7536  139.0574  154.5957 C   0  0  0  0  0  0  0  0  0  0  0  0
  150.3711  139.3372  154.3969 O   0  0  0  0  0  0  0  0  0  0  0  0
  150.0374  140.6936  154.6997 C   0  0  1  0  0  0  0  0  0  0  0  0
  148.5513  140.9253  154.3879 C   0  0  0  0  0  0  0  0  0  0  0  0
  148.1455  140.7105  153.1331 N   0  0  0  0  0  0  0  0  0  0  0  0
  147.7760  141.3108  155.2613 O   0  0  0  0  0  0  0  0  0  0  0  0
  150.3749  140.9764  156.1813 C   0  0  0  0  0  0  0  0  0  0  0  0
  151.6202  142.1333  158.3683 C   0  0  0  0  0  0  0  0  0  0  0  0
  152.0266  142.4583  159.6757 C   0  0  0  0  0  0  0  0  0  0  0  0
  152.9653  141.6339  160.3262 C   0  0  0  0  0  0  0  0  0  0  0  0
  153.4682  142.0275  161.9350 Cl  0  0  0  0  0  0  0  0  0  0  0  0
  153.1840  139.1260  156.2248 H   0  0  0  0  0  0  0  0  0  0  0  0
  151.5825  138.5822  156.7013 H   0  0  0  0  0  0  0  0  0  0  0  0
  152.3610  139.6818  153.9386 H   0  0  0  0  0  0  0  0  0  0  0  0
  151.9492  138.0208  154.3217 H   0  0  0  0  0  0  0  0  0  0  0  0
  150.6163  141.3569  154.0547 H   0  0  0  0  0  0  0  0  0  0  0  0
  147.1770  140.8574  152.8877 H   0  0  0  0  0  0  0  0  0  0  0  0
  148.8092  140.4079  152.4352 H   0  0  0  0  0  0  0  0  0  0  0  0
  149.7287  140.3852  156.8325 H   0  0  0  0  0  0  0  0  0  0  0  0
  150.1961  142.0268  156.4166 H   0  0  0  0  0  0  0  0  0  0  0  0
  150.9001  142.7495  157.8498 H   0  0  0  0  0  0  0  0  0  0  0  0
  151.6225  143.3283  160.1721 H   0  0  0  0  0  0  0  0  0  0  0  0
  1  2  3  0  0  0  0
  2  3  1  0  0  0  0
  3 17  1  0  0  0  0
  3  4  2  0  0  0  0
  4  5  1  0  0  0  0
  5  6  1  0  0  0  0
  5 15  2  0  0  0  0
  6 14  1  0  0  0  0
  6  7  1  0  0  0  0
  7  8  1  0  0  0  0
  7 19  1  0  0  0  0
  7 20  1  0  0  0  0
  8  9  1  0  0  0  0
  8 21  1  0  0  0  0
  8 22  1  0  0  0  0
  9 10  1  0  0  0  0
 10 11  1  0  0  0  0
 10 14  1  0  0  0  0
 10 23  1  0  0  0  0
 11 12  1  0  0  0  0
 11 13  2  0  0  0  0
 12 24  1  0  0  0  0
 12 25  1  0  0  0  0
 14 26  1  0  0  0  0
 14 27  1  0  0  0  0
 15 16  1  0  0  0  0
 15 28  1  0  0  0  0
 16 17  2  0  0  0  0
 16 29  1  0  0  0  0
 17 18  1  0  0  0  0
M  END
> <s_m_source_file>
AV-unprocessed.smi

> <i_m_source_file_index>
297

> <i_lp_mmshare_version>
43012

> <i_f3d_flags>
0

> <s_epik_input>
TiNDYzFuYyhbY0hdW2NIXWMxQ2wpTjJbQ0gyXVtDSDJdT1tDQEhdKFtDSDJdMilDKD1PKVtOSDJd

> <s_epik_cmdline>
J2VwaWtfcHl0aG9uJywgJy1waCcsICc3LjAnLCAnLXRuJywgJzgnLCAnLW1hJywgJzIwMCcsICctbWV0YWxfYmluZGluZycsICctaW1hZScsICc8aW5maWxlLm1hZT4nLCAnLW9tYWUnLCAnPG91dGZpbGUubWFlPic=

> <r_lp_tautomer_probability>
1

> <r_epik_Ionization_Penalty>
8.82403e-08

> <r_epik_Ionization_Penalty_Charging>
0

> <r_epik_Ionization_Penalty_Neutral>
8.82403e-08

> <r_epik_State_Penalty>
-0

> <r_epik_Charging_Adjusted_Penalty>
0

> <i_epik_Tot_Q>
0

> <i_epik_Tot_abs_Q>
0

> <r_epik_Metal_State_Penalty>
-0

> <b_epik_Metal_Only>
0

> <s_lp_Force_Field>
OPLS_2005

> <r_lp_Energy>
18.8034

> <b_lp_Chiralities_Consistent>
1

> <s_lp_Variant>
AV-unprocessed.smi:297-1

> <Gold.Version>
5.8.1

> <Gold.Id.Protein>
6NUR|6NUR_protein|mol2

> <Gold.PLP.Fitness>
38.3972

> <Gold.PLP.PLP>
-33.4788

> <Gold.PLP.part.hbond>
-2.0000

> <Gold.PLP.part.metal>
0.0000

> <Gold.PLP.part.buried>
-3.2871

> <Gold.PLP.part.nonpolar>
-27.4412

> <Gold.PLP.part.repulsive>
0.3533

> <Gold.PLP.ligand.clash>
0.0000

> <Gold.PLP.ligand.torsion>
0.5565

> <Gold.PLP.Chemscore.Hbond>
1.9760

> <Gold.PLP.Chemscore.CHOScore>
0.0000

> <Gold.PLP.Chemscore.Metal>
0.0000

> <Gold.Chemscore.Hbonds>
donor molecule, donor type, donor heavy atom, donor atom, acceptor molecule, acceptor atom, score
      L1  H    12    25       P1  7957  1.00
      P1  H  7997  8009       L1     4  0.98

> <Gold.PLP.Chemscore.Internal.Correction>
0.1034

> <Gold.Rescore>
     Score         DG    S(hbond)    S(metal)    S(lipo)     H(rot)  DE(clash)    DE(int)     intcor
     15.23     -15.84       1.55        0.00      77.27       1.50       0.06       0.54       ----

> <Gold.Chemscore.Fitness>
15.2337

> <Gold.Chemscore.DG>
-15.8410

> <Gold.Chemscore.ZeroCoef>
-5.4800

> <Gold.Chemscore.Hbond>
1.5455

> <Gold.Chemscore.Metal>
0.0000

> <Gold.Chemscore.Lipo>
77.2694

> <Gold.Chemscore.Internal_Hbond>
0.0000

> <Gold.Chemscore.DEClash>
0.0630

> <Gold.Chemscore.DEInternal>
0.5442

> <Gold.Chemscore.Rot>
1.5006

> <Gold.Chemscore.Internal.Correction>
   9.000000E+99

> <Gold.Chemscore.Hbonds>
donor molecule, donor type, donor heavy atom, donor atom, acceptor molecule, acceptor atom, score
      L1  H    12    25       P1  7957  0.94
      P1  H  7997  8009       L1     4  0.31

> <Gold.Chemscore.Hbond.Weighted>
-5.1621

> <Gold.Chemscore.Metal.Weighted>
-0.0000

> <Gold.Chemscore.Lipo.Weighted>
-9.0405

> <Gold.Chemscore.Internal_Hbond.Weighted>
0.0000

> <Gold.Chemscore.DEClash.Weighted>
0.0630

> <Gold.Chemscore.DEInternal.Weighted>
0.5442

> <Gold.Chemscore.Rot.Weighted>
3.8416

> <Gold.Chemscore.Internal.Correction.Weighted>
   9.000000E+99

> <Gold.Protein.RotatedTorsions>
[ 6907 6896 6895 6894 ] final  163.67 input  -60.11 | X-H torsion
[ 7974 7965 7964 7962 ] final  -30.90 input  175.53 | X-H torsion
[ 8008 7997 7996 7995 ] final  156.48 input   59.86 | X-H torsion
[ 10167 10162 10161 10158 ] final -124.49 input  -65.29 | X-H torsion
[ 10718 10713 10712 10709 ] final  159.70 input   66.30 | X-H torsion
[ 10763 10752 10751 10750 ] final  160.38 input  -60.55 | X-H torsion
[ 11005 11000 10999 10996 ] final  -96.62 input  -57.11 | X-H torsion

> <Gold.Protein.ActiveResidues>
 VAL166  LYS551  ARG553  GLY616  TRP617  ASP618  TYR619  PRO620  LYS621  CYS622 
 ASP623  PHE694  ASN695  SER759  ASP760  ASP761  ALA762  ILE779  LEU786  VAL792 
 PHE793  MET794  SER795  GLU796  ALA797  LYS798  CYS799  TRP800  GLU811  SER814 

> <Gold.Protein.RotatedAtoms>
  151.9217  133.3587  159.3899 H   0  0  0  0  0  0  0  0  0  0  0  0  # atno 6907 bound_to 6896
  150.7035  134.4628  159.5398 H   0  0  0  0  0  0  0  0  0  0  0  0  # atno 6908 bound_to 6896
  152.2253  134.8374  160.0531 H   0  0  0  0  0  0  0  0  0  0  0  0  # atno 6909 bound_to 6896
  146.1108  140.5599  142.8779 H   0  0  0  0  0  0  0  0  0  0  0  0  # atno 7974 bound_to 7965
  156.2420  140.1911  156.6961 H   0  0  0  0  0  0  0  0  0  0  0  0  # atno 8008 bound_to 7997
  154.6216  140.0608  156.9648 H   0  0  0  0  0  0  0  0  0  0  0  0  # atno 8009 bound_to 7997
  155.1853  140.3280  155.4370 H   0  0  0  0  0  0  0  0  0  0  0  0  # atno 8010 bound_to 7997
  139.9923  143.5628  152.2337 H   0  0  0  0  0  0  0  0  0  0  0  0  # atno 10167 bound_to 10162
  157.1606  131.0586  151.2234 H   0  0  0  0  0  0  0  0  0  0  0  0  # atno 10718 bound_to 10713
  154.2465  135.2773  155.2833 H   0  0  0  0  0  0  0  0  0  0  0  0  # atno 10763 bound_to 10752
  154.5501  135.5677  153.6918 H   0  0  0  0  0  0  0  0  0  0  0  0  # atno 10764 bound_to 10752
  152.9989  135.6272  154.2611 H   0  0  0  0  0  0  0  0  0  0  0  0  # atno 10765 bound_to 10752
  141.1405  133.8111  157.0596 H   0  0  0  0  0  0  0  0  0  0  0  0  # atno 11005 bound_to 11000
  144.7510  140.5190  143.6802 LP  0  0  0  0  0  0  0  0  0  0  0  0  # atno 17320 bound_to 7965
  145.5667  139.1481  143.3311 LP  0  0  0  0  0  0  0  0  0  0  0  0  # atno 17321 bound_to 7965
  139.6331  144.7647  151.2494 LP  0  0  0  0  0  0  0  0  0  0  0  0  # atno 17342 bound_to 10162
  140.7450  143.6445  150.8305 LP  0  0  0  0  0  0  0  0  0  0  0  0  # atno 17343 bound_to 10162
  157.4136  130.7398  149.6858 LP  0  0  0  0  0  0  0  0  0  0  0  0  # atno 17370 bound_to 10713
  155.9754  130.4089  150.3849 LP  0  0  0  0  0  0  0  0  0  0  0  0  # atno 17371 bound_to 10713
  140.0579  134.9770  157.1254 LP  0  0  0  0  0  0  0  0  0  0  0  0  # atno 17394 bound_to 11000
  140.3891  134.2204  155.7167 LP  0  0  0  0  0  0  0  0  0  0  0  0  # atno 17395 bound_to 11000

$$$$
