#       Name:                AV-unprocessed.smi:1186
#       Creating user name   scv26
#       Creation time:       Fri Mar 27 03:56:59 2020


#       File generated by GOLD software.
#

@<TRIPOS>MOLECULE
AV-unprocessed.smi:1186
    45    46     1
SMALL
NO_CHARGES


@<TRIPOS>ATOM
      1 ****        -2.2351   0.8412  -2.3673 O.2            1 S1                 0.0000
      2 ****        -1.9768  -0.1937  -2.9818 C.2            1 S1                 0.0000
      3 ****        -0.7687  -0.7734  -3.0002 N.am           1 S1                 0.0000
      4 ****         0.4043  -0.2738  -2.2891 C.3            1 S1                 0.0000
      5 ****         0.4070  -0.5442  -0.7897 C.ar           1 S1                 0.0000
      6 ****        -0.3393  -1.5949  -0.2135 C.ar           1 S1                 0.0000
      7 ****        -0.2813  -1.7709   1.1811 C.ar           1 S1                 0.0000
      8 ****         0.4613  -0.9933   1.9958 N.ar           1 S1                 0.0000
      9 ****         1.1963   0.0088   1.4535 C.ar           1 S1                 0.0000
     10 ****         1.9780   0.8084   2.3149 N.3            1 S1                 0.0000
     11 ****         1.7441   0.6953   3.7532 C.3            1 S1                 0.0000
     12 ****         2.4719   1.8226   4.5046 C.3            1 S1                 0.0000
     13 ****         3.8560   1.8036   4.1720 O.3            1 S1                 0.0000
     14 ****         4.0692   2.0240   2.7815 C.3            1 S1                 0.0000
     15 ****         3.3926   0.9092   1.9651 C.3            1 S1                 0.0000
     16 ****         1.1902   0.2628   0.0610 C.ar           1 S1                 0.0000
     17 ****        -2.8700  -0.8829  -3.7043 N.am           1 S1                 0.0000
     18 ****        -4.2810  -0.5367  -3.8412 C.3            1 S1                 0.0000
     19 ****        -5.1397  -1.1818  -2.7404 C.3            1 S1                 0.0000
     20 ****        -6.4208  -0.8858  -2.9557 F              1 S1                 0.0000
     21 ****        -4.9985  -2.5073  -2.7636 F              1 S1                 0.0000
     22 ****        -4.7942  -0.7250  -1.5370 F              1 S1                 0.0000
     23 ****        -0.6523  -1.6238  -3.5313 H              1 S1                 0.0000
     24 ****         1.2873  -0.7451  -2.7208 H              1 S1                 0.0000
     25 ****         0.5095   0.7979  -2.4673 H              1 S1                 0.0000
     26 ****        -0.9487  -2.2529  -0.8147 H              1 S1                 0.0000
     27 ****        -0.8449  -2.5605   1.6557 H              1 S1                 0.0000
     28 ****         0.6756   0.7490   3.9665 H              1 S1                 0.0000
     29 ****         2.0992  -0.2751   4.1029 H              1 S1                 0.0000
     30 ****         2.0408   2.7949   4.2609 H              1 S1                 0.0000
     31 ****         2.3631   1.6871   5.5807 H              1 S1                 0.0000
     32 ****         3.6841   3.0038   2.4944 H              1 S1                 0.0000
     33 ****         5.1413   2.0341   2.5850 H              1 S1                 0.0000
     34 ****         3.8738  -0.0478   2.1709 H              1 S1                 0.0000
     35 ****         3.5327   1.1123   0.9043 H              1 S1                 0.0000
     36 ****         1.7647   1.0761  -0.3572 H              1 S1                 0.0000
     37 ****        -2.5614  -1.7234  -4.1704 H              1 S1                 0.0000
     38 ****        -4.4133   0.5465  -3.8408 H              1 S1                 0.0000
     39 ****        -4.6160  -0.8850  -4.8186 H              1 S1                 0.0000
     40 ****        -1.5207   1.3012  -1.8401 LP             1 S1                 0.0000
     41 ****        -3.1594   1.2219  -2.3953 LP             1 S1                 0.0000
     42 ****         0.4695  -1.1532   2.9829 LP             1 S1                 0.0000
     43 ****         1.5819   1.7025   2.1060 LP             1 S1                 0.0000
     44 ****         4.2363   0.9128   4.4205 LP             1 S1                 0.0000
     45 ****         4.3229   2.5212   4.6888 LP             1 S1                 0.0000
@<TRIPOS>BOND
    1    1    2 2     
    2    2    3 am    
    3    2   17 am    
    4    3    4 1     
    5    3   23 1     
    6    4    5 1     
    7    4   24 1     
    8    4   25 1     
    9    5   16 ar    
   10    5    6 ar    
   11    6    7 ar    
   12    6   26 1     
   13    7    8 ar    
   14    7   27 1     
   15    8    9 ar    
   16    9   10 1     
   17    9   16 ar    
   18   10   15 1     
   19   10   11 1     
   20   11   12 1     
   21   11   28 1     
   22   11   29 1     
   23   12   13 1     
   24   12   30 1     
   25   12   31 1     
   26   13   14 1     
   27   14   15 1     
   28   14   32 1     
   29   14   33 1     
   30   15   34 1     
   31   15   35 1     
   32   16   36 1     
   33   17   18 1     
   34   17   37 1     
   35   18   19 1     
   36   18   38 1     
   37   18   39 1     
   38   19   20 1     
   39   19   21 1     
   40   19   22 1     
   41    1   40 1     
   42    1   41 1     
   43    8   42 1     
   44   10   43 1     
   45   13   44 1     
   46   13   45 1     
@<TRIPOS>SUBSTRUCTURE
      1 S1             1
@<TRIPOS>SET
LONE_PAIRS      STATIC     ATOMS    <user>   **** ""
6 40 41 42 43 44 45
DONOR_HYDROGENS      STATIC     ATOMS    <user>   **** ""
2 23 37
ATOM$BLUE        STATIC     ATOMS    COLORGROUP SYSTEM
6 40 41 42 43 44 45
ATOM$RED        STATIC     ATOMS    COLORGROUP SYSTEM
2 23 37
