#       Name:                AV-unprocessed.smi:686
#       Creating user name   scv26
#       Creation time:       Fri Mar 27 00:31:32 2020


#       File generated by GOLD software.
#

@<TRIPOS>MOLECULE
AV-unprocessed.smi:686
    44    45     1
SMALL
NO_CHARGES


@<TRIPOS>ATOM
      1 ****         0.1515  -0.0395   3.1768 C.3            1 S1                 0.0000
      2 ****        -0.6819  -0.3222   1.9164 C.3            1 S1                 0.0000
      3 ****        -0.6610  -1.7765   1.4391 C.3            1 S1                 0.0000
      4 ****        -1.0094  -1.7461  -0.0038 N.4            1 S1                 1.0000
      5 ****        -2.2096  -2.5241  -0.4215 C.3            1 S1                 0.0000
      6 ****        -3.4980  -2.1360   0.3352 C.3            1 S1                 0.0000
      7 ****        -1.9368  -4.0341  -0.3334 C.3            1 S1                 0.0000
      8 ****        -0.9800  -0.3345  -0.4642 C.3            1 S1                 0.0000
      9 ****        -0.3203   0.4753   0.6574 C.3            1 S1                 0.0000
     10 ****         1.1310   0.5463   0.4453 N.pl3          1 S1                 0.0000
     11 ****         1.9807   2.0439   0.5670 S.o2           1 S1                 0.0000
     12 ****         1.5487   2.6888   1.8162 O.2            1 S1                 0.0000
     13 ****         3.4027   1.7470   0.3354 O.2            1 S1                 0.0000
     14 ****         1.3089   3.0117  -0.8607 C.3            1 S1                 0.0000
     15 ****         2.4067   3.3668  -1.8224 C.2            1 S1                 0.0000
     16 ****         2.9124   2.5996  -2.9084 C.2            1 S1                 0.0000
     17 ****         3.8863   3.3984  -3.4349 C.2            1 S1                 0.0000
     18 ****         3.9761   4.5600  -2.7395 O.3            1 S1                 0.0000
     19 ****         3.0255   4.5315  -1.7130 N.2            1 S1                 0.0000
     20 ****         1.2043  -0.2840   3.0328 H              1 S1                 0.0000
     21 ****        -0.2094  -0.6287   4.0199 H              1 S1                 0.0000
     22 ****         0.0876   1.0114   3.4590 H              1 S1                 0.0000
     23 ****        -1.7190  -0.0799   2.1546 H              1 S1                 0.0000
     24 ****         0.3489  -2.1805   1.5207 H              1 S1                 0.0000
     25 ****        -1.3049  -2.4153   2.0428 H              1 S1                 0.0000
     26 ****        -2.3694  -2.2991  -1.4773 H              1 S1                 0.0000
     27 ****        -4.3562  -2.6663  -0.0787 H              1 S1                 0.0000
     28 ****        -3.7175  -1.0716   0.2603 H              1 S1                 0.0000
     29 ****        -3.4500  -2.3900   1.3937 H              1 S1                 0.0000
     30 ****        -2.7789  -4.6060  -0.7244 H              1 S1                 0.0000
     31 ****        -1.7719  -4.3569   0.6949 H              1 S1                 0.0000
     32 ****        -1.0565  -4.3100  -0.9149 H              1 S1                 0.0000
     33 ****        -0.4596  -0.2435  -1.4185 H              1 S1                 0.0000
     34 ****        -1.9917   0.0396  -0.6198 H              1 S1                 0.0000
     35 ****        -0.7250   1.4873   0.7009 H              1 S1                 0.0000
     36 ****         1.5203  -0.1104  -0.2309 H              1 S1                 0.0000
     37 ****         0.5379   2.4240  -1.3572 H              1 S1                 0.0000
     38 ****         0.8265   3.9069  -0.4664 H              1 S1                 0.0000
     39 ****         2.6114   1.6194  -3.2464 H              1 S1                 0.0000
     40 ****         4.5691   3.2880  -4.2644 H              1 S1                 0.0000
     41 ****        -0.2301  -2.1906  -0.4678 H              1 S1                 0.0000
     42 ****         3.7945   5.3330  -3.3473 LP             1 S1                 0.0000
     43 ****         4.8924   4.6508  -2.3495 LP             1 S1                 0.0000
     44 ****         2.8497   5.2454  -1.0352 LP             1 S1                 0.0000
@<TRIPOS>BOND
    1    1    2 1     
    2    1   20 1     
    3    1   21 1     
    4    1   22 1     
    5    2    9 1     
    6    2    3 1     
    7    2   23 1     
    8    3    4 1     
    9    3   24 1     
   10    3   25 1     
   11    4    5 1     
   12    4    8 1     
   13    4   41 1     
   14    5    6 1     
   15    5    7 1     
   16    5   26 1     
   17    6   27 1     
   18    6   28 1     
   19    6   29 1     
   20    7   30 1     
   21    7   31 1     
   22    7   32 1     
   23    8    9 1     
   24    8   33 1     
   25    8   34 1     
   26    9   10 1     
   27    9   35 1     
   28   10   11 1     
   29   10   36 1     
   30   11   12 2     
   31   11   13 2     
   32   11   14 1     
   33   14   15 1     
   34   14   37 1     
   35   14   38 1     
   36   15   19 2     
   37   15   16 1     
   38   16   17 2     
   39   16   39 1     
   40   17   18 1     
   41   17   40 1     
   42   18   19 1     
   43   18   42 1     
   44   18   43 1     
   45   19   44 1     
@<TRIPOS>SUBSTRUCTURE
      1 S1             1
@<TRIPOS>SET
LONE_PAIRS      STATIC     ATOMS    <user>   **** ""
5 12 13 42 43 44
DONOR_HYDROGENS      STATIC     ATOMS    <user>   **** ""
2 41 36
ATOM$BLUE        STATIC     ATOMS    COLORGROUP SYSTEM
5 12 13 42 43 44
ATOM$RED        STATIC     ATOMS    COLORGROUP SYSTEM
2 41 36
