AV-unprocessed.smi:3334|AV-procd|sdf|12836|dock4
  -GOLD-   2272019213D 1   1.00000     0.00000
 Structure written by MMmdl.
 41 42  0  0  0  0  0  0  0  0  1 V2000
  155.0656  132.5488  163.3926 C   0  0  0  0  0  0  0  0  0  0  0  0
  154.7763  133.6626  164.4092 C   0  0  0  0  0  0  0  0  0  0  0  0
  153.7062  133.2586  165.4317 C   0  0  0  0  0  0  0  0  0  0  0  0
  154.4455  134.9614  163.7413 C   0  0  0  0  0  0  0  0  0  0  0  0
  154.4454  135.1202  162.4154 N   0  0  0  0  0  0  0  0  0  0  0  0
  154.1088  136.4195  162.0217 C   0  0  0  0  0  0  0  0  0  0  0  0
  154.1030  136.7774  160.5615 C   0  0  0  0  0  0  0  0  0  0  0  0
  153.0088  137.7943  160.1845 C   0  0  0  0  0  0  0  0  0  0  0  0
  153.3915  139.1540  160.5537 N   0  0  0  0  0  0  0  0  0  0  0  0
  154.2208  139.9413  159.8543 C   0  0  0  0  0  0  0  0  0  0  0  0
  154.8966  139.5439  158.9051 O   0  0  0  0  0  0  0  0  0  0  0  0
  154.2616  141.4164  160.2666 C   0  0  0  0  0  0  0  0  0  0  0  0
  152.8633  142.0726  160.3099 C   0  0  1  0  0  0  0  0  0  0  0  0
  152.5924  142.8612  161.5699 C   0  0  0  0  0  0  0  0  0  0  0  0
  152.1624  144.0954  161.3211 C   0  0  0  0  0  0  0  0  0  0  0  0
  152.0692  144.3861  159.8492 C   0  0  0  0  0  0  0  0  0  0  0  0
  152.6381  143.1131  159.1832 C   0  0  0  0  0  0  0  0  0  0  0  0
  153.8661  137.2580  163.0806 C   0  0  0  0  0  0  0  0  0  0  0  0
  154.0579  136.4450  164.6101 S   0  0  0  0  0  0  0  0  0  0  0  0
  155.8722  132.8349  162.7167 H   0  0  0  0  0  0  0  0  0  0  0  0
  154.1874  132.3221  162.7875 H   0  0  0  0  0  0  0  0  0  0  0  0
  155.3669  131.6290  163.8942 H   0  0  0  0  0  0  0  0  0  0  0  0
  155.6998  133.8204  164.9680 H   0  0  0  0  0  0  0  0  0  0  0  0
  153.5715  134.0361  166.1844 H   0  0  0  0  0  0  0  0  0  0  0  0
  153.9850  132.3419  165.9514 H   0  0  0  0  0  0  0  0  0  0  0  0
  152.7434  133.0866  164.9502 H   0  0  0  0  0  0  0  0  0  0  0  0
  155.0737  137.1912  160.2851 H   0  0  0  0  0  0  0  0  0  0  0  0
  153.9858  135.8796  159.9539 H   0  0  0  0  0  0  0  0  0  0  0  0
  152.7924  137.7475  159.1170 H   0  0  0  0  0  0  0  0  0  0  0  0
  152.0902  137.5158  160.7035 H   0  0  0  0  0  0  0  0  0  0  0  0
  152.8884  139.5696  161.3246 H   0  0  0  0  0  0  0  0  0  0  0  0
  154.7393  141.5070  161.2438 H   0  0  0  0  0  0  0  0  0  0  0  0
  154.8982  141.9509  159.5610 H   0  0  0  0  0  0  0  0  0  0  0  0
  152.0953  141.3006  160.2426 H   0  0  0  0  0  0  0  0  0  0  0  0
  152.7208  142.4408  162.5568 H   0  0  0  0  0  0  0  0  0  0  0  0
  151.8950  144.8242  162.0718 H   0  0  0  0  0  0  0  0  0  0  0  0
  151.0289  144.5572  159.5714 H   0  0  0  0  0  0  0  0  0  0  0  0
  152.6505  145.2724  159.5936 H   0  0  0  0  0  0  0  0  0  0  0  0
  153.5791  143.3545  158.6871 H   0  0  0  0  0  0  0  0  0  0  0  0
  151.9648  142.7288  158.4164 H   0  0  0  0  0  0  0  0  0  0  0  0
  153.6057  138.3057  163.0542 H   0  0  0  0  0  0  0  0  0  0  0  0
  1  2  1  0  0  0  0
  1 20  1  0  0  0  0
  1 21  1  0  0  0  0
  1 22  1  0  0  0  0
  2  3  1  0  0  0  0
  2  4  1  0  0  0  0
  2 23  1  0  0  0  0
  3 24  1  0  0  0  0
  3 25  1  0  0  0  0
  3 26  1  0  0  0  0
  4 19  1  0  0  0  0
  4  5  2  0  0  0  0
  5  6  1  0  0  0  0
  6  7  1  0  0  0  0
  6 18  2  0  0  0  0
  7  8  1  0  0  0  0
  7 27  1  0  0  0  0
  7 28  1  0  0  0  0
  8  9  1  0  0  0  0
  8 29  1  0  0  0  0
  8 30  1  0  0  0  0
  9 10  1  0  0  0  0
  9 31  1  0  0  0  0
 10 11  2  0  0  0  0
 10 12  1  0  0  0  0
 12 13  1  0  0  0  0
 12 32  1  0  0  0  0
 12 33  1  0  0  0  0
 13 17  1  0  0  0  0
 13 14  1  0  0  0  0
 13 34  1  0  0  0  0
 14 15  2  0  0  0  0
 14 35  1  0  0  0  0
 15 16  1  0  0  0  0
 15 36  1  0  0  0  0
 16 17  1  0  0  0  0
 16 37  1  0  0  0  0
 16 38  1  0  0  0  0
 17 39  1  0  0  0  0
 17 40  1  0  0  0  0
 18 19  1  0  0  0  0
 18 41  1  0  0  0  0
M  END
> <s_m_source_file>
AV-unprocessed.smi

> <i_m_source_file_index>
3334

> <i_lp_mmshare_version>
43012

> <i_f3d_flags>
0

> <s_epik_input>
W0NIM11bQ0hdKFtDSDNdKWMxbmMoW2NIXXMxKVtDSDJdW0NIMl1bTkhdQyg9TylbQ0gyXVtDQEBIXTJbQ0hdPVtDSF1bQ0gyXVtDSDJdMg==

> <s_epik_cmdline>
J2VwaWtfcHl0aG9uJywgJy1waCcsICc3LjAnLCAnLXRuJywgJzgnLCAnLW1hJywgJzIwMCcsICctbWV0YWxfYmluZGluZycsICctaW1hZScsICc8aW5maWxlLm1hZT4nLCAnLW9tYWUnLCAnPG91dGZpbGUubWFlPic=

> <r_epik_Ionization_Penalty>
0.000771592

> <r_epik_Ionization_Penalty_Charging>
0

> <r_epik_Ionization_Penalty_Neutral>
0.000771592

> <r_epik_State_Penalty>
0.000494253

> <r_epik_Charging_Adjusted_Penalty>
0.000494253

> <i_epik_Tot_Q>
0

> <i_epik_Tot_abs_Q>
0

> <r_epik_Metal_State_Penalty>
-0

> <b_epik_Metal_Only>
0

> <s_lp_Force_Field>
OPLS_2005

> <r_lp_Energy>
5.93023

> <b_lp_Chiralities_Consistent>
1

> <s_lp_Variant>
AV-unprocessed.smi:3334-2

> <Gold.Version>
5.8.1

> <Gold.Id.Protein>
6NUR|6NUR_protein|mol2

> <Gold.PLP.Fitness>
48.8055

> <Gold.PLP.PLP>
-48.3998

> <Gold.PLP.part.hbond>
-1.0000

> <Gold.PLP.part.metal>
0.0000

> <Gold.PLP.part.buried>
-3.6115

> <Gold.PLP.part.nonpolar>
-43.8506

> <Gold.PLP.part.repulsive>
0.0535

> <Gold.PLP.ligand.clash>
0.0000

> <Gold.PLP.ligand.torsion>
1.3520

> <Gold.PLP.Chemscore.Hbond>
1.0000

> <Gold.PLP.Chemscore.CHOScore>
0.0000

> <Gold.PLP.Chemscore.Metal>
0.0000

> <Gold.Chemscore.Hbonds>
donor molecule, donor type, donor heavy atom, donor atom, acceptor molecule, acceptor atom, score
      P1  H  7997  8010       L1    11  1.00

> <Gold.PLP.Chemscore.Internal.Correction>
0.1096

> <Gold.Rescore>
     Score         DG    S(hbond)    S(metal)    S(lipo)     H(rot)  DE(clash)    DE(int)     intcor
     20.03     -21.36       0.99        0.00     140.61       1.52       0.05       1.28       ----

> <Gold.Chemscore.Fitness>
20.0316

> <Gold.Chemscore.DG>
-21.3592

> <Gold.Chemscore.ZeroCoef>
-5.4800

> <Gold.Chemscore.Hbond>
0.9910

> <Gold.Chemscore.Metal>
0.0000

> <Gold.Chemscore.Lipo>
140.6064

> <Gold.Chemscore.Internal_Hbond>
0.0000

> <Gold.Chemscore.DEClash>
0.0524

> <Gold.Chemscore.DEInternal>
1.2752

> <Gold.Chemscore.Rot>
1.5162

> <Gold.Chemscore.Internal.Correction>
   9.000000E+99

> <Gold.Chemscore.Hbonds>
donor molecule, donor type, donor heavy atom, donor atom, acceptor molecule, acceptor atom, score
      P1  H  7997  8010       L1    11  1.00

> <Gold.Chemscore.Hbond.Weighted>
-3.3098

> <Gold.Chemscore.Metal.Weighted>
-0.0000

> <Gold.Chemscore.Lipo.Weighted>
-16.4509

> <Gold.Chemscore.Internal_Hbond.Weighted>
0.0000

> <Gold.Chemscore.DEClash.Weighted>
0.0524

> <Gold.Chemscore.DEInternal.Weighted>
1.2752

> <Gold.Chemscore.Rot.Weighted>
3.8815

> <Gold.Chemscore.Internal.Correction.Weighted>
   9.000000E+99

> <Gold.Protein.RotatedTorsions>
[ 6907 6896 6895 6894 ] final -156.19 input  -60.11 | X-H torsion
[ 7974 7965 7964 7962 ] final   -8.31 input  175.53 | X-H torsion
[ 8008 7997 7996 7995 ] final  -13.28 input   59.86 | X-H torsion
[ 10167 10162 10161 10158 ] final  154.89 input  -65.29 | X-H torsion
[ 10718 10713 10712 10709 ] final  -14.90 input   66.30 | X-H torsion
[ 10763 10752 10751 10750 ] final -157.95 input  -60.55 | X-H torsion
[ 11005 11000 10999 10996 ] final  141.22 input  -57.11 | X-H torsion

> <Gold.Protein.ActiveResidues>
 VAL166  LYS551  ARG553  GLY616  TRP617  ASP618  TYR619  PRO620  LYS621  CYS622 
 ASP623  PHE694  ASN695  SER759  ASP760  ASP761  ALA762  ILE779  LEU786  VAL792 
 PHE793  MET794  SER795  GLU796  ALA797  LYS798  CYS799  TRP800  GLU811  SER814 

> <Gold.Protein.RotatedAtoms>
  151.2839  133.4197  159.2628 H   0  0  0  0  0  0  0  0  0  0  0  0  # atno 6907 bound_to 6896
  151.0337  134.9558  159.8135 H   0  0  0  0  0  0  0  0  0  0  0  0  # atno 6908 bound_to 6896
  152.5351  134.2799  159.9056 H   0  0  0  0  0  0  0  0  0  0  0  0  # atno 6909 bound_to 6896
  146.2284  140.2450  142.8345 H   0  0  0  0  0  0  0  0  0  0  0  0  # atno 7974 bound_to 7965
  154.5306  140.2254  155.8812 H   0  0  0  0  0  0  0  0  0  0  0  0  # atno 8008 bound_to 7997
  156.1759  140.3111  155.9022 H   0  0  0  0  0  0  0  0  0  0  0  0  # atno 8009 bound_to 7997
  155.3460  140.0453  157.3036 H   0  0  0  0  0  0  0  0  0  0  0  0  # atno 8010 bound_to 7997
  139.4822  144.5147  151.7970 H   0  0  0  0  0  0  0  0  0  0  0  0  # atno 10167 bound_to 10162
  156.6094  130.4845  149.6207 H   0  0  0  0  0  0  0  0  0  0  0  0  # atno 10718 bound_to 10713
  154.7595  135.3114  154.8405 H   0  0  0  0  0  0  0  0  0  0  0  0  # atno 10763 bound_to 10752
  153.9169  135.6800  153.4753 H   0  0  0  0  0  0  0  0  0  0  0  0  # atno 10764 bound_to 10752
  153.1195  135.4829  154.9103 H   0  0  0  0  0  0  0  0  0  0  0  0  # atno 10765 bound_to 10752
  140.0385  134.9317  157.0799 H   0  0  0  0  0  0  0  0  0  0  0  0  # atno 11005 bound_to 11000
  144.9455  140.8124  143.5604 LP  0  0  0  0  0  0  0  0  0  0  0  0  # atno 17320 bound_to 7965
  145.2405  139.2074  143.4995 LP  0  0  0  0  0  0  0  0  0  0  0  0  # atno 17321 bound_to 7965
  140.4654  144.1663  150.5911 LP  0  0  0  0  0  0  0  0  0  0  0  0  # atno 17342 bound_to 10162
  140.4440  143.2514  151.9436 LP  0  0  0  0  0  0  0  0  0  0  0  0  # atno 17343 bound_to 10162
  156.2402  130.6847  151.1548 LP  0  0  0  0  0  0  0  0  0  0  0  0  # atno 17370 bound_to 10713
  157.7258  131.0650  150.5936 LP  0  0  0  0  0  0  0  0  0  0  0  0  # atno 17371 bound_to 10713
  140.4108  134.1984  155.7163 LP  0  0  0  0  0  0  0  0  0  0  0  0  # atno 17394 bound_to 11000
  141.1870  133.8290  157.1047 LP  0  0  0  0  0  0  0  0  0  0  0  0  # atno 17395 bound_to 11000

$$$$
