AV-unprocessed.smi:3251|AV-procd|sdf|12438|dock6
  -GOLD-   2272018333D 1   1.00000     0.00000
 Structure written by MMmdl.
 40 41  0  0  0  0  0  0  0  0  1 V2000
  144.4175  132.3974  150.0621 C   0  0  0  0  0  0  0  0  0  0  0  0
  144.3469  133.6069  150.9493 C   0  0  0  0  0  0  0  0  0  0  0  0
  143.7602  133.7113  152.2428 C   0  0  0  0  0  0  0  0  0  0  0  0
  143.8655  134.9246  152.7591 N   0  0  0  0  0  0  0  0  0  0  0  0
  144.5216  135.6357  151.8179 N   0  0  0  0  0  0  0  0  0  0  0  0
  144.8181  137.0362  152.0487 C   0  0  0  0  0  0  0  0  0  0  0  0
  145.6056  137.2420  153.3508 C   0  0  0  0  0  0  0  0  0  0  0  0
  145.8316  138.6686  153.5562 N   0  0  0  0  0  0  0  0  0  0  0  0
  147.0893  139.1576  152.9607 C   0  0  1  0  0  0  0  0  0  0  0  0
  146.8290  139.6128  151.5164 C   0  0  0  0  0  0  0  0  0  0  0  0
  147.7467  140.3061  153.7602 C   0  0  0  0  0  0  0  0  0  0  0  0
  147.1515  141.3811  153.8541 O   0  0  0  0  0  0  0  0  0  0  0  0
  148.9545  140.1116  154.3335 N   0  0  0  0  0  0  0  0  0  0  0  0
  149.6991  138.8583  154.2200 C   0  0  0  0  0  0  0  0  0  0  0  0
  151.0832  139.1401  154.8041 C   0  0  0  0  0  0  0  0  0  0  0  0
  150.8475  140.2865  155.7761 C   0  0  0  0  0  0  0  0  0  0  0  0
  149.6930  141.0718  155.1537 C   0  0  0  0  0  0  0  0  0  0  0  0
  144.8242  134.8656  150.7152 C   0  0  0  0  0  0  0  0  0  0  0  0
  144.0847  131.4962  150.5777 H   0  0  0  0  0  0  0  0  0  0  0  0
  145.4338  132.2112  149.7148 H   0  0  0  0  0  0  0  0  0  0  0  0
  143.7905  132.5115  149.1779 H   0  0  0  0  0  0  0  0  0  0  0  0
  143.2628  132.9446  152.8186 H   0  0  0  0  0  0  0  0  0  0  0  0
  145.3843  137.4135  151.1957 H   0  0  0  0  0  0  0  0  0  0  0  0
  143.8784  137.5905  152.0761 H   0  0  0  0  0  0  0  0  0  0  0  0
  145.0531  136.8094  154.1856 H   0  0  0  0  0  0  0  0  0  0  0  0
  146.5642  136.7248  153.2899 H   0  0  0  0  0  0  0  0  0  0  0  0
  145.0366  139.1843  153.2075 H   0  0  0  0  0  0  0  0  0  0  0  0
  147.7642  138.3035  152.9153 H   0  0  0  0  0  0  0  0  0  0  0  0
  147.7481  139.9438  151.0311 H   0  0  0  0  0  0  0  0  0  0  0  0
  146.1179  140.4393  151.4792 H   0  0  0  0  0  0  0  0  0  0  0  0
  146.4213  138.7984  150.9168 H   0  0  0  0  0  0  0  0  0  0  0  0
  149.1880  138.0887  154.8005 H   0  0  0  0  0  0  0  0  0  0  0  0
  149.7684  138.5142  153.1868 H   0  0  0  0  0  0  0  0  0  0  0  0
  151.5281  138.2655  155.2797 H   0  0  0  0  0  0  0  0  0  0  0  0
  151.7557  139.4675  154.0101 H   0  0  0  0  0  0  0  0  0  0  0  0
  150.5385  139.8867  156.7429 H   0  0  0  0  0  0  0  0  0  0  0  0
  151.7370  140.8966  155.9357 H   0  0  0  0  0  0  0  0  0  0  0  0
  150.0771  141.8664  154.5122 H   0  0  0  0  0  0  0  0  0  0  0  0
  149.0690  141.5240  155.9257 H   0  0  0  0  0  0  0  0  0  0  0  0
  145.3491  135.2726  149.8634 H   0  0  0  0  0  0  0  0  0  0  0  0
  1  2  1  0  0  0  0
  1 19  1  0  0  0  0
  1 20  1  0  0  0  0
  1 21  1  0  0  0  0
  2 18  2  0  0  0  0
  2  3  1  0  0  0  0
  3  4  2  0  0  0  0
  3 22  1  0  0  0  0
  4  5  1  0  0  0  0
  5  6  1  0  0  0  0
  5 18  1  0  0  0  0
  6  7  1  0  0  0  0
  6 23  1  0  0  0  0
  6 24  1  0  0  0  0
  7  8  1  0  0  0  0
  7 25  1  0  0  0  0
  7 26  1  0  0  0  0
  8  9  1  0  0  0  0
  8 27  1  0  0  0  0
  9 10  1  0  0  0  0
  9 11  1  0  0  0  0
  9 28  1  0  0  0  0
 10 29  1  0  0  0  0
 10 30  1  0  0  0  0
 10 31  1  0  0  0  0
 11 12  2  0  0  0  0
 11 13  1  0  0  0  0
 13 17  1  0  0  0  0
 13 14  1  0  0  0  0
 14 15  1  0  0  0  0
 14 32  1  0  0  0  0
 14 33  1  0  0  0  0
 15 16  1  0  0  0  0
 15 34  1  0  0  0  0
 15 35  1  0  0  0  0
 16 17  1  0  0  0  0
 16 36  1  0  0  0  0
 16 37  1  0  0  0  0
 17 38  1  0  0  0  0
 17 39  1  0  0  0  0
 18 40  1  0  0  0  0
M  END
> <s_m_source_file>
AV-unprocessed.smi

> <i_m_source_file_index>
3251

> <i_lp_mmshare_version>
43012

> <i_f3d_flags>
0

> <s_epik_input>
W0NIM11jMVtjSF1ubihbY0hdMSlbQ0gyXVtDSDJdW05IXVtDQEhdKFtDSDNdKUMoPU8pTjJbQ0gyXVtDSDJdW0NIMl1bQ0gyXTI=

> <s_epik_cmdline>
J2VwaWtfcHl0aG9uJywgJy1waCcsICc3LjAnLCAnLXRuJywgJzgnLCAnLW1hJywgJzIwMCcsICctbWV0YWxfYmluZGluZycsICctaW1hZScsICc8aW5maWxlLm1hZT4nLCAnLW9tYWUnLCAnPG91dGZpbGUubWFlPic=

> <r_lp_tautomer_probability>
1

> <r_epik_Ionization_Penalty>
0.734676

> <r_epik_Ionization_Penalty_Charging>
0

> <r_epik_Ionization_Penalty_Neutral>
0.734676

> <r_epik_State_Penalty>
0.75825

> <r_epik_Charging_Adjusted_Penalty>
0.75825

> <i_epik_Tot_Q>
0

> <i_epik_Tot_abs_Q>
0

> <r_epik_Metal_State_Penalty>
0.756914

> <b_epik_Metal_Only>
0

> <s_lp_Force_Field>
OPLS_2005

> <r_lp_Energy>
31.4715

> <b_lp_Chiralities_Consistent>
1

> <s_lp_Variant>
AV-unprocessed.smi:3251-4

> <Gold.Version>
5.8.1

> <Gold.Id.Protein>
6NUR|6NUR_protein|mol2

> <Gold.PLP.Fitness>
43.0641

> <Gold.PLP.PLP>
-35.3079

> <Gold.PLP.part.hbond>
-1.0000

> <Gold.PLP.part.metal>
0.0000

> <Gold.PLP.part.buried>
3.7110

> <Gold.PLP.part.nonpolar>
-37.0365

> <Gold.PLP.part.repulsive>
0.2719

> <Gold.PLP.ligand.clash>
0.0000

> <Gold.PLP.ligand.torsion>
0.6379

> <Gold.PLP.Chemscore.Hbond>
1.0000

> <Gold.PLP.Chemscore.CHOScore>
2.0000

> <Gold.PLP.Chemscore.Metal>
0.0000

> <Gold.Chemscore.Hbonds>
donor molecule, donor type, donor heavy atom, donor atom, acceptor molecule, acceptor atom, score
      L1  H     8    27       P1 10175  1.00
      L1  C     3    22       P1 10957  1.00
      L1  C    18    40       P1  7921  1.00

> <Gold.PLP.Chemscore.Internal.Correction>
0.0320

> <Gold.Rescore>
     Score         DG    S(hbond)    S(metal)    S(lipo)     H(rot)  DE(clash)    DE(int)     intcor
     11.89     -14.25       0.98        0.00      84.10       1.70       1.74       0.62       ----

> <Gold.Chemscore.Fitness>
11.8893

> <Gold.Chemscore.DG>
-14.2466

> <Gold.Chemscore.ZeroCoef>
-5.4800

> <Gold.Chemscore.Hbond>
0.9780

> <Gold.Chemscore.Metal>
0.0000

> <Gold.Chemscore.Lipo>
84.0981

> <Gold.Chemscore.Internal_Hbond>
0.0000

> <Gold.Chemscore.DEClash>
1.7384

> <Gold.Chemscore.DEInternal>
0.6189

> <Gold.Chemscore.Rot>
1.6951

> <Gold.Chemscore.Internal.Correction>
   9.000000E+99

> <Gold.Chemscore.Hbonds>
donor molecule, donor type, donor heavy atom, donor atom, acceptor molecule, acceptor atom, score
      L1  H     8    27       P1 10175  0.95

> <Gold.Chemscore.Hbond.Weighted>
-3.2667

> <Gold.Chemscore.Metal.Weighted>
-0.0000

> <Gold.Chemscore.Lipo.Weighted>
-9.8395

> <Gold.Chemscore.Internal_Hbond.Weighted>
0.0000

> <Gold.Chemscore.DEClash.Weighted>
1.7384

> <Gold.Chemscore.DEInternal.Weighted>
0.6189

> <Gold.Chemscore.Rot.Weighted>
4.3395

> <Gold.Chemscore.Internal.Correction.Weighted>
   9.000000E+99

> <Gold.Protein.RotatedTorsions>
[ 6907 6896 6895 6894 ] final   34.05 input  -60.11 | X-H torsion
[ 7974 7965 7964 7962 ] final -123.21 input  175.53 | X-H torsion
[ 8008 7997 7996 7995 ] final  -24.32 input   59.86 | X-H torsion
[ 10167 10162 10161 10158 ] final   43.33 input  -65.29 | X-H torsion
[ 10718 10713 10712 10709 ] final   81.64 input   66.30 | X-H torsion
[ 10763 10752 10751 10750 ] final  154.46 input  -60.55 | X-H torsion
[ 11005 11000 10999 10996 ] final   37.37 input  -57.11 | X-H torsion

> <Gold.Protein.ActiveResidues>
 VAL166  LYS551  ARG553  GLY616  TRP617  ASP618  TYR619  PRO620  LYS621  CYS622 
 ASP623  PHE694  ASN695  SER759  ASP760  ASP761  ALA762  ILE779  LEU786  VAL792 
 PHE793  MET794  SER795  GLU796  ALA797  LYS798  CYS799  TRP800  GLU811  SER814 

> <Gold.Protein.RotatedAtoms>
  152.0970  134.9368  160.0570 H   0  0  0  0  0  0  0  0  0  0  0  0  # atno 6907 bound_to 6896
  152.0597  133.4051  159.4420 H   0  0  0  0  0  0  0  0  0  0  0  0  # atno 6908 bound_to 6896
  150.6838  134.3135  159.4800 H   0  0  0  0  0  0  0  0  0  0  0  0  # atno 6909 bound_to 6896
  145.0211  140.7989  143.4380 H   0  0  0  0  0  0  0  0  0  0  0  0  # atno 7974 bound_to 7965
  154.4536  140.1957  156.0445 H   0  0  0  0  0  0  0  0  0  0  0  0  # atno 8008 bound_to 7997
  156.0700  140.3286  155.7536 H   0  0  0  0  0  0  0  0  0  0  0  0  # atno 8009 bound_to 7997
  155.5279  140.0575  157.2885 H   0  0  0  0  0  0  0  0  0  0  0  0  # atno 8010 bound_to 7997
  140.3454  144.2417  150.6151 H   0  0  0  0  0  0  0  0  0  0  0  0  # atno 10167 bound_to 10162
  157.6838  131.0013  150.2257 H   0  0  0  0  0  0  0  0  0  0  0  0  # atno 10718 bound_to 10713
  154.1526  135.2814  155.3131 H   0  0  0  0  0  0  0  0  0  0  0  0  # atno 10763 bound_to 10752
  154.6206  135.5468  153.7574 H   0  0  0  0  0  0  0  0  0  0  0  0  # atno 10764 bound_to 10752
  153.0216  135.6438  154.1670 H   0  0  0  0  0  0  0  0  0  0  0  0  # atno 10765 bound_to 10752
  140.2233  134.3615  155.7995 H   0  0  0  0  0  0  0  0  0  0  0  0  # atno 11005 bound_to 11000
  145.1895  139.2309  143.5250 LP  0  0  0  0  0  0  0  0  0  0  0  0  # atno 17320 bound_to 7965
  146.3485  140.1687  142.8590 LP  0  0  0  0  0  0  0  0  0  0  0  0  # atno 17321 bound_to 7965
  140.5269  143.2252  151.8300 LP  0  0  0  0  0  0  0  0  0  0  0  0  # atno 17342 bound_to 10162
  139.4834  144.4768  151.9357 LP  0  0  0  0  0  0  0  0  0  0  0  0  # atno 17343 bound_to 10162
  156.2900  130.3744  149.7851 LP  0  0  0  0  0  0  0  0  0  0  0  0  # atno 17370 bound_to 10713
  156.5514  130.8343  151.3300 LP  0  0  0  0  0  0  0  0  0  0  0  0  # atno 17371 bound_to 10713
  141.2222  133.7205  156.8611 LP  0  0  0  0  0  0  0  0  0  0  0  0  # atno 17394 bound_to 11000
  140.1827  134.9022  157.2967 LP  0  0  0  0  0  0  0  0  0  0  0  0  # atno 17395 bound_to 11000

$$$$
