#       Name:                AV-unprocessed.smi:2674
#       Creating user name   scv26
#       Creation time:       Fri Mar 27 14:38:25 2020


#       File generated by GOLD software.
#

@<TRIPOS>MOLECULE
AV-unprocessed.smi:2674
    48    49     1
SMALL
NO_CHARGES


@<TRIPOS>ATOM
      1 ****        -3.4720  -1.1316   0.0664 C.3            1 S1                 0.0000
      2 ****        -2.2781  -0.4003  -0.4294 N.4            1 S1                 1.0000
      3 ****        -1.0881  -0.6944   0.4142 C.3            1 S1                 0.0000
      4 ****        -0.3553  -1.9584  -0.0704 C.3            1 S1                 0.0000
      5 ****         0.8277  -2.2383   0.7353 N.am           1 S1                 0.0000
      6 ****         2.0024  -1.6027   0.6155 C.2            1 S1                 0.0000
      7 ****         2.1984  -0.6951  -0.1933 O.2            1 S1                 0.0000
      8 ****         2.9105  -2.0852   1.4820 N.am           1 S1                 0.0000
      9 ****         4.2552  -1.6666   1.6676 C.ar           1 S1                 0.0000
     10 ****         4.9794  -2.3923   2.6405 C.ar           1 S1                 0.0000
     11 ****         6.3211  -2.0530   2.9014 C.ar           1 S1                 0.0000
     12 ****         6.9048  -0.9951   2.1822 C.ar           1 S1                 0.0000
     13 ****         6.1140  -0.3237   1.2318 C.ar           1 S1                 0.0000
     14 ****         4.8277  -0.6470   0.9800 N.ar           1 S1                 0.0000
     15 ****        -2.4771   1.0649  -0.6674 C.3            1 S1                 0.0000
     16 ****        -3.9029   1.4368  -1.1559 C.3            1 S1                 0.0000
     17 ****        -4.0493   2.9448  -1.4189 C.3            1 S1                 0.0000
     18 ****        -3.0059   3.4418  -2.4273 C.3            1 S1                 0.0000
     19 ****        -1.5880   3.0907  -1.9590 C.3            1 S1                 0.0000
     20 ****        -1.4453   1.5826  -1.7018 C.3            1 S1                 0.0000
     21 ****        -3.8463  -0.6882   0.9900 H              1 S1                 0.0000
     22 ****        -3.2360  -2.1760   0.2702 H              1 S1                 0.0000
     23 ****        -4.2740  -1.1360  -0.6715 H              1 S1                 0.0000
     24 ****        -0.3885   0.1404   0.4025 H              1 S1                 0.0000
     25 ****        -1.3873  -0.7995   1.4586 H              1 S1                 0.0000
     26 ****        -1.0103  -2.8273  -0.0124 H              1 S1                 0.0000
     27 ****        -0.0716  -1.8547  -1.1194 H              1 S1                 0.0000
     28 ****         0.7500  -2.9727   1.4238 H              1 S1                 0.0000
     29 ****         2.6063  -2.8398   2.0791 H              1 S1                 0.0000
     30 ****         4.5159  -3.2027   3.1844 H              1 S1                 0.0000
     31 ****         6.8917  -2.5955   3.6408 H              1 S1                 0.0000
     32 ****         7.9310  -0.7057   2.3541 H              1 S1                 0.0000
     33 ****         6.5243   0.4945   0.6586 H              1 S1                 0.0000
     34 ****        -2.3175   1.5792   0.2823 H              1 S1                 0.0000
     35 ****        -4.1389   0.8877  -2.0687 H              1 S1                 0.0000
     36 ****        -4.6543   1.1585  -0.4169 H              1 S1                 0.0000
     37 ****        -5.0522   3.1621  -1.7873 H              1 S1                 0.0000
     38 ****        -3.9405   3.4915  -0.4813 H              1 S1                 0.0000
     39 ****        -3.1937   2.9913  -3.4029 H              1 S1                 0.0000
     40 ****        -3.0989   4.5200  -2.5607 H              1 S1                 0.0000
     41 ****        -0.8620   3.4103  -2.7069 H              1 S1                 0.0000
     42 ****        -1.3548   3.6412  -1.0467 H              1 S1                 0.0000
     43 ****        -0.4231   1.3857  -1.3808 H              1 S1                 0.0000
     44 ****        -1.5716   1.0449  -2.6427 H              1 S1                 0.0000
     45 ****        -2.0786  -0.7891  -1.3402 H              1 S1                 0.0000
     46 ****         1.4616  -0.3995  -0.8014 LP             1 S1                 0.0000
     47 ****         3.0944  -0.2536  -0.2420 LP             1 S1                 0.0000
     48 ****         4.3034  -0.1410   0.2951 LP             1 S1                 0.0000
@<TRIPOS>BOND
    1    1    2 1     
    2    1   21 1     
    3    1   22 1     
    4    1   23 1     
    5    2    3 1     
    6    2   15 1     
    7    2   45 1     
    8    3    4 1     
    9    3   24 1     
   10    3   25 1     
   11    4    5 1     
   12    4   26 1     
   13    4   27 1     
   14    5    6 am    
   15    5   28 1     
   16    6    7 2     
   17    6    8 am    
   18    8    9 1     
   19    8   29 1     
   20    9   14 ar    
   21    9   10 ar    
   22   10   11 ar    
   23   10   30 1     
   24   11   12 ar    
   25   11   31 1     
   26   12   13 ar    
   27   12   32 1     
   28   13   14 ar    
   29   13   33 1     
   30   15   20 1     
   31   15   16 1     
   32   15   34 1     
   33   16   17 1     
   34   16   35 1     
   35   16   36 1     
   36   17   18 1     
   37   17   37 1     
   38   17   38 1     
   39   18   19 1     
   40   18   39 1     
   41   18   40 1     
   42   19   20 1     
   43   19   41 1     
   44   19   42 1     
   45   20   43 1     
   46   20   44 1     
   47    7   46 1     
   48    7   47 1     
   49   14   48 1     
@<TRIPOS>SUBSTRUCTURE
      1 S1             1
@<TRIPOS>SET
LONE_PAIRS      STATIC     ATOMS    <user>   **** ""
3 46 47 48
DONOR_HYDROGENS      STATIC     ATOMS    <user>   **** ""
3 45 28 29
ATOM$BLUE        STATIC     ATOMS    COLORGROUP SYSTEM
3 46 47 48
ATOM$RED        STATIC     ATOMS    COLORGROUP SYSTEM
3 45 28 29
