AV-unprocessed.smi:2902|AV-procd|sdf|11155|dock5
  -GOLD-   2272016 33D 1   1.00000     0.00000
 Structure written by MMmdl.
 47 48  0  0  0  0  0  0  0  0  1 V2000
  151.7775  139.5104  157.6434 C   0  0  0  0  0  0  0  0  0  0  0  0
  151.3207  140.9012  158.1099 C   0  0  0  0  0  0  0  0  0  0  0  0
  151.1983  141.9352  156.9726 C   0  0  2  0  0  0  0  0  0  0  0  0
  150.8150  143.1723  157.5659 O   0  0  0  0  0  0  0  0  0  0  0  0
  151.8469  144.1480  157.6961 C   0  0  0  0  0  0  0  0  0  0  0  0
  152.7828  143.7167  158.8254 C   0  0  0  0  0  0  0  0  0  0  0  0
  152.0936  144.1580  160.1230 C   0  0  0  0  0  0  0  0  0  0  0  0
  151.0634  145.2273  159.7266 C   0  0  0  0  0  0  0  0  0  0  0  0
  151.2323  145.4461  158.2197 C   0  0  0  0  0  0  0  0  0  0  0  0
  150.1583  141.5262  155.9149 C   0  0  0  0  0  0  0  0  0  0  0  0
  150.4418  140.6904  155.0567 O   0  0  0  0  0  0  0  0  0  0  0  0
  148.9588  142.1206  156.0050 N   0  0  0  0  0  0  0  0  0  0  0  0
  147.8102  141.8997  155.1267 C   0  0  2  0  0  0  0  0  0  0  0  0
  148.2978  141.8435  153.6692 C   0  0  0  0  0  0  0  0  0  0  0  0
  146.7034  142.9612  155.3655 C   0  0  1  0  0  0  0  0  0  0  0  0
  145.5364  142.8564  154.3650 C   0  0  0  0  0  0  0  0  0  0  0  0
  146.2268  142.9837  156.7449 N   0  0  0  0  0  0  0  0  0  0  0  0
  146.8885  143.2236  157.8790 C   0  0  0  0  0  0  0  0  0  0  0  0
  146.1399  143.1319  158.9693 N   0  0  0  0  0  0  0  0  0  0  0  0
  144.9434  142.8047  158.3975 C   0  0  0  0  0  0  0  0  0  0  0  0
  144.9412  142.6969  157.0691 N   0  0  0  0  0  0  0  0  0  0  0  0
  151.8974  138.8388  158.4937 H   0  0  0  0  0  0  0  0  0  0  0  0
  152.7355  139.5651  157.1260 H   0  0  0  0  0  0  0  0  0  0  0  0
  151.0551  139.0552  156.9657 H   0  0  0  0  0  0  0  0  0  0  0  0
  150.3723  140.8129  158.6417 H   0  0  0  0  0  0  0  0  0  0  0  0
  152.0378  141.2717  158.8429 H   0  0  0  0  0  0  0  0  0  0  0  0
  152.1803  142.0535  156.5096 H   0  0  0  0  0  0  0  0  0  0  0  0
  152.3981  144.3073  156.7678 H   0  0  0  0  0  0  0  0  0  0  0  0
  153.0016  142.6485  158.8059 H   0  0  0  0  0  0  0  0  0  0  0  0
  153.7313  144.2458  158.7252 H   0  0  0  0  0  0  0  0  0  0  0  0
  151.5875  143.3120  160.5901 H   0  0  0  0  0  0  0  0  0  0  0  0
  152.8191  144.5411  160.8417 H   0  0  0  0  0  0  0  0  0  0  0  0
  150.0574  144.8613  159.9364 H   0  0  0  0  0  0  0  0  0  0  0  0
  151.1955  146.1545  160.2850 H   0  0  0  0  0  0  0  0  0  0  0  0
  151.9288  146.2681  158.0507 H   0  0  0  0  0  0  0  0  0  0  0  0
  150.2963  145.7020  157.7219 H   0  0  0  0  0  0  0  0  0  0  0  0
  148.8234  142.7804  156.7577 H   0  0  0  0  0  0  0  0  0  0  0  0
  147.3669  140.9272  155.3468 H   0  0  0  0  0  0  0  0  0  0  0  0
  147.4653  141.6826  152.9837 H   0  0  0  0  0  0  0  0  0  0  0  0
  149.0027  141.0237  153.5267 H   0  0  0  0  0  0  0  0  0  0  0  0
  148.8014  142.7643  153.3735 H   0  0  0  0  0  0  0  0  0  0  0  0
  147.1650  143.9345  155.1914 H   0  0  0  0  0  0  0  0  0  0  0  0
  145.8977  142.9063  153.3376 H   0  0  0  0  0  0  0  0  0  0  0  0
  144.8279  143.6733  154.5046 H   0  0  0  0  0  0  0  0  0  0  0  0
  144.9859  141.9230  154.4747 H   0  0  0  0  0  0  0  0  0  0  0  0
  147.9408  143.4653  157.9082 H   0  0  0  0  0  0  0  0  0  0  0  0
  144.0479  142.6363  158.9775 H   0  0  0  0  0  0  0  0  0  0  0  0
  1  2  1  0  0  0  0
  1 22  1  0  0  0  0
  1 23  1  0  0  0  0
  1 24  1  0  0  0  0
  2  3  1  0  0  0  0
  2 25  1  0  0  0  0
  2 26  1  0  0  0  0
  3  4  1  0  0  0  0
  3 10  1  0  0  0  0
  3 27  1  0  0  0  0
  4  5  1  0  0  0  0
  5  9  1  0  0  0  0
  5  6  1  0  0  0  0
  5 28  1  0  0  0  0
  6  7  1  0  0  0  0
  6 29  1  0  0  0  0
  6 30  1  0  0  0  0
  7  8  1  0  0  0  0
  7 31  1  0  0  0  0
  7 32  1  0  0  0  0
  8  9  1  0  0  0  0
  8 33  1  0  0  0  0
  8 34  1  0  0  0  0
  9 35  1  0  0  0  0
  9 36  1  0  0  0  0
 10 11  2  0  0  0  0
 10 12  1  0  0  0  0
 12 13  1  0  0  0  0
 12 37  1  0  0  0  0
 13 14  1  0  0  0  0
 13 15  1  0  0  0  0
 13 38  1  0  0  0  0
 14 39  1  0  0  0  0
 14 40  1  0  0  0  0
 14 41  1  0  0  0  0
 15 16  1  0  0  0  0
 15 17  1  0  0  0  0
 15 42  1  0  0  0  0
 16 43  1  0  0  0  0
 16 44  1  0  0  0  0
 16 45  1  0  0  0  0
 17 21  1  0  0  0  0
 17 18  1  0  0  0  0
 18 19  2  0  0  0  0
 18 46  1  0  0  0  0
 19 20  1  0  0  0  0
 20 21  2  0  0  0  0
 20 47  1  0  0  0  0
M  END
> <s_m_source_file>
AV-unprocessed.smi

> <i_m_source_file_index>
2902

> <i_lp_mmshare_version>
43012

> <i_f3d_flags>
0

> <s_epik_input>
W0NIMl0xW0NIMl1bQ0gyXVtDSDJdW0NIXTFPW0NAQEhdKFtDSDJdW0NIM10pQyg9TylbTkhdW0NASF0oW0NIM10pW0NASF0oW0NIM10pbjJbY0hdbltjSF1uMg==

> <s_epik_cmdline>
J2VwaWtfcHl0aG9uJywgJy1waCcsICc3LjAnLCAnLXRuJywgJzgnLCAnLW1hJywgJzIwMCcsICctbWV0YWxfYmluZGluZycsICctaW1hZScsICc8aW5maWxlLm1hZT4nLCAnLW9tYWUnLCAnPG91dGZpbGUubWFlPic=

> <r_lp_tautomer_probability>
1

> <r_epik_Ionization_Penalty>
6.95617e-05

> <r_epik_Ionization_Penalty_Charging>
0

> <r_epik_Ionization_Penalty_Neutral>
6.95617e-05

> <r_epik_State_Penalty>
-0

> <r_epik_Charging_Adjusted_Penalty>
0

> <i_epik_Tot_Q>
0

> <i_epik_Tot_abs_Q>
0

> <r_epik_Metal_State_Penalty>
-0

> <b_epik_Metal_Only>
0

> <s_lp_Force_Field>
OPLS_2005

> <r_lp_Energy>
29.711

> <b_lp_Chiralities_Consistent>
1

> <s_lp_Variant>
AV-unprocessed.smi:2902-5

> <Gold.Version>
5.8.1

> <Gold.Id.Protein>
6NUR|6NUR_protein|mol2

> <Gold.PLP.Fitness>
43.9305

> <Gold.PLP.PLP>
-40.7930

> <Gold.PLP.part.hbond>
-3.0000

> <Gold.PLP.part.metal>
0.0000

> <Gold.PLP.part.buried>
-4.9390

> <Gold.PLP.part.nonpolar>
-32.3297

> <Gold.PLP.part.repulsive>
0.2758

> <Gold.PLP.ligand.clash>
0.0000

> <Gold.PLP.ligand.torsion>
1.5199

> <Gold.PLP.Chemscore.Hbond>
1.8800

> <Gold.PLP.Chemscore.CHOScore>
0.0000

> <Gold.PLP.Chemscore.Metal>
0.0000

> <Gold.Chemscore.Hbonds>
donor molecule, donor type, donor heavy atom, donor atom, acceptor molecule, acceptor atom, score
      L1  H    12    37       P1  8028  0.02
      P1  H  7989  7998       L1    11  0.90
      L1  C    18    46       P1  8028  0.04
      L1  C    18    46       P1  8029  0.19

> <Gold.PLP.Chemscore.Internal.Correction>
0.5374

> <Gold.Rescore>
     Score         DG    S(hbond)    S(metal)    S(lipo)     H(rot)  DE(clash)    DE(int)     intcor
     12.33     -15.89       1.75        0.00      97.96       2.69       0.10       3.45       ----

> <Gold.Chemscore.Fitness>
12.3287

> <Gold.Chemscore.DG>
-15.8871

> <Gold.Chemscore.ZeroCoef>
-5.4800

> <Gold.Chemscore.Hbond>
1.7488

> <Gold.Chemscore.Metal>
0.0000

> <Gold.Chemscore.Lipo>
97.9608

> <Gold.Chemscore.Internal_Hbond>
0.0000

> <Gold.Chemscore.DEClash>
0.1045

> <Gold.Chemscore.DEInternal>
3.4539

> <Gold.Chemscore.Rot>
2.6935

> <Gold.Chemscore.Internal.Correction>
   9.000000E+99

> <Gold.Chemscore.Hbonds>
donor molecule, donor type, donor heavy atom, donor atom, acceptor molecule, acceptor atom, score
      L1  H    12    37       P1  8028  0.04
      P1  H  7989  7998       L1    11  0.87

> <Gold.Chemscore.Hbond.Weighted>
-5.8411

> <Gold.Chemscore.Metal.Weighted>
-0.0000

> <Gold.Chemscore.Lipo.Weighted>
-11.4614

> <Gold.Chemscore.Internal_Hbond.Weighted>
0.0000

> <Gold.Chemscore.DEClash.Weighted>
0.1045

> <Gold.Chemscore.DEInternal.Weighted>
3.4539

> <Gold.Chemscore.Rot.Weighted>
6.8954

> <Gold.Chemscore.Internal.Correction.Weighted>
   9.000000E+99

> <Gold.Protein.RotatedTorsions>
[ 6907 6896 6895 6894 ] final   -1.65 input  -60.11 | X-H torsion
[ 7974 7965 7964 7962 ] final -100.14 input  175.53 | X-H torsion
[ 8008 7997 7996 7995 ] final  -55.88 input   59.86 | X-H torsion
[ 10167 10162 10161 10158 ] final   63.50 input  -65.29 | X-H torsion
[ 10718 10713 10712 10709 ] final -154.71 input   66.30 | X-H torsion
[ 10763 10752 10751 10750 ] final    3.98 input  -60.55 | X-H torsion
[ 11005 11000 10999 10996 ] final  125.56 input  -57.11 | X-H torsion

> <Gold.Protein.ActiveResidues>
 VAL166  LYS551  ARG553  GLY616  TRP617  ASP618  TYR619  PRO620  LYS621  CYS622 
 ASP623  PHE694  ASN695  SER759  ASP760  ASP761  ALA762  ILE779  LEU786  VAL792 
 PHE793  MET794  SER795  GLU796  ALA797  LYS798  CYS799  TRP800  GLU811  SER814 

> <Gold.Protein.RotatedAtoms>
  151.5426  135.1068  159.9929 H   0  0  0  0  0  0  0  0  0  0  0  0  # atno 6907 bound_to 6896
  152.4528  133.7660  159.6783 H   0  0  0  0  0  0  0  0  0  0  0  0  # atno 6908 bound_to 6896
  150.8462  133.7791  159.3066 H   0  0  0  0  0  0  0  0  0  0  0  0  # atno 6909 bound_to 6896
  145.2984  140.9371  143.2837 H   0  0  0  0  0  0  0  0  0  0  0  0  # atno 7974 bound_to 7965
  154.4210  140.1143  156.5547 H   0  0  0  0  0  0  0  0  0  0  0  0  # atno 8008 bound_to 7997
  155.6373  140.3496  155.4684 H   0  0  0  0  0  0  0  0  0  0  0  0  # atno 8009 bound_to 7997
  155.9899  140.1177  157.0637 H   0  0  0  0  0  0  0  0  0  0  0  0  # atno 8010 bound_to 7997
  140.1324  144.4630  150.6857 H   0  0  0  0  0  0  0  0  0  0  0  0  # atno 10167 bound_to 10162
  156.5029  130.8400  151.2616 H   0  0  0  0  0  0  0  0  0  0  0  0  # atno 10718 bound_to 10713
  153.2768  135.6937  153.7425 H   0  0  0  0  0  0  0  0  0  0  0  0  # atno 10763 bound_to 10752
  153.6428  135.3390  155.3077 H   0  0  0  0  0  0  0  0  0  0  0  0  # atno 10764 bound_to 10752
  154.8482  135.4436  154.1808 H   0  0  0  0  0  0  0  0  0  0  0  0  # atno 10765 bound_to 10752
  139.9412  134.9635  156.8576 H   0  0  0  0  0  0  0  0  0  0  0  0  # atno 11005 bound_to 11000
  144.9114  139.4524  143.6585 LP  0  0  0  0  0  0  0  0  0  0  0  0  # atno 17320 bound_to 7965
  146.3160  139.7924  142.8983 LP  0  0  0  0  0  0  0  0  0  0  0  0  # atno 17321 bound_to 7965
  140.6809  143.2326  151.5386 LP  0  0  0  0  0  0  0  0  0  0  0  0  # atno 17342 bound_to 10162
  139.5513  144.2389  152.1535 LP  0  0  0  0  0  0  0  0  0  0  0  0  # atno 17343 bound_to 10162
  157.7460  130.9975  150.2820 LP  0  0  0  0  0  0  0  0  0  0  0  0  # atno 17370 bound_to 10713
  156.3315  130.3801  149.7487 LP  0  0  0  0  0  0  0  0  0  0  0  0  # atno 17371 bound_to 10713
  140.5947  134.0229  155.7513 LP  0  0  0  0  0  0  0  0  0  0  0  0  # atno 17394 bound_to 11000
  141.1047  133.9712  157.3017 LP  0  0  0  0  0  0  0  0  0  0  0  0  # atno 17395 bound_to 11000

$$$$
