AV-unprocessed.smi:3056|AV-procd|sdf|11649|dock6
  -GOLD-   2272017 43D 1   1.00000     0.00000
 Structure written by MMmdl.
 48 49  0  0  0  0  0  0  0  0  2 V2000
  143.7210  131.7931  150.5242 C   0  0  0  0  0  0  0  0  0  0  0  0
  144.0472  133.1931  150.9585 C   0  0  0  0  0  0  0  0  0  0  0  0
  144.3822  134.3068  150.1374 C   0  0  0  0  0  0  0  0  0  0  0  0
  144.6140  135.4068  150.8341 N   0  0  0  0  0  0  0  0  0  0  0  0
  144.4358  135.0382  152.1222 N   0  0  0  0  0  0  0  0  0  0  0  0
  144.6052  136.0127  153.1925 C   0  0  2  0  0  0  0  0  0  0  0  0
  143.3814  135.9738  154.1277 C   0  0  0  0  0  0  0  0  0  0  0  0
  144.9195  137.4308  152.6388 C   0  0  2  0  0  0  0  0  0  0  0  0
  146.3068  137.5101  151.9747 C   0  0  0  0  0  0  0  0  0  0  0  0
  144.8497  138.4490  153.7146 N   0  3  0  0  0  0  0  0  0  0  0  0
  146.0583  138.5666  154.5644 C   0  0  0  0  0  0  0  0  0  0  0  0
  146.6414  139.9901  154.6045 C   0  0  0  0  0  0  0  0  0  0  0  0
  145.9141  140.9192  154.9588 O   0  0  0  0  0  0  0  0  0  0  0  0
  147.9322  140.1824  154.2416 N   0  0  0  0  0  0  0  0  0  0  0  0
  148.6635  141.4525  154.2877 C   0  0  0  0  0  0  0  0  0  0  0  0
  149.8105  141.3148  155.3042 C   0  0  0  0  0  0  0  0  0  0  0  0
  150.6518  140.2250  154.9348 O   0  0  0  0  0  0  0  0  0  0  0  0
  149.9639  138.9775  154.8633 C   0  0  2  0  0  0  0  0  0  0  0  0
  150.9772  137.8910  154.4876 C   0  0  0  0  0  0  0  0  0  0  0  0
  148.8218  139.0909  153.8337 C   0  0  0  0  0  0  0  0  0  0  0  0
  144.0907  133.7065  152.2238 C   0  0  0  0  0  0  0  0  0  0  0  0
  144.1264  131.5715  149.5367 H   0  0  0  0  0  0  0  0  0  0  0  0
  142.6445  131.6296  150.4741 H   0  0  0  0  0  0  0  0  0  0  0  0
  144.1282  131.0512  151.2116 H   0  0  0  0  0  0  0  0  0  0  0  0
  144.4629  134.3478  149.0611 H   0  0  0  0  0  0  0  0  0  0  0  0
  145.4679  135.6855  153.7753 H   0  0  0  0  0  0  0  0  0  0  0  0
  143.5444  136.5657  155.0279 H   0  0  0  0  0  0  0  0  0  0  0  0
  143.1711  134.9538  154.4513 H   0  0  0  0  0  0  0  0  0  0  0  0
  142.4867  136.3544  153.6335 H   0  0  0  0  0  0  0  0  0  0  0  0
  144.1867  137.6785  151.8689 H   0  0  0  0  0  0  0  0  0  0  0  0
  146.3793  136.8566  151.1052 H   0  0  0  0  0  0  0  0  0  0  0  0
  147.0966  137.2268  152.6712 H   0  0  0  0  0  0  0  0  0  0  0  0
  146.5186  138.5219  151.6284 H   0  0  0  0  0  0  0  0  0  0  0  0
  144.6626  139.3431  153.2847 H   0  0  0  0  0  0  0  0  0  0  0  0
  145.8313  138.2208  155.5728 H   0  0  0  0  0  0  0  0  0  0  0  0
  146.8179  137.9010  154.1537 H   0  0  0  0  0  0  0  0  0  0  0  0
  149.0659  141.6704  153.2972 H   0  0  0  0  0  0  0  0  0  0  0  0
  148.0487  142.3098  154.5554 H   0  0  0  0  0  0  0  0  0  0  0  0
  150.4058  142.2276  155.3275 H   0  0  0  0  0  0  0  0  0  0  0  0
  149.4209  141.1610  156.3118 H   0  0  0  0  0  0  0  0  0  0  0  0
  149.5505  138.7441  155.8462 H   0  0  0  0  0  0  0  0  0  0  0  0
  150.5007  136.9122  154.4311 H   0  0  0  0  0  0  0  0  0  0  0  0
  151.7749  137.8294  155.2282 H   0  0  0  0  0  0  0  0  0  0  0  0
  151.4361  138.0964  153.5200 H   0  0  0  0  0  0  0  0  0  0  0  0
  148.3057  138.1337  153.7477 H   0  0  0  0  0  0  0  0  0  0  0  0
  149.2231  139.3059  152.8420 H   0  0  0  0  0  0  0  0  0  0  0  0
  143.9066  133.2368  153.1789 H   0  0  0  0  0  0  0  0  0  0  0  0
  144.0761  138.2181  154.3223 H   0  0  0  0  0  0  0  0  0  0  0  0
  1  2  1  0  0  0  0
  1 22  1  0  0  0  0
  1 23  1  0  0  0  0
  1 24  1  0  0  0  0
  2 21  2  0  0  0  0
  2  3  1  0  0  0  0
  3  4  2  0  0  0  0
  3 25  1  0  0  0  0
  4  5  1  0  0  0  0
  5  6  1  0  0  0  0
  5 21  1  0  0  0  0
  6  7  1  0  0  0  0
  6  8  1  0  0  0  0
  6 26  1  0  0  0  0
  7 27  1  0  0  0  0
  7 28  1  0  0  0  0
  7 29  1  0  0  0  0
  8  9  1  0  0  0  0
  8 10  1  0  0  0  0
  8 30  1  0  0  0  0
  9 31  1  0  0  0  0
  9 32  1  0  0  0  0
  9 33  1  0  0  0  0
 10 11  1  0  0  0  0
 10 34  1  0  0  0  0
 10 48  1  0  0  0  0
 11 12  1  0  0  0  0
 11 35  1  0  0  0  0
 11 36  1  0  0  0  0
 12 13  2  0  0  0  0
 12 14  1  0  0  0  0
 14 20  1  0  0  0  0
 14 15  1  0  0  0  0
 15 16  1  0  0  0  0
 15 37  1  0  0  0  0
 15 38  1  0  0  0  0
 16 17  1  0  0  0  0
 16 39  1  0  0  0  0
 16 40  1  0  0  0  0
 17 18  1  0  0  0  0
 18 19  1  0  0  0  0
 18 20  1  0  0  0  0
 18 41  1  0  0  0  0
 19 42  1  0  0  0  0
 19 43  1  0  0  0  0
 19 44  1  0  0  0  0
 20 45  1  0  0  0  0
 20 46  1  0  0  0  0
 21 47  1  0  0  0  0
M  CHG  1  10   1
M  END
> <s_m_source_file>
AV-unprocessed.smi

> <i_m_source_file_index>
3056

> <i_lp_mmshare_version>
43012

> <i_f3d_flags>
0

> <s_epik_input>
W0NIM11jMVtjSF1ubihbY0hdMSlbQ0BIXShbQ0gzXSlbQ0BIXShbQ0gzXSlbTkhdW0NIMl1DKD1PKU4yW0NIMl1bQ0gyXU9bQ0BASF0oW0NIM10pW0NIMl0y

> <s_epik_cmdline>
J2VwaWtfcHl0aG9uJywgJy1waCcsICc3LjAnLCAnLXRuJywgJzgnLCAnLW1hJywgJzIwMCcsICctbWV0YWxfYmluZGluZycsICctaW1hZScsICc8aW5maWxlLm1hZT4nLCAnLW9tYWUnLCAnPG91dGZpbGUubWFlPic=

> <r_lp_tautomer_probability>
1

> <r_epik_Ionization_Penalty>
0.233715

> <r_epik_Ionization_Penalty_Charging>
0.233698

> <r_epik_Ionization_Penalty_Neutral>
1.68157e-05

> <r_epik_State_Penalty>
0.225221

> <r_epik_Charging_Adjusted_Penalty>
0.458919

> <i_epik_Tot_Q>
1

> <i_epik_Tot_abs_Q>
1

> <r_epik_Metal_State_Penalty>
0.225535

> <b_epik_Metal_Only>
0

> <s_lp_Force_Field>
OPLS_2005

> <r_lp_Energy>
28.5623

> <b_lp_Chiralities_Consistent>
1

> <s_lp_Variant>
AV-unprocessed.smi:3056-5

> <Gold.Version>
5.8.1

> <Gold.Id.Protein>
6NUR|6NUR_protein|mol2

> <Gold.PLP.Fitness>
46.4716

> <Gold.PLP.PLP>
-33.0217

> <Gold.PLP.part.hbond>
-2.0000

> <Gold.PLP.part.metal>
0.0000

> <Gold.PLP.part.buried>
0.0742

> <Gold.PLP.part.nonpolar>
-31.4611

> <Gold.PLP.part.repulsive>
0.4248

> <Gold.PLP.ligand.clash>
0.0000

> <Gold.PLP.ligand.torsion>
0.8097

> <Gold.PLP.Chemscore.Hbond>
3.0000

> <Gold.PLP.Chemscore.CHOScore>
1.9790

> <Gold.PLP.Chemscore.Metal>
0.0000

> <Gold.Chemscore.Hbonds>
donor molecule, donor type, donor heavy atom, donor atom, acceptor molecule, acceptor atom, score
      L1  H    10    34       P1 10175  2.00
      P1  H  7989  7998       L1    17  1.00
      L1  C     3    25       P1  7921  1.00
      L1  C    21    47       P1 10957  1.00

> <Gold.PLP.Chemscore.Internal.Correction>
0.1325

> <Gold.Rescore>
     Score         DG    S(hbond)    S(metal)    S(lipo)     H(rot)  DE(clash)    DE(int)     intcor
     15.26     -16.63       1.76        0.00      83.05       1.74       0.46       0.92       ----

> <Gold.Chemscore.Fitness>
15.2555

> <Gold.Chemscore.DG>
-16.6320

> <Gold.Chemscore.ZeroCoef>
-5.4800

> <Gold.Chemscore.Hbond>
1.7598

> <Gold.Chemscore.Metal>
0.0000

> <Gold.Chemscore.Lipo>
83.0497

> <Gold.Chemscore.Internal_Hbond>
0.0000

> <Gold.Chemscore.DEClash>
0.4562

> <Gold.Chemscore.DEInternal>
0.9203

> <Gold.Chemscore.Rot>
1.7354

> <Gold.Chemscore.Internal.Correction>
   9.000000E+99

> <Gold.Chemscore.Hbonds>
donor molecule, donor type, donor heavy atom, donor atom, acceptor molecule, acceptor atom, score
      L1  H    10    34       P1 10175  0.97
      P1  H  7989  7998       L1    17  0.44

> <Gold.Chemscore.Hbond.Weighted>
-5.8778

> <Gold.Chemscore.Metal.Weighted>
-0.0000

> <Gold.Chemscore.Lipo.Weighted>
-9.7168

> <Gold.Chemscore.Internal_Hbond.Weighted>
0.0000

> <Gold.Chemscore.DEClash.Weighted>
0.4562

> <Gold.Chemscore.DEInternal.Weighted>
0.9203

> <Gold.Chemscore.Rot.Weighted>
4.4426

> <Gold.Chemscore.Internal.Correction.Weighted>
   9.000000E+99

> <Gold.Protein.RotatedTorsions>
[ 6907 6896 6895 6894 ] final -137.66 input  -60.11 | X-H torsion
[ 7974 7965 7964 7962 ] final  -95.65 input  175.53 | X-H torsion
[ 8008 7997 7996 7995 ] final  -56.08 input   59.86 | X-H torsion
[ 10167 10162 10161 10158 ] final -161.87 input  -65.29 | X-H torsion
[ 10718 10713 10712 10709 ] final -105.18 input   66.30 | X-H torsion
[ 10763 10752 10751 10750 ] final   47.89 input  -60.55 | X-H torsion
[ 11005 11000 10999 10996 ] final  147.57 input  -57.11 | X-H torsion

> <Gold.Protein.ActiveResidues>
 VAL166  LYS551  ARG553  GLY616  TRP617  ASP618  TYR619  PRO620  LYS621  CYS622 
 ASP623  PHE694  ASN695  SER759  ASP760  ASP761  ALA762  ILE779  LEU786  VAL792 
 PHE793  MET794  SER795  GLU796  ALA797  LYS798  CYS799  TRP800  GLU811  SER814 

> <Gold.Protein.RotatedAtoms>
  151.0252  133.5840  159.2666 H   0  0  0  0  0  0  0  0  0  0  0  0  # atno 6907 bound_to 6896
  151.2942  135.0749  159.9225 H   0  0  0  0  0  0  0  0  0  0  0  0  # atno 6908 bound_to 6896
  152.5332  133.9945  159.7920 H   0  0  0  0  0  0  0  0  0  0  0  0  # atno 6909 bound_to 6896
  145.3572  140.9486  143.2521 H   0  0  0  0  0  0  0  0  0  0  0  0  # atno 7974 bound_to 7965
  154.4217  140.1138  156.5581 H   0  0  0  0  0  0  0  0  0  0  0  0  # atno 8008 bound_to 7997
  155.6340  140.3496  155.4673 H   0  0  0  0  0  0  0  0  0  0  0  0  # atno 8009 bound_to 7997
  155.9925  140.1182  157.0615 H   0  0  0  0  0  0  0  0  0  0  0  0  # atno 8010 bound_to 7997
  139.6434  144.0218  152.2109 H   0  0  0  0  0  0  0  0  0  0  0  0  # atno 10167 bound_to 10162
  156.0335  130.5551  150.7502 H   0  0  0  0  0  0  0  0  0  0  0  0  # atno 10718 bound_to 10713
  152.9796  135.5962  154.3837 H   0  0  0  0  0  0  0  0  0  0  0  0  # atno 10763 bound_to 10752
  154.3499  135.2767  155.2379 H   0  0  0  0  0  0  0  0  0  0  0  0  # atno 10764 bound_to 10752
  154.4423  135.6010  153.6192 H   0  0  0  0  0  0  0  0  0  0  0  0  # atno 10765 bound_to 10752
  140.0886  134.9054  157.1616 H   0  0  0  0  0  0  0  0  0  0  0  0  # atno 11005 bound_to 11000
  144.8673  139.5089  143.6784 LP  0  0  0  0  0  0  0  0  0  0  0  0  # atno 17320 bound_to 7965
  146.2943  139.7230  142.9138 LP  0  0  0  0  0  0  0  0  0  0  0  0  # atno 17321 bound_to 7965
  139.9913  144.6359  150.7811 LP  0  0  0  0  0  0  0  0  0  0  0  0  # atno 17342 bound_to 10162
  140.7502  143.2951  151.3225 LP  0  0  0  0  0  0  0  0  0  0  0  0  # atno 17343 bound_to 10162
  157.5048  131.0921  151.0270 LP  0  0  0  0  0  0  0  0  0  0  0  0  # atno 17370 bound_to 10713
  157.0641  130.5837  149.5391 LP  0  0  0  0  0  0  0  0  0  0  0  0  # atno 17371 bound_to 10713
  140.3384  134.2731  155.7216 LP  0  0  0  0  0  0  0  0  0  0  0  0  # atno 17394 bound_to 11000
  141.2071  133.7816  157.0140 LP  0  0  0  0  0  0  0  0  0  0  0  0  # atno 17395 bound_to 11000

$$$$
