AV-unprocessed.smi:174|AV-procd|sdf|1427|dock9
  -GOLD-   2262019203D 1   1.00000     0.00000
 Structure written by MMmdl.
 51 54  0  0  0  0  0  0  0  0  1 V2000
  148.4436  130.4260  152.8685 N   0  0  0  0  0  0  0  0  0  0  0  0
  148.4461  131.3536  153.8282 C   0  0  0  0  0  0  0  0  0  0  0  0
  148.2341  131.0739  155.0072 O   0  0  0  0  0  0  0  0  0  0  0  0
  148.7051  132.8006  153.3849 C   0  0  0  0  0  0  0  0  0  0  0  0
  148.4584  133.7875  154.4464 N   0  0  0  0  0  0  0  0  0  0  0  0
  147.3857  134.7573  154.1718 C   0  0  0  0  0  0  0  0  0  0  0  0
  146.8974  135.5113  155.4199 C   0  0  0  0  0  0  0  0  0  0  0  0
  148.0366  135.9441  156.2185 N   0  0  0  0  0  0  0  0  0  0  0  0
  148.6141  137.1024  155.8017 C   0  0  0  0  0  0  0  0  0  0  0  0
  148.3599  137.5834  154.5547 N   0  0  0  0  0  0  0  0  0  0  0  0
  148.9113  138.7295  154.1460 C   0  0  0  0  0  0  0  0  0  0  0  0
  149.7333  139.5435  154.8107 N   0  0  0  0  0  0  0  0  0  0  0  0
  149.9938  139.0667  156.0613 C   0  0  0  0  0  0  0  0  0  0  0  0
  149.4818  137.8669  156.6312 C   0  0  0  0  0  0  0  0  0  0  0  0
  149.9786  137.7064  157.9197 N   0  0  0  0  0  0  0  0  0  0  0  0
  150.7401  138.7506  158.1008 C   0  0  0  0  0  0  0  0  0  0  0  0
  150.8100  139.6166  157.0339 N   0  0  0  0  0  0  0  0  0  0  0  0
  151.5909  140.8376  156.9591 C   0  0  0  0  0  0  0  0  0  0  0  0
  150.7512  142.1055  157.2209 C   0  0  2  0  0  0  0  0  0  0  0  0
  150.2979  142.5736  155.9665 O   0  0  0  0  0  0  0  0  0  0  0  0
  151.5155  143.2412  157.9378 C   0  0  1  0  0  0  0  0  0  0  0  0
  150.6210  144.3081  158.5759 C   0  0  0  0  0  0  0  0  0  0  0  0
  151.4712  144.8764  159.7031 C   0  0  0  0  0  0  0  0  0  0  0  0
  152.6297  143.8855  159.8294 C   0  0  0  0  0  0  0  0  0  0  0  0
  152.2161  142.7579  159.0746 O   0  0  0  0  0  0  0  0  0  0  0  0
  148.9047  134.8495  156.6697 C   0  0  0  0  0  0  0  0  0  0  0  0
  149.1959  133.7921  155.5872 C   0  0  0  0  0  0  0  0  0  0  0  0
  150.0964  132.9797  155.8001 O   0  0  0  0  0  0  0  0  0  0  0  0
  148.2823  129.4588  153.1087 H   0  0  0  0  0  0  0  0  0  0  0  0
  148.6067  130.6913  151.9081 H   0  0  0  0  0  0  0  0  0  0  0  0
  149.7282  132.8934  153.0151 H   0  0  0  0  0  0  0  0  0  0  0  0
  148.0643  133.0128  152.5279 H   0  0  0  0  0  0  0  0  0  0  0  0
  147.7683  135.4742  153.4442 H   0  0  0  0  0  0  0  0  0  0  0  0
  146.5405  134.2558  153.6980 H   0  0  0  0  0  0  0  0  0  0  0  0
  146.2469  136.3370  155.1327 H   0  0  0  0  0  0  0  0  0  0  0  0
  146.2866  134.8476  156.0337 H   0  0  0  0  0  0  0  0  0  0  0  0
  148.6569  139.0380  153.1428 H   0  0  0  0  0  0  0  0  0  0  0  0
  151.2829  138.9154  159.0203 H   0  0  0  0  0  0  0  0  0  0  0  0
  152.4108  140.7705  157.6756 H   0  0  0  0  0  0  0  0  0  0  0  0
  152.0481  140.8849  155.9697 H   0  0  0  0  0  0  0  0  0  0  0  0
  149.8710  141.8398  157.8078 H   0  0  0  0  0  0  0  0  0  0  0  0
  149.9131  143.4284  156.0871 H   0  0  0  0  0  0  0  0  0  0  0  0
  152.2250  143.7128  157.2547 H   0  0  0  0  0  0  0  0  0  0  0  0
  150.3028  145.0689  157.8625 H   0  0  0  0  0  0  0  0  0  0  0  0
  149.7253  143.8471  158.9948 H   0  0  0  0  0  0  0  0  0  0  0  0
  151.8393  145.8760  159.4696 H   0  0  0  0  0  0  0  0  0  0  0  0
  150.8943  144.9368  160.6268 H   0  0  0  0  0  0  0  0  0  0  0  0
  153.5394  144.2968  159.3892 H   0  0  0  0  0  0  0  0  0  0  0  0
  152.8427  143.6140  160.8635 H   0  0  0  0  0  0  0  0  0  0  0  0
  149.8418  135.2209  157.0872 H   0  0  0  0  0  0  0  0  0  0  0  0
  148.3982  134.3458  157.4933 H   0  0  0  0  0  0  0  0  0  0  0  0
  1  2  1  0  0  0  0
  1 29  1  0  0  0  0
  1 30  1  0  0  0  0
  2  3  2  0  0  0  0
  2  4  1  0  0  0  0
  4  5  1  0  0  0  0
  4 31  1  0  0  0  0
  4 32  1  0  0  0  0
  5 27  1  0  0  0  0
  5  6  1  0  0  0  0
  6  7  1  0  0  0  0
  6 33  1  0  0  0  0
  6 34  1  0  0  0  0
  7  8  1  0  0  0  0
  7 35  1  0  0  0  0
  7 36  1  0  0  0  0
  8  9  1  0  0  0  0
  8 26  1  0  0  0  0
  9 14  1  0  0  0  0
  9 10  2  0  0  0  0
 10 11  1  0  0  0  0
 11 12  2  0  0  0  0
 11 37  1  0  0  0  0
 12 13  1  0  0  0  0
 13 17  1  0  0  0  0
 13 14  2  0  0  0  0
 14 15  1  0  0  0  0
 15 16  2  0  0  0  0
 16 17  1  0  0  0  0
 16 38  1  0  0  0  0
 17 18  1  0  0  0  0
 18 19  1  0  0  0  0
 18 39  1  0  0  0  0
 18 40  1  0  0  0  0
 19 20  1  0  0  0  0
 19 21  1  0  0  0  0
 19 41  1  0  0  0  0
 20 42  1  0  0  0  0
 21 25  1  0  0  0  0
 21 22  1  0  0  0  0
 21 43  1  0  0  0  0
 22 23  1  0  0  0  0
 22 44  1  0  0  0  0
 22 45  1  0  0  0  0
 23 24  1  0  0  0  0
 23 46  1  0  0  0  0
 23 47  1  0  0  0  0
 24 25  1  0  0  0  0
 24 48  1  0  0  0  0
 24 49  1  0  0  0  0
 26 27  1  0  0  0  0
 26 50  1  0  0  0  0
 26 51  1  0  0  0  0
 27 28  2  0  0  0  0
M  END
> <s_m_source_file>
AV-unprocessed.smi

> <i_m_source_file_index>
174

> <i_lp_mmshare_version>
43012

> <i_f3d_flags>
0

> <s_epik_input>
W05IMl1DKD1PKVtDSDJdTjFbQ0gyXVtDSDJdTihbQ0gyXUMxPU8pYyhuW2NIXW4yKWMoYzIzKW5bY0hdbjNbQ0gyXVtDQEhdKFtPSF0pW0NAQEhdNFtDSDJdW0NIMl1bQ0gyXU80

> <s_epik_cmdline>
J2VwaWtfcHl0aG9uJywgJy1waCcsICc3LjAnLCAnLXRuJywgJzgnLCAnLW1hJywgJzIwMCcsICctbWV0YWxfYmluZGluZycsICctaW1hZScsICc8aW5maWxlLm1hZT4nLCAnLW9tYWUnLCAnPG91dGZpbGUubWFlPic=

> <r_lp_tautomer_probability>
1

> <r_epik_Ionization_Penalty>
0.000250477

> <r_epik_Ionization_Penalty_Charging>
0

> <r_epik_Ionization_Penalty_Neutral>
0.000250477

> <r_epik_State_Penalty>
-0

> <r_epik_Charging_Adjusted_Penalty>
0

> <i_epik_Tot_Q>
0

> <i_epik_Tot_abs_Q>
0

> <r_epik_Metal_State_Penalty>
-0

> <b_epik_Metal_Only>
0

> <s_lp_Force_Field>
OPLS_2005

> <r_lp_Energy>
34.8675

> <b_lp_Chiralities_Consistent>
1

> <s_lp_Variant>
AV-unprocessed.smi:174-3

> <Gold.Version>
5.8.1

> <Gold.Id.Protein>
6NUR|6NUR_protein|mol2

> <Gold.PLP.Fitness>
41.8090

> <Gold.PLP.PLP>
-34.8420

> <Gold.PLP.part.hbond>
-1.8903

> <Gold.PLP.part.metal>
0.0000

> <Gold.PLP.part.buried>
-4.9091

> <Gold.PLP.part.nonpolar>
-28.0869

> <Gold.PLP.part.repulsive>
0.4632

> <Gold.PLP.ligand.clash>
0.0000

> <Gold.PLP.ligand.torsion>
1.2677

> <Gold.PLP.Chemscore.Hbond>
2.0000

> <Gold.PLP.Chemscore.CHOScore>
1.0000

> <Gold.PLP.Chemscore.Metal>
0.0000

> <Gold.Chemscore.Hbonds>
donor molecule, donor type, donor heavy atom, donor atom, acceptor molecule, acceptor atom, score
      L1  H     1    30       P1 10747  1.00
      L1  H    20    42       P1  8028  1.00
      L1  C    11    37       P1  7957  1.00

> <Gold.PLP.Chemscore.Internal.Correction>
0.5024

> <Gold.Rescore>
     Score         DG    S(hbond)    S(metal)    S(lipo)     H(rot)  DE(clash)    DE(int)     intcor
      5.09     -10.94       1.96        0.00      76.13       3.90       0.16       5.69       ----

> <Gold.Chemscore.Fitness>
5.0945

> <Gold.Chemscore.DG>
-10.9429

> <Gold.Chemscore.ZeroCoef>
-5.4800

> <Gold.Chemscore.Hbond>
1.9570

> <Gold.Chemscore.Metal>
0.0000

> <Gold.Chemscore.Lipo>
76.1318

> <Gold.Chemscore.Internal_Hbond>
0.0000

> <Gold.Chemscore.DEClash>
0.1567

> <Gold.Chemscore.DEInternal>
5.6917

> <Gold.Chemscore.Rot>
3.8988

> <Gold.Chemscore.Internal.Correction>
   9.000000E+99

> <Gold.Chemscore.Hbonds>
donor molecule, donor type, donor heavy atom, donor atom, acceptor molecule, acceptor atom, score
      L1  H     1    30       P1 10747  0.85
      L1  H    20    42       P1  8028  0.98

> <Gold.Chemscore.Hbond.Weighted>
-6.5363

> <Gold.Chemscore.Metal.Weighted>
-0.0000

> <Gold.Chemscore.Lipo.Weighted>
-8.9074

> <Gold.Chemscore.Internal_Hbond.Weighted>
0.0000

> <Gold.Chemscore.DEClash.Weighted>
0.1567

> <Gold.Chemscore.DEInternal.Weighted>
5.6917

> <Gold.Chemscore.Rot.Weighted>
9.9808

> <Gold.Chemscore.Internal.Correction.Weighted>
   9.000000E+99

> <Gold.Protein.RotatedTorsions>
[ 6907 6896 6895 6894 ] final   48.96 input  -60.11 | X-H torsion
[ 7974 7965 7964 7962 ] final -129.49 input  175.53 | X-H torsion
[ 8008 7997 7996 7995 ] final -138.23 input   59.86 | X-H torsion
[ 10167 10162 10161 10158 ] final  -92.52 input  -65.29 | X-H torsion
[ 10718 10713 10712 10709 ] final   54.12 input   66.30 | X-H torsion
[ 10763 10752 10751 10750 ] final   28.33 input  -60.55 | X-H torsion
[ 11005 11000 10999 10996 ] final  -52.80 input  -57.11 | X-H torsion

> <Gold.Protein.ActiveResidues>
 VAL166  LYS551  ARG553  GLY616  TRP617  ASP618  TYR619  PRO620  LYS621  CYS622 
 ASP623  PHE694  ASN695  SER759  ASP760  ASP761  ALA762  ILE779  LEU786  VAL792 
 PHE793  MET794  SER795  GLU796  ALA797  LYS798  CYS799  TRP800  GLU811  SER814 

> <Gold.Protein.RotatedAtoms>
  152.2855  134.7781  160.0388 H   0  0  0  0  0  0  0  0  0  0  0  0  # atno 6907 bound_to 6896
  151.8346  133.3408  159.3632 H   0  0  0  0  0  0  0  0  0  0  0  0  # atno 6908 bound_to 6896
  150.7207  134.5379  159.5777 H   0  0  0  0  0  0  0  0  0  0  0  0  # atno 6909 bound_to 6896
  144.9567  140.7403  143.4754 H   0  0  0  0  0  0  0  0  0  0  0  0  # atno 7974 bound_to 7965
  155.4248  140.0521  157.3023 H   0  0  0  0  0  0  0  0  0  0  0  0  # atno 8008 bound_to 7997
  154.4886  140.2111  155.9558 H   0  0  0  0  0  0  0  0  0  0  0  0  # atno 8009 bound_to 7997
  156.1310  140.3171  155.8354 H   0  0  0  0  0  0  0  0  0  0  0  0  # atno 8010 bound_to 7997
  140.3340  143.2979  151.9910 H   0  0  0  0  0  0  0  0  0  0  0  0  # atno 10167 bound_to 10162
  157.5229  130.8577  149.8582 H   0  0  0  0  0  0  0  0  0  0  0  0  # atno 10718 bound_to 10713
  153.0498  135.6516  154.0721 H   0  0  0  0  0  0  0  0  0  0  0  0  # atno 10763 bound_to 10752
  154.0412  135.2903  155.3356 H   0  0  0  0  0  0  0  0  0  0  0  0  # atno 10764 bound_to 10752
  154.6780  135.5331  153.8292 H   0  0  0  0  0  0  0  0  0  0  0  0  # atno 10765 bound_to 10752
  141.0943  133.6627  156.4078 H   0  0  0  0  0  0  0  0  0  0  0  0  # atno 11005 bound_to 11000
  145.2762  139.1935  143.4815 LP  0  0  0  0  0  0  0  0  0  0  0  0  # atno 17320 bound_to 7965
  146.3339  140.2716  142.8606 LP  0  0  0  0  0  0  0  0  0  0  0  0  # atno 17321 bound_to 7965
  139.4851  144.6212  151.7252 LP  0  0  0  0  0  0  0  0  0  0  0  0  # atno 17342 bound_to 10162
  140.5371  144.0638  150.6074 LP  0  0  0  0  0  0  0  0  0  0  0  0  # atno 17343 bound_to 10162
  156.0366  130.3750  150.1545 LP  0  0  0  0  0  0  0  0  0  0  0  0  # atno 17370 bound_to 10713
  156.9732  130.9841  151.3454 LP  0  0  0  0  0  0  0  0  0  0  0  0  # atno 17371 bound_to 10713
  140.5177  134.6334  157.5307 LP  0  0  0  0  0  0  0  0  0  0  0  0  # atno 17394 bound_to 11000
  139.9776  134.7189  155.9920 LP  0  0  0  0  0  0  0  0  0  0  0  0  # atno 17395 bound_to 11000

$$$$
