AV-unprocessed.smi:1514|AV-procd|sdf|6114|dock3
  -GOLD-   22720 6243D 1   1.00000     0.00000
 Structure written by MMmdl.
 48 49  0  0  0  0  0  0  0  0  2 V2000
  146.0740  143.3164  157.9890 C   0  0  0  0  0  0  0  0  0  0  0  0
  147.3246  142.4467  157.7933 C   0  0  0  0  0  0  0  0  0  0  0  0
  147.7009  142.2961  156.3653 N   0  3  0  0  0  0  0  0  0  0  0  0
  146.5615  141.9440  155.4808 C   0  0  0  0  0  0  0  0  0  0  0  0
  147.0203  141.8671  154.0088 C   0  0  0  0  0  0  0  0  0  0  0  0
  148.1025  140.8989  153.8167 N   0  0  0  0  0  0  0  0  0  0  0  0
  147.6397  139.5129  153.9438 C   0  0  0  0  0  0  0  0  0  0  0  0
  146.6204  139.1163  152.8602 C   0  0  0  0  0  0  0  0  0  0  0  0
  146.8794  137.7739  152.3551 N   0  0  0  0  0  0  0  0  0  0  0  0
  145.9343  136.8453  152.1589 C   0  0  0  0  0  0  0  0  0  0  0  0
  144.7401  137.0390  152.3873 O   0  0  0  0  0  0  0  0  0  0  0  0
  146.4661  135.7025  151.6912 N   0  0  0  0  0  0  0  0  0  0  0  0
  145.8362  134.5428  151.3652 C   0  0  0  0  0  0  0  0  0  0  0  0
  144.6716  134.3609  150.6706 C   0  0  0  0  0  0  0  0  0  0  0  0
  144.5350  132.9423  150.6538 C   0  0  0  0  0  0  0  0  0  0  0  0
  143.4408  132.1277  150.0294 C   0  0  0  0  0  0  0  0  0  0  0  0
  145.5291  132.3239  151.2818 N   0  0  0  0  0  0  0  0  0  0  0  0
  146.3379  133.3114  151.7234 N   0  0  0  0  0  0  0  0  0  0  0  0
  147.5410  132.9883  152.4656 C   0  0  0  0  0  0  0  0  0  0  0  0
  149.2241  141.2652  154.6885 C   0  0  0  0  0  0  0  0  0  0  0  0
  148.8106  141.3309  156.1738 C   0  0  0  0  0  0  0  0  0  0  0  0
  145.8879  143.4848  159.0498 H   0  0  0  0  0  0  0  0  0  0  0  0
  145.1804  142.8482  157.5771 H   0  0  0  0  0  0  0  0  0  0  0  0
  146.1930  144.2921  157.5174 H   0  0  0  0  0  0  0  0  0  0  0  0
  148.1480  142.9230  158.3274 H   0  0  0  0  0  0  0  0  0  0  0  0
  147.1859  141.4656  158.2496 H   0  0  0  0  0  0  0  0  0  0  0  0
  146.1130  141.0030  155.8023 H   0  0  0  0  0  0  0  0  0  0  0  0
  145.7819  142.7007  155.5595 H   0  0  0  0  0  0  0  0  0  0  0  0
  146.1796  141.6135  153.3616 H   0  0  0  0  0  0  0  0  0  0  0  0
  147.3696  142.8484  153.6845 H   0  0  0  0  0  0  0  0  0  0  0  0
  148.4770  138.8163  153.9314 H   0  0  0  0  0  0  0  0  0  0  0  0
  147.1618  139.3956  154.9175 H   0  0  0  0  0  0  0  0  0  0  0  0
  145.5976  139.1856  153.2313 H   0  0  0  0  0  0  0  0  0  0  0  0
  146.6925  139.8210  152.0305 H   0  0  0  0  0  0  0  0  0  0  0  0
  147.8394  137.5382  152.1498 H   0  0  0  0  0  0  0  0  0  0  0  0
  147.4666  135.6991  151.5589 H   0  0  0  0  0  0  0  0  0  0  0  0
  144.0143  135.1008  150.2394 H   0  0  0  0  0  0  0  0  0  0  0  0
  142.6383  132.7651  149.6579 H   0  0  0  0  0  0  0  0  0  0  0  0
  143.0056  131.4343  150.7496 H   0  0  0  0  0  0  0  0  0  0  0  0
  143.8176  131.5444  149.1889 H   0  0  0  0  0  0  0  0  0  0  0  0
  147.4440  133.3448  153.4912 H   0  0  0  0  0  0  0  0  0  0  0  0
  148.4005  133.4709  151.9999 H   0  0  0  0  0  0  0  0  0  0  0  0
  147.7068  131.9102  152.4788 H   0  0  0  0  0  0  0  0  0  0  0  0
  150.0564  140.5753  154.5550 H   0  0  0  0  0  0  0  0  0  0  0  0
  149.5969  142.2415  154.3755 H   0  0  0  0  0  0  0  0  0  0  0  0
  149.6704  141.6481  156.7651 H   0  0  0  0  0  0  0  0  0  0  0  0
  148.5238  140.3474  156.5482 H   0  0  0  0  0  0  0  0  0  0  0  0
  148.0489  143.1930  156.0577 H   0  0  0  0  0  0  0  0  0  0  0  0
  1  2  1  0  0  0  0
  1 22  1  0  0  0  0
  1 23  1  0  0  0  0
  1 24  1  0  0  0  0
  2  3  1  0  0  0  0
  2 25  1  0  0  0  0
  2 26  1  0  0  0  0
  3 21  1  0  0  0  0
  3  4  1  0  0  0  0
  3 48  1  0  0  0  0
  4  5  1  0  0  0  0
  4 27  1  0  0  0  0
  4 28  1  0  0  0  0
  5  6  1  0  0  0  0
  5 29  1  0  0  0  0
  5 30  1  0  0  0  0
  6  7  1  0  0  0  0
  6 20  1  0  0  0  0
  7  8  1  0  0  0  0
  7 31  1  0  0  0  0
  7 32  1  0  0  0  0
  8  9  1  0  0  0  0
  8 33  1  0  0  0  0
  8 34  1  0  0  0  0
  9 10  1  0  0  0  0
  9 35  1  0  0  0  0
 10 11  2  0  0  0  0
 10 12  1  0  0  0  0
 12 13  1  0  0  0  0
 12 36  1  0  0  0  0
 13 18  1  0  0  0  0
 13 14  2  0  0  0  0
 14 15  1  0  0  0  0
 14 37  1  0  0  0  0
 15 16  1  0  0  0  0
 15 17  2  0  0  0  0
 16 38  1  0  0  0  0
 16 39  1  0  0  0  0
 16 40  1  0  0  0  0
 17 18  1  0  0  0  0
 18 19  1  0  0  0  0
 19 41  1  0  0  0  0
 19 42  1  0  0  0  0
 19 43  1  0  0  0  0
 20 21  1  0  0  0  0
 20 44  1  0  0  0  0
 20 45  1  0  0  0  0
 21 46  1  0  0  0  0
 21 47  1  0  0  0  0
M  CHG  1   3   1
M  END
> <s_m_source_file>
AV-unprocessed.smi

> <i_m_source_file_index>
1514

> <i_lp_mmshare_version>
43012

> <i_f3d_flags>
0

> <s_epik_input>
W0NIM11bQ0gyXU4xW0NIMl1bQ0gyXU4oW0NIMl1bQ0gyXTEpW0NIMl1bQ0gyXVtOSF1DKD1PKVtOSF1jMltjSF1jKFtDSDNdKW5uMltDSDNd

> <s_epik_cmdline>
J2VwaWtfcHl0aG9uJywgJy1waCcsICc3LjAnLCAnLXRuJywgJzgnLCAnLW1hJywgJzIwMCcsICctbWV0YWxfYmluZGluZycsICctaW1hZScsICc8aW5maWxlLm1hZT4nLCAnLW9tYWUnLCAnPG91dGZpbGUubWFlPic=

> <r_lp_tautomer_probability>
1

> <r_epik_Ionization_Penalty>
0.0527919

> <r_epik_Ionization_Penalty_Charging>
0.052373

> <r_epik_Ionization_Penalty_Neutral>
0.000418955

> <r_epik_State_Penalty>
0.130843

> <r_epik_Charging_Adjusted_Penalty>
0.183216

> <i_epik_Tot_Q>
1

> <i_epik_Tot_abs_Q>
1

> <r_epik_Metal_State_Penalty>
0.130841

> <b_epik_Metal_Only>
0

> <s_lp_Force_Field>
OPLS_2005

> <r_lp_Energy>
24.8956

> <b_lp_Chiralities_Consistent>
1

> <s_lp_Variant>
AV-unprocessed.smi:1514-1

> <Gold.Version>
5.8.1

> <Gold.Id.Protein>
6NUR|6NUR_protein|mol2

> <Gold.PLP.Fitness>
45.1226

> <Gold.PLP.PLP>
-35.0276

> <Gold.PLP.part.hbond>
-2.8421

> <Gold.PLP.part.metal>
0.0000

> <Gold.PLP.part.buried>
-5.7581

> <Gold.PLP.part.nonpolar>
-29.5276

> <Gold.PLP.part.repulsive>
0.6243

> <Gold.PLP.ligand.clash>
0.0000

> <Gold.PLP.ligand.torsion>
0.8166

> <Gold.PLP.Chemscore.Hbond>
3.8960

> <Gold.PLP.Chemscore.CHOScore>
0.0000

> <Gold.PLP.Chemscore.Metal>
0.0000

> <Gold.Chemscore.Hbonds>
donor molecule, donor type, donor heavy atom, donor atom, acceptor molecule, acceptor atom, score
      L1  H     3    48       P1  8028  2.00
      L1  H     9    35       P1  7948  0.91
      L1  H    12    36       P1  7948  1.00

> <Gold.PLP.Chemscore.Internal.Correction>
0.0403

> <Gold.Rescore>
     Score         DG    S(hbond)    S(metal)    S(lipo)     H(rot)  DE(clash)    DE(int)     intcor
     17.60     -18.48       2.88        0.00      65.95       1.69       0.08       0.80       ----

> <Gold.Chemscore.Fitness>
17.5959

> <Gold.Chemscore.DG>
-18.4818

> <Gold.Chemscore.ZeroCoef>
-5.4800

> <Gold.Chemscore.Hbond>
2.8787

> <Gold.Chemscore.Metal>
0.0000

> <Gold.Chemscore.Lipo>
65.9548

> <Gold.Chemscore.Internal_Hbond>
0.0000

> <Gold.Chemscore.DEClash>
0.0844

> <Gold.Chemscore.DEInternal>
0.8015

> <Gold.Chemscore.Rot>
1.6914

> <Gold.Chemscore.Internal.Correction>
   9.000000E+99

> <Gold.Chemscore.Hbonds>
donor molecule, donor type, donor heavy atom, donor atom, acceptor molecule, acceptor atom, score
      L1  H     3    48       P1  8028  0.50
      L1  H     9    35       P1  7948  0.90
      L1  H    12    36       P1  7948  0.94

> <Gold.Chemscore.Hbond.Weighted>
-9.6150

> <Gold.Chemscore.Metal.Weighted>
-0.0000

> <Gold.Chemscore.Lipo.Weighted>
-7.7167

> <Gold.Chemscore.Internal_Hbond.Weighted>
0.0000

> <Gold.Chemscore.DEClash.Weighted>
0.0844

> <Gold.Chemscore.DEInternal.Weighted>
0.8015

> <Gold.Chemscore.Rot.Weighted>
4.3299

> <Gold.Chemscore.Internal.Correction.Weighted>
   9.000000E+99

> <Gold.Protein.RotatedTorsions>
[ 6907 6896 6895 6894 ] final -168.56 input  -60.11 | X-H torsion
[ 7974 7965 7964 7962 ] final  153.40 input  175.53 | X-H torsion
[ 8008 7997 7996 7995 ] final  -49.95 input   59.86 | X-H torsion
[ 10167 10162 10161 10158 ] final   72.31 input  -65.29 | X-H torsion
[ 10718 10713 10712 10709 ] final    0.45 input   66.30 | X-H torsion
[ 10763 10752 10751 10750 ] final -165.55 input  -60.55 | X-H torsion
[ 11005 11000 10999 10996 ] final  116.96 input  -57.11 | X-H torsion

> <Gold.Protein.ActiveResidues>
 VAL166  LYS551  ARG553  GLY616  TRP617  ASP618  TYR619  PRO620  LYS621  CYS622 
 ASP623  PHE694  ASN695  SER759  ASP760  ASP761  ALA762  ILE779  LEU786  VAL792 
 PHE793  MET794  SER795  GLU796  ALA797  LYS798  CYS799  TRP800  GLU811  SER814 

> <Gold.Protein.RotatedAtoms>
  151.4775  133.3554  159.2832 H   0  0  0  0  0  0  0  0  0  0  0  0  # atno 6907 bound_to 6896
  150.8919  134.8326  159.7310 H   0  0  0  0  0  0  0  0  0  0  0  0  # atno 6908 bound_to 6896
  152.4828  134.4686  159.9680 H   0  0  0  0  0  0  0  0  0  0  0  0  # atno 6909 bound_to 6896
  144.8157  139.6795  143.6122 H   0  0  0  0  0  0  0  0  0  0  0  0  # atno 7974 bound_to 7965
  154.4053  140.1284  156.4586 H   0  0  0  0  0  0  0  0  0  0  0  0  # atno 8008 bound_to 7997
  155.7295  140.3491  155.5033 H   0  0  0  0  0  0  0  0  0  0  0  0  # atno 8009 bound_to 7997
  155.9140  140.1041  157.1248 H   0  0  0  0  0  0  0  0  0  0  0  0  # atno 8010 bound_to 7997
  140.0367  144.5422  150.7465 H   0  0  0  0  0  0  0  0  0  0  0  0  # atno 10167 bound_to 10162
  156.8335  130.5496  149.5684 H   0  0  0  0  0  0  0  0  0  0  0  0  # atno 10718 bound_to 10713
  154.6921  135.2972  154.9464 H   0  0  0  0  0  0  0  0  0  0  0  0  # atno 10763 bound_to 10752
  154.0424  135.6655  153.4795 H   0  0  0  0  0  0  0  0  0  0  0  0  # atno 10764 bound_to 10752
  153.0620  135.5110  154.8019 H   0  0  0  0  0  0  0  0  0  0  0  0  # atno 10765 bound_to 10752
  139.9058  134.9604  156.7277 H   0  0  0  0  0  0  0  0  0  0  0  0  # atno 11005 bound_to 11000
  146.2460  139.6099  142.9459 LP  0  0  0  0  0  0  0  0  0  0  0  0  # atno 17320 bound_to 7965
  145.5219  141.0431  143.2430 LP  0  0  0  0  0  0  0  0  0  0  0  0  # atno 17321 bound_to 7965
  140.7278  143.2655  151.4058 LP  0  0  0  0  0  0  0  0  0  0  0  0  # atno 17342 bound_to 10162
  139.6041  144.1235  152.2230 LP  0  0  0  0  0  0  0  0  0  0  0  0  # atno 17343 bound_to 10162
  156.0920  130.5903  150.9750 LP  0  0  0  0  0  0  0  0  0  0  0  0  # atno 17370 bound_to 10713
  157.6394  131.0912  150.8283 LP  0  0  0  0  0  0  0  0  0  0  0  0  # atno 17371 bound_to 10713
  140.6950  133.9357  155.7989 LP  0  0  0  0  0  0  0  0  0  0  0  0  # atno 17394 bound_to 11000
  141.0414  134.0616  157.3897 LP  0  0  0  0  0  0  0  0  0  0  0  0  # atno 17395 bound_to 11000

$$$$
