#       Name:                AV-unprocessed.smi:1965
#       Creating user name   scv26
#       Creation time:       Fri Mar 27 10:10:29 2020


#       File generated by GOLD software.
#

@<TRIPOS>MOLECULE
AV-unprocessed.smi:1965
    40    42     1
SMALL
NO_CHARGES


@<TRIPOS>ATOM
      1 ****        -2.2662  -2.0546   1.2656 O.2            1 S1                 0.0000
      2 ****        -1.0404  -2.0397   1.3625 C.2            1 S1                 0.0000
      3 ****        -0.3317  -3.1830   1.4713 N.am           1 S1                 0.0000
      4 ****        -0.7509  -4.5447   1.5025 C.2            1 S1                 0.0000
      5 ****        -2.0242  -4.9567   1.5579 N.2            1 S1                 0.0000
      6 ****        -2.1267  -6.3493   1.6055 C.2            1 S1                 0.0000
      7 ****        -0.9126  -6.9887   1.5951 C.2            1 S1                 0.0000
      8 ****         0.4145  -5.8607   1.5265 S.3            1 S1                 0.0000
      9 ****        -0.3280  -0.9010   1.3646 N.am           1 S1                 0.0000
     10 ****        -0.8815   0.4366   1.1824 C.3            1 S1                 0.0000
     11 ****         0.0509   1.5449   1.6542 C.3            1 S1                 0.0000
     12 ****        -0.4945   2.7824   0.9343 C.3            1 S1                 0.0000
     13 ****        -1.1538   2.3025  -0.3053 N.4            1 S1                 1.0000
     14 ****        -0.6274   2.9251  -1.5495 C.3            1 S1                 0.0000
     15 ****        -1.0556   2.1247  -2.7884 C.3            1 S1                 0.0000
     16 ****        -0.4928   0.6913  -2.7561 C.3            1 S1                 0.0000
     17 ****        -0.1735   0.2151  -1.3262 C.3            1 S1                 0.0000
     18 ****        -1.1551   0.8119  -0.2864 C.3            1 S1                 0.0000
     19 ****         0.6553  -3.0496   1.6387 H              1 S1                 0.0000
     20 ****        -3.1057  -6.8034   1.6475 H              1 S1                 0.0000
     21 ****        -0.7192  -8.0507   1.6264 H              1 S1                 0.0000
     22 ****         0.6757  -0.9751   1.4537 H              1 S1                 0.0000
     23 ****        -1.8116   0.5222   1.7488 H              1 S1                 0.0000
     24 ****         0.0621   1.6586   2.7387 H              1 S1                 0.0000
     25 ****         1.0724   1.3461   1.3260 H              1 S1                 0.0000
     26 ****        -1.2539   3.2671   1.5490 H              1 S1                 0.0000
     27 ****         0.2898   3.5175   0.7489 H              1 S1                 0.0000
     28 ****        -0.9870   3.9525  -1.6123 H              1 S1                 0.0000
     29 ****         0.4623   2.9739  -1.5144 H              1 S1                 0.0000
     30 ****        -2.1453   2.0887  -2.8274 H              1 S1                 0.0000
     31 ****        -0.7356   2.6295  -3.7004 H              1 S1                 0.0000
     32 ****        -1.2122   0.0172  -3.2227 H              1 S1                 0.0000
     33 ****         0.4140   0.6307  -3.3590 H              1 S1                 0.0000
     34 ****        -0.1903  -0.8750  -1.3056 H              1 S1                 0.0000
     35 ****         0.8459   0.5056  -1.0678 H              1 S1                 0.0000
     36 ****        -2.1578   0.4738  -0.5523 H              1 S1                 0.0000
     37 ****        -2.1232   2.5772  -0.2337 H              1 S1                 0.0000
     38 ****        -2.7572  -2.9257   1.2665 LP             1 S1                 0.0000
     39 ****        -2.7719  -1.1956   1.1860 LP             1 S1                 0.0000
     40 ****        -2.8106  -4.3390   1.5644 LP             1 S1                 0.0000
@<TRIPOS>BOND
    1    1    2 2     
    2    2    3 am    
    3    2    9 am    
    4    3    4 1     
    5    3   19 1     
    6    4    8 1     
    7    4    5 2     
    8    5    6 1     
    9    6    7 2     
   10    6   20 1     
   11    7    8 1     
   12    7   21 1     
   13    9   10 1     
   14    9   22 1     
   15   10   18 1     
   16   10   11 1     
   17   10   23 1     
   18   11   12 1     
   19   11   24 1     
   20   11   25 1     
   21   12   13 1     
   22   12   26 1     
   23   12   27 1     
   24   13   18 1     
   25   13   14 1     
   26   13   37 1     
   27   14   15 1     
   28   14   28 1     
   29   14   29 1     
   30   15   16 1     
   31   15   30 1     
   32   15   31 1     
   33   16   17 1     
   34   16   32 1     
   35   16   33 1     
   36   17   18 1     
   37   17   34 1     
   38   17   35 1     
   39   18   36 1     
   40    1   38 1     
   41    1   39 1     
   42    5   40 1     
@<TRIPOS>SUBSTRUCTURE
      1 S1             1
@<TRIPOS>SET
LONE_PAIRS      STATIC     ATOMS    <user>   **** ""
3 38 39 40
DONOR_HYDROGENS      STATIC     ATOMS    <user>   **** ""
3 19 22 37
ATOM$BLUE        STATIC     ATOMS    COLORGROUP SYSTEM
3 38 39 40
ATOM$RED        STATIC     ATOMS    COLORGROUP SYSTEM
3 19 22 37
