AV-unprocessed.smi:550|AV-procd|sdf|2895|dock9
  -GOLD-   2262023393D 1   1.00000     0.00000
 Structure written by MMmdl.
 45 47  0  0  0  0  0  0  0  0  1 V2000
  146.5342  139.6507  153.5450 O   0  0  0  0  0  0  0  0  0  0  0  0
  147.3538  138.8427  153.1080 C   0  0  0  0  0  0  0  0  0  0  0  0
  147.0389  137.8660  152.2469 N   0  0  0  0  0  0  0  0  0  0  0  0
  145.6972  137.6258  151.7286 C   0  0  0  0  0  0  0  0  0  0  0  0
  145.2084  136.2089  152.0748 C   0  0  1  0  0  0  0  0  0  0  0  0
  143.6708  136.1021  152.0655 C   0  0  0  0  0  0  0  0  0  0  0  0
  143.2841  134.6228  152.1497 C   0  0  0  0  0  0  0  0  0  0  0  0
  144.5695  133.7276  151.2026 S   0  0  0  0  0  0  0  0  0  0  0  0
  145.1154  132.6462  152.0368 O   0  0  0  0  0  0  0  0  0  0  0  0
  144.0782  133.4604  149.8425 O   0  0  0  0  0  0  0  0  0  0  0  0
  145.7631  135.1195  151.1391 C   0  0  0  0  0  0  0  0  0  0  0  0
  148.6650  138.8327  153.4035 N   0  0  0  0  0  0  0  0  0  0  0  0
  149.3608  139.6605  154.3254 C   0  0  0  0  0  0  0  0  0  0  0  0
  149.0110  141.0022  154.6024 C   0  0  0  0  0  0  0  0  0  0  0  0
  149.7575  141.7189  155.5567 C   0  0  0  0  0  0  0  0  0  0  0  0
  150.8300  141.0761  156.2190 C   0  0  0  0  0  0  0  0  0  0  0  0
  151.6037  141.7622  157.1761 N   0  0  0  0  0  0  0  0  0  0  0  0
  152.1973  141.0811  158.3160 C   0  0  0  0  0  0  0  0  0  0  0  0
  152.8183  142.1990  159.1522 C   0  0  0  0  0  0  0  0  0  0  0  0
  151.8784  143.3791  158.9052 C   0  0  0  0  0  0  0  0  0  0  0  0
  151.3851  143.1722  157.4682 C   0  0  0  0  0  0  0  0  0  0  0  0
  151.1593  139.7887  155.9565 N   0  0  0  0  0  0  0  0  0  0  0  0
  150.4387  139.1048  155.0433 C   0  0  0  0  0  0  0  0  0  0  0  0
  147.7719  137.2485  151.9302 H   0  0  0  0  0  0  0  0  0  0  0  0
  145.0040  138.3596  152.1437 H   0  0  0  0  0  0  0  0  0  0  0  0
  145.7052  137.7725  150.6476 H   0  0  0  0  0  0  0  0  0  0  0  0
  145.5382  135.9695  153.0871 H   0  0  0  0  0  0  0  0  0  0  0  0
  143.2204  136.6773  152.8748 H   0  0  0  0  0  0  0  0  0  0  0  0
  143.2874  136.5131  151.1306 H   0  0  0  0  0  0  0  0  0  0  0  0
  143.3187  134.2728  153.1817 H   0  0  0  0  0  0  0  0  0  0  0  0
  142.2958  134.4128  151.7407 H   0  0  0  0  0  0  0  0  0  0  0  0
  145.8071  135.4714  150.1079 H   0  0  0  0  0  0  0  0  0  0  0  0
  146.7552  134.7742  151.4298 H   0  0  0  0  0  0  0  0  0  0  0  0
  149.2377  138.1835  152.8838 H   0  0  0  0  0  0  0  0  0  0  0  0
  148.1804  141.4888  154.1150 H   0  0  0  0  0  0  0  0  0  0  0  0
  149.4991  142.7465  155.7642 H   0  0  0  0  0  0  0  0  0  0  0  0
  151.4178  140.5660  158.8791 H   0  0  0  0  0  0  0  0  0  0  0  0
  152.9424  140.3483  158.0045 H   0  0  0  0  0  0  0  0  0  0  0  0
  152.9114  141.9388  160.2068 H   0  0  0  0  0  0  0  0  0  0  0  0
  153.8134  142.4355  158.7729 H   0  0  0  0  0  0  0  0  0  0  0  0
  151.0340  143.3204  159.5932 H   0  0  0  0  0  0  0  0  0  0  0  0
  152.3613  144.3457  159.0508 H   0  0  0  0  0  0  0  0  0  0  0  0
  151.9679  143.7716  156.7683 H   0  0  0  0  0  0  0  0  0  0  0  0
  150.3358  143.4544  157.3731 H   0  0  0  0  0  0  0  0  0  0  0  0
  150.7384  138.0803  154.8773 H   0  0  0  0  0  0  0  0  0  0  0  0
  1  2  2  0  0  0  0
  2  3  1  0  0  0  0
  2 12  1  0  0  0  0
  3  4  1  0  0  0  0
  3 24  1  0  0  0  0
  4  5  1  0  0  0  0
  4 25  1  0  0  0  0
  4 26  1  0  0  0  0
  5 11  1  0  0  0  0
  5  6  1  0  0  0  0
  5 27  1  0  0  0  0
  6  7  1  0  0  0  0
  6 28  1  0  0  0  0
  6 29  1  0  0  0  0
  7  8  1  0  0  0  0
  7 30  1  0  0  0  0
  7 31  1  0  0  0  0
  8  9  2  0  0  0  0
  8 10  2  0  0  0  0
  8 11  1  0  0  0  0
 11 32  1  0  0  0  0
 11 33  1  0  0  0  0
 12 13  1  0  0  0  0
 12 34  1  0  0  0  0
 13 23  1  0  0  0  0
 13 14  2  0  0  0  0
 14 15  1  0  0  0  0
 14 35  1  0  0  0  0
 15 16  2  0  0  0  0
 15 36  1  0  0  0  0
 16 17  1  0  0  0  0
 16 22  1  0  0  0  0
 17 21  1  0  0  0  0
 17 18  1  0  0  0  0
 18 19  1  0  0  0  0
 18 37  1  0  0  0  0
 18 38  1  0  0  0  0
 19 20  1  0  0  0  0
 19 39  1  0  0  0  0
 19 40  1  0  0  0  0
 20 21  1  0  0  0  0
 20 41  1  0  0  0  0
 20 42  1  0  0  0  0
 21 43  1  0  0  0  0
 21 44  1  0  0  0  0
 22 23  2  0  0  0  0
 23 45  1  0  0  0  0
M  END
> <s_m_source_file>
AV-unprocessed.smi

> <i_m_source_file_index>
550

> <i_lp_mmshare_version>
43012

> <i_f3d_flags>
0

> <s_epik_input>
Tz1TMSg9TylbQ0gyXVtDSDJdW0NASF0oW0NIMl0xKVtDSDJdW05IXUMoPU8pW05IXWMyW2NIXVtjSF1jKG5bY0hdMilOM1tDSDJdW0NIMl1bQ0gyXVtDSDJdMw==

> <s_epik_cmdline>
J2VwaWtfcHl0aG9uJywgJy1waCcsICc3LjAnLCAnLXRuJywgJzgnLCAnLW1hJywgJzIwMCcsICctbWV0YWxfYmluZGluZycsICctaW1hZScsICc8aW5maWxlLm1hZT4nLCAnLW9tYWUnLCAnPG91dGZpbGUubWFlPic=

> <r_lp_tautomer_probability>
1

> <r_epik_Ionization_Penalty>
0.0965651

> <r_epik_Ionization_Penalty_Charging>
0

> <r_epik_Ionization_Penalty_Neutral>
0.0965651

> <r_epik_State_Penalty>
0.0861592

> <r_epik_Charging_Adjusted_Penalty>
0.0861592

> <i_epik_Tot_Q>
0

> <i_epik_Tot_abs_Q>
0

> <r_epik_Metal_State_Penalty>
0.0740405

> <b_epik_Metal_Only>
0

> <s_lp_Force_Field>
OPLS_2005

> <r_lp_Energy>
33.1318

> <b_lp_Chiralities_Consistent>
1

> <s_lp_Variant>
AV-unprocessed.smi:550-2

> <Gold.Version>
5.8.1

> <Gold.Id.Protein>
6NUR|6NUR_protein|mol2

> <Gold.PLP.Fitness>
44.5997

> <Gold.PLP.PLP>
-41.3378

> <Gold.PLP.part.hbond>
-2.9539

> <Gold.PLP.part.metal>
0.0000

> <Gold.PLP.part.buried>
-3.6256

> <Gold.PLP.part.nonpolar>
-36.6397

> <Gold.PLP.part.repulsive>
0.6521

> <Gold.PLP.ligand.clash>
0.0000

> <Gold.PLP.ligand.torsion>
0.6671

> <Gold.PLP.Chemscore.Hbond>
1.4678

> <Gold.PLP.Chemscore.CHOScore>
0.0000

> <Gold.PLP.Chemscore.Metal>
0.0000

> <Gold.Chemscore.Hbonds>
donor molecule, donor type, donor heavy atom, donor atom, acceptor molecule, acceptor atom, score
      L1  H     3    24       P1  7948  1.00
      L1  H    12    34       P1  7948  0.47

> <Gold.PLP.Chemscore.Internal.Correction>
0.1926

> <Gold.Rescore>
     Score         DG    S(hbond)    S(metal)    S(lipo)     H(rot)  DE(clash)    DE(int)     intcor
     15.37     -17.97       1.49        0.00      91.57       1.25       1.04       1.56       ----

> <Gold.Chemscore.Fitness>
15.3679

> <Gold.Chemscore.DG>
-17.9670

> <Gold.Chemscore.ZeroCoef>
-5.4800

> <Gold.Chemscore.Hbond>
1.4896

> <Gold.Chemscore.Metal>
0.0000

> <Gold.Chemscore.Lipo>
91.5656

> <Gold.Chemscore.Internal_Hbond>
0.0000

> <Gold.Chemscore.DEClash>
1.0351

> <Gold.Chemscore.DEInternal>
1.5639

> <Gold.Chemscore.Rot>
1.2506

> <Gold.Chemscore.Internal.Correction>
   9.000000E+99

> <Gold.Chemscore.Hbonds>
donor molecule, donor type, donor heavy atom, donor atom, acceptor molecule, acceptor atom, score
      L1  H     3    24       P1  7948  0.93
      L1  H    12    34       P1  7948  0.44

> <Gold.Chemscore.Hbond.Weighted>
-4.9754

> <Gold.Chemscore.Metal.Weighted>
-0.0000

> <Gold.Chemscore.Lipo.Weighted>
-10.7132

> <Gold.Chemscore.Internal_Hbond.Weighted>
0.0000

> <Gold.Chemscore.DEClash.Weighted>
1.0351

> <Gold.Chemscore.DEInternal.Weighted>
1.5639

> <Gold.Chemscore.Rot.Weighted>
3.2016

> <Gold.Chemscore.Internal.Correction.Weighted>
   9.000000E+99

> <Gold.Protein.RotatedTorsions>
[ 6907 6896 6895 6894 ] final -145.59 input  -60.11 | X-H torsion
[ 7974 7965 7964 7962 ] final   58.82 input  175.53 | X-H torsion
[ 8008 7997 7996 7995 ] final  153.36 input   59.86 | X-H torsion
[ 10167 10162 10161 10158 ] final  -15.65 input  -65.29 | X-H torsion
[ 10718 10713 10712 10709 ] final   30.05 input   66.30 | X-H torsion
[ 10763 10752 10751 10750 ] final   41.95 input  -60.55 | X-H torsion
[ 11005 11000 10999 10996 ] final  -98.03 input  -57.11 | X-H torsion

> <Gold.Protein.ActiveResidues>
 VAL166  LYS551  ARG553  GLY616  TRP617  ASP618  TYR619  PRO620  LYS621  CYS622 
 ASP623  PHE694  ASN695  SER759  ASP760  ASP761  ALA762  ILE779  LEU786  VAL792 
 PHE793  MET794  SER795  GLU796  ALA797  LYS798  CYS799  TRP800  GLU811  SER814 

> <Gold.Protein.RotatedAtoms>
  151.1298  133.5045  159.2599 H   0  0  0  0  0  0  0  0  0  0  0  0  # atno 6907 bound_to 6896
  151.1770  135.0343  159.8786 H   0  0  0  0  0  0  0  0  0  0  0  0  # atno 6908 bound_to 6896
  152.5459  134.1155  159.8430 H   0  0  0  0  0  0  0  0  0  0  0  0  # atno 6909 bound_to 6896
  145.9139  139.3676  143.0519 H   0  0  0  0  0  0  0  0  0  0  0  0  # atno 7974 bound_to 7965
  156.2585  140.1996  156.6477 H   0  0  0  0  0  0  0  0  0  0  0  0  # atno 8008 bound_to 7997
  154.6560  140.0566  157.0034 H   0  0  0  0  0  0  0  0  0  0  0  0  # atno 8009 bound_to 7997
  155.1346  140.3237  155.4469 H   0  0  0  0  0  0  0  0  0  0  0  0  # atno 8010 bound_to 7997
  140.7222  143.5196  150.9649 H   0  0  0  0  0  0  0  0  0  0  0  0  # atno 10167 bound_to 10162
  157.2545  130.7131  149.6422 H   0  0  0  0  0  0  0  0  0  0  0  0  # atno 10718 bound_to 10713
  152.9895  135.6146  154.2871 H   0  0  0  0  0  0  0  0  0  0  0  0  # atno 10763 bound_to 10752
  154.2598  135.2782  155.2784 H   0  0  0  0  0  0  0  0  0  0  0  0  # atno 10764 bound_to 10752
  154.5216  135.5813  153.6742 H   0  0  0  0  0  0  0  0  0  0  0  0  # atno 10765 bound_to 10752
  141.1359  133.8215  157.0785 H   0  0  0  0  0  0  0  0  0  0  0  0  # atno 11005 bound_to 11000
  145.8636  140.9461  143.0687 LP  0  0  0  0  0  0  0  0  0  0  0  0  # atno 17320 bound_to 7965
  144.6746  140.0563  143.7477 LP  0  0  0  0  0  0  0  0  0  0  0  0  # atno 17321 bound_to 7965
  139.8913  143.6949  152.3145 LP  0  0  0  0  0  0  0  0  0  0  0  0  # atno 17342 bound_to 10162
  139.7266  144.7591  151.0869 LP  0  0  0  0  0  0  0  0  0  0  0  0  # atno 17343 bound_to 10162
  155.9665  130.4417  150.5351 LP  0  0  0  0  0  0  0  0  0  0  0  0  # atno 17370 bound_to 10713
  157.3242  131.0687  151.1909 LP  0  0  0  0  0  0  0  0  0  0  0  0  # atno 17371 bound_to 10713
  140.0466  134.9827  157.1060 LP  0  0  0  0  0  0  0  0  0  0  0  0  # atno 17394 bound_to 11000
  140.4053  134.2039  155.7163 LP  0  0  0  0  0  0  0  0  0  0  0  0  # atno 17395 bound_to 11000

$$$$
