#       Name:                AV-unprocessed.smi:784
#       Creating user name   scv26
#       Creation time:       Fri Mar 27 01:14:21 2020


#       File generated by GOLD software.
#

@<TRIPOS>MOLECULE
AV-unprocessed.smi:784
    41    42     1
SMALL
NO_CHARGES


@<TRIPOS>ATOM
      1 ****        -2.5001   6.0753  -2.2329 C.3            1 S1                 0.0000
      2 ****        -2.0392   4.8182  -1.5565 C.2            1 S1                 0.0000
      3 ****        -1.7170   3.5643  -2.1446 C.2            1 S1                 0.0000
      4 ****        -1.3558   2.7916  -1.0778 C.2            1 S1                 0.0000
      5 ****        -0.8981   1.3783  -0.9549 C.3            1 S1                 0.0000
      6 ****         0.9440   1.3346  -0.9183 S.o2           1 S1                 0.0000
      7 ****         1.4448   1.8229  -2.2122 O.2            1 S1                 0.0000
      8 ****         1.4105   1.9493   0.3340 O.2            1 S1                 0.0000
      9 ****         1.2896  -0.3539  -0.8386 N.pl3          1 S1                 0.0000
     10 ****         0.9117  -1.1540   0.3289 C.3            1 S1                 0.0000
     11 ****         2.1877  -1.7334   0.9719 C.3            1 S1                 0.0000
     12 ****         1.9484  -2.2984   2.3820 C.3            1 S1                 0.0000
     13 ****         1.4832  -3.7642   2.4393 C.3            1 S1                 0.0000
     14 ****         0.4642  -4.2061   1.3738 C.3            1 S1                 0.0000
     15 ****        -0.5972  -3.1584   1.0006 C.3            1 S1                 0.0000
     16 ****        -0.1265  -2.2032  -0.1094 C.3            1 S1                 0.0000
     17 ****        -1.4499   3.5067   0.0724 O.3            1 S1                 0.0000
     18 ****        -1.8857   4.7982  -0.2430 N.2            1 S1                 0.0000
     19 ****        -2.8475   5.8720  -3.2459 H              1 S1                 0.0000
     20 ****        -1.6903   6.8019  -2.2996 H              1 S1                 0.0000
     21 ****        -3.3228   6.5402  -1.6886 H              1 S1                 0.0000
     22 ****        -1.7416   3.2786  -3.1855 H              1 S1                 0.0000
     23 ****        -1.2807   0.9263  -0.0400 H              1 S1                 0.0000
     24 ****        -1.2448   0.7839  -1.7998 H              1 S1                 0.0000
     25 ****         1.2700  -0.8391  -1.7354 H              1 S1                 0.0000
     26 ****         0.4406  -0.4889   1.0538 H              1 S1                 0.0000
     27 ****         2.6520  -2.4802   0.3266 H              1 S1                 0.0000
     28 ****         2.9155  -0.9255   1.0639 H              1 S1                 0.0000
     29 ****         2.8730  -2.2200   2.9550 H              1 S1                 0.0000
     30 ****         1.2334  -1.6663   2.9099 H              1 S1                 0.0000
     31 ****         2.3530  -4.4181   2.3676 H              1 S1                 0.0000
     32 ****         1.0642  -3.9461   3.4296 H              1 S1                 0.0000
     33 ****         0.9922  -4.5227   0.4734 H              1 S1                 0.0000
     34 ****        -0.0362  -5.1030   1.7404 H              1 S1                 0.0000
     35 ****        -1.4736  -3.6892   0.6272 H              1 S1                 0.0000
     36 ****        -0.9350  -2.6077   1.8792 H              1 S1                 0.0000
     37 ****        -1.0000  -1.6795  -0.4998 H              1 S1                 0.0000
     38 ****         0.2636  -2.7851  -0.9455 H              1 S1                 0.0000
     39 ****        -0.5548   3.5516   0.5160 LP             1 S1                 0.0000
     40 ****        -2.1057   3.0703   0.6883 LP             1 S1                 0.0000
     41 ****        -2.0479   5.5517   0.3941 LP             1 S1                 0.0000
@<TRIPOS>BOND
    1    1    2 1     
    2    1   19 1     
    3    1   20 1     
    4    1   21 1     
    5    2   18 2     
    6    2    3 1     
    7    3    4 2     
    8    3   22 1     
    9    4    5 1     
   10    4   17 1     
   11    5    6 1     
   12    5   23 1     
   13    5   24 1     
   14    6    7 2     
   15    6    8 2     
   16    6    9 1     
   17    9   10 1     
   18    9   25 1     
   19   10   16 1     
   20   10   11 1     
   21   10   26 1     
   22   11   12 1     
   23   11   27 1     
   24   11   28 1     
   25   12   13 1     
   26   12   29 1     
   27   12   30 1     
   28   13   14 1     
   29   13   31 1     
   30   13   32 1     
   31   14   15 1     
   32   14   33 1     
   33   14   34 1     
   34   15   16 1     
   35   15   35 1     
   36   15   36 1     
   37   16   37 1     
   38   16   38 1     
   39   17   18 1     
   40   17   39 1     
   41   17   40 1     
   42   18   41 1     
@<TRIPOS>SUBSTRUCTURE
      1 S1             1
@<TRIPOS>SET
LONE_PAIRS      STATIC     ATOMS    <user>   **** ""
5 7 8 39 40 41
DONOR_HYDROGENS      STATIC     ATOMS    <user>   **** ""
1 25
ATOM$BLUE        STATIC     ATOMS    COLORGROUP SYSTEM
5 7 8 39 40 41
ATOM$RED        STATIC     ATOMS    COLORGROUP SYSTEM
1 25
