AV-unprocessed.smi:3156|AV-procd|sdf|12033|dock8
  -GOLD-   2272017453D 1   1.00000     0.00000
 Structure written by MMmdl.
 41 42  0  0  0  0  0  0  0  0  2 V2000
  149.9734  139.9115  154.9040 C   0  0  0  0  0  0  0  0  0  0  0  0
  149.2218  141.2462  154.7132 C   0  0  2  0  0  0  0  0  0  0  0  0
  149.7809  142.2787  155.6160 N   0  3  0  0  0  0  0  0  0  0  0  0
  150.2975  141.7798  156.9081 C   0  0  0  0  0  0  0  0  0  0  0  0
  151.2468  142.8010  157.5505 C   0  0  2  0  0  0  0  0  0  0  0  0
  152.1897  142.1413  158.5758 C   0  0  0  0  0  0  0  0  0  0  0  0
  153.0526  143.1985  159.2743 C   0  0  0  0  0  0  0  0  0  0  0  0
  152.1547  144.2919  159.8617 C   0  0  0  0  0  0  0  0  0  0  0  0
  151.2102  144.8430  158.7823 C   0  0  0  0  0  0  0  0  0  0  0  0
  150.4500  143.7803  158.2148 O   0  0  0  0  0  0  0  0  0  0  0  0
  147.6925  141.1178  154.9497 C   0  0  1  0  0  0  0  0  0  0  0  0
  146.9134  142.3541  154.4596 C   0  0  0  0  0  0  0  0  0  0  0  0
  147.1384  139.9096  154.3505 N   0  0  0  0  0  0  0  0  0  0  0  0
  147.0836  139.5666  153.0150 C   0  0  0  0  0  0  0  0  0  0  0  0
  146.4734  138.3481  152.9306 C   0  0  0  0  0  0  0  0  0  0  0  0
  146.1906  138.0166  154.2848 C   0  0  0  0  0  0  0  0  0  0  0  0
  146.5892  138.9517  155.1319 N   0  0  0  0  0  0  0  0  0  0  0  0
  149.6302  139.1487  154.2052 H   0  0  0  0  0  0  0  0  0  0  0  0
  149.8351  139.5213  155.9129 H   0  0  0  0  0  0  0  0  0  0  0  0
  151.0444  140.0208  154.7369 H   0  0  0  0  0  0  0  0  0  0  0  0
  149.3737  141.5771  153.6842 H   0  0  0  0  0  0  0  0  0  0  0  0
  150.5535  142.7182  155.1364 H   0  0  0  0  0  0  0  0  0  0  0  0
  149.4767  141.5588  157.5902 H   0  0  0  0  0  0  0  0  0  0  0  0
  150.8290  140.8440  156.7308 H   0  0  0  0  0  0  0  0  0  0  0  0
  151.8399  143.2808  156.7694 H   0  0  0  0  0  0  0  0  0  0  0  0
  151.6040  141.6003  159.3205 H   0  0  0  0  0  0  0  0  0  0  0  0
  152.8280  141.4053  158.0857 H   0  0  0  0  0  0  0  0  0  0  0  0
  153.6574  142.7405  160.0574 H   0  0  0  0  0  0  0  0  0  0  0  0
  153.7473  143.6390  158.5579 H   0  0  0  0  0  0  0  0  0  0  0  0
  151.5670  143.8819  160.6842 H   0  0  0  0  0  0  0  0  0  0  0  0
  152.7613  145.0954  160.2807 H   0  0  0  0  0  0  0  0  0  0  0  0
  150.5262  145.5707  159.2195 H   0  0  0  0  0  0  0  0  0  0  0  0
  151.7694  145.3615  158.0023 H   0  0  0  0  0  0  0  0  0  0  0  0
  147.5269  141.0319  156.0251 H   0  0  0  0  0  0  0  0  0  0  0  0
  147.2172  143.2568  154.9895 H   0  0  0  0  0  0  0  0  0  0  0  0
  145.8422  142.2302  154.6222 H   0  0  0  0  0  0  0  0  0  0  0  0
  147.0677  142.5286  153.3942 H   0  0  0  0  0  0  0  0  0  0  0  0
  147.4764  140.2118  152.2429 H   0  0  0  0  0  0  0  0  0  0  0  0
  146.2621  137.7793  152.0373 H   0  0  0  0  0  0  0  0  0  0  0  0
  145.7099  137.1312  154.6745 H   0  0  0  0  0  0  0  0  0  0  0  0
  149.0737  142.9789  155.7897 H   0  0  0  0  0  0  0  0  0  0  0  0
  1  2  1  0  0  0  0
  1 18  1  0  0  0  0
  1 19  1  0  0  0  0
  1 20  1  0  0  0  0
  2  3  1  0  0  0  0
  2 11  1  0  0  0  0
  2 21  1  0  0  0  0
  3  4  1  0  0  0  0
  3 22  1  0  0  0  0
  3 41  1  0  0  0  0
  4  5  1  0  0  0  0
  4 23  1  0  0  0  0
  4 24  1  0  0  0  0
  5 10  1  0  0  0  0
  5  6  1  0  0  0  0
  5 25  1  0  0  0  0
  6  7  1  0  0  0  0
  6 26  1  0  0  0  0
  6 27  1  0  0  0  0
  7  8  1  0  0  0  0
  7 28  1  0  0  0  0
  7 29  1  0  0  0  0
  8  9  1  0  0  0  0
  8 30  1  0  0  0  0
  8 31  1  0  0  0  0
  9 10  1  0  0  0  0
  9 32  1  0  0  0  0
  9 33  1  0  0  0  0
 11 12  1  0  0  0  0
 11 13  1  0  0  0  0
 11 34  1  0  0  0  0
 12 35  1  0  0  0  0
 12 36  1  0  0  0  0
 12 37  1  0  0  0  0
 13 17  1  0  0  0  0
 13 14  1  0  0  0  0
 14 15  2  0  0  0  0
 14 38  1  0  0  0  0
 15 16  1  0  0  0  0
 15 39  1  0  0  0  0
 16 17  2  0  0  0  0
 16 40  1  0  0  0  0
M  CHG  1   3   1
M  END
> <s_m_source_file>
AV-unprocessed.smi

> <i_m_source_file_index>
3156

> <i_lp_mmshare_version>
43012

> <i_f3d_flags>
0

> <s_epik_input>
bjFbY0hdW2NIXVtjSF1uMVtDQEBIXShbQ0gzXSlbQ0BIXShbQ0gzXSlbTkhdW0NIMl1bQ0BASF0yW0NIMl1bQ0gyXVtDSDJdW0NIMl1PMg==

> <s_epik_cmdline>
J2VwaWtfcHl0aG9uJywgJy1waCcsICc3LjAnLCAnLXRuJywgJzgnLCAnLW1hJywgJzIwMCcsICctbWV0YWxfYmluZGluZycsICctaW1hZScsICc8aW5maWxlLm1hZT4nLCAnLW9tYWUnLCAnPG91dGZpbGUubWFlPic=

> <r_lp_tautomer_probability>
1

> <r_epik_Ionization_Penalty>
0.00658015

> <r_epik_Ionization_Penalty_Charging>
0.00656881

> <r_epik_Ionization_Penalty_Neutral>
1.13431e-05

> <r_epik_State_Penalty>
0.0048654

> <r_epik_Charging_Adjusted_Penalty>
0.0114342

> <i_epik_Tot_Q>
1

> <i_epik_Tot_abs_Q>
1

> <r_epik_Metal_State_Penalty>
-0

> <b_epik_Metal_Only>
0

> <s_lp_Force_Field>
OPLS_2005

> <r_lp_Energy>
17.6132

> <b_lp_Chiralities_Consistent>
1

> <s_lp_Variant>
AV-unprocessed.smi:3156-5

> <Gold.Version>
5.8.1

> <Gold.Id.Protein>
6NUR|6NUR_protein|mol2

> <Gold.PLP.Fitness>
43.2804

> <Gold.PLP.PLP>
-35.9700

> <Gold.PLP.part.hbond>
-1.0000

> <Gold.PLP.part.metal>
0.0000

> <Gold.PLP.part.buried>
-2.2936

> <Gold.PLP.part.nonpolar>
-33.9465

> <Gold.PLP.part.repulsive>
0.9267

> <Gold.PLP.ligand.clash>
0.0000

> <Gold.PLP.ligand.torsion>
0.8826

> <Gold.PLP.Chemscore.Hbond>
2.0000

> <Gold.PLP.Chemscore.CHOScore>
1.0000

> <Gold.PLP.Chemscore.Metal>
0.0000

> <Gold.Chemscore.Hbonds>
donor molecule, donor type, donor heavy atom, donor atom, acceptor molecule, acceptor atom, score
      L1  H     3    41       P1  8028  1.57
      L1  C    14    38       P1  7957  0.96

> <Gold.PLP.Chemscore.Internal.Correction>
0.0756

> <Gold.Rescore>
     Score         DG    S(hbond)    S(metal)    S(lipo)     H(rot)  DE(clash)    DE(int)     intcor
     16.09     -17.00       0.96        0.00     105.94       1.59       0.17       0.74       ----

> <Gold.Chemscore.Fitness>
16.0930

> <Gold.Chemscore.DG>
-17.0005

> <Gold.Chemscore.ZeroCoef>
-5.4800

> <Gold.Chemscore.Hbond>
0.9597

> <Gold.Chemscore.Metal>
0.0000

> <Gold.Chemscore.Lipo>
105.9435

> <Gold.Chemscore.Internal_Hbond>
0.0000

> <Gold.Chemscore.DEClash>
0.1666

> <Gold.Chemscore.DEInternal>
0.7409

> <Gold.Chemscore.Rot>
1.5938

> <Gold.Chemscore.Internal.Correction>
   9.000000E+99

> <Gold.Chemscore.Hbonds>
donor molecule, donor type, donor heavy atom, donor atom, acceptor molecule, acceptor atom, score
      L1  H     3    41       P1  8028  0.78

> <Gold.Chemscore.Hbond.Weighted>
-3.2054

> <Gold.Chemscore.Metal.Weighted>
-0.0000

> <Gold.Chemscore.Lipo.Weighted>
-12.3954

> <Gold.Chemscore.Internal_Hbond.Weighted>
0.0000

> <Gold.Chemscore.DEClash.Weighted>
0.1666

> <Gold.Chemscore.DEInternal.Weighted>
0.7409

> <Gold.Chemscore.Rot.Weighted>
4.0802

> <Gold.Chemscore.Internal.Correction.Weighted>
   9.000000E+99

> <Gold.Protein.RotatedTorsions>
[ 6907 6896 6895 6894 ] final  168.75 input  -60.11 | X-H torsion
[ 7974 7965 7964 7962 ] final  -85.83 input  175.53 | X-H torsion
[ 8008 7997 7996 7995 ] final  178.39 input   59.86 | X-H torsion
[ 10167 10162 10161 10158 ] final  -11.33 input  -65.29 | X-H torsion
[ 10718 10713 10712 10709 ] final  -10.96 input   66.30 | X-H torsion
[ 10763 10752 10751 10750 ] final -170.11 input  -60.55 | X-H torsion
[ 11005 11000 10999 10996 ] final   46.53 input  -57.11 | X-H torsion

> <Gold.Protein.ActiveResidues>
 VAL166  LYS551  ARG553  GLY616  TRP617  ASP618  TYR619  PRO620  LYS621  CYS622 
 ASP623  PHE694  ASN695  SER759  ASP760  ASP761  ALA762  ILE779  LEU786  VAL792 
 PHE793  MET794  SER795  GLU796  ALA797  LYS798  CYS799  TRP800  GLU811  SER814 

> <Gold.Protein.RotatedAtoms>
  151.8427  133.3426  159.3647 H   0  0  0  0  0  0  0  0  0  0  0  0  # atno 6907 bound_to 6896
  150.7230  134.5376  159.5740 H   0  0  0  0  0  0  0  0  0  0  0  0  # atno 6908 bound_to 6896
  152.2853  134.7784  160.0440 H   0  0  0  0  0  0  0  0  0  0  0  0  # atno 6909 bound_to 6896
  145.4880  140.9554  143.1827 H   0  0  0  0  0  0  0  0  0  0  0  0  # atno 7974 bound_to 7965
  156.0551  140.1334  157.0006 H   0  0  0  0  0  0  0  0  0  0  0  0  # atno 8008 bound_to 7997
  154.4454  140.1003  156.6504 H   0  0  0  0  0  0  0  0  0  0  0  0  # atno 8009 bound_to 7997
  155.5464  140.3462  155.4460 H   0  0  0  0  0  0  0  0  0  0  0  0  # atno 8010 bound_to 7997
  140.7136  143.5652  150.9152 H   0  0  0  0  0  0  0  0  0  0  0  0  # atno 10167 bound_to 10162
  156.6659  130.4995  149.6015 H   0  0  0  0  0  0  0  0  0  0  0  0  # atno 10718 bound_to 10713
  154.6451  135.2904  155.0056 H   0  0  0  0  0  0  0  0  0  0  0  0  # atno 10763 bound_to 10752
  154.1169  135.6554  153.4899 H   0  0  0  0  0  0  0  0  0  0  0  0  # atno 10764 bound_to 10752
  153.0346  135.5278  154.7334 H   0  0  0  0  0  0  0  0  0  0  0  0  # atno 10765 bound_to 10752
  140.1361  134.4643  155.8485 H   0  0  0  0  0  0  0  0  0  0  0  0  # atno 11005 bound_to 11000
  144.7850  139.6446  143.7138 LP  0  0  0  0  0  0  0  0  0  0  0  0  # atno 17320 bound_to 7965
  146.2301  139.5797  142.9561 LP  0  0  0  0  0  0  0  0  0  0  0  0  # atno 17321 bound_to 7965
  139.9377  143.6418  152.3061 LP  0  0  0  0  0  0  0  0  0  0  0  0  # atno 17342 bound_to 10162
  139.6892  144.7648  151.1470 LP  0  0  0  0  0  0  0  0  0  0  0  0  # atno 17343 bound_to 10162
  156.1975  130.6599  151.1131 LP  0  0  0  0  0  0  0  0  0  0  0  0  # atno 17370 bound_to 10713
  157.7094  131.0741  150.6555 LP  0  0  0  0  0  0  0  0  0  0  0  0  # atno 17371 bound_to 10713
  141.2178  133.6814  156.7159 LP  0  0  0  0  0  0  0  0  0  0  0  0  # atno 17394 bound_to 11000
  140.2781  134.8339  157.3908 LP  0  0  0  0  0  0  0  0  0  0  0  0  # atno 17395 bound_to 11000

$$$$
