AV-unprocessed.smi:798|AV-procd|sdf|3777|dock5
  -GOLD-   22720 1213D 1   1.00000     0.00000
 Structure written by MMmdl.
 33 35  0  0  0  0  0  0  0  0  2 V2000
  150.9474  141.2252  156.2052 O   0  0  0  0  0  0  0  0  0  0  0  0
  151.8095  140.8750  157.0145 C   0  0  0  0  0  0  0  0  0  0  0  0
  152.4556  139.6869  157.0332 N   0  5  0  0  0  0  0  0  0  0  0  0
  152.0795  138.7058  156.1963 C   0  0  0  0  0  0  0  0  0  0  0  0
  152.2945  137.4079  156.4654 N   0  0  0  0  0  0  0  0  0  0  0  0
  151.8326  136.5599  155.4678 N   0  0  0  0  0  0  0  0  0  0  0  0
  151.2855  137.2442  154.4634 C   0  0  0  0  0  0  0  0  0  0  0  0
  151.2887  138.9859  154.6424 S   0  0  0  0  0  0  0  0  0  0  0  0
  152.1927  141.7135  157.9873 N   0  0  0  0  0  0  0  0  0  0  0  0
  151.6844  143.0688  158.1953 C   0  0  2  0  0  0  0  0  0  0  0  0
  152.7331  144.0374  158.8020 C   0  0  2  0  0  0  0  0  0  0  0  0
  153.3961  143.4371  160.0603 C   0  0  0  0  0  0  0  0  0  0  0  0
  152.2479  143.4573  161.0861 C   0  0  0  0  0  0  0  0  0  0  0  0
  151.0933  144.1017  160.2933 C   0  0  1  0  0  0  0  0  0  0  0  0
  151.8428  145.1049  159.4243 C   0  0  0  0  0  0  0  0  0  0  0  0
  150.5516  143.0897  159.2565 C   0  0  1  0  0  0  0  0  0  0  0  0
  149.1810  143.5025  158.6854 C   0  0  0  0  0  0  0  0  0  0  0  0
  148.7993  142.6286  157.6445 O   0  0  0  0  0  0  0  0  0  0  0  0
  150.8813  136.7208  153.6101 H   0  0  0  0  0  0  0  0  0  0  0  0
  152.8971  141.3862  158.6320 H   0  0  0  0  0  0  0  0  0  0  0  0
  151.3223  143.4684  157.2459 H   0  0  0  0  0  0  0  0  0  0  0  0
  153.4506  144.4138  158.0725 H   0  0  0  0  0  0  0  0  0  0  0  0
  153.8053  142.4388  159.9047 H   0  0  0  0  0  0  0  0  0  0  0  0
  154.2158  144.0727  160.3976 H   0  0  0  0  0  0  0  0  0  0  0  0
  151.9974  142.4599  161.4491 H   0  0  0  0  0  0  0  0  0  0  0  0
  152.5171  144.0682  161.9485 H   0  0  0  0  0  0  0  0  0  0  0  0
  150.3230  144.5326  160.9335 H   0  0  0  0  0  0  0  0  0  0  0  0
  152.3958  145.8490  160.0004 H   0  0  0  0  0  0  0  0  0  0  0  0
  151.2111  145.6184  158.6982 H   0  0  0  0  0  0  0  0  0  0  0  0
  150.4377  142.1154  159.7360 H   0  0  0  0  0  0  0  0  0  0  0  0
  148.4191  143.4574  159.4638 H   0  0  0  0  0  0  0  0  0  0  0  0
  149.1954  144.5252  158.3084 H   0  0  0  0  0  0  0  0  0  0  0  0
  148.6197  143.1409  156.8713 H   0  0  0  0  0  0  0  0  0  0  0  0
  1  2  2  0  0  0  0
  2  3  1  0  0  0  0
  2  9  1  0  0  0  0
  3  4  1  0  0  0  0
  4  8  1  0  0  0  0
  4  5  2  0  0  0  0
  5  6  1  0  0  0  0
  6  7  2  0  0  0  0
  7  8  1  0  0  0  0
  7 19  1  0  0  0  0
  9 10  1  0  0  0  0
  9 20  1  0  0  0  0
 10 16  1  0  0  0  0
 10 11  1  0  0  0  0
 10 21  1  0  0  0  0
 11 15  1  0  0  0  0
 11 12  1  0  0  0  0
 11 22  1  0  0  0  0
 12 13  1  0  0  0  0
 12 23  1  0  0  0  0
 12 24  1  0  0  0  0
 13 14  1  0  0  0  0
 13 25  1  0  0  0  0
 13 26  1  0  0  0  0
 14 15  1  0  0  0  0
 14 16  1  0  0  0  0
 14 27  1  0  0  0  0
 15 28  1  0  0  0  0
 15 29  1  0  0  0  0
 16 17  1  0  0  0  0
 16 30  1  0  0  0  0
 17 18  1  0  0  0  0
 17 31  1  0  0  0  0
 17 32  1  0  0  0  0
 18 33  1  0  0  0  0
M  CHG  1   3  -1
M  END
> <s_m_source_file>
AV-unprocessed.smi

> <i_m_source_file_index>
798

> <i_lp_mmshare_version>
43012

> <i_f3d_flags>
0

> <s_epik_input>
W0NIMl0xW0NIMl1bQ0BASF0oW0NIMl0yKVtDQEBIXShbQ0gyXVtPSF0pW0NAQEhdKFtDQEhdMTIpW05IXUMoPU8pW05IXWMzbm5bY0hdczM=

> <s_epik_cmdline>
J2VwaWtfcHl0aG9uJywgJy1waCcsICc3LjAnLCAnLXRuJywgJzgnLCAnLW1hJywgJzIwMCcsICctbWV0YWxfYmluZGluZycsICctaW1hZScsICc8aW5maWxlLm1hZT4nLCAnLW9tYWUnLCAnPG91dGZpbGUubWFlPic=

> <r_lp_tautomer_probability>
1

> <r_epik_Ionization_Penalty>
4.53732

> <r_epik_Ionization_Penalty_Charging>
4.48632

> <r_epik_Ionization_Penalty_Neutral>
0.0510007

> <r_epik_State_Penalty>
4.48602

> <r_epik_Charging_Adjusted_Penalty>
8.97234

> <i_epik_Tot_Q>
-1

> <i_epik_Tot_abs_Q>
1

> <r_epik_Metal_State_Penalty>
0.812492

> <b_epik_Metal_Only>
1

> <s_lp_Force_Field>
OPLS_2005

> <r_lp_Energy>
46.8419

> <b_lp_Chiralities_Consistent>
1

> <s_lp_Variant>
AV-unprocessed.smi:798-9

> <Gold.Version>
5.8.1

> <Gold.Id.Protein>
6NUR|6NUR_protein|mol2

> <Gold.PLP.Fitness>
44.8205

> <Gold.PLP.PLP>
-30.8530

> <Gold.PLP.part.hbond>
-3.0000

> <Gold.PLP.part.metal>
0.0000

> <Gold.PLP.part.buried>
-0.1240

> <Gold.PLP.part.nonpolar>
-25.7849

> <Gold.PLP.part.repulsive>
0.1948

> <Gold.PLP.ligand.clash>
0.0000

> <Gold.PLP.ligand.torsion>
0.5178

> <Gold.PLP.Chemscore.Hbond>
4.0000

> <Gold.PLP.Chemscore.CHOScore>
0.9886

> <Gold.PLP.Chemscore.Metal>
0.0000

> <Gold.Chemscore.Hbonds>
donor molecule, donor type, donor heavy atom, donor atom, acceptor molecule, acceptor atom, score
      L1  H    18    33       P1  8028  1.00
      P1  H  7997  8010       L1     3  2.00
      P1  H 10752 10763       L1     6  1.00
      L1  C     7    19       P1  7948  0.11
      L1  C     7    19       P1  7949  0.88

> <Gold.PLP.Chemscore.Internal.Correction>
0.0374

> <Gold.Rescore>
     Score         DG    S(hbond)    S(metal)    S(lipo)     H(rot)  DE(clash)    DE(int)     intcor
     15.69     -17.74       1.64        0.00      99.85       1.92       0.10       1.95       ----

> <Gold.Chemscore.Fitness>
15.6854

> <Gold.Chemscore.DG>
-17.7358

> <Gold.Chemscore.ZeroCoef>
-5.4800

> <Gold.Chemscore.Hbond>
1.6438

> <Gold.Chemscore.Metal>
0.0000

> <Gold.Chemscore.Lipo>
99.8495

> <Gold.Chemscore.Internal_Hbond>
0.0000

> <Gold.Chemscore.DEClash>
0.0999

> <Gold.Chemscore.DEInternal>
1.9506

> <Gold.Chemscore.Rot>
1.9207

> <Gold.Chemscore.Internal.Correction>
   9.000000E+99

> <Gold.Chemscore.Hbonds>
donor molecule, donor type, donor heavy atom, donor atom, acceptor molecule, acceptor atom, score
      L1  H    18    33       P1  8028  0.57
      P1  H  7997  8010       L1     3  0.32
      P1  H 10752 10763       L1     6  0.60

> <Gold.Chemscore.Hbond.Weighted>
-5.4903

> <Gold.Chemscore.Metal.Weighted>
-0.0000

> <Gold.Chemscore.Lipo.Weighted>
-11.6824

> <Gold.Chemscore.Internal_Hbond.Weighted>
0.0000

> <Gold.Chemscore.DEClash.Weighted>
0.0999

> <Gold.Chemscore.DEInternal.Weighted>
1.9506

> <Gold.Chemscore.Rot.Weighted>
4.9169

> <Gold.Chemscore.Internal.Correction.Weighted>
   9.000000E+99

> <Gold.Protein.RotatedTorsions>
[ 6907 6896 6895 6894 ] final   44.37 input  -60.11 | X-H torsion
[ 7974 7965 7964 7962 ] final  -22.71 input  175.53 | X-H torsion
[ 8008 7997 7996 7995 ] final   60.87 input   59.86 | X-H torsion
[ 10167 10162 10161 10158 ] final   -1.48 input  -65.29 | X-H torsion
[ 10718 10713 10712 10709 ] final  152.94 input   66.30 | X-H torsion
[ 10763 10752 10751 10750 ] final   76.57 input  -60.55 | X-H torsion
[ 11005 11000 10999 10996 ] final  169.89 input  -57.11 | X-H torsion

> <Gold.Protein.ActiveResidues>
 VAL166  LYS551  ARG553  GLY616  TRP617  ASP618  TYR619  PRO620  LYS621  CYS622 
 ASP623  PHE694  ASN695  SER759  ASP760  ASP761  ALA762  ILE779  LEU786  VAL792 
 PHE793  MET794  SER795  GLU796  ALA797  LYS798  CYS799  TRP800  GLU811  SER814 

> <Gold.Protein.RotatedAtoms>
  152.2316  134.8316  160.0472 H   0  0  0  0  0  0  0  0  0  0  0  0  # atno 6907 bound_to 6896
  151.9063  133.3545  159.3856 H   0  0  0  0  0  0  0  0  0  0  0  0  # atno 6908 bound_to 6896
  150.7027  134.4703  159.5466 H   0  0  0  0  0  0  0  0  0  0  0  0  # atno 6909 bound_to 6896
  146.1659  140.4517  142.8552 H   0  0  0  0  0  0  0  0  0  0  0  0  # atno 7974 bound_to 7965
  155.5892  140.3492  155.4562 H   0  0  0  0  0  0  0  0  0  0  0  0  # atno 8008 bound_to 7997
  156.0314  140.1275  157.0279 H   0  0  0  0  0  0  0  0  0  0  0  0  # atno 8009 bound_to 7997
  154.4354  140.1042  156.6091 H   0  0  0  0  0  0  0  0  0  0  0  0  # atno 8010 bound_to 7997
  140.6812  143.6770  150.8137 H   0  0  0  0  0  0  0  0  0  0  0  0  # atno 10167 bound_to 10162
  157.2512  131.0779  151.1728 H   0  0  0  0  0  0  0  0  0  0  0  0  # atno 10718 bound_to 10713
  153.0735  135.4946  154.8354 H   0  0  0  0  0  0  0  0  0  0  0  0  # atno 10763 bound_to 10752
  154.7055  135.3009  154.9279 H   0  0  0  0  0  0  0  0  0  0  0  0  # atno 10764 bound_to 10752
  153.9990  135.6768  153.4811 H   0  0  0  0  0  0  0  0  0  0  0  0  # atno 10765 bound_to 10752
  140.3026  134.7583  157.3928 H   0  0  0  0  0  0  0  0  0  0  0  0  # atno 11005 bound_to 11000
  144.8092  140.6355  143.6426 LP  0  0  0  0  0  0  0  0  0  0  0  0  # atno 17320 bound_to 7965
  145.4468  139.1528  143.3940 LP  0  0  0  0  0  0  0  0  0  0  0  0  # atno 17321 bound_to 7965
  140.0470  143.5288  152.2691 LP  0  0  0  0  0  0  0  0  0  0  0  0  # atno 17342 bound_to 10162
  139.6136  144.7614  151.2897 LP  0  0  0  0  0  0  0  0  0  0  0  0  # atno 17343 bound_to 10162
  157.3275  130.6968  149.6305 LP  0  0  0  0  0  0  0  0  0  0  0  0  # atno 17370 bound_to 10713
  155.9666  130.4317  150.4932 LP  0  0  0  0  0  0  0  0  0  0  0  0  # atno 17371 bound_to 10713
  140.1096  134.5363  155.8278 LP  0  0  0  0  0  0  0  0  0  0  0  0  # atno 17394 bound_to 11000
  141.2125  133.6720  156.6663 LP  0  0  0  0  0  0  0  0  0  0  0  0  # atno 17395 bound_to 11000

$$$$
