AV-unprocessed.smi:219|AV-procd|sdf|1679|dock10
  -GOLD-   2262020113D 1   1.00000     0.00000
 Structure written by MMmdl.
 50 53  0  0  0  0  0  0  0  0  1 V2000
  150.5591  137.1892  156.2767 N   0  0  0  0  0  0  0  0  0  0  0  0
  150.6640  137.2276  154.9461 C   0  0  0  0  0  0  0  0  0  0  0  0
  151.7301  137.0327  154.3660 O   0  0  0  0  0  0  0  0  0  0  0  0
  149.3946  137.5678  154.1562 C   0  0  0  0  0  0  0  0  0  0  0  0
  148.7314  138.9277  154.5250 C   0  0  1  0  0  0  0  0  0  0  0  0
  149.7704  140.0565  154.3299 C   0  0  0  0  0  0  0  0  0  0  0  0
  149.1903  141.4417  154.6423 C   0  0  0  0  0  0  0  0  0  0  0  0
  147.9353  141.6798  153.7974 C   0  0  0  0  0  0  0  0  0  0  0  0
  146.9193  140.5552  154.0334 C   0  0  0  0  0  0  0  0  0  0  0  0
  147.5045  139.2394  153.7652 N   0  0  0  0  0  0  0  0  0  0  0  0
  146.5494  138.2824  153.7558 C   0  0  0  0  0  0  0  0  0  0  0  0
  145.9073  137.9514  154.9078 N   0  0  0  0  0  0  0  0  0  0  0  0
  144.9767  136.9921  154.8980 C   0  0  0  0  0  0  0  0  0  0  0  0
  144.5481  136.2545  153.8711 N   0  0  0  0  0  0  0  0  0  0  0  0
  145.1962  136.5845  152.7168 C   0  0  0  0  0  0  0  0  0  0  0  0
  146.1958  137.5860  152.5711 C   0  0  0  0  0  0  0  0  0  0  0  0
  146.6241  137.6483  151.2520 N   0  0  0  0  0  0  0  0  0  0  0  0
  145.9190  136.7294  150.6501 C   0  0  0  0  0  0  0  0  0  0  0  0
  145.0460  136.0328  151.4563 N   0  0  0  0  0  0  0  0  0  0  0  0
  144.1517  134.9586  151.0519 C   0  0  0  0  0  0  0  0  0  0  0  0
  144.5502  133.5715  151.6110 C   0  0  1  0  0  0  0  0  0  0  0  0
  144.2935  133.5389  153.0041 O   0  0  0  0  0  0  0  0  0  0  0  0
  143.7784  132.4306  150.9582 C   0  0  0  0  0  0  0  0  0  0  0  0
  144.7611  131.2701  151.0324 C   0  0  0  0  0  0  0  0  0  0  0  0
  146.0023  131.8936  150.7516 O   0  0  0  0  0  0  0  0  0  0  0  0
  146.0233  133.1736  151.3767 C   0  0  0  0  0  0  0  0  0  0  0  0
  151.3690  136.9641  156.8360 H   0  0  0  0  0  0  0  0  0  0  0  0
  149.6718  137.3797  156.7191 H   0  0  0  0  0  0  0  0  0  0  0  0
  149.6875  137.5742  153.1055 H   0  0  0  0  0  0  0  0  0  0  0  0
  148.6713  136.7564  154.2499 H   0  0  0  0  0  0  0  0  0  0  0  0
  148.4621  138.9123  155.5824 H   0  0  0  0  0  0  0  0  0  0  0  0
  150.6393  139.8808  154.9653 H   0  0  0  0  0  0  0  0  0  0  0  0
  150.1335  140.0441  153.3010 H   0  0  0  0  0  0  0  0  0  0  0  0
  148.9423  141.5089  155.7023 H   0  0  0  0  0  0  0  0  0  0  0  0
  149.9320  142.2155  154.4431 H   0  0  0  0  0  0  0  0  0  0  0  0
  147.4918  142.6440  154.0461 H   0  0  0  0  0  0  0  0  0  0  0  0
  148.2022  141.7209  152.7404 H   0  0  0  0  0  0  0  0  0  0  0  0
  146.5673  140.5961  155.0656 H   0  0  0  0  0  0  0  0  0  0  0  0
  146.0489  140.7115  153.3940 H   0  0  0  0  0  0  0  0  0  0  0  0
  144.5117  136.7821  155.8497 H   0  0  0  0  0  0  0  0  0  0  0  0
  146.0218  136.5311  149.5932 H   0  0  0  0  0  0  0  0  0  0  0  0
  143.1408  135.2161  151.3704 H   0  0  0  0  0  0  0  0  0  0  0  0
  144.1298  134.9307  149.9617 H   0  0  0  0  0  0  0  0  0  0  0  0
  143.8741  132.7185  153.2134 H   0  0  0  0  0  0  0  0  0  0  0  0
  142.8221  132.2151  151.4370 H   0  0  0  0  0  0  0  0  0  0  0  0
  143.5796  132.6588  149.9100 H   0  0  0  0  0  0  0  0  0  0  0  0
  144.7840  130.8378  152.0339 H   0  0  0  0  0  0  0  0  0  0  0  0
  144.5368  130.4785  150.3174 H   0  0  0  0  0  0  0  0  0  0  0  0
  146.5428  133.8652  150.7146 H   0  0  0  0  0  0  0  0  0  0  0  0
  146.5905  133.1249  152.3077 H   0  0  0  0  0  0  0  0  0  0  0  0
  1  2  1  0  0  0  0
  1 27  1  0  0  0  0
  1 28  1  0  0  0  0
  2  3  2  0  0  0  0
  2  4  1  0  0  0  0
  4  5  1  0  0  0  0
  4 29  1  0  0  0  0
  4 30  1  0  0  0  0
  5 10  1  0  0  0  0
  5  6  1  0  0  0  0
  5 31  1  0  0  0  0
  6  7  1  0  0  0  0
  6 32  1  0  0  0  0
  6 33  1  0  0  0  0
  7  8  1  0  0  0  0
  7 34  1  0  0  0  0
  7 35  1  0  0  0  0
  8  9  1  0  0  0  0
  8 36  1  0  0  0  0
  8 37  1  0  0  0  0
  9 10  1  0  0  0  0
  9 38  1  0  0  0  0
  9 39  1  0  0  0  0
 10 11  1  0  0  0  0
 11 16  1  0  0  0  0
 11 12  2  0  0  0  0
 12 13  1  0  0  0  0
 13 14  2  0  0  0  0
 13 40  1  0  0  0  0
 14 15  1  0  0  0  0
 15 19  1  0  0  0  0
 15 16  2  0  0  0  0
 16 17  1  0  0  0  0
 17 18  2  0  0  0  0
 18 19  1  0  0  0  0
 18 41  1  0  0  0  0
 19 20  1  0  0  0  0
 20 21  1  0  0  0  0
 20 42  1  0  0  0  0
 20 43  1  0  0  0  0
 21 26  1  0  0  0  0
 21 22  1  0  0  0  0
 21 23  1  0  0  0  0
 22 44  1  0  0  0  0
 23 24  1  0  0  0  0
 23 45  1  0  0  0  0
 23 46  1  0  0  0  0
 24 25  1  0  0  0  0
 24 47  1  0  0  0  0
 24 48  1  0  0  0  0
 25 26  1  0  0  0  0
 26 49  1  0  0  0  0
 26 50  1  0  0  0  0
M  END
> <s_m_source_file>
AV-unprocessed.smi

> <i_m_source_file_index>
219

> <i_lp_mmshare_version>
43012

> <i_f3d_flags>
0

> <s_epik_input>
W05IMl1DKD1PKVtDSDJdW0NAQEhdMVtDSDJdW0NIMl1bQ0gyXVtDSDJdTjFjKG5bY0hdbjIpYyhjMjMpbltjSF1uM1tDSDJdW0NAQF00KFtPSF0pW0NIMl1bQ0gyXU9bQ0gyXTQ=

> <s_epik_cmdline>
J2VwaWtfcHl0aG9uJywgJy1waCcsICc3LjAnLCAnLXRuJywgJzgnLCAnLW1hJywgJzIwMCcsICctbWV0YWxfYmluZGluZycsICctaW1hZScsICc8aW5maWxlLm1hZT4nLCAnLW9tYWUnLCAnPG91dGZpbGUubWFlPic=

> <r_lp_tautomer_probability>
1

> <r_epik_Ionization_Penalty>
0.00228532

> <r_epik_Ionization_Penalty_Charging>
0

> <r_epik_Ionization_Penalty_Neutral>
0.00228532

> <r_epik_State_Penalty>
0.00140978

> <r_epik_Charging_Adjusted_Penalty>
0.00140978

> <i_epik_Tot_Q>
0

> <i_epik_Tot_abs_Q>
0

> <r_epik_Metal_State_Penalty>
-0

> <b_epik_Metal_Only>
0

> <s_lp_Force_Field>
OPLS_2005

> <r_lp_Energy>
37.1625

> <b_lp_Chiralities_Consistent>
1

> <s_lp_Variant>
AV-unprocessed.smi:219-2

> <Gold.Version>
5.8.1

> <Gold.Id.Protein>
6NUR|6NUR_protein|mol2

> <Gold.PLP.Fitness>
43.2162

> <Gold.PLP.PLP>
-32.6339

> <Gold.PLP.part.hbond>
-2.9280

> <Gold.PLP.part.metal>
0.0000

> <Gold.PLP.part.buried>
0.0614

> <Gold.PLP.part.nonpolar>
-33.0586

> <Gold.PLP.part.repulsive>
3.4168

> <Gold.PLP.ligand.clash>
0.0000

> <Gold.PLP.ligand.torsion>
0.2785

> <Gold.PLP.Chemscore.Hbond>
2.6268

> <Gold.PLP.Chemscore.CHOScore>
1.0000

> <Gold.PLP.Chemscore.Metal>
0.0000

> <Gold.Chemscore.Hbonds>
donor molecule, donor type, donor heavy atom, donor atom, acceptor molecule, acceptor atom, score
      L1  H    22    44       P1 10957  0.52
      P1  H  7954  7966       L1    17  0.91
      P1  H 10752 10765       L1     3  0.83
      L1  C    18    41       P1  7921  0.88

> <Gold.PLP.Chemscore.Internal.Correction>
0.2589

> <Gold.Rescore>
     Score         DG    S(hbond)    S(metal)    S(lipo)     H(rot)  DE(clash)    DE(int)     intcor
      9.22     -11.42       1.97        0.00      68.31       3.37       1.87       0.32       ----

> <Gold.Chemscore.Fitness>
9.2212

> <Gold.Chemscore.DG>
-11.4161

> <Gold.Chemscore.ZeroCoef>
-5.4800

> <Gold.Chemscore.Hbond>
1.9670

> <Gold.Chemscore.Metal>
0.0000

> <Gold.Chemscore.Lipo>
68.3125

> <Gold.Chemscore.Internal_Hbond>
0.0000

> <Gold.Chemscore.DEClash>
1.8727

> <Gold.Chemscore.DEInternal>
0.3222

> <Gold.Chemscore.Rot>
3.3697

> <Gold.Chemscore.Internal.Correction>
   9.000000E+99

> <Gold.Chemscore.Hbonds>
donor molecule, donor type, donor heavy atom, donor atom, acceptor molecule, acceptor atom, score
      L1  H    22    44       P1 10957  0.17
      P1  H  7954  7966       L1    17  0.23
      P1  H 10752 10765       L1     3  0.83

> <Gold.Chemscore.Hbond.Weighted>
-6.5699

> <Gold.Chemscore.Metal.Weighted>
-0.0000

> <Gold.Chemscore.Lipo.Weighted>
-7.9926

> <Gold.Chemscore.Internal_Hbond.Weighted>
0.0000

> <Gold.Chemscore.DEClash.Weighted>
1.8727

> <Gold.Chemscore.DEInternal.Weighted>
0.3222

> <Gold.Chemscore.Rot.Weighted>
8.6264

> <Gold.Chemscore.Internal.Correction.Weighted>
   9.000000E+99

> <Gold.Protein.RotatedTorsions>
[ 6907 6896 6895 6894 ] final  -37.76 input  -60.11 | X-H torsion
[ 7974 7965 7964 7962 ] final   82.99 input  175.53 | X-H torsion
[ 8008 7997 7996 7995 ] final  168.94 input   59.86 | X-H torsion
[ 10167 10162 10161 10158 ] final   24.05 input  -65.29 | X-H torsion
[ 10718 10713 10712 10709 ] final -164.60 input   66.30 | X-H torsion
[ 10763 10752 10751 10750 ] final -173.58 input  -60.55 | X-H torsion
[ 11005 11000 10999 10996 ] final  115.33 input  -57.11 | X-H torsion

> <Gold.Protein.ActiveResidues>
 VAL166  LYS551  ARG553  GLY616  TRP617  ASP618  TYR619  PRO620  LYS621  CYS622 
 ASP623  PHE694  ASN695  SER759  ASP760  ASP761  ALA762  ILE779  LEU786  VAL792 
 PHE793  MET794  SER795  GLU796  ALA797  LYS798  CYS799  TRP800  GLU811  SER814 

> <Gold.Protein.RotatedAtoms>
  151.0107  134.9394  159.8005 H   0  0  0  0  0  0  0  0  0  0  0  0  # atno 6907 bound_to 6896
  152.5302  134.3032  159.9096 H   0  0  0  0  0  0  0  0  0  0  0  0  # atno 6908 bound_to 6896
  151.3038  133.4069  159.2676 H   0  0  0  0  0  0  0  0  0  0  0  0  # atno 6909 bound_to 6896
  145.6178  139.2380  143.2155 H   0  0  0  0  0  0  0  0  0  0  0  0  # atno 7974 bound_to 7965
  156.1502  140.1577  156.8782 H   0  0  0  0  0  0  0  0  0  0  0  0  # atno 8008 bound_to 7997
  154.5064  140.0812  156.7940 H   0  0  0  0  0  0  0  0  0  0  0  0  # atno 8009 bound_to 7997
  155.3911  140.3410  155.4253 H   0  0  0  0  0  0  0  0  0  0  0  0  # atno 8010 bound_to 7997
  140.5219  143.9987  150.6421 H   0  0  0  0  0  0  0  0  0  0  0  0  # atno 10167 bound_to 10162
  156.6413  130.8970  151.2996 H   0  0  0  0  0  0  0  0  0  0  0  0  # atno 10718 bound_to 10713
  154.6062  135.2859  155.0482 H   0  0  0  0  0  0  0  0  0  0  0  0  # atno 10763 bound_to 10752
  154.1729  135.6469  153.5018 H   0  0  0  0  0  0  0  0  0  0  0  0  # atno 10764 bound_to 10752
  153.0176  135.5405  154.6799 H   0  0  0  0  0  0  0  0  0  0  0  0  # atno 10765 bound_to 10752
  139.9007  134.9582  156.7029 H   0  0  0  0  0  0  0  0  0  0  0  0  # atno 11005 bound_to 11000
  146.1454  140.6999  142.9347 LP  0  0  0  0  0  0  0  0  0  0  0  0  # atno 17320 bound_to 7965
  144.7243  140.4475  143.6985 LP  0  0  0  0  0  0  0  0  0  0  0  0  # atno 17321 bound_to 7965
  140.3339  143.3061  152.0659 LP  0  0  0  0  0  0  0  0  0  0  0  0  # atno 17342 bound_to 10162
  139.4926  144.6490  151.6716 LP  0  0  0  0  0  0  0  0  0  0  0  0  # atno 17343 bound_to 10162
  157.7170  130.9510  150.1292 LP  0  0  0  0  0  0  0  0  0  0  0  0  # atno 17370 bound_to 10713
  156.2157  130.3670  149.8616 LP  0  0  0  0  0  0  0  0  0  0  0  0  # atno 17371 bound_to 10713
  140.7136  133.9202  155.8100 LP  0  0  0  0  0  0  0  0  0  0  0  0  # atno 17394 bound_to 11000
  141.0281  134.0794  157.4045 LP  0  0  0  0  0  0  0  0  0  0  0  0  # atno 17395 bound_to 11000

$$$$
