AV-unprocessed.smi:2732|AV-procd|sdf|10532|dock8
  -GOLD-   2272014573D 1   1.00000     0.00000
 Structure written by MMmdl.
 34 35  0  0  0  0  0  0  0  0  1 V2000
  152.1976  144.3192  158.4040 C   0  0  0  0  0  0  0  0  0  0  0  0
  150.8730  143.5621  158.5801 C   0  0  2  0  0  0  0  0  0  0  0  0
  150.7840  143.1698  159.9473 O   0  0  0  0  0  0  0  0  0  0  0  0
  151.0370  144.1992  160.8958 C   0  0  0  0  0  0  0  0  0  0  0  0
  152.4518  144.0458  161.4103 C   0  0  0  0  0  0  0  0  0  0  0  0
  153.1056  142.6837  161.4601 C   0  0  0  0  0  0  0  0  0  0  0  0
  152.7161  143.3777  162.7406 C   0  0  0  0  0  0  0  0  0  0  0  0
  150.8077  142.3266  157.6674 C   0  0  0  0  0  0  0  0  0  0  0  0
  151.6406  141.4293  157.7963 O   0  0  0  0  0  0  0  0  0  0  0  0
  149.8123  142.3203  156.7617 N   0  0  0  0  0  0  0  0  0  0  0  0
  149.4731  141.3045  155.8277 C   0  0  0  0  0  0  0  0  0  0  0  0
  150.2369  140.1313  155.6184 C   0  0  0  0  0  0  0  0  0  0  0  0
  149.7828  139.1816  154.6829 C   0  0  0  0  0  0  0  0  0  0  0  0
  148.5779  139.4334  153.9972 C   0  0  0  0  0  0  0  0  0  0  0  0
  148.0978  138.5148  153.0672 N   0  0  0  0  0  0  0  0  0  0  0  0
  147.8342  140.5415  154.1972 N   0  0  0  0  0  0  0  0  0  0  0  0
  148.2754  141.4478  155.0959 C   0  0  0  0  0  0  0  0  0  0  0  0
  152.3405  144.6350  157.3699 H   0  0  0  0  0  0  0  0  0  0  0  0
  153.0528  143.7048  158.6891 H   0  0  0  0  0  0  0  0  0  0  0  0
  152.2148  145.2143  159.0262 H   0  0  0  0  0  0  0  0  0  0  0  0
  150.0533  144.2443  158.3454 H   0  0  0  0  0  0  0  0  0  0  0  0
  150.9346  145.1785  160.4267 H   0  0  0  0  0  0  0  0  0  0  0  0
  150.3413  144.1554  161.7349 H   0  0  0  0  0  0  0  0  0  0  0  0
  153.1039  144.8808  161.1604 H   0  0  0  0  0  0  0  0  0  0  0  0
  152.5118  141.8251  161.1523 H   0  0  0  0  0  0  0  0  0  0  0  0
  154.1649  142.6275  161.2185 H   0  0  0  0  0  0  0  0  0  0  0  0
  153.5169  143.7820  163.3563 H   0  0  0  0  0  0  0  0  0  0  0  0
  151.8633  142.9794  163.2869 H   0  0  0  0  0  0  0  0  0  0  0  0
  149.2627  143.1655  156.7031 H   0  0  0  0  0  0  0  0  0  0  0  0
  151.1463  139.9337  156.1644 H   0  0  0  0  0  0  0  0  0  0  0  0
  150.3476  138.2786  154.5036 H   0  0  0  0  0  0  0  0  0  0  0  0
  148.5936  137.6588  152.8642 H   0  0  0  0  0  0  0  0  0  0  0  0
  147.2327  138.6733  152.5710 H   0  0  0  0  0  0  0  0  0  0  0  0
  147.6507  142.3185  155.2322 H   0  0  0  0  0  0  0  0  0  0  0  0
  1  2  1  0  0  0  0
  1 18  1  0  0  0  0
  1 19  1  0  0  0  0
  1 20  1  0  0  0  0
  2  3  1  0  0  0  0
  2  8  1  0  0  0  0
  2 21  1  0  0  0  0
  3  4  1  0  0  0  0
  4  5  1  0  0  0  0
  4 22  1  0  0  0  0
  4 23  1  0  0  0  0
  5  7  1  0  0  0  0
  5  6  1  0  0  0  0
  5 24  1  0  0  0  0
  6  7  1  0  0  0  0
  6 25  1  0  0  0  0
  6 26  1  0  0  0  0
  7 27  1  0  0  0  0
  7 28  1  0  0  0  0
  8  9  2  0  0  0  0
  8 10  1  0  0  0  0
 10 11  1  0  0  0  0
 10 29  1  0  0  0  0
 11 17  1  0  0  0  0
 11 12  2  0  0  0  0
 12 13  1  0  0  0  0
 12 30  1  0  0  0  0
 13 14  2  0  0  0  0
 13 31  1  0  0  0  0
 14 15  1  0  0  0  0
 14 16  1  0  0  0  0
 15 32  1  0  0  0  0
 15 33  1  0  0  0  0
 16 17  2  0  0  0  0
 17 34  1  0  0  0  0
M  END
> <s_m_source_file>
AV-unprocessed.smi

> <i_m_source_file_index>
2732

> <i_lp_mmshare_version>
43012

> <i_f3d_flags>
0

> <s_epik_input>
W0NIMl0xW0NIMl1bQ0hdMVtDSDJdT1tDQEBIXShbQ0gzXSlDKD1PKVtOSF1jMltjSF1bY0hdYyhbTkgyXSluW2NIXTI=

> <s_epik_cmdline>
J2VwaWtfcHl0aG9uJywgJy1waCcsICc3LjAnLCAnLXRuJywgJzgnLCAnLW1hJywgJzIwMCcsICctbWV0YWxfYmluZGluZycsICctaW1hZScsICc8aW5maWxlLm1hZT4nLCAnLW9tYWUnLCAnPG91dGZpbGUubWFlPic=

> <r_lp_tautomer_probability>
1

> <r_epik_Ionization_Penalty>
0.0764773

> <r_epik_Ionization_Penalty_Charging>
0

> <r_epik_Ionization_Penalty_Neutral>
0.0764773

> <r_epik_State_Penalty>
0.0673619

> <r_epik_Charging_Adjusted_Penalty>
0.0673619

> <i_epik_Tot_Q>
0

> <i_epik_Tot_abs_Q>
0

> <r_epik_Metal_State_Penalty>
0.0594329

> <b_epik_Metal_Only>
0

> <s_lp_Force_Field>
OPLS_2005

> <r_lp_Energy>
19.1894

> <b_lp_Chiralities_Consistent>
1

> <s_lp_Variant>
AV-unprocessed.smi:2732-1

> <Gold.Version>
5.8.1

> <Gold.Id.Protein>
6NUR|6NUR_protein|mol2

> <Gold.PLP.Fitness>
46.6605

> <Gold.PLP.PLP>
-38.7842

> <Gold.PLP.part.hbond>
-3.2295

> <Gold.PLP.part.metal>
0.0000

> <Gold.PLP.part.buried>
-1.0921

> <Gold.PLP.part.nonpolar>
-33.9529

> <Gold.PLP.part.repulsive>
0.5419

> <Gold.PLP.ligand.clash>
0.0000

> <Gold.PLP.ligand.torsion>
0.8296

> <Gold.PLP.Chemscore.Hbond>
2.0000

> <Gold.PLP.Chemscore.CHOScore>
0.9926

> <Gold.PLP.Chemscore.Metal>
0.0000

> <Gold.Chemscore.Hbonds>
donor molecule, donor type, donor heavy atom, donor atom, acceptor molecule, acceptor atom, score
      L1  H    10    29       P1  8028  0.91
      L1  H    15    32       P1  7948  1.00
      L1  C    17    34       P1  8028  0.43

> <Gold.PLP.Chemscore.Internal.Correction>
0.5577

> <Gold.Rescore>
     Score         DG    S(hbond)    S(metal)    S(lipo)     H(rot)  DE(clash)    DE(int)     intcor
     15.69     -19.25       1.93        0.00     100.28       1.72       1.44       2.13       ----

> <Gold.Chemscore.Fitness>
15.6865

> <Gold.Chemscore.DG>
-19.2538

> <Gold.Chemscore.ZeroCoef>
-5.4800

> <Gold.Chemscore.Hbond>
1.9323

> <Gold.Chemscore.Metal>
0.0000

> <Gold.Chemscore.Lipo>
100.2780

> <Gold.Chemscore.Internal_Hbond>
0.0000

> <Gold.Chemscore.DEClash>
1.4404

> <Gold.Chemscore.DEInternal>
2.1269

> <Gold.Chemscore.Rot>
1.7237

> <Gold.Chemscore.Internal.Correction>
   9.000000E+99

> <Gold.Chemscore.Hbonds>
donor molecule, donor type, donor heavy atom, donor atom, acceptor molecule, acceptor atom, score
      L1  H    10    29       P1  8028  0.89
      L1  H    15    32       P1  7948  0.97

> <Gold.Chemscore.Hbond.Weighted>
-6.4540

> <Gold.Chemscore.Metal.Weighted>
-0.0000

> <Gold.Chemscore.Lipo.Weighted>
-11.7325

> <Gold.Chemscore.Internal_Hbond.Weighted>
0.0000

> <Gold.Chemscore.DEClash.Weighted>
1.4404

> <Gold.Chemscore.DEInternal.Weighted>
2.1269

> <Gold.Chemscore.Rot.Weighted>
4.4127

> <Gold.Chemscore.Internal.Correction.Weighted>
   9.000000E+99

> <Gold.Protein.RotatedTorsions>
[ 6907 6896 6895 6894 ] final  134.63 input  -60.11 | X-H torsion
[ 7974 7965 7964 7962 ] final  -21.42 input  175.53 | X-H torsion
[ 8008 7997 7996 7995 ] final -103.14 input   59.86 | X-H torsion
[ 10167 10162 10161 10158 ] final   13.56 input  -65.29 | X-H torsion
[ 10718 10713 10712 10709 ] final  -67.44 input   66.30 | X-H torsion
[ 10763 10752 10751 10750 ] final  179.78 input  -60.55 | X-H torsion
[ 11005 11000 10999 10996 ] final    1.51 input  -57.11 | X-H torsion

> <Gold.Protein.ActiveResidues>
 VAL166  LYS551  ARG553  GLY616  TRP617  ASP618  TYR619  PRO620  LYS621  CYS622 
 ASP623  PHE694  ASN695  SER759  ASP760  ASP761  ALA762  ILE779  LEU786  VAL792 
 PHE793  MET794  SER795  GLU796  ALA797  LYS798  CYS799  TRP800  GLU811  SER814 

> <Gold.Protein.RotatedAtoms>
  152.3092  133.5735  159.5669 H   0  0  0  0  0  0  0  0  0  0  0  0  # atno 6907 bound_to 6896
  150.7314  134.0177  159.3700 H   0  0  0  0  0  0  0  0  0  0  0  0  # atno 6908 bound_to 6896
  151.8071  135.0692  160.0459 H   0  0  0  0  0  0  0  0  0  0  0  0  # atno 6909 bound_to 6896
  146.1734  140.4338  142.8523 H   0  0  0  0  0  0  0  0  0  0  0  0  # atno 7974 bound_to 7965
  154.8666  140.0424  157.1698 H   0  0  0  0  0  0  0  0  0  0  0  0  # atno 8008 bound_to 7997
  154.8783  140.2969  155.5419 H   0  0  0  0  0  0  0  0  0  0  0  0  # atno 8009 bound_to 7997
  156.2999  140.2416  156.3782 H   0  0  0  0  0  0  0  0  0  0  0  0  # atno 8010 bound_to 7997
  140.5994  143.8635  150.6950 H   0  0  0  0  0  0  0  0  0  0  0  0  # atno 10167 bound_to 10162
  156.0557  130.4278  150.1855 H   0  0  0  0  0  0  0  0  0  0  0  0  # atno 10718 bound_to 10713
  154.5251  135.2796  155.1229 H   0  0  0  0  0  0  0  0  0  0  0  0  # atno 10763 bound_to 10752
  154.2771  135.6292  153.5336 H   0  0  0  0  0  0  0  0  0  0  0  0  # atno 10764 bound_to 10752
  152.9945  135.5642  154.5749 H   0  0  0  0  0  0  0  0  0  0  0  0  # atno 10765 bound_to 10752
  140.6146  133.9717  155.8194 H   0  0  0  0  0  0  0  0  0  0  0  0  # atno 11005 bound_to 11000
  144.8198  140.6530  143.6360 LP  0  0  0  0  0  0  0  0  0  0  0  0  # atno 17320 bound_to 7965
  145.4278  139.1554  143.4039 LP  0  0  0  0  0  0  0  0  0  0  0  0  # atno 17321 bound_to 7965
  140.2177  143.3833  152.1668 LP  0  0  0  0  0  0  0  0  0  0  0  0  # atno 17342 bound_to 10162
  139.5281  144.7126  151.5156 LP  0  0  0  0  0  0  0  0  0  0  0  0  # atno 17343 bound_to 10162
  156.9931  130.9899  151.3410 LP  0  0  0  0  0  0  0  0  0  0  0  0  # atno 17370 bound_to 10713
  157.5525  130.8192  149.8163 LP  0  0  0  0  0  0  0  0  0  0  0  0  # atno 17371 bound_to 10713
  141.0784  134.0099  157.3422 LP  0  0  0  0  0  0  0  0  0  0  0  0  # atno 17394 bound_to 11000
  139.9178  135.0198  156.7948 LP  0  0  0  0  0  0  0  0  0  0  0  0  # atno 17395 bound_to 11000

$$$$
