#       Name:                AV-unprocessed.smi:1813
#       Creating user name   scv26
#       Creation time:       Fri Mar 27 09:00:16 2020


#       File generated by GOLD software.
#

@<TRIPOS>MOLECULE
AV-unprocessed.smi:1813
    45    46     1
SMALL
NO_CHARGES


@<TRIPOS>ATOM
      1 ****        -4.6853   4.0547  -1.4052 C.3            1 S1                 0.0000
      2 ****        -4.1214   2.7202  -1.2688 N.am           1 S1                 0.0000
      3 ****        -2.9355   2.3482  -1.7707 C.2            1 S1                 0.0000
      4 ****        -2.2037   3.1071  -2.4074 O.2            1 S1                 0.0000
      5 ****        -2.5240   0.8921  -1.5305 C.3            1 S1                 0.0000
      6 ****        -1.0584   0.6767  -1.6440 N.4            1 S1                 1.0000
      7 ****        -0.7158  -0.7280  -1.9828 C.3            1 S1                 0.0000
      8 ****         0.7937  -0.8873  -2.2421 C.3            1 S1                 0.0000
      9 ****         1.6418  -0.3868  -1.0595 C.3            1 S1                 0.0000
     10 ****         1.5369  -1.3066   0.0733 N.am           1 S1                 0.0000
     11 ****         2.4049  -1.3786   1.0935 C.2            1 S1                 0.0000
     12 ****         3.3956  -0.6542   1.1913 O.2            1 S1                 0.0000
     13 ****         2.0461  -2.3294   1.9739 N.am           1 S1                 0.0000
     14 ****         2.6952  -2.6942   3.1828 C.2            1 S1                 0.0000
     15 ****         3.8172  -2.1245   3.6382 N.2            1 S1                 0.0000
     16 ****         4.2309  -2.6782   4.8524 C.2            1 S1                 0.0000
     17 ****         3.4057  -3.6750   5.3105 C.2            1 S1                 0.0000
     18 ****         2.0693  -3.9611   4.2280 S.3            1 S1                 0.0000
     19 ****         1.2126   1.0453  -0.6811 C.3            1 S1                 0.0000
     20 ****        -0.3049   1.1505  -0.4525 C.3            1 S1                 0.0000
     21 ****        -5.6100   4.1280  -0.8332 H              1 S1                 0.0000
     22 ****        -4.9120   4.2734  -2.4494 H              1 S1                 0.0000
     23 ****        -3.9947   4.8124  -1.0326 H              1 S1                 0.0000
     24 ****        -4.6700   2.0381  -0.7647 H              1 S1                 0.0000
     25 ****        -2.8794   0.5470  -0.5581 H              1 S1                 0.0000
     26 ****        -3.0420   0.2960  -2.2829 H              1 S1                 0.0000
     27 ****        -1.0361  -1.3870  -1.1745 H              1 S1                 0.0000
     28 ****        -1.2623  -1.0347  -2.8754 H              1 S1                 0.0000
     29 ****         1.0290  -1.9291  -2.4635 H              1 S1                 0.0000
     30 ****         1.0607  -0.3214  -3.1357 H              1 S1                 0.0000
     31 ****         2.6859  -0.3687  -1.3778 H              1 S1                 0.0000
     32 ****         0.7560  -1.9462   0.0718 H              1 S1                 0.0000
     33 ****         1.2090  -2.8504   1.7592 H              1 S1                 0.0000
     34 ****         5.1267  -2.3009   5.3228 H              1 S1                 0.0000
     35 ****         3.5033  -4.2559   6.2156 H              1 S1                 0.0000
     36 ****         1.7489   1.3888   0.2041 H              1 S1                 0.0000
     37 ****         1.4965   1.7263  -1.4845 H              1 S1                 0.0000
     38 ****        -0.5590   2.1882  -0.2353 H              1 S1                 0.0000
     39 ****        -0.5973   0.5677   0.4224 H              1 S1                 0.0000
     40 ****        -0.7540   1.2391  -2.4264 H              1 S1                 0.0000
     41 ****        -2.4854   4.0524  -2.5717 LP             1 S1                 0.0000
     42 ****        -1.3278   2.7779  -2.7602 LP             1 S1                 0.0000
     43 ****         3.5856   0.0307   0.4879 LP             1 S1                 0.0000
     44 ****         4.0103  -0.7508   1.9741 LP             1 S1                 0.0000
     45 ****         4.3024  -1.3891   3.1651 LP             1 S1                 0.0000
@<TRIPOS>BOND
    1    1    2 1     
    2    1   21 1     
    3    1   22 1     
    4    1   23 1     
    5    2    3 am    
    6    2   24 1     
    7    3    4 2     
    8    3    5 1     
    9    5    6 1     
   10    5   25 1     
   11    5   26 1     
   12    6   20 1     
   13    6    7 1     
   14    6   40 1     
   15    7    8 1     
   16    7   27 1     
   17    7   28 1     
   18    8    9 1     
   19    8   29 1     
   20    8   30 1     
   21    9   10 1     
   22    9   19 1     
   23    9   31 1     
   24   10   11 am    
   25   10   32 1     
   26   11   12 2     
   27   11   13 am    
   28   13   14 1     
   29   13   33 1     
   30   14   18 1     
   31   14   15 2     
   32   15   16 1     
   33   16   17 2     
   34   16   34 1     
   35   17   18 1     
   36   17   35 1     
   37   19   20 1     
   38   19   36 1     
   39   19   37 1     
   40   20   38 1     
   41   20   39 1     
   42    4   41 1     
   43    4   42 1     
   44   12   43 1     
   45   12   44 1     
   46   15   45 1     
@<TRIPOS>SUBSTRUCTURE
      1 S1             1
@<TRIPOS>SET
LONE_PAIRS      STATIC     ATOMS    <user>   **** ""
5 41 42 43 44 45
DONOR_HYDROGENS      STATIC     ATOMS    <user>   **** ""
4 24 40 32 33
ATOM$BLUE        STATIC     ATOMS    COLORGROUP SYSTEM
5 41 42 43 44 45
ATOM$RED        STATIC     ATOMS    COLORGROUP SYSTEM
4 24 40 32 33
