#       Name:                AV-unprocessed.smi:777
#       Creating user name   scv26
#       Creation time:       Fri Mar 27 01:12:27 2020


#       File generated by GOLD software.
#

@<TRIPOS>MOLECULE
AV-unprocessed.smi:777
    44    45     1
SMALL
NO_CHARGES


@<TRIPOS>ATOM
      1 ****        -1.9672  -2.2521   2.3371 C.3            1 S1                 0.0000
      2 ****        -1.6381  -0.9209   1.6298 C.3            1 S1                 0.0000
      3 ****        -0.1293  -0.6901   1.4410 C.2            1 S1                 0.0000
      4 ****         0.6703  -1.5994   1.6606 O.2            1 S1                 0.0000
      5 ****         0.2107   0.5471   1.0330 N.am           1 S1                 0.0000
      6 ****         1.4850   1.1261   0.5770 C.3            1 S1                 0.0000
      7 ****         1.9216   2.1101   1.6900 C.2            1 S1                 0.0000
      8 ****         2.7792   1.7216   2.5145 O.co2          1 S1                 0.0000
      9 ****         1.3629   3.2299   1.7319 O.co2          1 S1                -1.0000
     10 ****         2.6339   0.1100   0.2705 C.3            1 S1                 0.0000
     11 ****         2.3840  -0.7589  -0.9790 C.3            1 S1                 0.0000
     12 ****         2.0849   0.1015  -2.2117 C.3            1 S1                 0.0000
     13 ****         0.9078   1.0447  -1.9403 C.3            1 S1                 0.0000
     14 ****         1.1827   1.9366  -0.7169 C.3            1 S1                 0.0000
     15 ****        -2.3295  -0.7938   0.3506 N.pl3          1 S1                 0.0000
     16 ****        -3.0154   0.3007  -0.1367 C.2            1 S1                 0.0000
     17 ****        -3.4498  -0.0117  -1.3927 C.2            1 S1                 0.0000
     18 ****        -2.9644  -1.3325  -1.5986 C.2            1 S1                 0.0000
     19 ****        -2.2901  -1.7952  -0.5593 N.2            1 S1                 0.0000
     20 ****        -1.5004  -2.3005   3.3215 H              1 S1                 0.0000
     21 ****        -1.6234  -3.1155   1.7658 H              1 S1                 0.0000
     22 ****        -3.0425  -2.3594   2.4818 H              1 S1                 0.0000
     23 ****        -2.0018  -0.1170   2.2719 H              1 S1                 0.0000
     24 ****        -0.5631   1.1906   0.9587 H              1 S1                 0.0000
     25 ****         3.5561   0.6676   0.0984 H              1 S1                 0.0000
     26 ****         2.8513  -0.5260   1.1283 H              1 S1                 0.0000
     27 ****         3.2556  -1.3853  -1.1695 H              1 S1                 0.0000
     28 ****         1.5527  -1.4424  -0.8097 H              1 S1                 0.0000
     29 ****         2.9684   0.6830  -2.4782 H              1 S1                 0.0000
     30 ****         1.8625  -0.5375  -3.0667 H              1 S1                 0.0000
     31 ****         0.7254   1.6673  -2.8164 H              1 S1                 0.0000
     32 ****        -0.0018   0.4638  -1.7807 H              1 S1                 0.0000
     33 ****         0.3259   2.5963  -0.5691 H              1 S1                 0.0000
     34 ****         2.0266   2.5890  -0.9490 H              1 S1                 0.0000
     35 ****        -3.1319   1.2037   0.4442 H              1 S1                 0.0000
     36 ****        -4.0204   0.6117  -2.0649 H              1 S1                 0.0000
     37 ****        -3.0766  -1.9626  -2.4685 H              1 S1                 0.0000
     38 ****         0.3400  -2.4934   1.9633 LP             1 S1                 0.0000
     39 ****         1.6503  -1.4443   1.5364 LP             1 S1                 0.0000
     40 ****         3.0574   2.3199   3.2660 LP             1 S1                 0.0000
     41 ****         3.1862   0.8129   2.4219 LP             1 S1                 0.0000
     42 ****         1.5947   3.8775   2.4577 LP             1 S1                 0.0000
     43 ****         0.6848   3.4766   1.0396 LP             1 S1                 0.0000
     44 ****        -1.8487  -2.6877  -0.4662 LP             1 S1                 0.0000
@<TRIPOS>BOND
    1    1    2 1     
    2    1   20 1     
    3    1   21 1     
    4    1   22 1     
    5    2    3 1     
    6    2   15 1     
    7    2   23 1     
    8    3    4 2     
    9    3    5 am    
   10    5    6 1     
   11    5   24 1     
   12    6   14 1     
   13    6    7 1     
   14    6   10 1     
   15    7    8 ar    
   16    7    9 ar    
   17   10   11 1     
   18   10   25 1     
   19   10   26 1     
   20   11   12 1     
   21   11   27 1     
   22   11   28 1     
   23   12   13 1     
   24   12   29 1     
   25   12   30 1     
   26   13   14 1     
   27   13   31 1     
   28   13   32 1     
   29   14   33 1     
   30   14   34 1     
   31   15   19 1     
   32   15   16 1     
   33   16   17 2     
   34   16   35 1     
   35   17   18 1     
   36   17   36 1     
   37   18   19 2     
   38   18   37 1     
   39    4   38 1     
   40    4   39 1     
   41    8   40 1     
   42    8   41 1     
   43    9   42 1     
   44    9   43 1     
   45   19   44 1     
@<TRIPOS>SUBSTRUCTURE
      1 S1             1
@<TRIPOS>SET
LONE_PAIRS      STATIC     ATOMS    <user>   **** ""
7 38 39 40 41 42 43 44
DONOR_HYDROGENS      STATIC     ATOMS    <user>   **** ""
1 24
ATOM$BLUE        STATIC     ATOMS    COLORGROUP SYSTEM
7 38 39 40 41 42 43 44
ATOM$RED        STATIC     ATOMS    COLORGROUP SYSTEM
1 24
