AV-unprocessed.smi:2784|AV-procd|sdf|10732|dock10
  -GOLD-   2272015173D 1   1.00000     0.00000
 Structure written by MMmdl.
 32 33  0  0  0  0  0  0  0  0  2 V2000
  147.5790  132.4714  152.8464 C   0  0  0  0  0  0  0  0  0  0  0  0
  147.0230  133.7078  152.4272 O   0  0  0  0  0  0  0  0  0  0  0  0
  145.6024  133.7664  152.5304 C   0  0  2  0  0  0  0  0  0  0  0  0
  144.9840  132.7387  151.5757 C   0  0  0  0  0  0  0  0  0  0  0  0
  145.0011  133.4342  150.2180 C   0  0  0  0  0  0  0  0  0  0  0  0
  144.7011  134.9030  150.5287 C   0  0  0  0  0  0  0  0  0  0  0  0
  145.0895  135.1272  152.0033 C   0  0  2  0  0  0  0  0  0  0  0  0
  146.0733  136.2006  152.1327 N   0  0  0  0  0  0  0  0  0  0  0  0
  145.8666  137.3503  152.7905 C   0  0  0  0  0  0  0  0  0  0  0  0
  144.8053  137.6380  153.3448 O   0  0  0  0  0  0  0  0  0  0  0  0
  146.9553  138.1338  152.7716 N   0  0  0  0  0  0  0  0  0  0  0  0
  147.0657  139.4049  153.3802 C   0  0  0  0  0  0  0  0  0  0  0  0
  148.0218  140.2878  153.0953 N   0  3  0  0  0  0  0  0  0  0  0  0
  147.8292  141.4091  153.8637 C   0  0  0  0  0  0  0  0  0  0  0  0
  146.7119  141.1544  154.6224 C   0  0  0  0  0  0  0  0  0  0  0  0
  146.2207  139.8980  154.3298 O   0  0  0  0  0  0  0  0  0  0  0  0
  148.6620  132.5021  152.7285 H   0  0  0  0  0  0  0  0  0  0  0  0
  147.2031  131.6352  152.2572 H   0  0  0  0  0  0  0  0  0  0  0  0
  147.3634  132.2821  153.8987 H   0  0  0  0  0  0  0  0  0  0  0  0
  145.2861  133.6130  153.5638 H   0  0  0  0  0  0  0  0  0  0  0  0
  145.5043  131.7813  151.5617 H   0  0  0  0  0  0  0  0  0  0  0  0
  143.9515  132.5447  151.8695 H   0  0  0  0  0  0  0  0  0  0  0  0
  145.9956  133.3475  149.7782 H   0  0  0  0  0  0  0  0  0  0  0  0
  144.2888  133.0003  149.5158 H   0  0  0  0  0  0  0  0  0  0  0  0
  145.2333  135.5624  149.8415 H   0  0  0  0  0  0  0  0  0  0  0  0
  143.6362  135.0998  150.3983 H   0  0  0  0  0  0  0  0  0  0  0  0
  144.1849  135.4017  152.5496 H   0  0  0  0  0  0  0  0  0  0  0  0
  146.9759  136.0408  151.7096 H   0  0  0  0  0  0  0  0  0  0  0  0
  148.7805  140.1882  152.4325 H   0  0  0  0  0  0  0  0  0  0  0  0
  148.4925  142.2596  153.7959 H   0  0  0  0  0  0  0  0  0  0  0  0
  146.1700  141.7195  155.3667 H   0  0  0  0  0  0  0  0  0  0  0  0
  147.7716  137.7915  152.2867 H   0  0  0  0  0  0  0  0  0  0  0  0
  1  2  1  0  0  0  0
  1 17  1  0  0  0  0
  1 18  1  0  0  0  0
  1 19  1  0  0  0  0
  2  3  1  0  0  0  0
  3  7  1  0  0  0  0
  3  4  1  0  0  0  0
  3 20  1  0  0  0  0
  4  5  1  0  0  0  0
  4 21  1  0  0  0  0
  4 22  1  0  0  0  0
  5  6  1  0  0  0  0
  5 23  1  0  0  0  0
  5 24  1  0  0  0  0
  6  7  1  0  0  0  0
  6 25  1  0  0  0  0
  6 26  1  0  0  0  0
  7  8  1  0  0  0  0
  7 27  1  0  0  0  0
  8 28  1  0  0  0  0
  8  9  1  0  0  0  0
  9 11  1  0  0  0  0
  9 10  2  0  0  0  0
 11 12  1  0  0  0  0
 11 32  1  0  0  0  0
 12 16  1  0  0  0  0
 12 13  2  0  0  0  0
 13 29  1  0  0  0  0
 13 14  1  0  0  0  0
 14 30  1  0  0  0  0
 14 15  2  0  0  0  0
 15 31  1  0  0  0  0
 15 16  1  0  0  0  0
M  CHG  1  13   1
M  END
> <s_m_source_file>
AV-unprocessed.smi

> <i_m_source_file_index>
2784

> <i_lp_mmshare_version>
43012

> <i_f3d_flags>
0

> <s_epik_input>
W0NIM11PW0NAQEhdMVtDSDJdW0NIMl1bQ0gyXVtDQEhdMVtOSF1DKD1PKVtOSF1jMm5bY0hdW2NIXW8y

> <s_epik_cmdline>
J2VwaWtfcHl0aG9uJywgJy1waCcsICc3LjAnLCAnLXRuJywgJzgnLCAnLW1hJywgJzIwMCcsICctbWV0YWxfYmluZGluZycsICctaW1hZScsICc8aW5maWxlLm1hZT4nLCAnLW9tYWUnLCAnPG91dGZpbGUubWFlPic=

> <r_epik_Ionization_Penalty>
6.73843

> <r_epik_Ionization_Penalty_Charging>
6.66704

> <r_epik_Ionization_Penalty_Neutral>
0.0713889

> <r_epik_State_Penalty>
1.94951

> <r_epik_Charging_Adjusted_Penalty>
8.61656

> <i_epik_Tot_Q>
1

> <i_epik_Tot_abs_Q>
1

> <r_epik_Metal_State_Penalty>
1.97013

> <b_epik_Metal_Only>
0

> <s_lp_Force_Field>
OPLS_2005

> <r_lp_Energy>
28.2598

> <b_lp_Chiralities_Consistent>
1

> <s_lp_Variant>
AV-unprocessed.smi:2784-7

> <Gold.Version>
5.8.1

> <Gold.Id.Protein>
6NUR|6NUR_protein|mol2

> <Gold.PLP.Fitness>
33.0041

> <Gold.PLP.PLP>
-24.1924

> <Gold.PLP.part.hbond>
-2.9102

> <Gold.PLP.part.metal>
0.0000

> <Gold.PLP.part.buried>
-4.9391

> <Gold.PLP.part.nonpolar>
-18.0288

> <Gold.PLP.part.repulsive>
0.7177

> <Gold.PLP.ligand.clash>
0.0000

> <Gold.PLP.ligand.torsion>
0.0744

> <Gold.PLP.Chemscore.Hbond>
2.9833

> <Gold.PLP.Chemscore.CHOScore>
0.0000

> <Gold.PLP.Chemscore.Metal>
0.0000

> <Gold.Chemscore.Hbonds>
donor molecule, donor type, donor heavy atom, donor atom, acceptor molecule, acceptor atom, score
      L1  H     8    28       P1  7948  0.98
      L1  H    11    32       P1  7948  0.98
      L1  H    13    29       P1  7957  0.98

> <Gold.PLP.Chemscore.Internal.Correction>
0.0108

> <Gold.Rescore>
     Score         DG    S(hbond)    S(metal)    S(lipo)     H(rot)  DE(clash)    DE(int)     intcor
     15.59     -17.07       2.89        0.00      45.69       1.34       0.06       1.42       ----

> <Gold.Chemscore.Fitness>
15.5861

> <Gold.Chemscore.DG>
-17.0684

> <Gold.Chemscore.ZeroCoef>
-5.4800

> <Gold.Chemscore.Hbond>
2.8922

> <Gold.Chemscore.Metal>
0.0000

> <Gold.Chemscore.Lipo>
45.6933

> <Gold.Chemscore.Internal_Hbond>
0.0000

> <Gold.Chemscore.DEClash>
0.0628

> <Gold.Chemscore.DEInternal>
1.4195

> <Gold.Chemscore.Rot>
1.3351

> <Gold.Chemscore.Internal.Correction>
   9.000000E+99

> <Gold.Chemscore.Hbonds>
donor molecule, donor type, donor heavy atom, donor atom, acceptor molecule, acceptor atom, score
      L1  H     8    28       P1  7948  0.92
      L1  H    11    32       P1  7948  0.91
      L1  H    13    29       P1  7957  0.91

> <Gold.Chemscore.Hbond.Weighted>
-9.6600

> <Gold.Chemscore.Metal.Weighted>
-0.0000

> <Gold.Chemscore.Lipo.Weighted>
-5.3461

> <Gold.Chemscore.Internal_Hbond.Weighted>
0.0000

> <Gold.Chemscore.DEClash.Weighted>
0.0628

> <Gold.Chemscore.DEInternal.Weighted>
1.4195

> <Gold.Chemscore.Rot.Weighted>
3.4177

> <Gold.Chemscore.Internal.Correction.Weighted>
   9.000000E+99

> <Gold.Protein.RotatedTorsions>
[ 6907 6896 6895 6894 ] final   68.24 input  -60.11 | X-H torsion
[ 7974 7965 7964 7962 ] final  -58.43 input  175.53 | X-H torsion
[ 8008 7997 7996 7995 ] final  170.13 input   59.86 | X-H torsion
[ 10167 10162 10161 10158 ] final  -38.89 input  -65.29 | X-H torsion
[ 10718 10713 10712 10709 ] final -146.02 input   66.30 | X-H torsion
[ 10763 10752 10751 10750 ] final -170.50 input  -60.55 | X-H torsion
[ 11005 11000 10999 10996 ] final  -68.98 input  -57.11 | X-H torsion

> <Gold.Protein.ActiveResidues>
 VAL166  LYS551  ARG553  GLY616  TRP617  ASP618  TYR619  PRO620  LYS621  CYS622 
 ASP623  PHE694  ASN695  SER759  ASP760  ASP761  ALA762  ILE779  LEU786  VAL792 
 PHE793  MET794  SER795  GLU796  ALA797  LYS798  CYS799  TRP800  GLU811  SER814 

> <Gold.Protein.RotatedAtoms>
  152.4607  134.5190  159.9776 H   0  0  0  0  0  0  0  0  0  0  0  0  # atno 6907 bound_to 6896
  151.5240  133.3455  159.2914 H   0  0  0  0  0  0  0  0  0  0  0  0  # atno 6908 bound_to 6896
  150.8569  134.7940  159.7115 H   0  0  0  0  0  0  0  0  0  0  0  0  # atno 6909 bound_to 6896
  145.8393  140.8427  143.0042 H   0  0  0  0  0  0  0  0  0  0  0  0  # atno 7974 bound_to 7965
  156.1394  140.1546  156.8944 H   0  0  0  0  0  0  0  0  0  0  0  0  # atno 8008 bound_to 7997
  154.4974  140.0834  156.7765 H   0  0  0  0  0  0  0  0  0  0  0  0  # atno 8009 bound_to 7997
  155.4107  140.3418  155.4265 H   0  0  0  0  0  0  0  0  0  0  0  0  # atno 8010 bound_to 7997
  140.7079  143.3248  151.2705 H   0  0  0  0  0  0  0  0  0  0  0  0  # atno 10167 bound_to 10162
  156.3896  130.7879  151.2080 H   0  0  0  0  0  0  0  0  0  0  0  0  # atno 10718 bound_to 10713
  154.6408  135.2898  155.0106 H   0  0  0  0  0  0  0  0  0  0  0  0  # atno 10763 bound_to 10752
  154.1233  135.6544  153.4911 H   0  0  0  0  0  0  0  0  0  0  0  0  # atno 10764 bound_to 10752
  153.0325  135.5293  154.7273 H   0  0  0  0  0  0  0  0  0  0  0  0  # atno 10765 bound_to 10752
  141.1544  133.6753  156.6529 H   0  0  0  0  0  0  0  0  0  0  0  0  # atno 11005 bound_to 11000
  144.6734  140.0789  143.7470 LP  0  0  0  0  0  0  0  0  0  0  0  0  # atno 17320 bound_to 7965
  145.9483  139.2716  143.1228 LP  0  0  0  0  0  0  0  0  0  0  0  0  # atno 17321 bound_to 7965
  139.6713  144.0015  152.2755 LP  0  0  0  0  0  0  0  0  0  0  0  0  # atno 17342 bound_to 10162
  139.9614  144.6555  150.8076 LP  0  0  0  0  0  0  0  0  0  0  0  0  # atno 17343 bound_to 10162
  157.7498  131.0319  150.4204 LP  0  0  0  0  0  0  0  0  0  0  0  0  # atno 17370 bound_to 10713
  156.4463  130.4002  149.6664 LP  0  0  0  0  0  0  0  0  0  0  0  0  # atno 17371 bound_to 10713
  140.3306  134.7932  157.4323 LP  0  0  0  0  0  0  0  0  0  0  0  0  # atno 17394 bound_to 11000
  140.1020  134.5460  155.8344 LP  0  0  0  0  0  0  0  0  0  0  0  0  # atno 17395 bound_to 11000

$$$$
