#       Name:                AV-unprocessed.smi:3123
#       Creating user name   scv26
#       Creation time:       Fri Mar 27 17:28:36 2020


#       File generated by GOLD software.
#

@<TRIPOS>MOLECULE
AV-unprocessed.smi:3123
    34    35     1
SMALL
NO_CHARGES


@<TRIPOS>ATOM
      1 ****        -4.0888   1.1866   1.3542 N.3            1 S1                 0.0000
      2 ****        -3.5283  -0.1430   1.2248 C.3            1 S1                 0.0000
      3 ****        -2.0178  -0.1408   1.3289 C.ar           1 S1                 0.0000
      4 ****        -1.3846  -0.1342   2.5879 C.ar           1 S1                 0.0000
      5 ****         0.0232  -0.1245   2.6286 C.ar           1 S1                 0.0000
      6 ****         0.7967  -0.1203   1.5222 N.ar           1 S1                 0.0000
      7 ****         0.1863  -0.1243   0.3123 C.ar           1 S1                 0.0000
      8 ****         0.9869  -0.1243  -0.8389 N.3            1 S1                 0.0000
      9 ****         1.7564   1.1015  -1.0123 C.3            1 S1                 0.0000
     10 ****         2.5059   1.0667  -2.3558 C.3            1 S1                 0.0000
     11 ****         3.3210  -0.1005  -2.4201 O.3            1 S1                 0.0000
     12 ****         2.5517  -1.2961  -2.3232 C.3            1 S1                 0.0000
     13 ****         1.8067  -1.3217  -0.9776 C.3            1 S1                 0.0000
     14 ****        -1.2172  -0.1315   0.1688 C.ar           1 S1                 0.0000
     15 ****        -4.7524   1.2045   2.1153 H              1 S1                 0.0000
     16 ****        -3.3554   1.8390   1.5920 H              1 S1                 0.0000
     17 ****        -3.9408  -0.7792   2.0086 H              1 S1                 0.0000
     18 ****        -3.8371  -0.5715   0.2709 H              1 S1                 0.0000
     19 ****        -1.9614  -0.1368   3.5011 H              1 S1                 0.0000
     20 ****         0.5425  -0.1206   3.5756 H              1 S1                 0.0000
     21 ****         1.0903   1.9644  -0.9772 H              1 S1                 0.0000
     22 ****         2.4695   1.2095  -0.1937 H              1 S1                 0.0000
     23 ****         1.8054   1.0798  -3.1922 H              1 S1                 0.0000
     24 ****         3.1392   1.9481  -2.4563 H              1 S1                 0.0000
     25 ****         1.8509  -1.3592  -3.1574 H              1 S1                 0.0000
     26 ****         3.2181  -2.1552  -2.4006 H              1 S1                 0.0000
     27 ****         2.5256  -1.3755  -0.1589 H              1 S1                 0.0000
     28 ****         1.1770  -2.2100  -0.9142 H              1 S1                 0.0000
     29 ****        -1.6706  -0.1315  -0.8120 H              1 S1                 0.0000
     30 ****        -4.5271   1.4309   0.4892 LP             1 S1                 0.0000
     31 ****         1.7942  -0.1144   1.5936 LP             1 S1                 0.0000
     32 ****         0.3370  -0.1487  -1.5985 LP             1 S1                 0.0000
     33 ****         3.9777  -0.0774  -1.6663 LP             1 S1                 0.0000
     34 ****         3.8129  -0.1030  -3.2908 LP             1 S1                 0.0000
@<TRIPOS>BOND
    1    1    2 1     
    2    1   15 1     
    3    1   16 1     
    4    2    3 1     
    5    2   17 1     
    6    2   18 1     
    7    3   14 ar    
    8    3    4 ar    
    9    4    5 ar    
   10    4   19 1     
   11    5    6 ar    
   12    5   20 1     
   13    6    7 ar    
   14    7    8 1     
   15    7   14 ar    
   16    8   13 1     
   17    8    9 1     
   18    9   10 1     
   19    9   21 1     
   20    9   22 1     
   21   10   11 1     
   22   10   23 1     
   23   10   24 1     
   24   11   12 1     
   25   12   13 1     
   26   12   25 1     
   27   12   26 1     
   28   13   27 1     
   29   13   28 1     
   30   14   29 1     
   31    1   30 1     
   32    6   31 1     
   33    8   32 1     
   34   11   33 1     
   35   11   34 1     
@<TRIPOS>SUBSTRUCTURE
      1 S1             1
@<TRIPOS>SET
LONE_PAIRS      STATIC     ATOMS    <user>   **** ""
5 30 31 32 33 34
DONOR_HYDROGENS      STATIC     ATOMS    <user>   **** ""
2 15 16
ATOM$BLUE        STATIC     ATOMS    COLORGROUP SYSTEM
5 30 31 32 33 34
ATOM$RED        STATIC     ATOMS    COLORGROUP SYSTEM
2 15 16
