AV-unprocessed.smi:2149|AV-procd|sdf|8752|dock8
  -GOLD-   2272011533D 1   1.00000     0.00000
 Structure written by MMmdl.
 42 43  0  0  0  0  0  0  0  0  1 V2000
  154.4666  132.3040  162.5624 C   0  0  0  0  0  0  0  0  0  0  0  0
  154.9966  133.8817  161.7794 S   0  0  0  0  0  0  0  0  0  0  0  0
  156.2826  133.6496  161.1042 O   0  0  0  0  0  0  0  0  0  0  0  0
  153.8589  134.4181  161.0168 O   0  0  0  0  0  0  0  0  0  0  0  0
  155.2859  134.9476  163.1244 N   0  0  0  0  0  0  0  0  0  0  0  0
  154.6734  134.6642  164.4386 C   0  0  0  0  0  0  0  0  0  0  0  0
  153.4463  135.5552  164.6984 C   0  0  0  0  0  0  0  0  0  0  0  0
  153.7899  137.0384  164.5206 C   0  0  0  0  0  0  0  0  0  0  0  0
  154.3645  137.2738  163.1122 C   0  0  1  0  0  0  0  0  0  0  0  0
  154.7240  138.7509  162.9024 C   0  0  0  0  0  0  0  0  0  0  0  0
  155.4792  139.3240  163.6882 O   0  0  0  0  0  0  0  0  0  0  0  0
  154.1738  139.3566  161.8385 N   0  0  0  0  0  0  0  0  0  0  0  0
  154.3824  140.7515  161.4689 C   0  0  0  0  0  0  0  0  0  0  0  0
  153.8278  141.0521  160.0668 C   0  0  0  0  0  0  0  0  0  0  0  0
  153.3675  142.4908  159.9278 C   0  0  0  0  0  0  0  0  0  0  0  0
  153.1128  143.2791  161.0704 C   0  0  0  0  0  0  0  0  0  0  0  0
  152.6798  144.6065  160.8865 C   0  0  0  0  0  0  0  0  0  0  0  0
  152.5184  145.0918  159.5745 C   0  0  0  0  0  0  0  0  0  0  0  0
  152.7978  144.2243  158.4998 C   0  0  0  0  0  0  0  0  0  0  0  0
  153.2120  142.9494  158.6654 N   0  0  0  0  0  0  0  0  0  0  0  0
  155.5979  136.3716  162.8829 C   0  0  0  0  0  0  0  0  0  0  0  0
  154.2905  131.5629  161.7833 H   0  0  0  0  0  0  0  0  0  0  0  0
  153.5423  132.4578  163.1166 H   0  0  0  0  0  0  0  0  0  0  0  0
  155.2466  131.9387  163.2275 H   0  0  0  0  0  0  0  0  0  0  0  0
  154.4012  133.6119  164.5138 H   0  0  0  0  0  0  0  0  0  0  0  0
  155.4220  134.8433  165.2111 H   0  0  0  0  0  0  0  0  0  0  0  0
  152.6347  135.2831  164.0249 H   0  0  0  0  0  0  0  0  0  0  0  0
  153.0740  135.3815  165.7084 H   0  0  0  0  0  0  0  0  0  0  0  0
  152.8970  137.6453  164.6759 H   0  0  0  0  0  0  0  0  0  0  0  0
  154.5104  137.3384  165.2834 H   0  0  0  0  0  0  0  0  0  0  0  0
  153.5960  137.0090  162.3865 H   0  0  0  0  0  0  0  0  0  0  0  0
  153.5656  138.8131  161.2429 H   0  0  0  0  0  0  0  0  0  0  0  0
  153.9276  141.4089  162.2121 H   0  0  0  0  0  0  0  0  0  0  0  0
  155.4540  140.9511  161.4941 H   0  0  0  0  0  0  0  0  0  0  0  0
  154.5879  140.8448  159.3124 H   0  0  0  0  0  0  0  0  0  0  0  0
  152.9880  140.3924  159.8435 H   0  0  0  0  0  0  0  0  0  0  0  0
  153.2441  142.8779  162.0647 H   0  0  0  0  0  0  0  0  0  0  0  0
  152.4753  145.2407  161.7364 H   0  0  0  0  0  0  0  0  0  0  0  0
  152.1885  146.1043  159.3953 H   0  0  0  0  0  0  0  0  0  0  0  0
  152.6850  144.5628  157.4806 H   0  0  0  0  0  0  0  0  0  0  0  0
  156.4053  136.6600  163.5577 H   0  0  0  0  0  0  0  0  0  0  0  0
  155.9847  136.5031  161.8724 H   0  0  0  0  0  0  0  0  0  0  0  0
  1  2  1  0  0  0  0
  1 22  1  0  0  0  0
  1 23  1  0  0  0  0
  1 24  1  0  0  0  0
  2  3  2  0  0  0  0
  2  4  2  0  0  0  0
  2  5  1  0  0  0  0
  5 21  1  0  0  0  0
  5  6  1  0  0  0  0
  6  7  1  0  0  0  0
  6 25  1  0  0  0  0
  6 26  1  0  0  0  0
  7  8  1  0  0  0  0
  7 27  1  0  0  0  0
  7 28  1  0  0  0  0
  8  9  1  0  0  0  0
  8 29  1  0  0  0  0
  8 30  1  0  0  0  0
  9 10  1  0  0  0  0
  9 21  1  0  0  0  0
  9 31  1  0  0  0  0
 10 11  2  0  0  0  0
 10 12  1  0  0  0  0
 12 13  1  0  0  0  0
 12 32  1  0  0  0  0
 13 14  1  0  0  0  0
 13 33  1  0  0  0  0
 13 34  1  0  0  0  0
 14 15  1  0  0  0  0
 14 35  1  0  0  0  0
 14 36  1  0  0  0  0
 15 20  1  0  0  0  0
 15 16  2  0  0  0  0
 16 17  1  0  0  0  0
 16 37  1  0  0  0  0
 17 18  2  0  0  0  0
 17 38  1  0  0  0  0
 18 19  1  0  0  0  0
 18 39  1  0  0  0  0
 19 20  2  0  0  0  0
 19 40  1  0  0  0  0
 21 41  1  0  0  0  0
 21 42  1  0  0  0  0
M  END
> <s_m_source_file>
AV-unprocessed.smi

> <i_m_source_file_index>
2149

> <i_lp_mmshare_version>
43012

> <i_f3d_flags>
0

> <s_epik_input>
W0NIM11TKD1PKSg9TylOMVtDSDJdW0NIMl1bQ0gyXVtDQEhdKFtDSDJdMSlDKD1PKVtOSF1bQ0gyXVtDSDJdYzJbY0hdW2NIXVtjSF1bY0hdbjI=

> <s_epik_cmdline>
J2VwaWtfcHl0aG9uJywgJy1waCcsICc3LjAnLCAnLXRuJywgJzgnLCAnLW1hJywgJzIwMCcsICctbWV0YWxfYmluZGluZycsICctaW1hZScsICc8aW5maWxlLm1hZT4nLCAnLW9tYWUnLCAnPG91dGZpbGUubWFlPic=

> <r_epik_Ionization_Penalty>
0.0273806

> <r_epik_Ionization_Penalty_Charging>
0

> <r_epik_Ionization_Penalty_Neutral>
0.0273806

> <r_epik_State_Penalty>
0.0224071

> <r_epik_Charging_Adjusted_Penalty>
0.0224071

> <i_epik_Tot_Q>
0

> <i_epik_Tot_abs_Q>
0

> <r_epik_Metal_State_Penalty>
0.0214134

> <b_epik_Metal_Only>
0

> <s_lp_Force_Field>
OPLS_2005

> <r_lp_Energy>
-0.402048

> <b_lp_Chiralities_Consistent>
1

> <s_lp_Variant>
AV-unprocessed.smi:2149-1

> <Gold.Version>
5.8.1

> <Gold.Id.Protein>
6NUR|6NUR_protein|mol2

> <Gold.PLP.Fitness>
45.2543

> <Gold.PLP.PLP>
-43.7430

> <Gold.PLP.part.hbond>
-1.0000

> <Gold.PLP.part.metal>
0.0000

> <Gold.PLP.part.buried>
-5.4034

> <Gold.PLP.part.nonpolar>
-37.7556

> <Gold.PLP.part.repulsive>
0.0103

> <Gold.PLP.ligand.clash>
0.0000

> <Gold.PLP.ligand.torsion>
1.7875

> <Gold.PLP.Chemscore.Hbond>
1.0000

> <Gold.PLP.Chemscore.CHOScore>
0.0000

> <Gold.PLP.Chemscore.Metal>
0.0000

> <Gold.Chemscore.Hbonds>
donor molecule, donor type, donor heavy atom, donor atom, acceptor molecule, acceptor atom, score
      P1  H  6896  6907       L1     4  0.74

> <Gold.PLP.Chemscore.Internal.Correction>
2.0862

> <Gold.Rescore>
     Score         DG    S(hbond)    S(metal)    S(lipo)     H(rot)  DE(clash)    DE(int)     intcor
     16.62     -18.50       1.00        0.00     117.10       1.56       0.10       1.78       ----

> <Gold.Chemscore.Fitness>
16.6222

> <Gold.Chemscore.DG>
-18.5002

> <Gold.Chemscore.ZeroCoef>
-5.4800

> <Gold.Chemscore.Hbond>
0.9952

> <Gold.Chemscore.Metal>
0.0000

> <Gold.Chemscore.Lipo>
117.1006

> <Gold.Chemscore.Internal_Hbond>
0.0000

> <Gold.Chemscore.DEClash>
0.0962

> <Gold.Chemscore.DEInternal>
1.7818

> <Gold.Chemscore.Rot>
1.5643

> <Gold.Chemscore.Internal.Correction>
   9.000000E+99

> <Gold.Chemscore.Hbonds>
donor molecule, donor type, donor heavy atom, donor atom, acceptor molecule, acceptor atom, score
      P1  H  6896  6907       L1     4  0.74

> <Gold.Chemscore.Hbond.Weighted>
-3.3240

> <Gold.Chemscore.Metal.Weighted>
-0.0000

> <Gold.Chemscore.Lipo.Weighted>
-13.7008

> <Gold.Chemscore.Internal_Hbond.Weighted>
0.0000

> <Gold.Chemscore.DEClash.Weighted>
0.0962

> <Gold.Chemscore.DEInternal.Weighted>
1.7818

> <Gold.Chemscore.Rot.Weighted>
4.0046

> <Gold.Chemscore.Internal.Correction.Weighted>
   9.000000E+99

> <Gold.Protein.RotatedTorsions>
[ 6907 6896 6895 6894 ] final   79.62 input  -60.11 | X-H torsion
[ 7974 7965 7964 7962 ] final   72.13 input  175.53 | X-H torsion
[ 8008 7997 7996 7995 ] final -173.62 input   59.86 | X-H torsion
[ 10167 10162 10161 10158 ] final -110.85 input  -65.29 | X-H torsion
[ 10718 10713 10712 10709 ] final  177.55 input   66.30 | X-H torsion
[ 10763 10752 10751 10750 ] final  170.19 input  -60.55 | X-H torsion
[ 11005 11000 10999 10996 ] final -123.51 input  -57.11 | X-H torsion

> <Gold.Protein.ActiveResidues>
 VAL166  LYS551  ARG553  GLY616  TRP617  ASP618  TYR619  PRO620  LYS621  CYS622 
 ASP623  PHE694  ASN695  SER759  ASP760  ASP761  ALA762  ILE779  LEU786  VAL792 
 PHE793  MET794  SER795  GLU796  ALA797  LYS798  CYS799  TRP800  GLU811  SER814 

> <Gold.Protein.RotatedAtoms>
  152.5205  134.3483  159.9241 H   0  0  0  0  0  0  0  0  0  0  0  0  # atno 6907 bound_to 6896
  151.3433  133.3947  159.2681 H   0  0  0  0  0  0  0  0  0  0  0  0  # atno 6908 bound_to 6896
  150.9786  134.9163  159.7888 H   0  0  0  0  0  0  0  0  0  0  0  0  # atno 6909 bound_to 6896
  145.7572  139.2785  143.1397 H   0  0  0  0  0  0  0  0  0  0  0  0  # atno 7974 bound_to 7965
  155.9597  140.1142  157.0906 H   0  0  0  0  0  0  0  0  0  0  0  0  # atno 8008 bound_to 7997
  154.4129  140.1184  156.5230 H   0  0  0  0  0  0  0  0  0  0  0  0  # atno 8009 bound_to 7997
  155.6736  140.3473  155.4830 H   0  0  0  0  0  0  0  0  0  0  0  0  # atno 8010 bound_to 7997
  140.1400  143.4287  152.1569 H   0  0  0  0  0  0  0  0  0  0  0  0  # atno 10167 bound_to 10162
  156.9037  130.9887  151.3031 H   0  0  0  0  0  0  0  0  0  0  0  0  # atno 10718 bound_to 10713
  154.3940  135.2754  155.2137 H   0  0  0  0  0  0  0  0  0  0  0  0  # atno 10763 bound_to 10752
  154.4191  135.6004  153.6002 H   0  0  0  0  0  0  0  0  0  0  0  0  # atno 10764 bound_to 10752
  152.9831  135.5968  154.4199 H   0  0  0  0  0  0  0  0  0  0  0  0  # atno 10765 bound_to 10752
  140.9913  134.0534  157.3650 H   0  0  0  0  0  0  0  0  0  0  0  0  # atno 11005 bound_to 11000
  146.0299  140.8268  142.9881 LP  0  0  0  0  0  0  0  0  0  0  0  0  # atno 17320 bound_to 7965
  144.6837  140.2753  143.7300 LP  0  0  0  0  0  0  0  0  0  0  0  0  # atno 17321 bound_to 7965
  139.5477  144.7312  151.4532 LP  0  0  0  0  0  0  0  0  0  0  0  0  # atno 17342 bound_to 10162
  140.6766  143.8175  150.7066 LP  0  0  0  0  0  0  0  0  0  0  0  0  # atno 17343 bound_to 10162
  157.6010  130.8512  149.8802 LP  0  0  0  0  0  0  0  0  0  0  0  0  # atno 17370 bound_to 10713
  156.0569  130.3707  150.1070 LP  0  0  0  0  0  0  0  0  0  0  0  0  # atno 17371 bound_to 10713
  139.8994  135.0158  156.7192 LP  0  0  0  0  0  0  0  0  0  0  0  0  # atno 17394 bound_to 11000
  140.7035  133.9286  155.8039 LP  0  0  0  0  0  0  0  0  0  0  0  0  # atno 17395 bound_to 11000

$$$$
