AV-unprocessed.smi:21|AV-procd|sdf|144|dock1
  -GOLD-   2262015353D 1   1.00000     0.00000
 Structure written by MMmdl.
 62 65  0  0  0  0  0  0  0  0  2 V2000
  146.0747  134.1486  150.8849 C   0  0  0  0  0  0  0  0  0  0  0  0
  145.6571  135.2630  151.6577 O   0  0  0  0  0  0  0  0  0  0  0  0
  145.4087  134.9545  153.0233 C   0  0  2  0  0  0  0  0  0  0  0  0
  145.0421  136.2005  153.8308 C   0  0  0  0  0  0  0  0  0  0  0  0
  146.3863  136.8532  154.2021 C   0  0  2  0  0  0  0  0  0  0  0  0
  146.7438  138.0787  153.3343 C   0  0  0  0  0  0  0  0  0  0  0  0
  147.1619  139.2427  154.1208 N   0  0  0  0  0  0  0  0  0  0  0  0
  146.1458  140.1834  154.5780 C   0  0  0  0  0  0  0  0  0  0  0  0
  148.4680  139.4008  154.4890 C   0  0  0  0  0  0  0  0  0  0  0  0
  149.4150  138.6809  153.8271 N   0  0  0  0  0  0  0  0  0  0  0  0
  150.7078  138.7870  154.1427 C   0  0  0  0  0  0  0  0  0  0  0  0
  151.2753  139.5444  155.0799 N   0  0  0  0  0  0  0  0  0  0  0  0
  150.3421  140.2742  155.7530 C   0  0  0  0  0  0  0  0  0  0  0  0
  148.9332  140.2667  155.5289 C   0  0  0  0  0  0  0  0  0  0  0  0
  148.3243  141.1399  156.4267 N   0  0  0  0  0  0  0  0  0  0  0  0
  149.3071  141.6313  157.1295 C   0  0  0  0  0  0  0  0  0  0  0  0
  150.5548  141.1676  156.7872 N   0  0  0  0  0  0  0  0  0  0  0  0
  151.8206  141.5320  157.3982 C   0  0  0  0  0  0  0  0  0  0  0  0
  151.8278  141.4194  158.9459 C   0  0  1  0  0  0  0  0  0  0  0  0
  152.5597  140.1444  159.4382 C   0  0  0  0  0  0  0  0  0  0  0  0
  153.7382  139.8938  158.7007 O   0  0  0  0  0  0  0  0  0  0  0  0
  152.4440  142.6925  159.5823 C   0  0  2  0  0  0  0  0  0  0  0  0
  152.5362  142.6654  161.1090 C   0  0  0  0  0  0  0  0  0  0  0  0
  152.2162  144.0964  161.5515 C   0  0  0  0  0  0  0  0  0  0  0  0
  152.1387  144.8503  160.3526 O   0  0  0  0  0  0  0  0  0  0  0  0
  151.6548  143.9826  159.3437 C   0  0  0  0  0  0  0  0  0  0  0  0
  147.4133  135.7992  154.0174 N   0  3  1  0  0  0  0  0  0  0  0  0
  148.3735  135.6736  155.1347 C   0  0  0  0  0  0  0  0  0  0  0  0
  146.7309  134.5378  153.6617 C   0  0  0  0  0  0  0  0  0  0  0  0
  144.6638  134.1617  153.1101 H   0  0  0  0  0  0  0  0  0  0  0  0
  146.3483  137.1473  155.2521 H   0  0  0  0  0  0  0  0  0  0  0  0
  146.2599  134.4674  149.8592 H   0  0  0  0  0  0  0  0  0  0  0  0
  145.3173  133.3655  150.8566 H   0  0  0  0  0  0  0  0  0  0  0  0
  147.0009  133.7244  151.2744 H   0  0  0  0  0  0  0  0  0  0  0  0
  144.3532  136.8680  153.3167 H   0  0  0  0  0  0  0  0  0  0  0  0
  144.5413  135.8853  154.7472 H   0  0  0  0  0  0  0  0  0  0  0  0
  147.5309  137.8197  152.6253 H   0  0  0  0  0  0  0  0  0  0  0  0
  145.8866  138.3478  152.7160 H   0  0  0  0  0  0  0  0  0  0  0  0
  146.4132  141.2038  154.3022 H   0  0  0  0  0  0  0  0  0  0  0  0
  146.0293  140.1293  155.6605 H   0  0  0  0  0  0  0  0  0  0  0  0
  145.1749  139.9674  154.1316 H   0  0  0  0  0  0  0  0  0  0  0  0
  151.3840  138.1777  153.5616 H   0  0  0  0  0  0  0  0  0  0  0  0
  149.1481  142.3528  157.9178 H   0  0  0  0  0  0  0  0  0  0  0  0
  152.6043  140.9042  156.9719 H   0  0  0  0  0  0  0  0  0  0  0  0
  152.0407  142.5521  157.0843 H   0  0  0  0  0  0  0  0  0  0  0  0
  150.7921  141.3653  159.2859 H   0  0  0  0  0  0  0  0  0  0  0  0
  152.8013  140.2207  160.4987 H   0  0  0  0  0  0  0  0  0  0  0  0
  151.9343  139.2597  159.3255 H   0  0  0  0  0  0  0  0  0  0  0  0
  154.3719  139.4905  159.2742 H   0  0  0  0  0  0  0  0  0  0  0  0
  153.4494  142.8410  159.1844 H   0  0  0  0  0  0  0  0  0  0  0  0
  151.8158  141.9739  161.5482 H   0  0  0  0  0  0  0  0  0  0  0  0
  153.5306  142.3585  161.4348 H   0  0  0  0  0  0  0  0  0  0  0  0
  151.2522  144.1330  162.0611 H   0  0  0  0  0  0  0  0  0  0  0  0
  152.9714  144.5069  162.2221 H   0  0  0  0  0  0  0  0  0  0  0  0
  151.8227  144.4067  158.3534 H   0  0  0  0  0  0  0  0  0  0  0  0
  150.5828  143.8257  159.4772 H   0  0  0  0  0  0  0  0  0  0  0  0
  147.8672  135.3983  156.0608 H   0  0  0  0  0  0  0  0  0  0  0  0
  148.8932  136.6185  155.2961 H   0  0  0  0  0  0  0  0  0  0  0  0
  149.1202  134.9111  154.9115 H   0  0  0  0  0  0  0  0  0  0  0  0
  146.5264  133.9673  154.5694 H   0  0  0  0  0  0  0  0  0  0  0  0
  147.3431  133.9160  153.0077 H   0  0  0  0  0  0  0  0  0  0  0  0
  147.9397  136.0699  153.1990 H   0  0  0  0  0  0  0  0  0  0  0  0
  1  2  1  0  0  0  0
  1 32  1  0  0  0  0
  1 33  1  0  0  0  0
  1 34  1  0  0  0  0
  2  3  1  0  0  0  0
  3 30  1  0  0  0  0
  3 29  1  0  0  0  0
  3  4  1  0  0  0  0
  4  5  1  0  0  0  0
  4 35  1  0  0  0  0
  4 36  1  0  0  0  0
  5 31  1  0  0  0  0
  5  6  1  0  0  0  0
  5 27  1  0  0  0  0
  6  7  1  0  0  0  0
  6 37  1  0  0  0  0
  6 38  1  0  0  0  0
  7  8  1  0  0  0  0
  7  9  1  0  0  0  0
  8 39  1  0  0  0  0
  8 40  1  0  0  0  0
  8 41  1  0  0  0  0
  9 14  1  0  0  0  0
  9 10  2  0  0  0  0
 10 11  1  0  0  0  0
 11 12  2  0  0  0  0
 11 42  1  0  0  0  0
 12 13  1  0  0  0  0
 13 17  1  0  0  0  0
 13 14  2  0  0  0  0
 14 15  1  0  0  0  0
 15 16  2  0  0  0  0
 16 17  1  0  0  0  0
 16 43  1  0  0  0  0
 17 18  1  0  0  0  0
 18 19  1  0  0  0  0
 18 44  1  0  0  0  0
 18 45  1  0  0  0  0
 19 20  1  0  0  0  0
 19 22  1  0  0  0  0
 19 46  1  0  0  0  0
 20 21  1  0  0  0  0
 20 47  1  0  0  0  0
 20 48  1  0  0  0  0
 21 49  1  0  0  0  0
 22 26  1  0  0  0  0
 22 23  1  0  0  0  0
 22 50  1  0  0  0  0
 23 24  1  0  0  0  0
 23 51  1  0  0  0  0
 23 52  1  0  0  0  0
 24 25  1  0  0  0  0
 24 53  1  0  0  0  0
 24 54  1  0  0  0  0
 25 26  1  0  0  0  0
 26 55  1  0  0  0  0
 26 56  1  0  0  0  0
 27 28  1  0  0  0  0
 27 29  1  0  0  0  0
 27 62  1  0  0  0  0
 28 57  1  0  0  0  0
 28 58  1  0  0  0  0
 28 59  1  0  0  0  0
 29 60  1  0  0  0  0
 29 61  1  0  0  0  0
M  CHG  1  27   1
M  END
> <s_m_source_file>
AV-unprocessed.smi

> <i_m_source_file_index>
21

> <i_lp_mmshare_version>
43012

> <i_f3d_flags>
0

> <s_epik_input>
W0NIM11PW0NASF0xW0NIMl1bQ0BIXShOKFtDSDNdKVtDSDJdMSlbQ0gyXU4oW0NIM10pYyhuW2NIXW4yKWMoYzIzKW5bY0hdbjNbQ0gyXVtDQEhdKFtDSDJdW09IXSlbQ0BASF00W0NIMl1bQ0gyXU9bQ0gyXTQ=

> <s_epik_cmdline>
J2VwaWtfcHl0aG9uJywgJy1waCcsICc3LjAnLCAnLXRuJywgJzgnLCAnLW1hJywgJzIwMCcsICctbWV0YWxfYmluZGluZycsICctaW1hZScsICc8aW5maWxlLm1hZT4nLCAnLW9tYWUnLCAnPG91dGZpbGUubWFlPic=

> <r_lp_tautomer_probability>
1

> <r_epik_Ionization_Penalty>
0.0157465

> <r_epik_Ionization_Penalty_Charging>
0.015354

> <r_epik_Ionization_Penalty_Neutral>
0.000392529

> <r_epik_State_Penalty>
0.0120612

> <r_epik_Charging_Adjusted_Penalty>
0.0274152

> <i_epik_Tot_Q>
1

> <i_epik_Tot_abs_Q>
1

> <r_epik_Metal_State_Penalty>
0.0121253

> <b_epik_Metal_Only>
0

> <s_lp_Force_Field>
OPLS_2005

> <r_lp_Energy>
59.4837

> <b_lp_Chiralities_Consistent>
1

> <s_lp_Variant>
AV-unprocessed.smi:21-24

> <Gold.Version>
5.8.1

> <Gold.Id.Protein>
6NUR|6NUR_protein|mol2

> <Gold.PLP.Fitness>
46.6960

> <Gold.PLP.PLP>
-40.7726

> <Gold.PLP.part.hbond>
-2.9734

> <Gold.PLP.part.metal>
0.0000

> <Gold.PLP.part.buried>
-5.4674

> <Gold.PLP.part.nonpolar>
-31.5848

> <Gold.PLP.part.repulsive>
1.7432

> <Gold.PLP.ligand.clash>
0.0000

> <Gold.PLP.ligand.torsion>
2.1462

> <Gold.PLP.Chemscore.Hbond>
3.1885

> <Gold.PLP.Chemscore.CHOScore>
0.0000

> <Gold.PLP.Chemscore.Metal>
0.0000

> <Gold.Chemscore.Hbonds>
donor molecule, donor type, donor heavy atom, donor atom, acceptor molecule, acceptor atom, score
      L1  H    27    62       P1  7948  2.00
      P1  H  7989  7998       L1    12  0.16
      P1  H  7997  8010       L1    21  1.00

> <Gold.PLP.Chemscore.Internal.Correction>
0.6504

> <Gold.Rescore>
     Score         DG    S(hbond)    S(metal)    S(lipo)     H(rot)  DE(clash)    DE(int)     intcor
     11.34     -14.50       1.71        0.00      95.54       3.08       0.05       3.10       ----

> <Gold.Chemscore.Fitness>
11.3404

> <Gold.Chemscore.DG>
-14.4956

> <Gold.Chemscore.ZeroCoef>
-5.4800

> <Gold.Chemscore.Hbond>
1.7101

> <Gold.Chemscore.Metal>
0.0000

> <Gold.Chemscore.Lipo>
95.5395

> <Gold.Chemscore.Internal_Hbond>
0.0000

> <Gold.Chemscore.DEClash>
0.0541

> <Gold.Chemscore.DEInternal>
3.1011

> <Gold.Chemscore.Rot>
3.0758

> <Gold.Chemscore.Internal.Correction>
   9.000000E+99

> <Gold.Chemscore.Hbonds>
donor molecule, donor type, donor heavy atom, donor atom, acceptor molecule, acceptor atom, score
      L1  H    27    62       P1  7948  1.00
      P1  H  7997  8010       L1    21  0.38

> <Gold.Chemscore.Hbond.Weighted>
-5.7116

> <Gold.Chemscore.Metal.Weighted>
-0.0000

> <Gold.Chemscore.Lipo.Weighted>
-11.1781

> <Gold.Chemscore.Internal_Hbond.Weighted>
0.0000

> <Gold.Chemscore.DEClash.Weighted>
0.0541

> <Gold.Chemscore.DEInternal.Weighted>
3.1011

> <Gold.Chemscore.Rot.Weighted>
7.8741

> <Gold.Chemscore.Internal.Correction.Weighted>
   9.000000E+99

> <Gold.Protein.RotatedTorsions>
[ 6907 6896 6895 6894 ] final  -98.45 input  -60.11 | X-H torsion
[ 7974 7965 7964 7962 ] final   52.37 input  175.53 | X-H torsion
[ 8008 7997 7996 7995 ] final   29.79 input   59.86 | X-H torsion
[ 10167 10162 10161 10158 ] final   80.55 input  -65.29 | X-H torsion
[ 10718 10713 10712 10709 ] final   -2.73 input   66.30 | X-H torsion
[ 10763 10752 10751 10750 ] final  150.15 input  -60.55 | X-H torsion
[ 11005 11000 10999 10996 ] final  -52.94 input  -57.11 | X-H torsion

> <Gold.Protein.ActiveResidues>
 VAL166  LYS551  ARG553  GLY616  TRP617  ASP618  TYR619  PRO620  LYS621  CYS622 
 ASP623  PHE694  ASN695  SER759  ASP760  ASP761  ALA762  ILE779  LEU786  VAL792 
 PHE793  MET794  SER795  GLU796  ALA797  LYS798  CYS799  TRP800  GLU811  SER814 

> <Gold.Protein.RotatedAtoms>
  150.7047  134.1193  159.4028 H   0  0  0  0  0  0  0  0  0  0  0  0  # atno 6907 bound_to 6896
  151.9179  135.0308  160.0529 H   0  0  0  0  0  0  0  0  0  0  0  0  # atno 6908 bound_to 6896
  152.2280  133.5000  159.5236 H   0  0  0  0  0  0  0  0  0  0  0  0  # atno 6909 bound_to 6896
  145.9820  139.4251  143.0126 H   0  0  0  0  0  0  0  0  0  0  0  0  # atno 7974 bound_to 7965
  155.0802  140.3209  155.4604 H   0  0  0  0  0  0  0  0  0  0  0  0  # atno 8008 bound_to 7997
  156.2769  140.2096  156.5875 H   0  0  0  0  0  0  0  0  0  0  0  0  # atno 8009 bound_to 7997
  154.6985  140.0509  157.0421 H   0  0  0  0  0  0  0  0  0  0  0  0  # atno 8010 bound_to 7997
  139.9486  144.6041  150.8182 H   0  0  0  0  0  0  0  0  0  0  0  0  # atno 10167 bound_to 10162
  156.7865  130.5347  149.5742 H   0  0  0  0  0  0  0  0  0  0  0  0  # atno 10718 bound_to 10713
  154.0827  135.2858  155.3287 H   0  0  0  0  0  0  0  0  0  0  0  0  # atno 10763 bound_to 10752
  154.6673  135.5312  153.8096 H   0  0  0  0  0  0  0  0  0  0  0  0  # atno 10764 bound_to 10752
  153.0443  135.6549  154.1001 H   0  0  0  0  0  0  0  0  0  0  0  0  # atno 10765 bound_to 10752
  141.0950  133.6626  156.4098 H   0  0  0  0  0  0  0  0  0  0  0  0  # atno 11005 bound_to 11000
  145.7756  140.9878  143.1126 LP  0  0  0  0  0  0  0  0  0  0  0  0  # atno 17320 bound_to 7965
  144.6864  139.9501  143.7477 LP  0  0  0  0  0  0  0  0  0  0  0  0  # atno 17321 bound_to 7965
  140.7590  143.3118  151.2826 LP  0  0  0  0  0  0  0  0  0  0  0  0  # atno 17342 bound_to 10162
  139.6647  144.0127  152.2715 LP  0  0  0  0  0  0  0  0  0  0  0  0  # atno 17343 bound_to 10162
  156.1185  130.6093  151.0158 LP  0  0  0  0  0  0  0  0  0  0  0  0  # atno 17370 bound_to 10713
  157.6621  131.0879  150.7814 LP  0  0  0  0  0  0  0  0  0  0  0  0  # atno 17371 bound_to 10713
  140.5161  134.6349  157.5302 LP  0  0  0  0  0  0  0  0  0  0  0  0  # atno 17394 bound_to 11000
  139.9785  134.7176  155.9904 LP  0  0  0  0  0  0  0  0  0  0  0  0  # atno 17395 bound_to 11000

$$$$
