#       Name:                AV-unprocessed.smi:44
#       Creating user name   scv26
#       Creation time:       Thu Mar 26 16:25:22 2020


#       File generated by GOLD software.
#

@<TRIPOS>MOLECULE
AV-unprocessed.smi:44
    37    39     1
SMALL
NO_CHARGES


@<TRIPOS>ATOM
      1 ****        -2.6498   4.1851   1.2805 O.2            1 S1                 0.0000
      2 ****        -2.7035   3.0054   0.9395 C.2            1 S1                 0.0000
      3 ****        -3.8382   2.2642   0.9695 N.am           1 S1                 0.0000
      4 ****        -3.9064   0.9029   0.5783 C.2            1 S1                 0.0000
      5 ****        -2.8957   0.1952   0.1431 N.2            1 S1                 0.0000
      6 ****        -1.7267   0.9281   0.1029 C.2            1 S1                 0.0000
      7 ****        -1.5341   2.2376   0.4515 C.2            1 S1                 0.0000
      8 ****        -0.2104   2.6187   0.2739 N.2            1 S1                 0.0000
      9 ****         0.3465   1.4988  -0.1831 C.2            1 S1                 0.0000
     10 ****        -0.4884   0.4465  -0.3094 N.pl3          1 S1                 0.0000
     11 ****        -0.1758  -0.9384  -0.7873 C.3            1 S1                 0.0000
     12 ****        -0.0157  -1.8709   0.4141 C.3            1 S1                 0.0000
     13 ****         1.4602  -1.7246   0.7090 C.3            1 S1                 0.0000
     14 ****         2.0408  -1.6373  -0.7022 C.3            1 S1                 0.0000
     15 ****         3.4061  -0.9356  -0.7603 C.3            1 S1                 0.0000
     16 ****         4.0680  -1.2631  -1.9628 O.3            1 S1                 0.0000
     17 ****         1.0602  -0.9075  -1.4427 O.3            1 S1                 0.0000
     18 ****        -4.6813   2.7160   1.2922 H              1 S1                 0.0000
     19 ****        -0.9962  -1.1966  -1.4577 H              1 S1                 0.0000
     20 ****         2.1069  -2.6470  -1.1119 H              1 S1                 0.0000
     21 ****        -4.9085   0.4830   0.6754 H              1 S1                 0.0000
     22 ****         1.3955   1.4473  -0.4310 H              1 S1                 0.0000
     23 ****        -0.6677  -1.5957   1.2440 H              1 S1                 0.0000
     24 ****        -0.2483  -2.8897   0.1017 H              1 S1                 0.0000
     25 ****         1.6456  -0.8041   1.2647 H              1 S1                 0.0000
     26 ****         1.8647  -2.5581   1.2839 H              1 S1                 0.0000
     27 ****         3.3074   0.1453  -0.6640 H              1 S1                 0.0000
     28 ****         4.0366  -1.2765   0.0615 H              1 S1                 0.0000
     29 ****         4.9076  -0.8295  -1.9720 H              1 S1                 0.0000
     30 ****        -1.7815   4.6793   1.2365 LP             1 S1                 0.0000
     31 ****        -3.4743   4.6507   1.6019 LP             1 S1                 0.0000
     32 ****        -2.9623  -0.7648  -0.1288 LP             1 S1                 0.0000
     33 ****         0.2156   3.5071   0.4453 LP             1 S1                 0.0000
     34 ****         3.5219  -0.9566  -2.7424 LP             1 S1                 0.0000
     35 ****         4.1993  -2.2530  -2.0165 LP             1 S1                 0.0000
     36 ****         1.3589   0.0423  -1.5364 LP             1 S1                 0.0000
     37 ****         0.9615  -1.3169  -2.3498 LP             1 S1                 0.0000
@<TRIPOS>BOND
    1    1    2 2     
    2    2    7 1     
    3    2    3 am    
    4    3   18 1     
    5    3    4 1     
    6    4    5 2     
    7    4   21 1     
    8    5    6 1     
    9    6   10 1     
   10    6    7 2     
   11    7    8 1     
   12    8    9 2     
   13    9   10 1     
   14    9   22 1     
   15   10   11 1     
   16   11   19 1     
   17   11   17 1     
   18   11   12 1     
   19   12   13 1     
   20   12   23 1     
   21   12   24 1     
   22   13   14 1     
   23   13   25 1     
   24   13   26 1     
   25   14   20 1     
   26   14   15 1     
   27   14   17 1     
   28   15   16 1     
   29   15   27 1     
   30   15   28 1     
   31   16   29 1     
   32    1   30 1     
   33    1   31 1     
   34    5   32 1     
   35    8   33 1     
   36   16   34 1     
   37   16   35 1     
   38   17   36 1     
   39   17   37 1     
@<TRIPOS>SUBSTRUCTURE
      1 S1             1
@<TRIPOS>SET
LONE_PAIRS      STATIC     ATOMS    <user>   **** ""
8 30 31 32 33 34 35 36 37
DONOR_HYDROGENS      STATIC     ATOMS    <user>   **** ""
2 18 29
ATOM$BLUE        STATIC     ATOMS    COLORGROUP SYSTEM
8 30 31 32 33 34 35 36 37
ATOM$RED        STATIC     ATOMS    COLORGROUP SYSTEM
2 18 29
