AV-unprocessed.smi:2097|AV-procd|sdf|8563|dock8
  -GOLD-   2272011293D 1   1.00000     0.00000
 Structure written by MMmdl.
 41 42  0  0  0  0  0  0  0  0  1 V2000
  155.9942  134.8069  161.2843 C   0  0  0  0  0  0  0  0  0  0  0  0
  154.9733  135.5826  162.1301 C   0  0  2  0  0  0  0  0  0  0  0  0
  154.0454  134.6360  162.6554 O   0  0  0  0  0  0  0  0  0  0  0  0
  154.6104  133.5893  163.4388 C   0  0  0  0  0  0  0  0  0  0  0  0
  153.6278  133.1992  164.5495 C   0  0  0  0  0  0  0  0  0  0  0  0
  152.9826  134.2879  164.9669 F   0  0  0  0  0  0  0  0  0  0  0  0
  152.7353  132.3234  164.0886 F   0  0  0  0  0  0  0  0  0  0  0  0
  154.2846  132.6695  165.5812 F   0  0  0  0  0  0  0  0  0  0  0  0
  154.2417  136.6435  161.2913 C   0  0  0  0  0  0  0  0  0  0  0  0
  153.5557  136.2942  160.3310 O   0  0  0  0  0  0  0  0  0  0  0  0
  154.3816  137.9157  161.7082 N   0  0  0  0  0  0  0  0  0  0  0  0
  153.8127  139.0956  161.1577 C   0  0  0  0  0  0  0  0  0  0  0  0
  154.0645  140.3183  161.8092 C   0  0  0  0  0  0  0  0  0  0  0  0
  153.5218  141.5049  161.2812 C   0  0  0  0  0  0  0  0  0  0  0  0
  152.7419  141.4424  160.1025 C   0  0  0  0  0  0  0  0  0  0  0  0
  152.1787  142.6183  159.5602 N   0  0  0  0  0  0  0  0  0  0  0  0
  151.2563  142.4196  158.4446 C   0  0  0  0  0  0  0  0  0  0  0  0
  150.4877  143.7182  158.1455 C   0  0  0  0  0  0  0  0  0  0  0  0
  151.4065  144.7820  157.9200 O   0  0  0  0  0  0  0  0  0  0  0  0
  152.2174  145.0314  159.0632 C   0  0  0  0  0  0  0  0  0  0  0  0
  153.0497  143.7802  159.3905 C   0  0  0  0  0  0  0  0  0  0  0  0
  152.5218  140.2683  159.4616 N   0  0  0  0  0  0  0  0  0  0  0  0
  153.0414  139.1319  159.9722 C   0  0  0  0  0  0  0  0  0  0  0  0
  156.7317  135.4765  160.8399 H   0  0  0  0  0  0  0  0  0  0  0  0
  155.5113  134.2554  160.4766 H   0  0  0  0  0  0  0  0  0  0  0  0
  156.5335  134.0847  161.8975 H   0  0  0  0  0  0  0  0  0  0  0  0
  155.5060  136.0616  162.9541 H   0  0  0  0  0  0  0  0  0  0  0  0
  154.8171  132.7229  162.8091 H   0  0  0  0  0  0  0  0  0  0  0  0
  155.5554  133.9013  163.8849 H   0  0  0  0  0  0  0  0  0  0  0  0
  154.9063  138.0447  162.5611 H   0  0  0  0  0  0  0  0  0  0  0  0
  154.6637  140.3506  162.7074 H   0  0  0  0  0  0  0  0  0  0  0  0
  153.7201  142.4439  161.7758 H   0  0  0  0  0  0  0  0  0  0  0  0
  151.8276  142.1146  157.5670 H   0  0  0  0  0  0  0  0  0  0  0  0
  150.5406  141.6245  158.6480 H   0  0  0  0  0  0  0  0  0  0  0  0
  149.8680  143.5907  157.2580 H   0  0  0  0  0  0  0  0  0  0  0  0
  149.8167  143.9710  158.9681 H   0  0  0  0  0  0  0  0  0  0  0  0
  152.8751  145.8754  158.8556 H   0  0  0  0  0  0  0  0  0  0  0  0
  151.5923  145.3158  159.9112 H   0  0  0  0  0  0  0  0  0  0  0  0
  153.6246  143.9578  160.3003 H   0  0  0  0  0  0  0  0  0  0  0  0
  153.7610  143.5847  158.5868 H   0  0  0  0  0  0  0  0  0  0  0  0
  152.8401  138.2444  159.3928 H   0  0  0  0  0  0  0  0  0  0  0  0
  1  2  1  0  0  0  0
  1 24  1  0  0  0  0
  1 25  1  0  0  0  0
  1 26  1  0  0  0  0
  2  3  1  0  0  0  0
  2  9  1  0  0  0  0
  2 27  1  0  0  0  0
  3  4  1  0  0  0  0
  4  5  1  0  0  0  0
  4 28  1  0  0  0  0
  4 29  1  0  0  0  0
  5  6  1  0  0  0  0
  5  7  1  0  0  0  0
  5  8  1  0  0  0  0
  9 10  2  0  0  0  0
  9 11  1  0  0  0  0
 11 12  1  0  0  0  0
 11 30  1  0  0  0  0
 12 23  1  0  0  0  0
 12 13  2  0  0  0  0
 13 14  1  0  0  0  0
 13 31  1  0  0  0  0
 14 15  2  0  0  0  0
 14 32  1  0  0  0  0
 15 16  1  0  0  0  0
 15 22  1  0  0  0  0
 16 21  1  0  0  0  0
 16 17  1  0  0  0  0
 17 18  1  0  0  0  0
 17 33  1  0  0  0  0
 17 34  1  0  0  0  0
 18 19  1  0  0  0  0
 18 35  1  0  0  0  0
 18 36  1  0  0  0  0
 19 20  1  0  0  0  0
 20 21  1  0  0  0  0
 20 37  1  0  0  0  0
 20 38  1  0  0  0  0
 21 39  1  0  0  0  0
 21 40  1  0  0  0  0
 22 23  2  0  0  0  0
 23 41  1  0  0  0  0
M  END
> <s_m_source_file>
AV-unprocessed.smi

> <i_m_source_file_index>
2097

> <i_lp_mmshare_version>
43012

> <i_f3d_flags>
0

> <s_epik_input>
RkMoRikoRilbQ0gyXU9bQ0BASF0oW0NIM10pQyg9TylbTkhdYzFbY0hdW2NIXWMobltjSF0xKU4yW0NIMl1bQ0gyXU9bQ0gyXVtDSDJdMg==

> <s_epik_cmdline>
J2VwaWtfcHl0aG9uJywgJy1waCcsICc3LjAnLCAnLXRuJywgJzgnLCAnLW1hJywgJzIwMCcsICctbWV0YWxfYmluZGluZycsICctaW1hZScsICc8aW5maWxlLm1hZT4nLCAnLW9tYWUnLCAnPG91dGZpbGUubWFlPic=

> <r_lp_tautomer_probability>
1

> <r_epik_Ionization_Penalty>
0.000443452

> <r_epik_Ionization_Penalty_Charging>
0

> <r_epik_Ionization_Penalty_Neutral>
0.000443452

> <r_epik_State_Penalty>
0.00027288

> <r_epik_Charging_Adjusted_Penalty>
0.00027288

> <i_epik_Tot_Q>
0

> <i_epik_Tot_abs_Q>
0

> <r_epik_Metal_State_Penalty>
-0

> <b_epik_Metal_Only>
0

> <s_lp_Force_Field>
OPLS_2005

> <r_lp_Energy>
25.2007

> <b_lp_Chiralities_Consistent>
1

> <s_lp_Variant>
AV-unprocessed.smi:2097-1

> <Gold.Version>
5.8.1

> <Gold.Id.Protein>
6NUR|6NUR_protein|mol2

> <Gold.PLP.Fitness>
41.4973

> <Gold.PLP.PLP>
-39.7464

> <Gold.PLP.part.hbond>
-1.0000

> <Gold.PLP.part.metal>
0.0000

> <Gold.PLP.part.buried>
-5.6230

> <Gold.PLP.part.nonpolar>
-34.0438

> <Gold.PLP.part.repulsive>
0.1624

> <Gold.PLP.ligand.clash>
0.0000

> <Gold.PLP.ligand.torsion>
0.8133

> <Gold.PLP.Chemscore.Hbond>
1.0000

> <Gold.PLP.Chemscore.CHOScore>
0.0000

> <Gold.PLP.Chemscore.Metal>
0.0000

> <Gold.Chemscore.Hbonds>
donor molecule, donor type, donor heavy atom, donor atom, acceptor molecule, acceptor atom, score
      P1  H  6896  6907       L1    10  1.00

> <Gold.PLP.Chemscore.Internal.Correction>
0.3775

> <Gold.Rescore>
     Score         DG    S(hbond)    S(metal)    S(lipo)     H(rot)  DE(clash)    DE(int)     intcor
     12.50     -14.40       1.00        0.00      90.33       1.95       0.01       1.88       ----

> <Gold.Chemscore.Fitness>
12.5044

> <Gold.Chemscore.DG>
-14.3991

> <Gold.Chemscore.ZeroCoef>
-5.4800

> <Gold.Chemscore.Hbond>
1.0000

> <Gold.Chemscore.Metal>
0.0000

> <Gold.Chemscore.Lipo>
90.3319

> <Gold.Chemscore.Internal_Hbond>
0.0000

> <Gold.Chemscore.DEClash>
0.0101

> <Gold.Chemscore.DEInternal>
1.8845

> <Gold.Chemscore.Rot>
1.9491

> <Gold.Chemscore.Internal.Correction>
   9.000000E+99

> <Gold.Chemscore.Hbonds>
donor molecule, donor type, donor heavy atom, donor atom, acceptor molecule, acceptor atom, score
      P1  H  6896  6907       L1    10  0.98

> <Gold.Chemscore.Hbond.Weighted>
-3.3399

> <Gold.Chemscore.Metal.Weighted>
-0.0000

> <Gold.Chemscore.Lipo.Weighted>
-10.5688

> <Gold.Chemscore.Internal_Hbond.Weighted>
0.0000

> <Gold.Chemscore.DEClash.Weighted>
0.0101

> <Gold.Chemscore.DEInternal.Weighted>
1.8845

> <Gold.Chemscore.Rot.Weighted>
4.9897

> <Gold.Chemscore.Internal.Correction.Weighted>
   9.000000E+99

> <Gold.Protein.RotatedTorsions>
[ 6907 6896 6895 6894 ] final   57.21 input  -60.11 | X-H torsion
[ 7974 7965 7964 7962 ] final  -85.51 input  175.53 | X-H torsion
[ 8008 7997 7996 7995 ] final -159.64 input   59.86 | X-H torsion
[ 10167 10162 10161 10158 ] final -149.25 input  -65.29 | X-H torsion
[ 10718 10713 10712 10709 ] final  104.24 input   66.30 | X-H torsion
[ 10763 10752 10751 10750 ] final   -8.19 input  -60.55 | X-H torsion
[ 11005 11000 10999 10996 ] final -121.89 input  -57.11 | X-H torsion

> <Gold.Protein.ActiveResidues>
 VAL166  LYS551  ARG553  GLY616  TRP617  ASP618  TYR619  PRO620  LYS621  CYS622 
 ASP623  PHE694  ASN695  SER759  ASP760  ASP761  ALA762  ILE779  LEU786  VAL792 
 PHE793  MET794  SER795  GLU796  ALA797  LYS798  CYS799  TRP800  GLU811  SER814 

> <Gold.Protein.RotatedAtoms>
  152.3709  134.6735  160.0175 H   0  0  0  0  0  0  0  0  0  0  0  0  # atno 6907 bound_to 6896
  151.7028  133.3306  159.3279 H   0  0  0  0  0  0  0  0  0  0  0  0  # atno 6908 bound_to 6896
  150.7673  134.6536  159.6346 H   0  0  0  0  0  0  0  0  0  0  0  0  # atno 6909 bound_to 6896
  145.4923  140.9552  143.1805 H   0  0  0  0  0  0  0  0  0  0  0  0  # atno 7974 bound_to 7965
  155.7656  140.0845  157.2134 H   0  0  0  0  0  0  0  0  0  0  0  0  # atno 8008 bound_to 7997
  154.4000  140.1535  156.2939 H   0  0  0  0  0  0  0  0  0  0  0  0  # atno 8009 bound_to 7997
  155.8797  140.3421  155.5882 H   0  0  0  0  0  0  0  0  0  0  0  0  # atno 8010 bound_to 7997
  139.7459  143.8591  152.2574 H   0  0  0  0  0  0  0  0  0  0  0  0  # atno 10167 bound_to 10162
  157.6746  131.0799  150.5677 H   0  0  0  0  0  0  0  0  0  0  0  0  # atno 10718 bound_to 10713
  153.4370  135.7013  153.6194 H   0  0  0  0  0  0  0  0  0  0  0  0  # atno 10763 bound_to 10752
  153.4585  135.3742  155.2325 H   0  0  0  0  0  0  0  0  0  0  0  0  # atno 10764 bound_to 10752
  154.8727  135.4014  154.3762 H   0  0  0  0  0  0  0  0  0  0  0  0  # atno 10765 bound_to 10752
  141.0036  134.0366  157.3505 H   0  0  0  0  0  0  0  0  0  0  0  0  # atno 11005 bound_to 11000
  144.7827  139.6492  143.7147 LP  0  0  0  0  0  0  0  0  0  0  0  0  # atno 17320 bound_to 7965
  146.2277  139.5753  142.9576 LP  0  0  0  0  0  0  0  0  0  0  0  0  # atno 17321 bound_to 7965
  139.8555  144.7143  150.9162 LP  0  0  0  0  0  0  0  0  0  0  0  0  # atno 17342 bound_to 10162
  140.7792  143.3862  151.1389 LP  0  0  0  0  0  0  0  0  0  0  0  0  # atno 17343 bound_to 10162
  156.5979  130.4346  149.5909 LP  0  0  0  0  0  0  0  0  0  0  0  0  # atno 17370 bound_to 10713
  156.2530  130.6918  151.1662 LP  0  0  0  0  0  0  0  0  0  0  0  0  # atno 17371 bound_to 10713
  139.9052  135.0177  156.7452 LP  0  0  0  0  0  0  0  0  0  0  0  0  # atno 17394 bound_to 11000
  140.6848  133.9442  155.7931 LP  0  0  0  0  0  0  0  0  0  0  0  0  # atno 17395 bound_to 11000

$$$$
