AV-unprocessed.smi:1174|AV-procd|sdf|4949|dock10
  -GOLD-   22720 3533D 1   1.00000     0.00000
 Structure written by MMmdl.
 41 42  0  0  0  0  0  0  0  0  1 V2000
  151.6081  143.7986  157.4450 C   0  0  0  0  0  0  0  0  0  0  0  0
  151.2093  142.3446  157.1582 C   0  0  1  0  0  0  0  0  0  0  0  0
  150.8956  141.5852  158.4659 C   0  0  0  0  0  0  0  0  0  0  0  0
  151.8810  141.8168  159.5067 N   0  0  0  0  0  0  0  0  0  0  0  0
  153.1985  141.4119  159.5484 C   0  0  0  0  0  0  0  0  0  0  0  0
  153.7240  141.8625  160.7252 C   0  0  0  0  0  0  0  0  0  0  0  0
  152.6375  142.5409  161.3438 C   0  0  0  0  0  0  0  0  0  0  0  0
  151.5338  142.5060  160.6153 N   0  0  0  0  0  0  0  0  0  0  0  0
  150.0579  142.3458  156.2565 N   0  0  0  0  0  0  0  0  0  0  0  0
  149.8148  141.4526  155.2837 C   0  0  0  0  0  0  0  0  0  0  0  0
  150.5395  140.4811  155.0682 O   0  0  0  0  0  0  0  0  0  0  0  0
  148.5637  141.7112  154.4225 C   0  0  1  0  0  0  0  0  0  0  0  0
  148.3711  140.6336  153.3265 C   0  0  0  0  0  0  0  0  0  0  0  0
  147.7425  139.3275  153.8538 C   0  0  0  0  0  0  0  0  0  0  0  0
  146.4911  139.6193  154.6978 C   0  0  0  0  0  0  0  0  0  0  0  0
  146.8414  140.5452  155.7886 N   0  0  0  0  0  0  0  0  0  0  0  0
  146.7125  140.2994  157.1159 C   0  0  0  0  0  0  0  0  0  0  0  0
  146.0176  139.2003  157.4252 N   0  0  0  0  0  0  0  0  0  0  0  0
  147.2375  140.9832  157.9928 O   0  0  0  0  0  0  0  0  0  0  0  0
  147.2771  141.8523  155.2734 C   0  0  0  0  0  0  0  0  0  0  0  0
  152.4912  143.8442  158.0829 H   0  0  0  0  0  0  0  0  0  0  0  0
  150.8060  144.3397  157.9480 H   0  0  0  0  0  0  0  0  0  0  0  0
  151.8432  144.3312  156.5227 H   0  0  0  0  0  0  0  0  0  0  0  0
  152.0606  141.8718  156.6649 H   0  0  0  0  0  0  0  0  0  0  0  0
  149.9255  141.8975  158.8554 H   0  0  0  0  0  0  0  0  0  0  0  0
  150.8222  140.5125  158.2809 H   0  0  0  0  0  0  0  0  0  0  0  0
  153.6495  140.8491  158.7442 H   0  0  0  0  0  0  0  0  0  0  0  0
  154.7336  141.7320  161.0858 H   0  0  0  0  0  0  0  0  0  0  0  0
  152.6174  143.0519  162.2949 H   0  0  0  0  0  0  0  0  0  0  0  0
  149.4046  143.1080  156.3634 H   0  0  0  0  0  0  0  0  0  0  0  0
  148.7227  142.6628  153.9122 H   0  0  0  0  0  0  0  0  0  0  0  0
  147.7208  141.0429  152.5525 H   0  0  0  0  0  0  0  0  0  0  0  0
  149.3183  140.4152  152.8312 H   0  0  0  0  0  0  0  0  0  0  0  0
  147.4828  138.6803  153.0155 H   0  0  0  0  0  0  0  0  0  0  0  0
  148.4658  138.7719  154.4509 H   0  0  0  0  0  0  0  0  0  0  0  0
  145.7263  140.0844  154.0742 H   0  0  0  0  0  0  0  0  0  0  0  0
  146.0522  138.6820  155.0391 H   0  0  0  0  0  0  0  0  0  0  0  0
  145.8665  138.9567  158.3930 H   0  0  0  0  0  0  0  0  0  0  0  0
  145.6357  138.6262  156.6880 H   0  0  0  0  0  0  0  0  0  0  0  0
  147.4459  142.5813  156.0678 H   0  0  0  0  0  0  0  0  0  0  0  0
  146.4766  142.2721  154.6627 H   0  0  0  0  0  0  0  0  0  0  0  0
  1  2  1  0  0  0  0
  1 21  1  0  0  0  0
  1 22  1  0  0  0  0
  1 23  1  0  0  0  0
  2  3  1  0  0  0  0
  2  9  1  0  0  0  0
  2 24  1  0  0  0  0
  3  4  1  0  0  0  0
  3 25  1  0  0  0  0
  3 26  1  0  0  0  0
  4  8  1  0  0  0  0
  4  5  1  0  0  0  0
  5  6  2  0  0  0  0
  5 27  1  0  0  0  0
  6  7  1  0  0  0  0
  6 28  1  0  0  0  0
  7  8  2  0  0  0  0
  7 29  1  0  0  0  0
  9 10  1  0  0  0  0
  9 30  1  0  0  0  0
 10 11  2  0  0  0  0
 10 12  1  0  0  0  0
 12 20  1  0  0  0  0
 12 13  1  0  0  0  0
 12 31  1  0  0  0  0
 13 14  1  0  0  0  0
 13 32  1  0  0  0  0
 13 33  1  0  0  0  0
 14 15  1  0  0  0  0
 14 34  1  0  0  0  0
 14 35  1  0  0  0  0
 15 16  1  0  0  0  0
 15 36  1  0  0  0  0
 15 37  1  0  0  0  0
 16 17  1  0  0  0  0
 16 20  1  0  0  0  0
 17 18  1  0  0  0  0
 17 19  2  0  0  0  0
 18 38  1  0  0  0  0
 18 39  1  0  0  0  0
 20 40  1  0  0  0  0
 20 41  1  0  0  0  0
M  END
> <s_m_source_file>
AV-unprocessed.smi

> <i_m_source_file_index>
1174

> <i_lp_mmshare_version>
43012

> <i_f3d_flags>
0

> <s_epik_input>
bjFbY0hdW2NIXVtjSF1uMVtDSDJdW0NAQEhdKFtDSDNdKVtOSF1DKD1PKVtDQEBIXTJbQ0gyXVtDSDJdW0NIMl1OKFtDSDJdMilDKD1PKVtOSDJd

> <s_epik_cmdline>
J2VwaWtfcHl0aG9uJywgJy1waCcsICc3LjAnLCAnLXRuJywgJzgnLCAnLW1hJywgJzIwMCcsICctbWV0YWxfYmluZGluZycsICctaW1hZScsICc8aW5maWxlLm1hZT4nLCAnLW9tYWUnLCAnPG91dGZpbGUubWFlPic=

> <r_lp_tautomer_probability>
1

> <r_epik_Ionization_Penalty>
0.000372452

> <r_epik_Ionization_Penalty_Charging>
0

> <r_epik_Ionization_Penalty_Neutral>
0.000372452

> <r_epik_State_Penalty>
-0

> <r_epik_Charging_Adjusted_Penalty>
0

> <i_epik_Tot_Q>
0

> <i_epik_Tot_abs_Q>
0

> <r_epik_Metal_State_Penalty>
-0

> <b_epik_Metal_Only>
0

> <s_lp_Force_Field>
OPLS_2005

> <r_lp_Energy>
22.2792

> <b_lp_Chiralities_Consistent>
1

> <s_lp_Variant>
AV-unprocessed.smi:1174-4

> <Gold.Version>
5.8.1

> <Gold.Id.Protein>
6NUR|6NUR_protein|mol2

> <Gold.PLP.Fitness>
40.9920

> <Gold.PLP.PLP>
-36.4008

> <Gold.PLP.part.hbond>
-3.5308

> <Gold.PLP.part.metal>
0.0000

> <Gold.PLP.part.buried>
-0.8926

> <Gold.PLP.part.nonpolar>
-31.6998

> <Gold.PLP.part.repulsive>
0.2881

> <Gold.PLP.ligand.clash>
0.0000

> <Gold.PLP.ligand.torsion>
0.6429

> <Gold.PLP.Chemscore.Hbond>
1.9432

> <Gold.PLP.Chemscore.CHOScore>
0.0000

> <Gold.PLP.Chemscore.Metal>
0.0000

> <Gold.Chemscore.Hbonds>
donor molecule, donor type, donor heavy atom, donor atom, acceptor molecule, acceptor atom, score
      L1  H     9    30       P1  8028  0.88
      P1  H  6933  6945       L1     8  0.05
      P1  H  7989  7998       L1    11  1.00

> <Gold.PLP.Chemscore.Internal.Correction>
0.0475

> <Gold.Rescore>
     Score         DG    S(hbond)    S(metal)    S(lipo)     H(rot)  DE(clash)    DE(int)     intcor
     14.65     -16.79       1.64        0.00      89.76       1.82       1.71       0.42       ----

> <Gold.Chemscore.Fitness>
14.6541

> <Gold.Chemscore.DG>
-16.7927

> <Gold.Chemscore.ZeroCoef>
-5.4800

> <Gold.Chemscore.Hbond>
1.6382

> <Gold.Chemscore.Metal>
0.0000

> <Gold.Chemscore.Lipo>
89.7597

> <Gold.Chemscore.Internal_Hbond>
0.0000

> <Gold.Chemscore.DEClash>
1.7139

> <Gold.Chemscore.DEInternal>
0.4248

> <Gold.Chemscore.Rot>
1.8206

> <Gold.Chemscore.Internal.Correction>
   9.000000E+99

> <Gold.Chemscore.Hbonds>
donor molecule, donor type, donor heavy atom, donor atom, acceptor molecule, acceptor atom, score
      L1  H     9    30       P1  8028  0.87
      P1  H  6933  6945       L1     8  0.01
      P1  H  7989  7998       L1    11  0.62

> <Gold.Chemscore.Hbond.Weighted>
-5.4715

> <Gold.Chemscore.Metal.Weighted>
-0.0000

> <Gold.Chemscore.Lipo.Weighted>
-10.5019

> <Gold.Chemscore.Internal_Hbond.Weighted>
0.0000

> <Gold.Chemscore.DEClash.Weighted>
1.7139

> <Gold.Chemscore.DEInternal.Weighted>
0.4248

> <Gold.Chemscore.Rot.Weighted>
4.6607

> <Gold.Chemscore.Internal.Correction.Weighted>
   9.000000E+99

> <Gold.Protein.RotatedTorsions>
[ 6907 6896 6895 6894 ] final   54.46 input  -60.11 | X-H torsion
[ 7974 7965 7964 7962 ] final    3.66 input  175.53 | X-H torsion
[ 8008 7997 7996 7995 ] final  114.00 input   59.86 | X-H torsion
[ 10167 10162 10161 10158 ] final   84.15 input  -65.29 | X-H torsion
[ 10718 10713 10712 10709 ] final -121.82 input   66.30 | X-H torsion
[ 10763 10752 10751 10750 ] final   -1.36 input  -60.55 | X-H torsion
[ 11005 11000 10999 10996 ] final  170.08 input  -57.11 | X-H torsion

> <Gold.Protein.ActiveResidues>
 VAL166  LYS551  ARG553  GLY616  TRP617  ASP618  TYR619  PRO620  LYS621  CYS622 
 ASP623  PHE694  ASN695  SER759  ASP760  ASP761  ALA762  ILE779  LEU786  VAL792 
 PHE793  MET794  SER795  GLU796  ALA797  LYS798  CYS799  TRP800  GLU811  SER814 

> <Gold.Protein.RotatedAtoms>
  152.3441  134.7095  160.0255 H   0  0  0  0  0  0  0  0  0  0  0  0  # atno 6907 bound_to 6896
  151.7471  133.3320  159.3389 H   0  0  0  0  0  0  0  0  0  0  0  0  # atno 6908 bound_to 6896
  150.7498  134.6159  159.6155 H   0  0  0  0  0  0  0  0  0  0  0  0  # atno 6909 bound_to 6896
  146.2445  140.0651  142.8366 H   0  0  0  0  0  0  0  0  0  0  0  0  # atno 7974 bound_to 7965
  156.2294  140.2968  156.0149 H   0  0  0  0  0  0  0  0  0  0  0  0  # atno 8008 bound_to 7997
  155.2268  140.0417  157.2973 H   0  0  0  0  0  0  0  0  0  0  0  0  # atno 8009 bound_to 7997
  154.5969  140.2416  155.7852 H   0  0  0  0  0  0  0  0  0  0  0  0  # atno 8010 bound_to 7997
  139.9110  144.6272  150.8537 H   0  0  0  0  0  0  0  0  0  0  0  0  # atno 10167 bound_to 10162
  156.1368  130.6436  150.9709 H   0  0  0  0  0  0  0  0  0  0  0  0  # atno 10718 bound_to 10713
  153.3438  135.6982  153.6845 H   0  0  0  0  0  0  0  0  0  0  0  0  # atno 10763 bound_to 10752
  153.5599  135.3537  155.2795 H   0  0  0  0  0  0  0  0  0  0  0  0  # atno 10764 bound_to 10752
  154.8641  135.4246  154.2658 H   0  0  0  0  0  0  0  0  0  0  0  0  # atno 10765 bound_to 10752
  140.3045  134.7568  157.3943 H   0  0  0  0  0  0  0  0  0  0  0  0  # atno 11005 bound_to 11000
  145.0865  140.9256  143.4794 LP  0  0  0  0  0  0  0  0  0  0  0  0  # atno 17320 bound_to 7965
  145.0815  139.2956  143.5781 LP  0  0  0  0  0  0  0  0  0  0  0  0  # atno 17321 bound_to 7965
  140.7685  143.3366  151.2297 LP  0  0  0  0  0  0  0  0  0  0  0  0  # atno 17342 bound_to 10162
  139.6942  143.9640  152.2874 LP  0  0  0  0  0  0  0  0  0  0  0  0  # atno 17343 bound_to 10162
  157.6540  131.0892  150.7989 LP  0  0  0  0  0  0  0  0  0  0  0  0  # atno 17370 bound_to 10713
  156.8068  130.4939  149.5361 LP  0  0  0  0  0  0  0  0  0  0  0  0  # atno 17371 bound_to 10713
  140.1079  134.5384  155.8292 LP  0  0  0  0  0  0  0  0  0  0  0  0  # atno 17394 bound_to 11000
  141.2121  133.6715  156.6634 LP  0  0  0  0  0  0  0  0  0  0  0  0  # atno 17395 bound_to 11000

$$$$
