AV-unprocessed.smi:45|AV-procd|sdf|413|dock6
  -GOLD-   2262016283D 1   1.00000     0.00000
 Structure written by MMmdl.
 59 62  0  0  0  0  0  0  0  0  2 V2000
  151.0170  145.2062  159.9629 C   0  0  0  0  0  0  0  0  0  0  0  0
  151.6639  144.0022  160.3474 O   0  0  0  0  0  0  0  0  0  0  0  0
  151.2609  142.8263  159.7494 C   0  0  0  0  0  0  0  0  0  0  0  0
  150.3330  142.7644  158.6794 C   0  0  0  0  0  0  0  0  0  0  0  0
  149.9870  141.5276  158.1032 C   0  0  0  0  0  0  0  0  0  0  0  0
  150.5568  140.3327  158.5837 C   0  0  0  0  0  0  0  0  0  0  0  0
  150.1981  139.0104  157.9177 C   0  0  0  0  0  0  0  0  0  0  0  0
  148.9336  138.4119  158.3333 N   0  0  0  0  0  0  0  0  0  0  0  0
  148.1910  137.6794  157.3902 C   0  0  0  0  0  0  0  0  0  0  0  0
  147.7340  138.3380  156.2981 N   0  0  0  0  0  0  0  0  0  0  0  0
  147.0883  137.6268  155.3723 C   0  0  0  0  0  0  0  0  0  0  0  0
  146.7195  138.3183  154.2314 N   0  0  0  0  0  0  0  0  0  0  0  0
  145.9980  137.6034  153.1845 C   0  0  0  0  0  0  0  0  0  0  0  0
  146.3615  138.2761  151.8539 C   0  0  0  0  0  0  0  0  0  0  0  0
  147.0610  139.5687  152.2656 C   0  0  0  0  0  0  0  0  0  0  0  0
  147.7084  139.1782  153.5937 C   0  0  1  0  0  0  0  0  0  0  0  0
  148.1217  140.3722  154.4748 C   0  0  0  0  0  0  0  0  0  0  0  0
  149.2365  141.0336  153.9167 O   0  0  0  0  0  0  0  0  0  0  0  0
  146.8224  136.3182  155.4173 N   0  0  0  0  0  0  0  0  0  0  0  0
  147.2627  135.6462  156.5027 C   0  0  0  0  0  0  0  0  0  0  0  0
  147.9778  136.2833  157.5431 C   0  0  0  0  0  0  0  0  0  0  0  0
  148.4838  135.5088  158.7287 C   0  0  0  0  0  0  0  0  0  0  0  0
  149.4409  135.9658  159.3633 O   0  0  0  0  0  0  0  0  0  0  0  0
  147.8016  134.3415  158.8922 N   0  5  0  0  0  0  0  0  0  0  0  0
  147.5123  133.7435  160.1962 C   0  0  0  0  0  0  0  0  0  0  0  0
  146.9053  134.7505  161.1679 C   0  0  0  0  0  0  0  0  0  0  0  0
  147.6350  135.0687  162.2441 N   0  0  0  0  0  0  0  0  0  0  0  0
  147.1177  135.9879  163.0874 C   0  0  0  0  0  0  0  0  0  0  0  0
  145.8645  136.5880  162.8531 C   0  0  0  0  0  0  0  0  0  0  0  0
  145.1828  136.1718  161.6923 C   0  0  0  0  0  0  0  0  0  0  0  0
  145.7040  135.2514  160.8527 N   0  0  0  0  0  0  0  0  0  0  0  0
  151.4591  140.3846  159.6677 C   0  0  0  0  0  0  0  0  0  0  0  0
  151.8141  141.6221  160.2384 C   0  0  0  0  0  0  0  0  0  0  0  0
  152.9492  141.6548  161.5391 Cl  0  0  0  0  0  0  0  0  0  0  0  0
  148.5913  138.5704  153.3876 H   0  0  0  0  0  0  0  0  0  0  0  0
  151.4718  146.0430  160.4926 H   0  0  0  0  0  0  0  0  0  0  0  0
  149.9574  145.1893  160.2211 H   0  0  0  0  0  0  0  0  0  0  0  0
  151.1270  145.3942  158.8939 H   0  0  0  0  0  0  0  0  0  0  0  0
  149.8801  143.6550  158.2716 H   0  0  0  0  0  0  0  0  0  0  0  0
  149.2914  141.5015  157.2773 H   0  0  0  0  0  0  0  0  0  0  0  0
  150.1553  139.1743  156.8410 H   0  0  0  0  0  0  0  0  0  0  0  0
  150.9965  138.2869  158.0874 H   0  0  0  0  0  0  0  0  0  0  0  0
  148.9192  138.0376  159.2720 H   0  0  0  0  0  0  0  0  0  0  0  0
  146.2405  136.5401  153.1688 H   0  0  0  0  0  0  0  0  0  0  0  0
  144.9293  137.6963  153.3787 H   0  0  0  0  0  0  0  0  0  0  0  0
  147.0573  137.6420  151.3030 H   0  0  0  0  0  0  0  0  0  0  0  0
  145.4930  138.4515  151.2186 H   0  0  0  0  0  0  0  0  0  0  0  0
  147.7827  139.9150  151.5253 H   0  0  0  0  0  0  0  0  0  0  0  0
  146.3239  140.3585  152.4186 H   0  0  0  0  0  0  0  0  0  0  0  0
  147.2993  141.0791  154.5875 H   0  0  0  0  0  0  0  0  0  0  0  0
  148.3997  140.0367  155.4743 H   0  0  0  0  0  0  0  0  0  0  0  0
  149.1895  140.9560  152.9760 H   0  0  0  0  0  0  0  0  0  0  0  0
  147.0470  134.5879  156.5317 H   0  0  0  0  0  0  0  0  0  0  0  0
  146.8428  132.8851  160.1134 H   0  0  0  0  0  0  0  0  0  0  0  0
  148.4197  133.3412  160.6486 H   0  0  0  0  0  0  0  0  0  0  0  0
  147.7087  136.2484  163.9529 H   0  0  0  0  0  0  0  0  0  0  0  0
  145.4498  137.3243  163.5248 H   0  0  0  0  0  0  0  0  0  0  0  0
  144.2159  136.5787  161.4362 H   0  0  0  0  0  0  0  0  0  0  0  0
  151.9009  139.4766  160.0533 H   0  0  0  0  0  0  0  0  0  0  0  0
  1  2  1  0  0  0  0
  1 36  1  0  0  0  0
  1 37  1  0  0  0  0
  1 38  1  0  0  0  0
  2  3  1  0  0  0  0
  3 33  1  0  0  0  0
  3  4  2  0  0  0  0
  4  5  1  0  0  0  0
  4 39  1  0  0  0  0
  5  6  2  0  0  0  0
  5 40  1  0  0  0  0
  6  7  1  0  0  0  0
  6 32  1  0  0  0  0
  7  8  1  0  0  0  0
  7 41  1  0  0  0  0
  7 42  1  0  0  0  0
  8  9  1  0  0  0  0
  8 43  1  0  0  0  0
  9 21  1  0  0  0  0
  9 10  2  0  0  0  0
 10 11  1  0  0  0  0
 11 12  1  0  0  0  0
 11 19  2  0  0  0  0
 12 16  1  0  0  0  0
 12 13  1  0  0  0  0
 13 14  1  0  0  0  0
 13 44  1  0  0  0  0
 13 45  1  0  0  0  0
 14 15  1  0  0  0  0
 14 46  1  0  0  0  0
 14 47  1  0  0  0  0
 15 16  1  0  0  0  0
 15 48  1  0  0  0  0
 15 49  1  0  0  0  0
 16 35  1  0  0  0  0
 16 17  1  0  0  0  0
 17 18  1  0  0  0  0
 17 50  1  0  0  0  0
 17 51  1  0  0  0  0
 18 52  1  0  0  0  0
 19 20  1  0  0  0  0
 20 21  2  0  0  0  0
 20 53  1  0  0  0  0
 21 22  1  0  0  0  0
 22 23  2  0  0  0  0
 22 24  1  0  0  0  0
 24 25  1  0  0  0  0
 25 26  1  0  0  0  0
 25 54  1  0  0  0  0
 25 55  1  0  0  0  0
 26 31  1  0  0  0  0
 26 27  2  0  0  0  0
 27 28  1  0  0  0  0
 28 29  2  0  0  0  0
 28 56  1  0  0  0  0
 29 30  1  0  0  0  0
 29 57  1  0  0  0  0
 30 31  2  0  0  0  0
 30 58  1  0  0  0  0
 32 33  2  0  0  0  0
 32 59  1  0  0  0  0
 33 34  1  0  0  0  0
M  CHG  1  24  -1
M  END
> <s_m_source_file>
AV-unprocessed.smi

> <i_m_source_file_index>
45

> <i_lp_mmshare_version>
43012

> <i_f3d_flags>
0

> <s_epik_input>
W0NIM11PYzFbY0hdW2NIXWMoW2NIXWMxQ2wpW0NIMl1bTkhdYzJuYyhOM1tDSDJdW0NIMl1bQ0gyXVtDQEhdM1tDSDJdW09IXSluW2NIXWMyQyg9TylbTkhdW0NIMl1jNG5bY0hdW2NIXVtjSF1uNA==

> <s_epik_cmdline>
J2VwaWtfcHl0aG9uJywgJy1waCcsICc3LjAnLCAnLXRuJywgJzgnLCAnLW1hJywgJzIwMCcsICctbWV0YWxfYmluZGluZycsICctaW1hZScsICc8aW5maWxlLm1hZT4nLCAnLW9tYWUnLCAnPG91dGZpbGUubWFlPic=

> <r_lp_tautomer_probability>
1

> <r_epik_Ionization_Penalty>
7.35269

> <r_epik_Ionization_Penalty_Charging>
6.82087

> <r_epik_Ionization_Penalty_Neutral>
0.53182

> <r_epik_State_Penalty>
6.85781

> <r_epik_Charging_Adjusted_Penalty>
13.6787

> <i_epik_Tot_Q>
-1

> <i_epik_Tot_abs_Q>
1

> <r_epik_Metal_State_Penalty>
2.8146

> <b_epik_Metal_Only>
1

> <s_epik_Chemistry_Notes>
This compound contains an electron-poor aromatic ring that is susceptible to covalent hydrolysis at low pH, typically resulting in measured values for nitrogen ring protonation that are around two units higher than predicted values.

> <s_lp_Force_Field>
OPLS_2005

> <r_lp_Energy>
41.892

> <b_lp_Chiralities_Consistent>
1

> <s_lp_Variant>
AV-unprocessed.smi:45-7

> <Gold.Version>
5.8.1

> <Gold.Id.Protein>
6NUR|6NUR_protein|mol2

> <Gold.PLP.Fitness>
57.4184

> <Gold.PLP.PLP>
-52.3049

> <Gold.PLP.part.hbond>
-3.7242

> <Gold.PLP.part.metal>
0.0000

> <Gold.PLP.part.buried>
-3.7896

> <Gold.PLP.part.nonpolar>
-45.1525

> <Gold.PLP.part.repulsive>
0.1489

> <Gold.PLP.ligand.clash>
0.0000

> <Gold.PLP.ligand.torsion>
1.3083

> <Gold.PLP.Chemscore.Hbond>
2.2694

> <Gold.PLP.Chemscore.CHOScore>
0.0000

> <Gold.PLP.Chemscore.Metal>
0.0000

> <Gold.Chemscore.Hbonds>
donor molecule, donor type, donor heavy atom, donor atom, acceptor molecule, acceptor atom, score
      L1  H    18    52       P1  7957  0.91
      P1  H  6896  6908       L1    23  1.00

> <Gold.PLP.Chemscore.Internal.Correction>
0.9218

> <Gold.Rescore>
     Score         DG    S(hbond)    S(metal)    S(lipo)     H(rot)  DE(clash)    DE(int)     intcor
     14.62     -20.00       1.90        0.00     143.23       3.36       0.81       4.57       ----

> <Gold.Chemscore.Fitness>
14.6234

> <Gold.Chemscore.DG>
-19.9991

> <Gold.Chemscore.ZeroCoef>
-5.4800

> <Gold.Chemscore.Hbond>
1.9019

> <Gold.Chemscore.Metal>
0.0000

> <Gold.Chemscore.Lipo>
143.2317

> <Gold.Chemscore.Internal_Hbond>
0.0000

> <Gold.Chemscore.DEClash>
0.8063

> <Gold.Chemscore.DEInternal>
4.5694

> <Gold.Chemscore.Rot>
3.3560

> <Gold.Chemscore.Internal.Correction>
   9.000000E+99

> <Gold.Chemscore.Hbonds>
donor molecule, donor type, donor heavy atom, donor atom, acceptor molecule, acceptor atom, score
      L1  H    18    52       P1  7957  0.85
      P1  H  6896  6908       L1    23  0.78

> <Gold.Chemscore.Hbond.Weighted>
-6.3522

> <Gold.Chemscore.Metal.Weighted>
-0.0000

> <Gold.Chemscore.Lipo.Weighted>
-16.7581

> <Gold.Chemscore.Internal_Hbond.Weighted>
0.0000

> <Gold.Chemscore.DEClash.Weighted>
0.8063

> <Gold.Chemscore.DEInternal.Weighted>
4.5694

> <Gold.Chemscore.Rot.Weighted>
8.5912

> <Gold.Chemscore.Internal.Correction.Weighted>
   9.000000E+99

> <Gold.Protein.RotatedTorsions>
[ 6907 6896 6895 6894 ] final  177.21 input  -60.11 | X-H torsion
[ 7974 7965 7964 7962 ] final  149.00 input  175.53 | X-H torsion
[ 8008 7997 7996 7995 ] final  -67.36 input   59.86 | X-H torsion
[ 10167 10162 10161 10158 ] final  -68.98 input  -65.29 | X-H torsion
[ 10718 10713 10712 10709 ] final   24.69 input   66.30 | X-H torsion
[ 10763 10752 10751 10750 ] final -128.40 input  -60.55 | X-H torsion
[ 11005 11000 10999 10996 ] final   78.04 input  -57.11 | X-H torsion

> <Gold.Protein.ActiveResidues>
 VAL166  LYS551  ARG553  GLY616  TRP617  ASP618  TYR619  PRO620  LYS621  CYS622 
 ASP623  PHE694  ASN695  SER759  ASP760  ASP761  ALA762  ILE779  LEU786  VAL792 
 PHE793  MET794  SER795  GLU796  ALA797  LYS798  CYS799  TRP800  GLU811  SER814 

> <Gold.Protein.RotatedAtoms>
  151.7077  133.3312  159.3282 H   0  0  0  0  0  0  0  0  0  0  0  0  # atno 6907 bound_to 6896
  150.7708  134.6560  159.6323 H   0  0  0  0  0  0  0  0  0  0  0  0  # atno 6908 bound_to 6896
  152.3731  134.6707  160.0221 H   0  0  0  0  0  0  0  0  0  0  0  0  # atno 6909 bound_to 6896
  144.8471  139.6224  143.5990 H   0  0  0  0  0  0  0  0  0  0  0  0  # atno 7974 bound_to 7965
  154.4795  140.0894  156.7343 H   0  0  0  0  0  0  0  0  0  0  0  0  # atno 8008 bound_to 7997
  155.4508  140.3457  155.4282 H   0  0  0  0  0  0  0  0  0  0  0  0  # atno 8009 bound_to 7997
  156.1169  140.1463  156.9248 H   0  0  0  0  0  0  0  0  0  0  0  0  # atno 8010 bound_to 7997
  140.5466  143.2313  151.6991 H   0  0  0  0  0  0  0  0  0  0  0  0  # atno 10167 bound_to 10162
  157.1833  130.6812  149.6121 H   0  0  0  0  0  0  0  0  0  0  0  0  # atno 10718 bound_to 10713
  154.8756  135.3930  154.3750 H   0  0  0  0  0  0  0  0  0  0  0  0  # atno 10763 bound_to 10752
  153.4505  135.7028  153.6117 H   0  0  0  0  0  0  0  0  0  0  0  0  # atno 10764 bound_to 10752
  153.4659  135.3801  155.2333 H   0  0  0  0  0  0  0  0  0  0  0  0  # atno 10765 bound_to 10752
  139.9229  134.7732  156.1599 H   0  0  0  0  0  0  0  0  0  0  0  0  # atno 11005 bound_to 11000
  146.2753  139.6738  142.9267 LP  0  0  0  0  0  0  0  0  0  0  0  0  # atno 17320 bound_to 7965
  145.4574  141.0431  143.2770 LP  0  0  0  0  0  0  0  0  0  0  0  0  # atno 17321 bound_to 7965
  139.5010  144.3885  152.0303 LP  0  0  0  0  0  0  0  0  0  0  0  0  # atno 17342 bound_to 10162
  140.2999  144.3659  150.6063 LP  0  0  0  0  0  0  0  0  0  0  0  0  # atno 17343 bound_to 10162
  155.9721  130.4639  150.6200 LP  0  0  0  0  0  0  0  0  0  0  0  0  # atno 17370 bound_to 10713
  157.3932  131.0799  151.1375 LP  0  0  0  0  0  0  0  0  0  0  0  0  # atno 17371 bound_to 10713
  141.0764  133.6773  156.2245 LP  0  0  0  0  0  0  0  0  0  0  0  0  # atno 17394 bound_to 11000
  140.6421  134.5155  157.5570 LP  0  0  0  0  0  0  0  0  0  0  0  0  # atno 17395 bound_to 11000

$$$$
