AV-unprocessed.smi:415|AV-procd|sdf|2525|dock8
  -GOLD-   2262022483D 1   1.00000     0.00000
 Structure written by MMmdl.
 53 54  0  0  0  0  0  0  0  0  1 V2000
  150.7912  138.7583  154.6827 C   0  0  0  0  0  0  0  0  0  0  0  0
  151.4348  139.9719  155.0282 O   0  0  0  0  0  0  0  0  0  0  0  0
  152.2858  139.8348  156.1540 C   0  0  0  0  0  0  0  0  0  0  0  0
  151.5656  140.3589  157.4077 C   0  0  0  0  0  0  0  0  0  0  0  0
  150.1226  140.4028  157.2611 N   0  0  0  0  0  0  0  0  0  0  0  0
  149.4057  141.5786  157.0544 C   0  0  0  0  0  0  0  0  0  0  0  0
  150.0736  142.7888  157.0021 N   0  0  0  0  0  0  0  0  0  0  0  0
  148.0614  141.5682  156.9151 C   0  0  0  0  0  0  0  0  0  0  0  0
  147.2898  140.3347  156.9799 C   0  0  0  0  0  0  0  0  0  0  0  0
  146.0676  140.3030  156.8337 O   0  0  0  0  0  0  0  0  0  0  0  0
  148.0344  139.1572  157.2196 N   0  0  0  0  0  0  0  0  0  0  0  0
  147.3241  137.8612  157.2921 C   0  0  0  0  0  0  0  0  0  0  0  0
  147.2405  137.3021  158.7198 C   0  0  0  0  0  0  0  0  0  0  0  0
  147.7699  137.8944  159.6610 O   0  0  0  0  0  0  0  0  0  0  0  0
  146.5746  136.1460  158.8590 N   0  0  0  0  0  0  0  0  0  0  0  0
  146.3612  135.4368  160.1189 C   0  0  1  0  0  0  0  0  0  0  0  0
  147.6421  134.6650  160.5015 C   0  0  0  0  0  0  0  0  0  0  0  0
  147.5045  133.9632  161.8594 C   0  0  0  0  0  0  0  0  0  0  0  0
  147.1072  134.9586  162.9604 C   0  0  0  0  0  0  0  0  0  0  0  0
  145.8147  135.7255  162.6134 C   0  0  2  0  0  0  0  0  0  0  0  0
  144.5686  134.8242  162.7351 C   0  0  0  0  0  0  0  0  0  0  0  0
  145.9572  136.4316  161.2382 C   0  0  2  0  0  0  0  0  0  0  0  0
  144.7167  137.2731  160.8786 C   0  0  0  0  0  0  0  0  0  0  0  0
  149.4405  139.1638  157.3654 C   0  0  0  0  0  0  0  0  0  0  0  0
  150.0494  138.1104  157.5750 O   0  0  0  0  0  0  0  0  0  0  0  0
  150.1499  138.9188  153.8164 H   0  0  0  0  0  0  0  0  0  0  0  0
  150.1679  138.3949  155.5007 H   0  0  0  0  0  0  0  0  0  0  0  0
  151.5173  137.9859  154.4252 H   0  0  0  0  0  0  0  0  0  0  0  0
  152.5369  138.7825  156.2940 H   0  0  0  0  0  0  0  0  0  0  0  0
  153.2222  140.3708  155.9918 H   0  0  0  0  0  0  0  0  0  0  0  0
  151.7909  139.7473  158.2805 H   0  0  0  0  0  0  0  0  0  0  0  0
  151.8982  141.3631  157.6764 H   0  0  0  0  0  0  0  0  0  0  0  0
  151.0760  142.8459  157.1106 H   0  0  0  0  0  0  0  0  0  0  0  0
  149.6124  143.6302  156.6865 H   0  0  0  0  0  0  0  0  0  0  0  0
  147.5343  142.4975  156.7516 H   0  0  0  0  0  0  0  0  0  0  0  0
  146.3177  137.9587  156.8804 H   0  0  0  0  0  0  0  0  0  0  0  0
  147.7936  137.1051  156.6617 H   0  0  0  0  0  0  0  0  0  0  0  0
  146.1768  135.7276  158.0308 H   0  0  0  0  0  0  0  0  0  0  0  0
  145.5472  134.7232  159.9808 H   0  0  0  0  0  0  0  0  0  0  0  0
  147.8813  133.9263  159.7356 H   0  0  0  0  0  0  0  0  0  0  0  0
  148.4880  135.3532  160.5377 H   0  0  0  0  0  0  0  0  0  0  0  0
  146.7634  133.1666  161.7885 H   0  0  0  0  0  0  0  0  0  0  0  0
  148.4460  133.4799  162.1214 H   0  0  0  0  0  0  0  0  0  0  0  0
  146.9956  134.4379  163.9118 H   0  0  0  0  0  0  0  0  0  0  0  0
  147.9198  135.6722  163.1025 H   0  0  0  0  0  0  0  0  0  0  0  0
  145.7010  136.5044  163.3686 H   0  0  0  0  0  0  0  0  0  0  0  0
  144.5549  134.0353  161.9838 H   0  0  0  0  0  0  0  0  0  0  0  0
  143.6478  135.3973  162.6293 H   0  0  0  0  0  0  0  0  0  0  0  0
  144.5310  134.3442  163.7132 H   0  0  0  0  0  0  0  0  0  0  0  0
  146.7804  137.1406  161.3438 H   0  0  0  0  0  0  0  0  0  0  0  0
  143.8616  136.6437  160.6326 H   0  0  0  0  0  0  0  0  0  0  0  0
  144.9055  137.9164  160.0190 H   0  0  0  0  0  0  0  0  0  0  0  0
  144.4292  137.9213  161.7068 H   0  0  0  0  0  0  0  0  0  0  0  0
  1  2  1  0  0  0  0
  1 26  1  0  0  0  0
  1 27  1  0  0  0  0
  1 28  1  0  0  0  0
  2  3  1  0  0  0  0
  3  4  1  0  0  0  0
  3 29  1  0  0  0  0
  3 30  1  0  0  0  0
  4  5  1  0  0  0  0
  4 31  1  0  0  0  0
  4 32  1  0  0  0  0
  5 24  1  0  0  0  0
  5  6  1  0  0  0  0
  6  7  1  0  0  0  0
  6  8  2  0  0  0  0
  7 33  1  0  0  0  0
  7 34  1  0  0  0  0
  8  9  1  0  0  0  0
  8 35  1  0  0  0  0
  9 10  2  0  0  0  0
  9 11  1  0  0  0  0
 11 12  1  0  0  0  0
 11 24  1  0  0  0  0
 12 13  1  0  0  0  0
 12 36  1  0  0  0  0
 12 37  1  0  0  0  0
 13 14  2  0  0  0  0
 13 15  1  0  0  0  0
 15 16  1  0  0  0  0
 15 38  1  0  0  0  0
 16 22  1  0  0  0  0
 16 17  1  0  0  0  0
 16 39  1  0  0  0  0
 17 18  1  0  0  0  0
 17 40  1  0  0  0  0
 17 41  1  0  0  0  0
 18 19  1  0  0  0  0
 18 42  1  0  0  0  0
 18 43  1  0  0  0  0
 19 20  1  0  0  0  0
 19 44  1  0  0  0  0
 19 45  1  0  0  0  0
 20 21  1  0  0  0  0
 20 22  1  0  0  0  0
 20 46  1  0  0  0  0
 21 47  1  0  0  0  0
 21 48  1  0  0  0  0
 21 49  1  0  0  0  0
 22 23  1  0  0  0  0
 22 50  1  0  0  0  0
 23 51  1  0  0  0  0
 23 52  1  0  0  0  0
 23 53  1  0  0  0  0
 24 25  2  0  0  0  0
M  END
> <s_m_source_file>
AV-unprocessed.smi

> <i_m_source_file_index>
415

> <i_lp_mmshare_version>
43012

> <i_f3d_flags>
0

> <s_epik_input>
W0NIM11PW0NIMl1bQ0gyXW4xYyhbTkgyXSlbY0hdYyg9TyluKGMxPU8pW0NIMl1DKD1PKVtOSF1bQ0BASF0yW0NIMl1bQ0gyXVtDSDJdW0NAQEhdKFtDSDNdKVtDQEhdMltDSDNd

> <s_epik_cmdline>
J2VwaWtfcHl0aG9uJywgJy1waCcsICc3LjAnLCAnLXRuJywgJzgnLCAnLW1hJywgJzIwMCcsICctbWV0YWxfYmluZGluZycsICctaW1hZScsICc8aW5maWxlLm1hZT4nLCAnLW9tYWUnLCAnPG91dGZpbGUubWFlPic=

> <r_lp_tautomer_probability>
1

> <r_epik_Ionization_Penalty>
8.6647e-06

> <r_epik_Ionization_Penalty_Charging>
1.81162e-08

> <r_epik_Ionization_Penalty_Neutral>
8.64658e-06

> <r_epik_State_Penalty>
-0

> <r_epik_Charging_Adjusted_Penalty>
1.81162e-08

> <i_epik_Tot_Q>
0

> <i_epik_Tot_abs_Q>
0

> <r_epik_Metal_State_Penalty>
-0

> <b_epik_Metal_Only>
0

> <s_lp_Force_Field>
OPLS_2005

> <r_lp_Energy>
23.106

> <b_lp_Chiralities_Consistent>
1

> <s_lp_Variant>
AV-unprocessed.smi:415-8

> <Gold.Version>
5.8.1

> <Gold.Id.Protein>
6NUR|6NUR_protein|mol2

> <Gold.PLP.Fitness>
39.3303

> <Gold.PLP.PLP>
-34.0965

> <Gold.PLP.part.hbond>
-3.4810

> <Gold.PLP.part.metal>
0.0000

> <Gold.PLP.part.buried>
-5.6634

> <Gold.PLP.part.nonpolar>
-25.1080

> <Gold.PLP.part.repulsive>
0.1259

> <Gold.PLP.ligand.clash>
0.0000

> <Gold.PLP.ligand.torsion>
1.1601

> <Gold.PLP.Chemscore.Hbond>
2.5120

> <Gold.PLP.Chemscore.CHOScore>
0.0000

> <Gold.PLP.Chemscore.Metal>
0.0000

> <Gold.Chemscore.Hbonds>
donor molecule, donor type, donor heavy atom, donor atom, acceptor molecule, acceptor atom, score
      L1  H     7    34       P1  8028  1.00
      P1  H  6934  6947       L1    14  0.53
      P1  H  7989  7998       L1     2  1.00

> <Gold.PLP.Chemscore.Internal.Correction>
0.0181

> <Gold.Rescore>
     Score         DG    S(hbond)    S(metal)    S(lipo)     H(rot)  DE(clash)    DE(int)     intcor
     14.95     -17.15       2.54        0.00      76.79       2.26       0.04       2.16       ----

> <Gold.Chemscore.Fitness>
14.9544

> <Gold.Chemscore.DG>
-17.1512

> <Gold.Chemscore.ZeroCoef>
-5.4800

> <Gold.Chemscore.Hbond>
2.5402

> <Gold.Chemscore.Metal>
0.0000

> <Gold.Chemscore.Lipo>
76.7869

> <Gold.Chemscore.Internal_Hbond>
0.0000

> <Gold.Chemscore.DEClash>
0.0368

> <Gold.Chemscore.DEInternal>
2.1600

> <Gold.Chemscore.Rot>
2.2645

> <Gold.Chemscore.Internal.Correction>
   9.000000E+99

> <Gold.Chemscore.Hbonds>
donor molecule, donor type, donor heavy atom, donor atom, acceptor molecule, acceptor atom, score
      L1  H     7    34       P1  8028  0.99
      P1  H  6934  6947       L1    14  0.54
      P1  H  7989  7998       L1     2  0.55

> <Gold.Chemscore.Hbond.Weighted>
-8.4843

> <Gold.Chemscore.Metal.Weighted>
-0.0000

> <Gold.Chemscore.Lipo.Weighted>
-8.9841

> <Gold.Chemscore.Internal_Hbond.Weighted>
0.0000

> <Gold.Chemscore.DEClash.Weighted>
0.0368

> <Gold.Chemscore.DEInternal.Weighted>
2.1600

> <Gold.Chemscore.Rot.Weighted>
5.7972

> <Gold.Chemscore.Internal.Correction.Weighted>
   9.000000E+99

> <Gold.Protein.RotatedTorsions>
[ 6907 6896 6895 6894 ] final   28.30 input  -60.11 | X-H torsion
[ 7974 7965 7964 7962 ] final -132.10 input  175.53 | X-H torsion
[ 8008 7997 7996 7995 ] final   98.53 input   59.86 | X-H torsion
[ 10167 10162 10161 10158 ] final  -43.47 input  -65.29 | X-H torsion
[ 10718 10713 10712 10709 ] final -112.03 input   66.30 | X-H torsion
[ 10763 10752 10751 10750 ] final  -66.60 input  -60.55 | X-H torsion
[ 11005 11000 10999 10996 ] final  138.27 input  -57.11 | X-H torsion

> <Gold.Protein.ActiveResidues>
 VAL166  LYS551  ARG553  GLY616  TRP617  ASP618  TYR619  PRO620  LYS621  CYS622 
 ASP623  PHE694  ASN695  SER759  ASP760  ASP761  ALA762  ILE779  LEU786  VAL792 
 PHE793  MET794  SER795  GLU796  ALA797  LYS798  CYS799  TRP800  GLU811  SER814 

> <Gold.Protein.RotatedAtoms>
  152.0149  134.9856  160.0568 H   0  0  0  0  0  0  0  0  0  0  0  0  # atno 6907 bound_to 6896
  152.1393  133.4450  159.4767 H   0  0  0  0  0  0  0  0  0  0  0  0  # atno 6908 bound_to 6896
  150.6863  134.2243  159.4452 H   0  0  0  0  0  0  0  0  0  0  0  0  # atno 6909 bound_to 6896
  144.9317  140.7136  143.4902 H   0  0  0  0  0  0  0  0  0  0  0  0  # atno 7974 bound_to 7965
  156.1013  140.3242  155.7946 H   0  0  0  0  0  0  0  0  0  0  0  0  # atno 8008 bound_to 7997
  155.4831  140.0555  157.2981 H   0  0  0  0  0  0  0  0  0  0  0  0  # atno 8009 bound_to 7997
  154.4699  140.2006  156.0037 H   0  0  0  0  0  0  0  0  0  0  0  0  # atno 8010 bound_to 7997
  140.6933  143.2981  151.3356 H   0  0  0  0  0  0  0  0  0  0  0  0  # atno 10167 bound_to 10162
  156.0681  130.5898  150.8454 H   0  0  0  0  0  0  0  0  0  0  0  0  # atno 10718 bound_to 10713
  154.3621  135.6113  153.5696 H   0  0  0  0  0  0  0  0  0  0  0  0  # atno 10763 bound_to 10752
  152.9793  135.5818  154.4620 H   0  0  0  0  0  0  0  0  0  0  0  0  # atno 10764 bound_to 10752
  154.4360  135.2849  155.1858 H   0  0  0  0  0  0  0  0  0  0  0  0  # atno 10765 bound_to 10752
  140.0172  134.9413  157.0400 H   0  0  0  0  0  0  0  0  0  0  0  0  # atno 11005 bound_to 11000
  145.3132  139.1812  143.4628 LP  0  0  0  0  0  0  0  0  0  0  0  0  # atno 17320 bound_to 7965
  146.3249  140.3139  142.8628 LP  0  0  0  0  0  0  0  0  0  0  0  0  # atno 17321 bound_to 7965
  139.6358  144.0632  152.2515 LP  0  0  0  0  0  0  0  0  0  0  0  0  # atno 17342 bound_to 10162
  140.0122  144.6215  150.7637 LP  0  0  0  0  0  0  0  0  0  0  0  0  # atno 17343 bound_to 10162
  157.5736  131.0946  150.9380 LP  0  0  0  0  0  0  0  0  0  0  0  0  # atno 17370 bound_to 10713
  156.9590  130.5448  149.5285 LP  0  0  0  0  0  0  0  0  0  0  0  0  # atno 17371 bound_to 10713
  140.4450  134.1641  155.7177 LP  0  0  0  0  0  0  0  0  0  0  0  0  # atno 17394 bound_to 11000
  141.1750  133.8531  157.1449 LP  0  0  0  0  0  0  0  0  0  0  0  0  # atno 17395 bound_to 11000

$$$$
