AV-unprocessed.smi:2258|AV-procd|sdf|9129|dock6
  -GOLD-   2272012333D 1   1.00000     0.00000
 Structure written by MMmdl.
 40 42  0  0  0  0  0  0  0  0  1 V2000
  146.0960  130.7956  152.0864 C   0  0  0  0  0  0  0  0  0  0  0  0
  145.5564  132.1345  151.8476 N   0  0  0  0  0  0  0  0  0  0  0  0
  144.1880  132.2641  151.5725 C   0  0  0  0  0  0  0  0  0  0  0  0
  143.6441  133.4739  151.3496 C   0  0  0  0  0  0  0  0  0  0  0  0
  144.4275  134.6273  151.3855 N   0  0  0  0  0  0  0  0  0  0  0  0
  145.7089  134.5818  151.6243 C   0  0  0  0  0  0  0  0  0  0  0  0
  146.5300  135.7212  151.6813 N   0  0  0  0  0  0  0  0  0  0  0  0
  146.2245  137.0276  151.8637 C   0  0  0  0  0  0  0  0  0  0  0  0
  145.0627  137.3751  152.0671 O   0  0  0  0  0  0  0  0  0  0  0  0
  147.2499  137.8990  151.8699 N   0  0  0  0  0  0  0  0  0  0  0  0
  147.1492  139.3458  152.0419 C   0  0  0  0  0  0  0  0  0  0  0  0
  147.8794  139.8556  153.2977 C   0  0  0  0  0  0  0  0  0  0  0  0
  148.0970  141.3671  153.1336 C   0  0  0  0  0  0  0  0  0  0  0  0
  148.0296  142.3153  154.3050 C   0  0  0  0  0  0  0  0  0  0  0  0
  146.9977  142.4040  153.1985 C   0  0  0  0  0  0  0  0  0  0  0  0
  147.2723  139.4319  154.6545 C   0  0  0  0  0  0  0  0  0  0  0  0
  148.6722  139.1223  155.1776 C   0  0  0  0  0  0  0  0  0  0  0  0
  149.1011  139.0012  153.7166 C   0  0  0  0  0  0  0  0  0  0  0  0
  146.3679  133.2258  151.8966 C   0  0  0  0  0  0  0  0  0  0  0  0
  147.5740  133.1611  152.1425 O   0  0  0  0  0  0  0  0  0  0  0  0
  145.3449  130.0148  151.9618 H   0  0  0  0  0  0  0  0  0  0  0  0
  146.4862  130.7173  153.1020 H   0  0  0  0  0  0  0  0  0  0  0  0
  146.9089  130.5788  151.3917 H   0  0  0  0  0  0  0  0  0  0  0  0
  143.6232  131.3433  151.5553 H   0  0  0  0  0  0  0  0  0  0  0  0
  142.5935  133.6057  151.1359 H   0  0  0  0  0  0  0  0  0  0  0  0
  147.5219  135.5402  151.6236 H   0  0  0  0  0  0  0  0  0  0  0  0
  148.1764  137.5279  151.7142 H   0  0  0  0  0  0  0  0  0  0  0  0
  147.5152  139.8515  151.1468 H   0  0  0  0  0  0  0  0  0  0  0  0
  146.0892  139.5940  152.1000 H   0  0  0  0  0  0  0  0  0  0  0  0
  148.8664  141.5975  152.3989 H   0  0  0  0  0  0  0  0  0  0  0  0
  147.7051  141.9165  155.2638 H   0  0  0  0  0  0  0  0  0  0  0  0
  148.7829  143.0987  154.3576 H   0  0  0  0  0  0  0  0  0  0  0  0
  147.0680  143.2493  152.5170 H   0  0  0  0  0  0  0  0  0  0  0  0
  145.9844  142.0968  153.4445 H   0  0  0  0  0  0  0  0  0  0  0  0
  146.7544  140.2268  155.1920 H   0  0  0  0  0  0  0  0  0  0  0  0
  146.6540  138.5353  154.5873 H   0  0  0  0  0  0  0  0  0  0  0  0
  149.1290  139.9646  155.6979 H   0  0  0  0  0  0  0  0  0  0  0  0
  148.7500  138.1999  155.7533 H   0  0  0  0  0  0  0  0  0  0  0  0
  149.0393  137.9713  153.3604 H   0  0  0  0  0  0  0  0  0  0  0  0
  150.0799  139.4231  153.4904 H   0  0  0  0  0  0  0  0  0  0  0  0
  1  2  1  0  0  0  0
  1 21  1  0  0  0  0
  1 22  1  0  0  0  0
  1 23  1  0  0  0  0
  2 19  1  0  0  0  0
  2  3  1  0  0  0  0
  3  4  2  0  0  0  0
  3 24  1  0  0  0  0
  4  5  1  0  0  0  0
  4 25  1  0  0  0  0
  5  6  2  0  0  0  0
  6  7  1  0  0  0  0
  6 19  1  0  0  0  0
  7  8  1  0  0  0  0
  7 26  1  0  0  0  0
  8  9  2  0  0  0  0
  8 10  1  0  0  0  0
 10 11  1  0  0  0  0
 10 27  1  0  0  0  0
 11 12  1  0  0  0  0
 11 28  1  0  0  0  0
 11 29  1  0  0  0  0
 12 18  1  0  0  0  0
 12 13  1  0  0  0  0
 12 16  1  0  0  0  0
 13 15  1  0  0  0  0
 13 14  1  0  0  0  0
 13 30  1  0  0  0  0
 14 15  1  0  0  0  0
 14 31  1  0  0  0  0
 14 32  1  0  0  0  0
 15 33  1  0  0  0  0
 15 34  1  0  0  0  0
 16 17  1  0  0  0  0
 16 35  1  0  0  0  0
 16 36  1  0  0  0  0
 17 18  1  0  0  0  0
 17 37  1  0  0  0  0
 17 38  1  0  0  0  0
 18 39  1  0  0  0  0
 18 40  1  0  0  0  0
 19 20  2  0  0  0  0
M  END
> <s_m_source_file>
AV-unprocessed.smi

> <i_m_source_file_index>
2258

> <i_lp_mmshare_version>
43012

> <i_f3d_flags>
0

> <s_epik_input>
W0NIM11uMVtjSF1bY0hdbmMoYzE9TylbTkhdQyg9TylbTkhdW0NIMl1DMihbQ0hdM1tDSDJdW0NIMl0zKVtDSDJdW0NIMl1bQ0gyXTI=

> <s_epik_cmdline>
J2VwaWtfcHl0aG9uJywgJy1waCcsICc3LjAnLCAnLXRuJywgJzgnLCAnLW1hJywgJzIwMCcsICctbWV0YWxfYmluZGluZycsICctaW1hZScsICc8aW5maWxlLm1hZT4nLCAnLW9tYWUnLCAnPG91dGZpbGUubWFlPic=

> <r_lp_tautomer_probability>
1

> <r_epik_Ionization_Penalty>
0.000665538

> <r_epik_Ionization_Penalty_Charging>
1.64466e-07

> <r_epik_Ionization_Penalty_Neutral>
0.000665373

> <r_epik_State_Penalty>
-0

> <r_epik_Charging_Adjusted_Penalty>
1.64466e-07

> <i_epik_Tot_Q>
0

> <i_epik_Tot_abs_Q>
0

> <r_epik_Metal_State_Penalty>
-0

> <b_epik_Metal_Only>
0

> <s_lp_Force_Field>
OPLS_2005

> <r_lp_Energy>
52.1357

> <b_lp_Chiralities_Consistent>
1

> <s_lp_Variant>
AV-unprocessed.smi:2258-1

> <Gold.Version>
5.8.1

> <Gold.Id.Protein>
6NUR|6NUR_protein|mol2

> <Gold.PLP.Fitness>
40.6288

> <Gold.PLP.PLP>
-32.5169

> <Gold.PLP.part.hbond>
-2.0000

> <Gold.PLP.part.metal>
0.0000

> <Gold.PLP.part.buried>
-2.9977

> <Gold.PLP.part.nonpolar>
-28.6035

> <Gold.PLP.part.repulsive>
1.6198

> <Gold.PLP.ligand.clash>
0.0000

> <Gold.PLP.ligand.torsion>
1.2242

> <Gold.PLP.Chemscore.Hbond>
1.9600

> <Gold.PLP.Chemscore.CHOScore>
1.0000

> <Gold.PLP.Chemscore.Metal>
0.0000

> <Gold.Chemscore.Hbonds>
donor molecule, donor type, donor heavy atom, donor atom, acceptor molecule, acceptor atom, score
      L1  H     7    26       P1  7948  0.88
      L1  H    10    27       P1  7948  0.73
      L1  C     4    25       P1 10186  1.00

> <Gold.PLP.Chemscore.Internal.Correction>
1.6803

> <Gold.Rescore>
     Score         DG    S(hbond)    S(metal)    S(lipo)     H(rot)  DE(clash)    DE(int)     intcor
     11.93     -15.82       1.90        0.00      66.54       1.47       1.57       2.32       ----

> <Gold.Chemscore.Fitness>
11.9339

> <Gold.Chemscore.DG>
-15.8243

> <Gold.Chemscore.ZeroCoef>
-5.4800

> <Gold.Chemscore.Hbond>
1.8960

> <Gold.Chemscore.Metal>
0.0000

> <Gold.Chemscore.Lipo>
66.5440

> <Gold.Chemscore.Internal_Hbond>
0.0000

> <Gold.Chemscore.DEClash>
1.5704

> <Gold.Chemscore.DEInternal>
2.3200

> <Gold.Chemscore.Rot>
1.4742

> <Gold.Chemscore.Internal.Correction>
   9.000000E+99

> <Gold.Chemscore.Hbonds>
donor molecule, donor type, donor heavy atom, donor atom, acceptor molecule, acceptor atom, score
      L1  H     7    26       P1  7948  0.81
      L1  H    10    27       P1  7948  0.71

> <Gold.Chemscore.Hbond.Weighted>
-6.3327

> <Gold.Chemscore.Metal.Weighted>
-0.0000

> <Gold.Chemscore.Lipo.Weighted>
-7.7856

> <Gold.Chemscore.Internal_Hbond.Weighted>
0.0000

> <Gold.Chemscore.DEClash.Weighted>
1.5704

> <Gold.Chemscore.DEInternal.Weighted>
2.3200

> <Gold.Chemscore.Rot.Weighted>
3.7740

> <Gold.Chemscore.Internal.Correction.Weighted>
   9.000000E+99

> <Gold.Protein.RotatedTorsions>
[ 6907 6896 6895 6894 ] final  126.72 input  -60.11 | X-H torsion
[ 7974 7965 7964 7962 ] final  -25.66 input  175.53 | X-H torsion
[ 8008 7997 7996 7995 ] final   22.07 input   59.86 | X-H torsion
[ 10167 10162 10161 10158 ] final -155.47 input  -65.29 | X-H torsion
[ 10718 10713 10712 10709 ] final   62.78 input   66.30 | X-H torsion
[ 10763 10752 10751 10750 ] final  160.44 input  -60.55 | X-H torsion
[ 11005 11000 10999 10996 ] final  -38.50 input  -57.11 | X-H torsion

> <Gold.Protein.ActiveResidues>
 VAL166  LYS551  ARG553  GLY616  TRP617  ASP618  TYR619  PRO620  LYS621  CYS622 
 ASP623  PHE694  ASN695  SER759  ASP760  ASP761  ALA762  ILE779  LEU786  VAL792 
 PHE793  MET794  SER795  GLU796  ALA797  LYS798  CYS799  TRP800  GLU811  SER814 

> <Gold.Protein.RotatedAtoms>
  152.3878  133.6635  159.6212 H   0  0  0  0  0  0  0  0  0  0  0  0  # atno 6907 bound_to 6896
  150.7793  133.9006  159.3349 H   0  0  0  0  0  0  0  0  0  0  0  0  # atno 6908 bound_to 6896
  151.6799  135.0965  160.0265 H   0  0  0  0  0  0  0  0  0  0  0  0  # atno 6909 bound_to 6896
  146.1477  140.4915  142.8625 H   0  0  0  0  0  0  0  0  0  0  0  0  # atno 7974 bound_to 7965
  154.9601  140.3077  155.5034 H   0  0  0  0  0  0  0  0  0  0  0  0  # atno 8008 bound_to 7997
  156.2978  140.2303  156.4625 H   0  0  0  0  0  0  0  0  0  0  0  0  # atno 8009 bound_to 7997
  154.7973  140.0436  157.1234 H   0  0  0  0  0  0  0  0  0  0  0  0  # atno 8010 bound_to 7997
  139.6929  143.9391  152.2393 H   0  0  0  0  0  0  0  0  0  0  0  0  # atno 10167 bound_to 10162
  157.5925  130.9069  149.9632 H   0  0  0  0  0  0  0  0  0  0  0  0  # atno 10718 bound_to 10713
  154.2474  135.2772  155.2830 H   0  0  0  0  0  0  0  0  0  0  0  0  # atno 10763 bound_to 10752
  154.5494  135.5679  153.6912 H   0  0  0  0  0  0  0  0  0  0  0  0  # atno 10764 bound_to 10752
  152.9987  135.6270  154.2620 H   0  0  0  0  0  0  0  0  0  0  0  0  # atno 10765 bound_to 10752
  141.0032  133.6944  156.2062 H   0  0  0  0  0  0  0  0  0  0  0  0  # atno 11005 bound_to 11000
  144.7866  140.5948  143.6570 LP  0  0  0  0  0  0  0  0  0  0  0  0  # atno 17320 bound_to 7965
  145.4899  139.1489  143.3715 LP  0  0  0  0  0  0  0  0  0  0  0  0  # atno 17321 bound_to 7965
  139.9212  144.6798  150.8460 LP  0  0  0  0  0  0  0  0  0  0  0  0  # atno 17342 bound_to 10162
  140.7688  143.3374  151.2280 LP  0  0  0  0  0  0  0  0  0  0  0  0  # atno 17343 bound_to 10162
  156.0982  130.3658  150.0267 LP  0  0  0  0  0  0  0  0  0  0  0  0  # atno 17370 bound_to 10713
  156.8387  130.9418  151.3633 LP  0  0  0  0  0  0  0  0  0  0  0  0  # atno 17371 bound_to 10713
  140.6854  134.4722  157.5589 LP  0  0  0  0  0  0  0  0  0  0  0  0  # atno 17394 bound_to 11000
  139.9050  134.8470  156.1743 LP  0  0  0  0  0  0  0  0  0  0  0  0  # atno 17395 bound_to 11000

$$$$
