AV-unprocessed.smi:1636|AV-procd|sdf|6543|dock4
  -GOLD-   22720 7223D 1   1.00000     0.00000
 Structure written by MMmdl.
 43 44  0  0  0  0  0  0  0  0  1 V2000
  151.8145  145.3848  159.5106 C   0  0  0  0  0  0  0  0  0  0  0  0
  151.8045  143.8610  159.6726 C   0  0  1  0  0  0  0  0  0  0  0  0
  151.8798  143.1349  158.3160 C   0  0  0  0  0  0  0  0  0  0  0  0
  151.9911  141.6909  158.5060 N   0  0  0  0  0  0  0  0  0  0  0  0
  151.7823  140.8425  157.3939 C   0  0  0  0  0  0  0  0  0  0  0  0
  150.6543  140.9738  156.5436 C   0  0  0  0  0  0  0  0  0  0  0  0
  150.5045  140.0911  155.4570 C   0  0  0  0  0  0  0  0  0  0  0  0
  151.4802  139.1001  155.2379 C   0  0  0  0  0  0  0  0  0  0  0  0
  151.3426  138.1280  154.0753 C   0  0  0  0  0  0  0  0  0  0  0  0
  150.6363  136.8950  154.4080 N   0  0  0  0  0  0  0  0  0  0  0  0
  150.9790  136.0626  155.4011 C   0  0  0  0  0  0  0  0  0  0  0  0
  151.9362  136.2442  156.1538 O   0  0  0  0  0  0  0  0  0  0  0  0
  150.1545  135.0087  155.4747 N   0  0  0  0  0  0  0  0  0  0  0  0
  150.2658  133.9291  156.4483 C   0  0  0  0  0  0  0  0  0  0  0  0
  150.7403  132.6231  155.7922 C   0  0  0  0  0  0  0  0  0  0  0  0
  149.9142  132.3142  154.6911 O   0  0  0  0  0  0  0  0  0  0  0  0
  152.5646  139.0374  156.1374 C   0  0  0  0  0  0  0  0  0  0  0  0
  152.7125  139.8800  157.1809 N   0  0  0  0  0  0  0  0  0  0  0  0
  153.0441  141.2960  159.4413 C   0  0  0  0  0  0  0  0  0  0  0  0
  152.9328  142.0929  160.7511 C   0  0  0  0  0  0  0  0  0  0  0  0
  152.9247  143.4875  160.4682 O   0  0  0  0  0  0  0  0  0  0  0  0
  150.9624  145.7218  158.9195 H   0  0  0  0  0  0  0  0  0  0  0  0
  152.7232  145.7237  159.0119 H   0  0  0  0  0  0  0  0  0  0  0  0
  151.7620  145.8798  160.4805 H   0  0  0  0  0  0  0  0  0  0  0  0
  150.8874  143.5753  160.1908 H   0  0  0  0  0  0  0  0  0  0  0  0
  150.9810  143.3715  157.7460 H   0  0  0  0  0  0  0  0  0  0  0  0
  152.7385  143.4877  157.7433 H   0  0  0  0  0  0  0  0  0  0  0  0
  149.9052  141.7364  156.6927 H   0  0  0  0  0  0  0  0  0  0  0  0
  149.6517  140.1796  154.8001 H   0  0  0  0  0  0  0  0  0  0  0  0
  150.7940  138.6277  153.2768 H   0  0  0  0  0  0  0  0  0  0  0  0
  152.3274  137.8890  153.6697 H   0  0  0  0  0  0  0  0  0  0  0  0
  149.8344  136.6603  153.8415 H   0  0  0  0  0  0  0  0  0  0  0  0
  149.3944  134.9491  154.8134 H   0  0  0  0  0  0  0  0  0  0  0  0
  150.9371  134.2198  157.2584 H   0  0  0  0  0  0  0  0  0  0  0  0
  149.2825  133.7833  156.8964 H   0  0  0  0  0  0  0  0  0  0  0  0
  151.7690  132.7181  155.4436 H   0  0  0  0  0  0  0  0  0  0  0  0
  150.7102  131.7961  156.5019 H   0  0  0  0  0  0  0  0  0  0  0  0
  149.1752  132.9034  154.6949 H   0  0  0  0  0  0  0  0  0  0  0  0
  153.3363  138.2905  156.0239 H   0  0  0  0  0  0  0  0  0  0  0  0
  152.9979  140.2332  159.6773 H   0  0  0  0  0  0  0  0  0  0  0  0
  154.0130  141.4774  158.9748 H   0  0  0  0  0  0  0  0  0  0  0  0
  152.0315  141.8155  161.2999 H   0  0  0  0  0  0  0  0  0  0  0  0
  153.7798  141.8678  161.3989 H   0  0  0  0  0  0  0  0  0  0  0  0
  1  2  1  0  0  0  0
  1 22  1  0  0  0  0
  1 23  1  0  0  0  0
  1 24  1  0  0  0  0
  2 21  1  0  0  0  0
  2  3  1  0  0  0  0
  2 25  1  0  0  0  0
  3  4  1  0  0  0  0
  3 26  1  0  0  0  0
  3 27  1  0  0  0  0
  4  5  1  0  0  0  0
  4 19  1  0  0  0  0
  5 18  1  0  0  0  0
  5  6  2  0  0  0  0
  6  7  1  0  0  0  0
  6 28  1  0  0  0  0
  7  8  2  0  0  0  0
  7 29  1  0  0  0  0
  8  9  1  0  0  0  0
  8 17  1  0  0  0  0
  9 10  1  0  0  0  0
  9 30  1  0  0  0  0
  9 31  1  0  0  0  0
 10 11  1  0  0  0  0
 10 32  1  0  0  0  0
 11 12  2  0  0  0  0
 11 13  1  0  0  0  0
 13 14  1  0  0  0  0
 13 33  1  0  0  0  0
 14 15  1  0  0  0  0
 14 34  1  0  0  0  0
 14 35  1  0  0  0  0
 15 16  1  0  0  0  0
 15 36  1  0  0  0  0
 15 37  1  0  0  0  0
 16 38  1  0  0  0  0
 17 18  2  0  0  0  0
 17 39  1  0  0  0  0
 19 20  1  0  0  0  0
 19 40  1  0  0  0  0
 19 41  1  0  0  0  0
 20 21  1  0  0  0  0
 20 42  1  0  0  0  0
 20 43  1  0  0  0  0
M  END
> <s_m_source_file>
AV-unprocessed.smi

> <i_m_source_file_index>
1636

> <i_lp_mmshare_version>
43012

> <i_f3d_flags>
0

> <s_epik_input>
W0NIM11bQ0BASF0xW0NIMl1OKFtDSDJdW0NIMl1PMSljMltjSF1bY0hdYyhbY0hdbjIpW0NIMl1bTkhdQyg9TylbTkhdW0NIMl1bQ0gyXVtPSF0=

> <s_epik_cmdline>
J2VwaWtfcHl0aG9uJywgJy1waCcsICc3LjAnLCAnLXRuJywgJzgnLCAnLW1hJywgJzIwMCcsICctbWV0YWxfYmluZGluZycsICctaW1hZScsICc8aW5maWxlLm1hZT4nLCAnLW9tYWUnLCAnPG91dGZpbGUubWFlPic=

> <r_lp_tautomer_probability>
1

> <r_epik_Ionization_Penalty>
0.00695222

> <r_epik_Ionization_Penalty_Charging>
0

> <r_epik_Ionization_Penalty_Neutral>
0.00695222

> <r_epik_State_Penalty>
0.00513345

> <r_epik_Charging_Adjusted_Penalty>
0.00513345

> <i_epik_Tot_Q>
0

> <i_epik_Tot_abs_Q>
0

> <r_epik_Metal_State_Penalty>
-0

> <b_epik_Metal_Only>
0

> <s_lp_Force_Field>
OPLS_2005

> <r_lp_Energy>
12.451

> <b_lp_Chiralities_Consistent>
1

> <s_lp_Variant>
AV-unprocessed.smi:1636-2

> <Gold.Version>
5.8.1

> <Gold.Id.Protein>
6NUR|6NUR_protein|mol2

> <Gold.PLP.Fitness>
49.5728

> <Gold.PLP.PLP>
-42.4765

> <Gold.PLP.part.hbond>
-4.0000

> <Gold.PLP.part.metal>
0.0000

> <Gold.PLP.part.buried>
-4.2022

> <Gold.PLP.part.nonpolar>
-33.1787

> <Gold.PLP.part.repulsive>
0.1529

> <Gold.PLP.ligand.clash>
0.0000

> <Gold.PLP.ligand.torsion>
0.6774

> <Gold.PLP.Chemscore.Hbond>
2.6660

> <Gold.PLP.Chemscore.CHOScore>
0.0000

> <Gold.PLP.Chemscore.Metal>
0.0000

> <Gold.Chemscore.Hbonds>
donor molecule, donor type, donor heavy atom, donor atom, acceptor molecule, acceptor atom, score
      L1  H    10    32       P1  7948  0.62
      P1  H  7997  8010       L1    18  0.50
      P1  H 10752 10765       L1    12  0.70

> <Gold.PLP.Chemscore.Internal.Correction>
0.4532

> <Gold.Rescore>
     Score         DG    S(hbond)    S(metal)    S(lipo)     H(rot)  DE(clash)    DE(int)     intcor
     14.67     -17.96       2.23        0.00     103.76       2.78       0.38       2.90       ----

> <Gold.Chemscore.Fitness>
14.6699

> <Gold.Chemscore.DG>
-17.9588

> <Gold.Chemscore.ZeroCoef>
-5.4800

> <Gold.Chemscore.Hbond>
2.2344

> <Gold.Chemscore.Metal>
0.0000

> <Gold.Chemscore.Lipo>
103.7607

> <Gold.Chemscore.Internal_Hbond>
0.0000

> <Gold.Chemscore.DEClash>
0.3840

> <Gold.Chemscore.DEInternal>
2.9049

> <Gold.Chemscore.Rot>
2.7828

> <Gold.Chemscore.Internal.Correction>
   9.000000E+99

> <Gold.Chemscore.Hbonds>
donor molecule, donor type, donor heavy atom, donor atom, acceptor molecule, acceptor atom, score
      L1  H    10    32       P1  7948  0.30
      P1  H  7997  8010       L1    18  0.02
      P1  H 10752 10765       L1    12  0.07

> <Gold.Chemscore.Hbond.Weighted>
-7.4629

> <Gold.Chemscore.Metal.Weighted>
-0.0000

> <Gold.Chemscore.Lipo.Weighted>
-12.1400

> <Gold.Chemscore.Internal_Hbond.Weighted>
0.0000

> <Gold.Chemscore.DEClash.Weighted>
0.3840

> <Gold.Chemscore.DEInternal.Weighted>
2.9049

> <Gold.Chemscore.Rot.Weighted>
7.1241

> <Gold.Chemscore.Internal.Correction.Weighted>
   9.000000E+99

> <Gold.Protein.RotatedTorsions>
[ 6907 6896 6895 6894 ] final -154.31 input  -60.11 | X-H torsion
[ 7974 7965 7964 7962 ] final -164.95 input  175.53 | X-H torsion
[ 8008 7997 7996 7995 ] final   50.03 input   59.86 | X-H torsion
[ 10167 10162 10161 10158 ] final  -24.86 input  -65.29 | X-H torsion
[ 10718 10713 10712 10709 ] final  -64.36 input   66.30 | X-H torsion
[ 10763 10752 10751 10750 ] final -152.63 input  -60.55 | X-H torsion
[ 11005 11000 10999 10996 ] final  -13.02 input  -57.11 | X-H torsion

> <Gold.Protein.ActiveResidues>
 VAL166  LYS551  ARG553  GLY616  TRP617  ASP618  TYR619  PRO620  LYS621  CYS622 
 ASP623  PHE694  ASN695  SER759  ASP760  ASP761  ALA762  ILE779  LEU786  VAL792 
 PHE793  MET794  SER795  GLU796  ALA797  LYS798  CYS799  TRP800  GLU811  SER814 

> <Gold.Protein.RotatedAtoms>
  151.2556  133.4327  159.2613 H   0  0  0  0  0  0  0  0  0  0  0  0  # atno 6907 bound_to 6896
  151.0577  134.9716  159.8254 H   0  0  0  0  0  0  0  0  0  0  0  0  # atno 6908 bound_to 6896
  152.5393  134.2508  159.8951 H   0  0  0  0  0  0  0  0  0  0  0  0  # atno 6909 bound_to 6896
  144.7283  140.2886  143.6224 H   0  0  0  0  0  0  0  0  0  0  0  0  # atno 7974 bound_to 7965
  155.4120  140.3442  155.4264 H   0  0  0  0  0  0  0  0  0  0  0  0  # atno 8008 bound_to 7997
  156.1443  140.1551  156.8903 H   0  0  0  0  0  0  0  0  0  0  0  0  # atno 8009 bound_to 7997
  154.4997  140.0818  156.7753 H   0  0  0  0  0  0  0  0  0  0  0  0  # atno 8010 bound_to 7997
  140.7287  143.4316  151.0793 H   0  0  0  0  0  0  0  0  0  0  0  0  # atno 10167 bound_to 10162
  156.0734  130.4232  150.1409 H   0  0  0  0  0  0  0  0  0  0  0  0  # atno 10718 bound_to 10713
  154.7981  135.3232  154.7616 H   0  0  0  0  0  0  0  0  0  0  0  0  # atno 10763 bound_to 10752
  153.8290  135.6881  153.4821 H   0  0  0  0  0  0  0  0  0  0  0  0  # atno 10764 bound_to 10752
  153.1684  135.4633  154.9811 H   0  0  0  0  0  0  0  0  0  0  0  0  # atno 10765 bound_to 10752
  140.7718  133.8432  155.9213 H   0  0  0  0  0  0  0  0  0  0  0  0  # atno 11005 bound_to 11000
  145.7878  139.1915  143.2120 LP  0  0  0  0  0  0  0  0  0  0  0  0  # atno 17320 bound_to 7965
  146.0781  140.7794  142.9655 LP  0  0  0  0  0  0  0  0  0  0  0  0  # atno 17321 bound_to 7965
  139.7973  143.8133  152.3159 LP  0  0  0  0  0  0  0  0  0  0  0  0  # atno 17342 bound_to 10162
  139.8138  144.7325  150.9662 LP  0  0  0  0  0  0  0  0  0  0  0  0  # atno 17343 bound_to 10162
  156.9455  130.9758  151.3508 LP  0  0  0  0  0  0  0  0  0  0  0  0  # atno 17370 bound_to 10713
  157.5817  130.8381  149.8531 LP  0  0  0  0  0  0  0  0  0  0  0  0  # atno 17371 bound_to 10713
  140.9566  134.1709  157.4686 LP  0  0  0  0  0  0  0  0  0  0  0  0  # atno 17394 bound_to 11000
  139.8755  134.9929  156.5620 LP  0  0  0  0  0  0  0  0  0  0  0  0  # atno 17395 bound_to 11000

$$$$
