AV-unprocessed.smi:21|AV-procd|sdf|122|dock9
  -GOLD-   2262015293D 1   1.00000     0.00000
 Structure written by MMmdl.
 62 65  0  0  0  0  0  0  0  0  2 V2000
  145.4949  132.0664  149.3679 C   0  0  0  0  0  0  0  0  0  0  0  0
  145.9086  131.6660  150.6641 O   0  0  0  0  0  0  0  0  0  0  0  0
  146.8748  132.5299  151.2438 C   0  0  2  0  0  0  0  0  0  0  0  0
  147.3851  131.9510  152.5593 C   0  0  0  0  0  0  0  0  0  0  0  0
  147.8427  133.1702  153.3824 C   0  0  1  0  0  0  0  0  0  0  0  0
  149.3774  133.3471  153.4293 C   0  0  0  0  0  0  0  0  0  0  0  0
  149.9689  133.0097  154.7251 N   0  0  0  0  0  0  0  0  0  0  0  0
  150.3234  131.6182  154.9967 C   0  0  0  0  0  0  0  0  0  0  0  0
  149.8600  133.8774  155.7719 C   0  0  0  0  0  0  0  0  0  0  0  0
  149.1093  133.5093  156.8451 N   0  0  0  0  0  0  0  0  0  0  0  0
  148.9378  134.3379  157.8783 C   0  0  0  0  0  0  0  0  0  0  0  0
  149.4183  135.5697  158.0462 N   0  0  0  0  0  0  0  0  0  0  0  0
  150.1859  135.9462  156.9852 C   0  0  0  0  0  0  0  0  0  0  0  0
  150.4654  135.1707  155.8225 C   0  0  0  0  0  0  0  0  0  0  0  0
  151.3000  135.8948  154.9761 N   0  0  0  0  0  0  0  0  0  0  0  0
  151.4898  137.0285  155.5924 C   0  0  0  0  0  0  0  0  0  0  0  0
  150.8426  137.1489  156.7993 N   0  0  0  0  0  0  0  0  0  0  0  0
  150.8563  138.2971  157.6866 C   0  0  0  0  0  0  0  0  0  0  0  0
  150.3888  139.6136  157.0098 C   0  0  2  0  0  0  0  0  0  0  0  0
  151.2901  140.0141  155.8129 C   0  0  0  0  0  0  0  0  0  0  0  0
  150.5388  140.3924  154.6769 O   0  0  0  0  0  0  0  0  0  0  0  0
  150.3087  140.7593  158.0532 C   0  0  2  0  0  0  0  0  0  0  0  0
  150.0127  142.1337  157.4742 C   0  0  0  0  0  0  0  0  0  0  0  0
  150.4580  143.0625  158.5968 C   0  0  0  0  0  0  0  0  0  0  0  0
  151.5687  142.4152  159.2036 O   0  0  0  0  0  0  0  0  0  0  0  0
  151.6212  141.0521  158.7939 C   0  0  0  0  0  0  0  0  0  0  0  0
  147.2185  134.3531  152.7393 N   0  3  2  0  0  0  0  0  0  0  0  0
  146.6031  135.3129  153.6810 C   0  0  0  0  0  0  0  0  0  0  0  0
  146.3008  133.8744  151.6864 C   0  0  0  0  0  0  0  0  0  0  0  0
  147.7201  132.6812  150.5695 H   0  0  0  0  0  0  0  0  0  0  0  0
  147.4491  133.0661  154.3947 H   0  0  0  0  0  0  0  0  0  0  0  0
  144.7796  131.3436  148.9754 H   0  0  0  0  0  0  0  0  0  0  0  0
  146.3396  132.1097  148.6794 H   0  0  0  0  0  0  0  0  0  0  0  0
  145.0068  133.0413  149.3857 H   0  0  0  0  0  0  0  0  0  0  0  0
  146.5640  131.4584  153.0824 H   0  0  0  0  0  0  0  0  0  0  0  0
  148.1606  131.2022  152.4047 H   0  0  0  0  0  0  0  0  0  0  0  0
  149.8301  132.7246  152.6568 H   0  0  0  0  0  0  0  0  0  0  0  0
  149.6566  134.3646  153.1612 H   0  0  0  0  0  0  0  0  0  0  0  0
  151.2457  131.5646  155.5763 H   0  0  0  0  0  0  0  0  0  0  0  0
  150.4843  131.0639  154.0719 H   0  0  0  0  0  0  0  0  0  0  0  0
  149.5346  131.1158  155.5575 H   0  0  0  0  0  0  0  0  0  0  0  0
  148.3226  133.9621  158.6826 H   0  0  0  0  0  0  0  0  0  0  0  0
  152.0982  137.8176  155.1751 H   0  0  0  0  0  0  0  0  0  0  0  0
  150.2187  138.0495  158.5350 H   0  0  0  0  0  0  0  0  0  0  0  0
  151.8649  138.4163  158.0844 H   0  0  0  0  0  0  0  0  0  0  0  0
  149.3778  139.4578  156.6291 H   0  0  0  0  0  0  0  0  0  0  0  0
  151.9145  140.8717  156.0589 H   0  0  0  0  0  0  0  0  0  0  0  0
  151.9679  139.2014  155.5496 H   0  0  0  0  0  0  0  0  0  0  0  0
  149.9512  141.0893  154.9268 H   0  0  0  0  0  0  0  0  0  0  0  0
  149.5389  140.5250  158.7906 H   0  0  0  0  0  0  0  0  0  0  0  0
  150.6148  142.3100  156.5814 H   0  0  0  0  0  0  0  0  0  0  0  0
  148.9637  142.2785  157.2140 H   0  0  0  0  0  0  0  0  0  0  0  0
  150.7211  144.0578  158.2381 H   0  0  0  0  0  0  0  0  0  0  0  0
  149.6668  143.1672  159.3402 H   0  0  0  0  0  0  0  0  0  0  0  0
  151.7681  140.4002  159.6553 H   0  0  0  0  0  0  0  0  0  0  0  0
  152.4777  140.9300  158.1295 H   0  0  0  0  0  0  0  0  0  0  0  0
  145.7930  134.8487  154.2450 H   0  0  0  0  0  0  0  0  0  0  0  0
  146.1988  136.1697  153.1413 H   0  0  0  0  0  0  0  0  0  0  0  0
  147.3452  135.6821  154.3891 H   0  0  0  0  0  0  0  0  0  0  0  0
  146.2208  134.5913  150.8688 H   0  0  0  0  0  0  0  0  0  0  0  0
  145.3045  133.7270  152.1072 H   0  0  0  0  0  0  0  0  0  0  0  0
  147.9660  134.8370  152.2624 H   0  0  0  0  0  0  0  0  0  0  0  0
  1  2  1  0  0  0  0
  1 32  1  0  0  0  0
  1 33  1  0  0  0  0
  1 34  1  0  0  0  0
  2  3  1  0  0  0  0
  3 30  1  0  0  0  0
  3 29  1  0  0  0  0
  3  4  1  0  0  0  0
  4  5  1  0  0  0  0
  4 35  1  0  0  0  0
  4 36  1  0  0  0  0
  5 31  1  0  0  0  0
  5  6  1  0  0  0  0
  5 27  1  0  0  0  0
  6  7  1  0  0  0  0
  6 37  1  0  0  0  0
  6 38  1  0  0  0  0
  7  8  1  0  0  0  0
  7  9  1  0  0  0  0
  8 39  1  0  0  0  0
  8 40  1  0  0  0  0
  8 41  1  0  0  0  0
  9 14  1  0  0  0  0
  9 10  2  0  0  0  0
 10 11  1  0  0  0  0
 11 12  2  0  0  0  0
 11 42  1  0  0  0  0
 12 13  1  0  0  0  0
 13 17  1  0  0  0  0
 13 14  2  0  0  0  0
 14 15  1  0  0  0  0
 15 16  2  0  0  0  0
 16 17  1  0  0  0  0
 16 43  1  0  0  0  0
 17 18  1  0  0  0  0
 18 19  1  0  0  0  0
 18 44  1  0  0  0  0
 18 45  1  0  0  0  0
 19 20  1  0  0  0  0
 19 22  1  0  0  0  0
 19 46  1  0  0  0  0
 20 21  1  0  0  0  0
 20 47  1  0  0  0  0
 20 48  1  0  0  0  0
 21 49  1  0  0  0  0
 22 26  1  0  0  0  0
 22 23  1  0  0  0  0
 22 50  1  0  0  0  0
 23 24  1  0  0  0  0
 23 51  1  0  0  0  0
 23 52  1  0  0  0  0
 24 25  1  0  0  0  0
 24 53  1  0  0  0  0
 24 54  1  0  0  0  0
 25 26  1  0  0  0  0
 26 55  1  0  0  0  0
 26 56  1  0  0  0  0
 27 28  1  0  0  0  0
 27 29  1  0  0  0  0
 27 62  1  0  0  0  0
 28 57  1  0  0  0  0
 28 58  1  0  0  0  0
 28 59  1  0  0  0  0
 29 60  1  0  0  0  0
 29 61  1  0  0  0  0
M  CHG  1  27   1
M  END
> <s_m_source_file>
AV-unprocessed.smi

> <i_m_source_file_index>
21

> <i_lp_mmshare_version>
43012

> <i_f3d_flags>
0

> <s_epik_input>
W0NIM11PW0NASF0xW0NIMl1bQ0BIXShOKFtDSDNdKVtDSDJdMSlbQ0gyXU4oW0NIM10pYyhuW2NIXW4yKWMoYzIzKW5bY0hdbjNbQ0gyXVtDQEhdKFtDSDJdW09IXSlbQ0BASF00W0NIMl1bQ0gyXU9bQ0gyXTQ=

> <s_epik_cmdline>
J2VwaWtfcHl0aG9uJywgJy1waCcsICc3LjAnLCAnLXRuJywgJzgnLCAnLW1hJywgJzIwMCcsICctbWV0YWxfYmluZGluZycsICctaW1hZScsICc8aW5maWxlLm1hZT4nLCAnLW9tYWUnLCAnPG91dGZpbGUubWFlPic=

> <r_lp_tautomer_probability>
1

> <r_epik_Ionization_Penalty>
0.0157465

> <r_epik_Ionization_Penalty_Charging>
0.015354

> <r_epik_Ionization_Penalty_Neutral>
0.000392529

> <r_epik_State_Penalty>
0.0120612

> <r_epik_Charging_Adjusted_Penalty>
0.0274152

> <i_epik_Tot_Q>
1

> <i_epik_Tot_abs_Q>
1

> <r_epik_Metal_State_Penalty>
0.0121253

> <b_epik_Metal_Only>
0

> <s_lp_Force_Field>
OPLS_2005

> <r_lp_Energy>
59.339

> <b_lp_Chiralities_Consistent>
1

> <s_lp_Variant>
AV-unprocessed.smi:21-2

> <Gold.Version>
5.8.1

> <Gold.Id.Protein>
6NUR|6NUR_protein|mol2

> <Gold.PLP.Fitness>
48.4310

> <Gold.PLP.PLP>
-41.3595

> <Gold.PLP.part.hbond>
-3.5594

> <Gold.PLP.part.metal>
0.0000

> <Gold.PLP.part.buried>
-4.5116

> <Gold.PLP.part.nonpolar>
-32.8706

> <Gold.PLP.part.repulsive>
0.2498

> <Gold.PLP.ligand.clash>
0.0000

> <Gold.PLP.ligand.torsion>
2.7632

> <Gold.PLP.Chemscore.Hbond>
4.0000

> <Gold.PLP.Chemscore.CHOScore>
0.0000

> <Gold.PLP.Chemscore.Metal>
0.0000

> <Gold.Chemscore.Hbonds>
donor molecule, donor type, donor heavy atom, donor atom, acceptor molecule, acceptor atom, score
      L1  H    27    62       P1  7948  2.00
      P1  H  7989  7998       L1    21  1.00
      P1  H 10752 10763       L1    15  1.00

> <Gold.PLP.Chemscore.Internal.Correction>
0.5979

> <Gold.Rescore>
     Score         DG    S(hbond)    S(metal)    S(lipo)     H(rot)  DE(clash)    DE(int)     intcor
     10.36     -14.10       1.86        0.00      87.94       3.08       1.16       2.58       ----

> <Gold.Chemscore.Fitness>
10.3585

> <Gold.Chemscore.DG>
-14.0989

> <Gold.Chemscore.ZeroCoef>
-5.4800

> <Gold.Chemscore.Hbond>
1.8575

> <Gold.Chemscore.Metal>
0.0000

> <Gold.Chemscore.Lipo>
87.9411

> <Gold.Chemscore.Internal_Hbond>
0.0000

> <Gold.Chemscore.DEClash>
1.1645

> <Gold.Chemscore.DEInternal>
2.5758

> <Gold.Chemscore.Rot>
3.0758

> <Gold.Chemscore.Internal.Correction>
   9.000000E+99

> <Gold.Chemscore.Hbonds>
donor molecule, donor type, donor heavy atom, donor atom, acceptor molecule, acceptor atom, score
      L1  H    27    62       P1  7948  0.60
      P1  H  7989  7998       L1    21  0.52
      P1  H 10752 10763       L1    15  0.24

> <Gold.Chemscore.Hbond.Weighted>
-6.2039

> <Gold.Chemscore.Metal.Weighted>
-0.0000

> <Gold.Chemscore.Lipo.Weighted>
-10.2891

> <Gold.Chemscore.Internal_Hbond.Weighted>
0.0000

> <Gold.Chemscore.DEClash.Weighted>
1.1645

> <Gold.Chemscore.DEInternal.Weighted>
2.5758

> <Gold.Chemscore.Rot.Weighted>
7.8741

> <Gold.Chemscore.Internal.Correction.Weighted>
   9.000000E+99

> <Gold.Protein.RotatedTorsions>
[ 6907 6896 6895 6894 ] final   -8.26 input  -60.11 | X-H torsion
[ 7974 7965 7964 7962 ] final  -80.60 input  175.53 | X-H torsion
[ 8008 7997 7996 7995 ] final -135.81 input   59.86 | X-H torsion
[ 10167 10162 10161 10158 ] final   37.81 input  -65.29 | X-H torsion
[ 10718 10713 10712 10709 ] final -138.68 input   66.30 | X-H torsion
[ 10763 10752 10751 10750 ] final   42.27 input  -60.55 | X-H torsion
[ 11005 11000 10999 10996 ] final   84.70 input  -57.11 | X-H torsion

> <Gold.Protein.ActiveResidues>
 VAL166  LYS551  ARG553  GLY616  TRP617  ASP618  TYR619  PRO620  LYS621  CYS622 
 ASP623  PHE694  ASN695  SER759  ASP760  ASP761  ALA762  ILE779  LEU786  VAL792 
 PHE793  MET794  SER795  GLU796  ALA797  LYS798  CYS799  TRP800  GLU811  SER814 

> <Gold.Protein.RotatedAtoms>
  151.4364  135.1015  159.9657 H   0  0  0  0  0  0  0  0  0  0  0  0  # atno 6907 bound_to 6896
  152.4938  133.8569  159.7241 H   0  0  0  0  0  0  0  0  0  0  0  0  # atno 6908 bound_to 6896
  150.9119  133.6929  159.2880 H   0  0  0  0  0  0  0  0  0  0  0  0  # atno 6909 bound_to 6896
  145.5578  140.9487  143.1464 H   0  0  0  0  0  0  0  0  0  0  0  0  # atno 7974 bound_to 7965
  155.3849  140.0496  157.3042 H   0  0  0  0  0  0  0  0  0  0  0  0  # atno 8008 bound_to 7997
  154.5064  140.2176  155.9204 H   0  0  0  0  0  0  0  0  0  0  0  0  # atno 8009 bound_to 7997
  156.1531  140.3132  155.8686 H   0  0  0  0  0  0  0  0  0  0  0  0  # atno 8010 bound_to 7997
  140.3997  144.1740  150.6133 H   0  0  0  0  0  0  0  0  0  0  0  0  # atno 10167 bound_to 10162
  156.3021  130.7434  151.1488 H   0  0  0  0  0  0  0  0  0  0  0  0  # atno 10718 bound_to 10713
  152.9887  135.6136  154.2923 H   0  0  0  0  0  0  0  0  0  0  0  0  # atno 10763 bound_to 10752
  154.2647  135.2781  155.2765 H   0  0  0  0  0  0  0  0  0  0  0  0  # atno 10764 bound_to 10752
  154.5174  135.5824  153.6710 H   0  0  0  0  0  0  0  0  0  0  0  0  # atno 10765 bound_to 10752
  139.8992  134.8235  156.2481 H   0  0  0  0  0  0  0  0  0  0  0  0  # atno 11005 bound_to 11000
  144.7498  139.7225  143.7278 LP  0  0  0  0  0  0  0  0  0  0  0  0  # atno 17320 bound_to 7965
  146.1872  139.5094  142.9828 LP  0  0  0  0  0  0  0  0  0  0  0  0  # atno 17321 bound_to 7965
  140.4753  143.2398  151.9032 LP  0  0  0  0  0  0  0  0  0  0  0  0  # atno 17342 bound_to 10162
  139.4785  144.5327  151.8643 LP  0  0  0  0  0  0  0  0  0  0  0  0  # atno 17343 bound_to 10162
  157.7370  131.0556  150.5379 LP  0  0  0  0  0  0  0  0  0  0  0  0  # atno 17370 bound_to 10713
  156.5508  130.4231  149.6109 LP  0  0  0  0  0  0  0  0  0  0  0  0  # atno 17371 bound_to 10713
  141.0241  133.7024  156.1318 LP  0  0  0  0  0  0  0  0  0  0  0  0  # atno 17394 bound_to 11000
  140.7191  134.4378  157.5576 LP  0  0  0  0  0  0  0  0  0  0  0  0  # atno 17395 bound_to 11000

$$$$
