AV-unprocessed.smi:1912|AV-procd|sdf|7748|dock1
  -GOLD-   22720 9483D 1   1.00000     0.00000
 Structure written by MMmdl.
 43 45  0  0  0  0  0  0  0  0  1 V2000
  146.8846  141.7022  154.2664 C   0  0  0  0  0  0  0  0  0  0  0  0
  145.9043  141.6243  155.2912 O   0  0  0  0  0  0  0  0  0  0  0  0
  146.2560  142.0334  156.5598 C   0  0  0  0  0  0  0  0  0  0  0  0
  145.2191  142.1558  157.5030 C   0  0  0  0  0  0  0  0  0  0  0  0
  145.4885  142.5559  158.8243 C   0  0  0  0  0  0  0  0  0  0  0  0
  146.8122  142.8514  159.2335 C   0  0  0  0  0  0  0  0  0  0  0  0
  147.1420  143.2316  160.5190 O   0  0  0  0  0  0  0  0  0  0  0  0
  146.0999  143.3765  161.4720 C   0  0  0  0  0  0  0  0  0  0  0  0
  147.8599  142.7475  158.2859 C   0  0  0  0  0  0  0  0  0  0  0  0
  149.2953  143.0567  158.7031 C   0  0  2  0  0  0  0  0  0  0  0  0
  149.4746  144.3956  159.1272 O   0  0  0  0  0  0  0  0  0  0  0  0
  150.2840  142.7313  157.5664 C   0  0  0  0  0  0  0  0  0  0  0  0
  151.3947  141.9000  158.0084 N   0  0  0  0  0  0  0  0  0  0  0  0
  151.8977  140.7965  157.4024 C   0  0  0  0  0  0  0  0  0  0  0  0
  151.3335  140.2741  156.1185 C   0  0  0  0  0  0  0  0  0  0  0  0
  152.9252  140.2120  158.0185 N   0  0  0  0  0  0  0  0  0  0  0  0
  153.1087  141.0144  159.1284 C   0  0  0  0  0  0  0  0  0  0  0  0
  154.0488  140.9260  160.1799 C   0  0  0  0  0  0  0  0  0  0  0  0
  154.0457  141.8765  161.2222 C   0  0  0  0  0  0  0  0  0  0  0  0
  153.1038  142.9257  161.2287 C   0  0  0  0  0  0  0  0  0  0  0  0
  152.1578  143.0317  160.1911 C   0  0  0  0  0  0  0  0  0  0  0  0
  152.1662  142.0817  159.1521 C   0  0  0  0  0  0  0  0  0  0  0  0
  147.5797  142.3309  156.9642 C   0  0  0  0  0  0  0  0  0  0  0  0
  146.4578  141.3387  153.3318 H   0  0  0  0  0  0  0  0  0  0  0  0
  147.7515  141.0808  154.4955 H   0  0  0  0  0  0  0  0  0  0  0  0
  147.2096  142.7305  154.1027 H   0  0  0  0  0  0  0  0  0  0  0  0
  144.2029  141.9335  157.2118 H   0  0  0  0  0  0  0  0  0  0  0  0
  144.6564  142.6250  159.5079 H   0  0  0  0  0  0  0  0  0  0  0  0
  146.5293  143.6679  162.4305 H   0  0  0  0  0  0  0  0  0  0  0  0
  145.5636  142.4387  161.6230 H   0  0  0  0  0  0  0  0  0  0  0  0
  145.3947  144.1545  161.1765 H   0  0  0  0  0  0  0  0  0  0  0  0
  149.5374  142.4471  159.5734 H   0  0  0  0  0  0  0  0  0  0  0  0
  148.9515  144.9565  158.5752 H   0  0  0  0  0  0  0  0  0  0  0  0
  149.7696  142.2157  156.7551 H   0  0  0  0  0  0  0  0  0  0  0  0
  150.6811  143.6502  157.1330 H   0  0  0  0  0  0  0  0  0  0  0  0
  151.8599  139.3705  155.8090 H   0  0  0  0  0  0  0  0  0  0  0  0
  151.4386  141.0181  155.3289 H   0  0  0  0  0  0  0  0  0  0  0  0
  150.2779  140.0307  156.2365 H   0  0  0  0  0  0  0  0  0  0  0  0
  154.7739  140.1256  160.1843 H   0  0  0  0  0  0  0  0  0  0  0  0
  154.7692  141.7999  162.0206 H   0  0  0  0  0  0  0  0  0  0  0  0
  153.1075  143.6491  162.0309 H   0  0  0  0  0  0  0  0  0  0  0  0
  151.4329  143.8321  160.1949 H   0  0  0  0  0  0  0  0  0  0  0  0
  148.3988  142.2394  156.2677 H   0  0  0  0  0  0  0  0  0  0  0  0
  1  2  1  0  0  0  0
  1 24  1  0  0  0  0
  1 25  1  0  0  0  0
  1 26  1  0  0  0  0
  2  3  1  0  0  0  0
  3 23  1  0  0  0  0
  3  4  2  0  0  0  0
  4  5  1  0  0  0  0
  4 27  1  0  0  0  0
  5  6  2  0  0  0  0
  5 28  1  0  0  0  0
  6  7  1  0  0  0  0
  6  9  1  0  0  0  0
  7  8  1  0  0  0  0
  8 29  1  0  0  0  0
  8 30  1  0  0  0  0
  8 31  1  0  0  0  0
  9 10  1  0  0  0  0
  9 23  2  0  0  0  0
 10 11  1  0  0  0  0
 10 12  1  0  0  0  0
 10 32  1  0  0  0  0
 11 33  1  0  0  0  0
 12 13  1  0  0  0  0
 12 34  1  0  0  0  0
 12 35  1  0  0  0  0
 13 22  1  0  0  0  0
 13 14  1  0  0  0  0
 14 15  1  0  0  0  0
 14 16  2  0  0  0  0
 15 36  1  0  0  0  0
 15 37  1  0  0  0  0
 15 38  1  0  0  0  0
 16 17  1  0  0  0  0
 17 22  2  0  0  0  0
 17 18  1  0  0  0  0
 18 19  2  0  0  0  0
 18 39  1  0  0  0  0
 19 20  1  0  0  0  0
 19 40  1  0  0  0  0
 20 21  2  0  0  0  0
 20 41  1  0  0  0  0
 21 22  1  0  0  0  0
 21 42  1  0  0  0  0
 23 43  1  0  0  0  0
M  END
> <s_m_source_file>
AV-unprocessed.smi

> <i_m_source_file_index>
1912

> <i_lp_mmshare_version>
43012

> <i_f3d_flags>
0

> <s_epik_input>
W0NIM11PYzFbY0hdW2NIXWMoT1tDSDNdKWMoW2NIXTEpW0NASF0oW09IXSlbQ0gyXW4oYyhuMilbQ0gzXSljKGMyMylbY0hdW2NIXVtjSF1bY0hdMw==

> <s_epik_cmdline>
J2VwaWtfcHl0aG9uJywgJy1waCcsICc3LjAnLCAnLXRuJywgJzgnLCAnLW1hJywgJzIwMCcsICctbWV0YWxfYmluZGluZycsICctaW1hZScsICc8aW5maWxlLm1hZT4nLCAnLW9tYWUnLCAnPG91dGZpbGUubWFlPic=

> <r_lp_tautomer_probability>
1

> <r_epik_Ionization_Penalty>
0.129663

> <r_epik_Ionization_Penalty_Charging>
0

> <r_epik_Ionization_Penalty_Neutral>
0.129663

> <r_epik_State_Penalty>
0.119073

> <r_epik_Charging_Adjusted_Penalty>
0.119073

> <i_epik_Tot_Q>
0

> <i_epik_Tot_abs_Q>
0

> <r_epik_Metal_State_Penalty>
0.000131867

> <b_epik_Metal_Only>
0

> <s_lp_Force_Field>
OPLS_2005

> <r_lp_Energy>
18.8247

> <b_lp_Chiralities_Consistent>
1

> <s_lp_Variant>
AV-unprocessed.smi:1912-1

> <Gold.Version>
5.8.1

> <Gold.Id.Protein>
6NUR|6NUR_protein|mol2

> <Gold.PLP.Fitness>
47.5233

> <Gold.PLP.PLP>
-40.3069

> <Gold.PLP.part.hbond>
-3.4233

> <Gold.PLP.part.metal>
0.0000

> <Gold.PLP.part.buried>
-2.0613

> <Gold.PLP.part.nonpolar>
-33.8128

> <Gold.PLP.part.repulsive>
0.1757

> <Gold.PLP.ligand.clash>
0.0000

> <Gold.PLP.ligand.torsion>
0.9637

> <Gold.PLP.Chemscore.Hbond>
3.0000

> <Gold.PLP.Chemscore.CHOScore>
0.0000

> <Gold.PLP.Chemscore.Metal>
0.0000

> <Gold.Chemscore.Hbonds>
donor molecule, donor type, donor heavy atom, donor atom, acceptor molecule, acceptor atom, score
      L1  H    11    33       P1  8029  1.00
      P1  H  6933  6944       L1     7  1.00
      P1  H  7997  8010       L1    16  0.98

> <Gold.PLP.Chemscore.Internal.Correction>
0.1438

> <Gold.Rescore>
     Score         DG    S(hbond)    S(metal)    S(lipo)     H(rot)  DE(clash)    DE(int)     intcor
     18.63     -20.11       2.53        0.00     100.39       2.17       0.54       0.94       ----

> <Gold.Chemscore.Fitness>
18.6287

> <Gold.Chemscore.DG>
-20.1087

> <Gold.Chemscore.ZeroCoef>
-5.4800

> <Gold.Chemscore.Hbond>
2.5256

> <Gold.Chemscore.Metal>
0.0000

> <Gold.Chemscore.Lipo>
100.3904

> <Gold.Chemscore.Internal_Hbond>
0.0000

> <Gold.Chemscore.DEClash>
0.5354

> <Gold.Chemscore.DEInternal>
0.9446

> <Gold.Chemscore.Rot>
2.1690

> <Gold.Chemscore.Internal.Correction>
   9.000000E+99

> <Gold.Chemscore.Hbonds>
donor molecule, donor type, donor heavy atom, donor atom, acceptor molecule, acceptor atom, score
      L1  H    11    33       P1  8029  0.90
      P1  H  6933  6944       L1     7  0.43
      P1  H  7997  8010       L1    16  0.70

> <Gold.Chemscore.Hbond.Weighted>
-8.4356

> <Gold.Chemscore.Metal.Weighted>
-0.0000

> <Gold.Chemscore.Lipo.Weighted>
-11.7457

> <Gold.Chemscore.Internal_Hbond.Weighted>
0.0000

> <Gold.Chemscore.DEClash.Weighted>
0.5354

> <Gold.Chemscore.DEInternal.Weighted>
0.9446

> <Gold.Chemscore.Rot.Weighted>
5.5526

> <Gold.Chemscore.Internal.Correction.Weighted>
   9.000000E+99

> <Gold.Protein.RotatedTorsions>
[ 6907 6896 6895 6894 ] final    3.60 input  -60.11 | X-H torsion
[ 7974 7965 7964 7962 ] final  164.30 input  175.53 | X-H torsion
[ 8008 7997 7996 7995 ] final   42.46 input   59.86 | X-H torsion
[ 10167 10162 10161 10158 ] final   22.30 input  -65.29 | X-H torsion
[ 10718 10713 10712 10709 ] final -149.53 input   66.30 | X-H torsion
[ 10763 10752 10751 10750 ] final  151.78 input  -60.55 | X-H torsion
[ 11005 11000 10999 10996 ] final  110.39 input  -57.11 | X-H torsion

> <Gold.Protein.ActiveResidues>
 VAL166  LYS551  ARG553  GLY616  TRP617  ASP618  TYR619  PRO620  LYS621  CYS622 
 ASP623  PHE694  ASN695  SER759  ASP760  ASP761  ALA762  ILE779  LEU786  VAL792 
 PHE793  MET794  SER795  GLU796  ALA797  LYS798  CYS799  TRP800  GLU811  SER814 

> <Gold.Protein.RotatedAtoms>
  151.6277  135.1026  160.0114 H   0  0  0  0  0  0  0  0  0  0  0  0  # atno 6907 bound_to 6896
  152.4123  133.6979  159.6417 H   0  0  0  0  0  0  0  0  0  0  0  0  # atno 6908 bound_to 6896
  150.8013  133.8519  159.3248 H   0  0  0  0  0  0  0  0  0  0  0  0  # atno 6909 bound_to 6896
  144.7551  139.8306  143.6352 H   0  0  0  0  0  0  0  0  0  0  0  0  # atno 7974 bound_to 7965
  155.2866  140.3376  155.4255 H   0  0  0  0  0  0  0  0  0  0  0  0  # atno 8008 bound_to 7997
  156.2065  140.1753  156.7828 H   0  0  0  0  0  0  0  0  0  0  0  0  # atno 8009 bound_to 7997
  154.5628  140.0684  156.8830 H   0  0  0  0  0  0  0  0  0  0  0  0  # atno 8010 bound_to 7997
  140.5359  143.9761  150.6491 H   0  0  0  0  0  0  0  0  0  0  0  0  # atno 10167 bound_to 10162
  156.4343  130.8091  151.2319 H   0  0  0  0  0  0  0  0  0  0  0  0  # atno 10718 bound_to 10713
  154.1093  135.2840  155.3234 H   0  0  0  0  0  0  0  0  0  0  0  0  # atno 10763 bound_to 10752
  154.6501  135.5372  153.7894 H   0  0  0  0  0  0  0  0  0  0  0  0  # atno 10764 bound_to 10752
  153.0351  135.6508  154.1253 H   0  0  0  0  0  0  0  0  0  0  0  0  # atno 10765 bound_to 10752
  139.8881  134.9483  156.6272 H   0  0  0  0  0  0  0  0  0  0  0  0  # atno 11005 bound_to 11000
  146.1551  139.4647  143.0024 LP  0  0  0  0  0  0  0  0  0  0  0  0  # atno 17320 bound_to 7965
  145.6807  141.0192  143.1608 LP  0  0  0  0  0  0  0  0  0  0  0  0  # atno 17321 bound_to 7965
  140.3149  143.3174  152.0842 LP  0  0  0  0  0  0  0  0  0  0  0  0  # atno 17342 bound_to 10162
  139.4971  144.6612  151.6460 LP  0  0  0  0  0  0  0  0  0  0  0  0  # atno 17343 bound_to 10162
  157.7507  131.0188  150.3642 LP  0  0  0  0  0  0  0  0  0  0  0  0  # atno 17370 bound_to 10713
  156.3986  130.3911  149.6977 LP  0  0  0  0  0  0  0  0  0  0  0  0  # atno 17371 bound_to 10713
  140.7694  133.8751  155.8480 LP  0  0  0  0  0  0  0  0  0  0  0  0  # atno 17394 bound_to 11000
  140.9854  134.1349  157.4456 LP  0  0  0  0  0  0  0  0  0  0  0  0  # atno 17395 bound_to 11000

$$$$
