AV-unprocessed.smi:280|AV-procd|sdf|2100|dock6
  -GOLD-   2262021393D 1   1.00000     0.00000
 Structure written by MMmdl.
 59 62  0  0  0  0  0  0  0  0  2 V2000
  147.0391  135.0297  154.6912 C   0  0  0  0  0  0  0  0  0  0  0  0
  146.4766  136.3455  154.1142 C   0  0  1  0  0  0  0  0  0  0  0  0
  147.5190  137.4595  154.3653 C   0  0  0  0  0  0  0  0  0  0  0  0
  147.1439  138.7205  153.7379 N   0  0  0  0  0  0  0  0  0  0  0  0
  147.8461  139.8008  154.1661 C   0  0  0  0  0  0  0  0  0  0  0  0
  147.3678  141.0539  153.9407 N   0  0  0  0  0  0  0  0  0  0  0  0
  148.0528  142.1233  154.3566 C   0  0  0  0  0  0  0  0  0  0  0  0
  149.2162  142.1662  155.0079 N   0  0  0  0  0  0  0  0  0  0  0  0
  149.7004  140.9132  155.2422 C   0  0  0  0  0  0  0  0  0  0  0  0
  149.0853  139.6880  154.8581 C   0  0  0  0  0  0  0  0  0  0  0  0
  149.8633  138.6166  155.2802 N   0  0  0  0  0  0  0  0  0  0  0  0
  150.8815  139.1760  155.8748 C   0  0  0  0  0  0  0  0  0  0  0  0
  150.8696  140.5527  155.8907 N   0  0  0  0  0  0  0  0  0  0  0  0
  151.8674  141.4271  156.4891 C   0  0  0  0  0  0  0  0  0  0  0  0
  151.7303  141.5766  158.0177 C   0  0  0  0  0  0  0  0  0  0  0  0
  152.0661  140.2495  158.7201 C   0  0  0  0  0  0  0  0  0  0  0  0
  153.3695  139.8114  158.3941 O   0  0  0  0  0  0  0  0  0  0  0  0
  152.3887  142.8193  158.6324 C   0  0  0  0  0  0  0  0  0  0  0  0
  151.1765  143.1926  159.3215 O   0  0  0  0  0  0  0  0  0  0  0  0
  150.4418  142.2487  158.5139 C   0  0  0  0  0  0  0  0  0  0  0  0
  146.8690  138.6092  152.3112 C   0  0  0  0  0  0  0  0  0  0  0  0
  145.7803  137.5599  152.0651 C   0  0  0  0  0  0  0  0  0  0  0  0
  146.1271  136.2407  152.6615 N   0  3  2  0  0  0  0  0  0  0  0  0
  145.0859  135.2199  152.3409 C   0  0  0  0  0  0  0  0  0  0  0  0
  145.3872  134.4362  151.0396 C   0  0  0  0  0  0  0  0  0  0  0  0
  146.7572  133.7353  151.0677 C   0  0  0  0  0  0  0  0  0  0  0  0
  144.2736  133.4091  150.7733 C   0  0  0  0  0  0  0  0  0  0  0  0
  145.3751  135.3335  149.9469 O   0  0  0  0  0  0  0  0  0  0  0  0
  147.3367  135.1637  155.7316 H   0  0  0  0  0  0  0  0  0  0  0  0
  147.9227  134.7031  154.1426 H   0  0  0  0  0  0  0  0  0  0  0  0
  146.3200  134.2126  154.6821 H   0  0  0  0  0  0  0  0  0  0  0  0
  145.5652  136.6044  154.6561 H   0  0  0  0  0  0  0  0  0  0  0  0
  147.6612  137.5829  155.4385 H   0  0  0  0  0  0  0  0  0  0  0  0
  148.4863  137.1580  153.9600 H   0  0  0  0  0  0  0  0  0  0  0  0
  147.6039  143.0809  154.1376 H   0  0  0  0  0  0  0  0  0  0  0  0
  151.6720  138.5928  156.3240 H   0  0  0  0  0  0  0  0  0  0  0  0
  152.8584  141.0573  156.2240 H   0  0  0  0  0  0  0  0  0  0  0  0
  151.7828  142.4001  156.0034 H   0  0  0  0  0  0  0  0  0  0  0  0
  152.0156  140.3651  159.8032 H   0  0  0  0  0  0  0  0  0  0  0  0
  151.3517  139.4663  158.4671 H   0  0  0  0  0  0  0  0  0  0  0  0
  153.6341  139.1574  159.0230 H   0  0  0  0  0  0  0  0  0  0  0  0
  153.2088  142.5985  159.3168 H   0  0  0  0  0  0  0  0  0  0  0  0
  152.6862  143.5717  157.9002 H   0  0  0  0  0  0  0  0  0  0  0  0
  149.8706  142.7533  157.7335 H   0  0  0  0  0  0  0  0  0  0  0  0
  149.7993  141.5970  159.1074 H   0  0  0  0  0  0  0  0  0  0  0  0
  146.5422  139.5711  151.9133 H   0  0  0  0  0  0  0  0  0  0  0  0
  147.7829  138.3324  151.7835 H   0  0  0  0  0  0  0  0  0  0  0  0
  144.8399  137.9115  152.4932 H   0  0  0  0  0  0  0  0  0  0  0  0
  145.6183  137.4562  150.9922 H   0  0  0  0  0  0  0  0  0  0  0  0
  144.9633  134.5132  153.1594 H   0  0  0  0  0  0  0  0  0  0  0  0
  144.1077  135.6978  152.2606 H   0  0  0  0  0  0  0  0  0  0  0  0
  146.8207  133.0279  151.8950 H   0  0  0  0  0  0  0  0  0  0  0  0
  147.5756  134.4476  151.1748 H   0  0  0  0  0  0  0  0  0  0  0  0
  146.9346  133.1775  150.1473 H   0  0  0  0  0  0  0  0  0  0  0  0
  144.2210  132.6697  151.5731 H   0  0  0  0  0  0  0  0  0  0  0  0
  144.4409  132.8699  149.8399 H   0  0  0  0  0  0  0  0  0  0  0  0
  143.2961  133.8883  150.7045 H   0  0  0  0  0  0  0  0  0  0  0  0
  145.6128  134.8590  149.1643 H   0  0  0  0  0  0  0  0  0  0  0  0
  146.9706  135.9348  152.1976 H   0  0  0  0  0  0  0  0  0  0  0  0
  1  2  1  0  0  0  0
  1 29  1  0  0  0  0
  1 30  1  0  0  0  0
  1 31  1  0  0  0  0
  2 23  1  0  0  0  0
  2  3  1  0  0  0  0
  2 32  1  0  0  0  0
  3  4  1  0  0  0  0
  3 33  1  0  0  0  0
  3 34  1  0  0  0  0
  4  5  1  0  0  0  0
  4 21  1  0  0  0  0
  5 10  1  0  0  0  0
  5  6  2  0  0  0  0
  6  7  1  0  0  0  0
  7  8  2  0  0  0  0
  7 35  1  0  0  0  0
  8  9  1  0  0  0  0
  9 13  1  0  0  0  0
  9 10  2  0  0  0  0
 10 11  1  0  0  0  0
 11 12  2  0  0  0  0
 12 13  1  0  0  0  0
 12 36  1  0  0  0  0
 13 14  1  0  0  0  0
 14 15  1  0  0  0  0
 14 37  1  0  0  0  0
 14 38  1  0  0  0  0
 15 20  1  0  0  0  0
 15 16  1  0  0  0  0
 15 18  1  0  0  0  0
 16 17  1  0  0  0  0
 16 39  1  0  0  0  0
 16 40  1  0  0  0  0
 17 41  1  0  0  0  0
 18 19  1  0  0  0  0
 18 42  1  0  0  0  0
 18 43  1  0  0  0  0
 19 20  1  0  0  0  0
 20 44  1  0  0  0  0
 20 45  1  0  0  0  0
 21 22  1  0  0  0  0
 21 46  1  0  0  0  0
 21 47  1  0  0  0  0
 22 23  1  0  0  0  0
 22 48  1  0  0  0  0
 22 49  1  0  0  0  0
 23 24  1  0  0  0  0
 23 59  1  0  0  0  0
 24 25  1  0  0  0  0
 24 50  1  0  0  0  0
 24 51  1  0  0  0  0
 25 26  1  0  0  0  0
 25 27  1  0  0  0  0
 25 28  1  0  0  0  0
 26 52  1  0  0  0  0
 26 53  1  0  0  0  0
 26 54  1  0  0  0  0
 27 55  1  0  0  0  0
 27 56  1  0  0  0  0
 27 57  1  0  0  0  0
 28 58  1  0  0  0  0
M  CHG  1  23   1
M  END
> <s_m_source_file>
AV-unprocessed.smi

> <i_m_source_file_index>
280

> <i_lp_mmshare_version>
43012

> <i_f3d_flags>
0

> <s_epik_input>
W0NIM11DKFtDSDNdKShbT0hdKVtDSDJdTjFbQ0gyXVtDSDJdTihbQ0gyXVtDQEhdMVtDSDNdKWMobltjSF1uMiljKGMyMyluW2NIXW4zW0NIMl1DNChbQ0gyXVtPSF0pW0NIMl1PW0NIMl00

> <s_epik_cmdline>
J2VwaWtfcHl0aG9uJywgJy1waCcsICc3LjAnLCAnLXRuJywgJzgnLCAnLW1hJywgJzIwMCcsICctbWV0YWxfYmluZGluZycsICctaW1hZScsICc8aW5maWxlLm1hZT4nLCAnLW9tYWUnLCAnPG91dGZpbGUubWFlPic=

> <r_lp_tautomer_probability>
1

> <r_epik_Ionization_Penalty>
0.00179402

> <r_epik_Ionization_Penalty_Charging>
0.00173996

> <r_epik_Ionization_Penalty_Neutral>
5.40607e-05

> <r_epik_State_Penalty>
-0

> <r_epik_Charging_Adjusted_Penalty>
0.00173996

> <i_epik_Tot_Q>
1

> <i_epik_Tot_abs_Q>
1

> <r_epik_Metal_State_Penalty>
-0

> <b_epik_Metal_Only>
0

> <s_lp_Force_Field>
OPLS_2005

> <r_lp_Energy>
52.0143

> <b_lp_Chiralities_Consistent>
1

> <s_lp_Variant>
AV-unprocessed.smi:280-4

> <Gold.Version>
5.8.1

> <Gold.Id.Protein>
6NUR|6NUR_protein|mol2

> <Gold.PLP.Fitness>
46.4455

> <Gold.PLP.PLP>
-34.0250

> <Gold.PLP.part.hbond>
-3.1505

> <Gold.PLP.part.metal>
0.0000

> <Gold.PLP.part.buried>
-3.3666

> <Gold.PLP.part.nonpolar>
-29.6902

> <Gold.PLP.part.repulsive>
3.5147

> <Gold.PLP.ligand.clash>
0.0000

> <Gold.PLP.ligand.torsion>
1.2195

> <Gold.PLP.Chemscore.Hbond>
3.9520

> <Gold.PLP.Chemscore.CHOScore>
0.5199

> <Gold.PLP.Chemscore.Metal>
0.0000

> <Gold.Chemscore.Hbonds>
donor molecule, donor type, donor heavy atom, donor atom, acceptor molecule, acceptor atom, score
      L1  H    23    59       P1  7948  1.95
      L1  H    28    58       P1  7921  1.00
      P1  H  7997  8010       L1    17  1.00
      L1  C     7    35       P1  8028  0.50

> <Gold.PLP.Chemscore.Internal.Correction>
1.4440

> <Gold.Rescore>
     Score         DG    S(hbond)    S(metal)    S(lipo)     H(rot)  DE(clash)    DE(int)     intcor
      8.62     -15.26       2.76        0.00      83.99       3.63       3.97       2.67       ----

> <Gold.Chemscore.Fitness>
8.6204

> <Gold.Chemscore.DG>
-15.2555

> <Gold.Chemscore.ZeroCoef>
-5.4800

> <Gold.Chemscore.Hbond>
2.7639

> <Gold.Chemscore.Metal>
0.0000

> <Gold.Chemscore.Lipo>
83.9879

> <Gold.Chemscore.Internal_Hbond>
0.0000

> <Gold.Chemscore.DEClash>
3.9661

> <Gold.Chemscore.DEInternal>
2.6691

> <Gold.Chemscore.Rot>
3.6260

> <Gold.Chemscore.Internal.Correction>
   9.000000E+99

> <Gold.Chemscore.Hbonds>
donor molecule, donor type, donor heavy atom, donor atom, acceptor molecule, acceptor atom, score
      L1  H    23    59       P1  7948  0.89
      L1  H    28    58       P1  7921  0.94
      P1  H  7997  8010       L1    17  0.85

> <Gold.Chemscore.Hbond.Weighted>
-9.2313

> <Gold.Chemscore.Metal.Weighted>
-0.0000

> <Gold.Chemscore.Lipo.Weighted>
-9.8266

> <Gold.Chemscore.Internal_Hbond.Weighted>
0.0000

> <Gold.Chemscore.DEClash.Weighted>
3.9661

> <Gold.Chemscore.DEInternal.Weighted>
2.6691

> <Gold.Chemscore.Rot.Weighted>
9.2825

> <Gold.Chemscore.Internal.Correction.Weighted>
   9.000000E+99

> <Gold.Protein.RotatedTorsions>
[ 6907 6896 6895 6894 ] final  138.02 input  -60.11 | X-H torsion
[ 7974 7965 7964 7962 ] final -117.28 input  175.53 | X-H torsion
[ 8008 7997 7996 7995 ] final   35.26 input   59.86 | X-H torsion
[ 10167 10162 10161 10158 ] final  176.21 input  -65.29 | X-H torsion
[ 10718 10713 10712 10709 ] final  -31.52 input   66.30 | X-H torsion
[ 10763 10752 10751 10750 ] final   89.38 input  -60.55 | X-H torsion
[ 11005 11000 10999 10996 ] final  -62.19 input  -57.11 | X-H torsion

> <Gold.Protein.ActiveResidues>
 VAL166  LYS551  ARG553  GLY616  TRP617  ASP618  TYR619  PRO620  LYS621  CYS622 
 ASP623  PHE694  ASN695  SER759  ASP760  ASP761  ALA762  ILE779  LEU786  VAL792 
 PHE793  MET794  SER795  GLU796  ALA797  LYS798  CYS799  TRP800  GLU811  SER814 

> <Gold.Protein.RotatedAtoms>
  152.2714  133.5386  159.5441 H   0  0  0  0  0  0  0  0  0  0  0  0  # atno 6907 bound_to 6896
  150.7161  134.0692  159.3867 H   0  0  0  0  0  0  0  0  0  0  0  0  # atno 6908 bound_to 6896
  151.8607  135.0525  160.0520 H   0  0  0  0  0  0  0  0  0  0  0  0  # atno 6909 bound_to 6896
  145.0870  140.8464  143.4005 H   0  0  0  0  0  0  0  0  0  0  0  0  # atno 7974 bound_to 7965
  155.1683  140.3289  155.4398 H   0  0  0  0  0  0  0  0  0  0  0  0  # atno 8008 bound_to 7997
  156.2519  140.1948  156.6737 H   0  0  0  0  0  0  0  0  0  0  0  0  # atno 8009 bound_to 7997
  154.6356  140.0577  156.9771 H   0  0  0  0  0  0  0  0  0  0  0  0  # atno 8010 bound_to 7997
  139.5206  144.2942  152.0437 H   0  0  0  0  0  0  0  0  0  0  0  0  # atno 10167 bound_to 10162
  156.3862  130.4365  149.7430 H   0  0  0  0  0  0  0  0  0  0  0  0  # atno 10718 bound_to 10713
  153.1865  135.4472  155.0094 H   0  0  0  0  0  0  0  0  0  0  0  0  # atno 10763 bound_to 10752
  154.8063  135.3276  154.7424 H   0  0  0  0  0  0  0  0  0  0  0  0  # atno 10764 bound_to 10752
  153.7883  135.6972  153.4931 H   0  0  0  0  0  0  0  0  0  0  0  0  # atno 10765 bound_to 10752
  141.1351  133.6637  156.5490 H   0  0  0  0  0  0  0  0  0  0  0  0  # atno 11005 bound_to 11000
  145.1111  139.2757  143.5637 LP  0  0  0  0  0  0  0  0  0  0  0  0  # atno 17320 bound_to 7965
  146.3531  140.0707  142.8623 LP  0  0  0  0  0  0  0  0  0  0  0  0  # atno 17321 bound_to 7965
  140.2392  144.4288  150.6267 LP  0  0  0  0  0  0  0  0  0  0  0  0  # atno 17342 bound_to 10162
  140.6302  143.2186  151.6511 LP  0  0  0  0  0  0  0  0  0  0  0  0  # atno 17343 bound_to 10162
  156.4501  130.7902  151.2924 LP  0  0  0  0  0  0  0  0  0  0  0  0  # atno 17370 bound_to 10713
  157.7496  131.0098  150.3281 LP  0  0  0  0  0  0  0  0  0  0  0  0  # atno 17371 bound_to 10713
  140.4079  134.7298  157.4818 LP  0  0  0  0  0  0  0  0  0  0  0  0  # atno 17394 bound_to 11000
  140.0448  134.6215  155.8934 LP  0  0  0  0  0  0  0  0  0  0  0  0  # atno 17395 bound_to 11000

$$$$
