AV-unprocessed.smi:1295|AV-procd|sdf|5402|dock5
  -GOLD-   22720 4563D 1   1.00000     0.00000
 Structure written by MMmdl.
 43 44  0  0  0  0  0  0  0  0  1 V2000
  151.3492  143.2052  157.1097 C   0  0  0  0  0  0  0  0  0  0  0  0
  151.0289  141.8922  156.4278 C   0  0  0  0  0  0  0  0  0  0  0  0
  151.7254  140.8140  156.5776 N   0  0  0  0  0  0  0  0  0  0  0  0
  151.3326  139.6572  155.8901 C   0  0  0  0  0  0  0  0  0  0  0  0
  152.2057  138.4337  156.1123 C   0  0  0  0  0  0  0  0  0  0  0  0
  150.2365  139.6461  155.0757 C   0  0  0  0  0  0  0  0  0  0  0  0
  149.7889  138.4035  154.3088 C   0  0  0  0  0  0  0  0  0  0  0  0
  149.3674  137.2129  155.1730 C   0  0  0  0  0  0  0  0  0  0  0  0
  149.5216  137.2492  156.3936 O   0  0  0  0  0  0  0  0  0  0  0  0
  148.8320  136.1691  154.5216 N   0  0  0  0  0  0  0  0  0  0  0  0
  148.3240  134.9372  155.1281 C   0  0  1  0  0  0  0  0  0  0  0  0
  146.9545  134.5819  154.5149 C   0  0  0  0  0  0  0  0  0  0  0  0
  147.0736  134.1286  153.0491 C   0  0  0  0  0  0  0  0  0  0  0  0
  148.0630  132.9622  152.9065 C   0  0  0  0  0  0  0  0  0  0  0  0
  149.4371  133.3156  153.4987 C   0  0  0  0  0  0  0  0  0  0  0  0
  149.3231  133.7628  154.9710 C   0  0  1  0  0  0  0  0  0  0  0  0
  150.7032  134.0602  155.5818 C   0  0  0  0  0  0  0  0  0  0  0  0
  149.4466  140.8823  154.9146 C   0  0  0  0  0  0  0  0  0  0  0  0
  148.4458  140.9845  154.2071 O   0  0  0  0  0  0  0  0  0  0  0  0
  149.9003  141.9480  155.6117 N   0  0  0  0  0  0  0  0  0  0  0  0
  149.3959  142.8188  155.5316 H   0  0  0  0  0  0  0  0  0  0  0  0
  152.3439  143.5449  156.8206 H   0  0  0  0  0  0  0  0  0  0  0  0
  151.3304  143.0795  158.1924 H   0  0  0  0  0  0  0  0  0  0  0  0
  150.6320  143.9832  156.8436 H   0  0  0  0  0  0  0  0  0  0  0  0
  151.6342  137.6362  156.5876 H   0  0  0  0  0  0  0  0  0  0  0  0
  153.0548  138.6653  156.7566 H   0  0  0  0  0  0  0  0  0  0  0  0
  152.5993  138.0631  155.1657 H   0  0  0  0  0  0  0  0  0  0  0  0
  148.9598  138.6830  153.6577 H   0  0  0  0  0  0  0  0  0  0  0  0
  150.5719  138.0668  153.6288 H   0  0  0  0  0  0  0  0  0  0  0  0
  148.7542  136.2373  153.5173 H   0  0  0  0  0  0  0  0  0  0  0  0
  148.1640  135.1013  156.1953 H   0  0  0  0  0  0  0  0  0  0  0  0
  146.4995  133.7805  155.0986 H   0  0  0  0  0  0  0  0  0  0  0  0
  146.2754  135.4322  154.5895 H   0  0  0  0  0  0  0  0  0  0  0  0
  146.0943  133.8322  152.6727 H   0  0  0  0  0  0  0  0  0  0  0  0
  147.4002  134.9640  152.4285 H   0  0  0  0  0  0  0  0  0  0  0  0
  147.6643  132.0820  153.4122 H   0  0  0  0  0  0  0  0  0  0  0  0
  148.1697  132.6923  151.8556 H   0  0  0  0  0  0  0  0  0  0  0  0
  150.0964  132.4503  153.4231 H   0  0  0  0  0  0  0  0  0  0  0  0
  149.8991  134.1048  152.9042 H   0  0  0  0  0  0  0  0  0  0  0  0
  148.9120  132.9211  155.5304 H   0  0  0  0  0  0  0  0  0  0  0  0
  151.2220  134.8536  155.0433 H   0  0  0  0  0  0  0  0  0  0  0  0
  151.3398  133.1758  155.5560 H   0  0  0  0  0  0  0  0  0  0  0  0
  150.6114  134.3695  156.6233 H   0  0  0  0  0  0  0  0  0  0  0  0
  1  2  1  0  0  0  0
  1 22  1  0  0  0  0
  1 23  1  0  0  0  0
  1 24  1  0  0  0  0
  2 20  1  0  0  0  0
  2  3  2  0  0  0  0
  3  4  1  0  0  0  0
  4  5  1  0  0  0  0
  4  6  2  0  0  0  0
  5 25  1  0  0  0  0
  5 26  1  0  0  0  0
  5 27  1  0  0  0  0
  6  7  1  0  0  0  0
  6 18  1  0  0  0  0
  7  8  1  0  0  0  0
  7 28  1  0  0  0  0
  7 29  1  0  0  0  0
  8  9  2  0  0  0  0
  8 10  1  0  0  0  0
 10 11  1  0  0  0  0
 10 30  1  0  0  0  0
 11 16  1  0  0  0  0
 11 12  1  0  0  0  0
 11 31  1  0  0  0  0
 12 13  1  0  0  0  0
 12 32  1  0  0  0  0
 12 33  1  0  0  0  0
 13 14  1  0  0  0  0
 13 34  1  0  0  0  0
 13 35  1  0  0  0  0
 14 15  1  0  0  0  0
 14 36  1  0  0  0  0
 14 37  1  0  0  0  0
 15 16  1  0  0  0  0
 15 38  1  0  0  0  0
 15 39  1  0  0  0  0
 16 17  1  0  0  0  0
 16 40  1  0  0  0  0
 17 41  1  0  0  0  0
 17 42  1  0  0  0  0
 17 43  1  0  0  0  0
 18 19  2  0  0  0  0
 18 20  1  0  0  0  0
 20 21  1  0  0  0  0
M  END
> <s_m_source_file>
AV-unprocessed.smi

> <i_m_source_file_index>
1295

> <i_lp_mmshare_version>
43012

> <i_f3d_flags>
0

> <s_epik_input>
W0NIM11jMW5jKFtDSDNdKWMoYyg9TylbbkhdMSlbQ0gyXUMoPU8pW05IXVtDQEBIXTJbQ0gyXVtDSDJdW0NIMl1bQ0gyXVtDQEhdMltDSDNd

> <s_epik_cmdline>
J2VwaWtfcHl0aG9uJywgJy1waCcsICc3LjAnLCAnLXRuJywgJzgnLCAnLW1hJywgJzIwMCcsICctbWV0YWxfYmluZGluZycsICctaW1hZScsICc8aW5maWxlLm1hZT4nLCAnLW9tYWUnLCAnPG91dGZpbGUubWFlPic=

> <r_lp_tautomer_probability>
0.839158

> <r_epik_Ionization_Penalty>
0.00037085

> <r_epik_Ionization_Penalty_Charging>
0.000336002

> <r_epik_Ionization_Penalty_Neutral>
3.48485e-05

> <r_epik_State_Penalty>
0.09125

> <r_epik_Charging_Adjusted_Penalty>
0.091586

> <i_epik_Tot_Q>
0

> <i_epik_Tot_abs_Q>
0

> <r_epik_Metal_State_Penalty>
0.251445

> <b_epik_Metal_Only>
0

> <s_lp_Force_Field>
OPLS_2005

> <r_lp_Energy>
11.7893

> <b_lp_Chiralities_Consistent>
1

> <s_lp_Variant>
AV-unprocessed.smi:1295-2

> <Gold.Version>
5.8.1

> <Gold.Id.Protein>
6NUR|6NUR_protein|mol2

> <Gold.PLP.Fitness>
36.0041

> <Gold.PLP.PLP>
-30.5130

> <Gold.PLP.part.hbond>
-2.0000

> <Gold.PLP.part.metal>
0.0000

> <Gold.PLP.part.buried>
-2.3456

> <Gold.PLP.part.nonpolar>
-25.5928

> <Gold.PLP.part.repulsive>
0.3133

> <Gold.PLP.ligand.clash>
0.0000

> <Gold.PLP.ligand.torsion>
0.2585

> <Gold.PLP.Chemscore.Hbond>
2.0000

> <Gold.PLP.Chemscore.CHOScore>
0.0000

> <Gold.PLP.Chemscore.Metal>
0.0000

> <Gold.Chemscore.Hbonds>
donor molecule, donor type, donor heavy atom, donor atom, acceptor molecule, acceptor atom, score
      L1  H    10    30       P1  7948  1.00
      L1  H    20    21       P1  8028  1.00

> <Gold.PLP.Chemscore.Internal.Correction>
0.0081

> <Gold.Rescore>
     Score         DG    S(hbond)    S(metal)    S(lipo)     H(rot)  DE(clash)    DE(int)     intcor
     14.15     -16.25       2.00        0.00      67.41       1.48       0.19       1.91       ----

> <Gold.Chemscore.Fitness>
14.1475

> <Gold.Chemscore.DG>
-16.2489

> <Gold.Chemscore.ZeroCoef>
-5.4800

> <Gold.Chemscore.Hbond>
1.9975

> <Gold.Chemscore.Metal>
0.0000

> <Gold.Chemscore.Lipo>
67.4050

> <Gold.Chemscore.Internal_Hbond>
0.0000

> <Gold.Chemscore.DEClash>
0.1898

> <Gold.Chemscore.DEInternal>
1.9115

> <Gold.Chemscore.Rot>
1.4801

> <Gold.Chemscore.Internal.Correction>
   9.000000E+99

> <Gold.Chemscore.Hbonds>
donor molecule, donor type, donor heavy atom, donor atom, acceptor molecule, acceptor atom, score
      L1  H    10    30       P1  7948  1.00
      L1  H    20    21       P1  8028  0.98

> <Gold.Chemscore.Hbond.Weighted>
-6.6716

> <Gold.Chemscore.Metal.Weighted>
-0.0000

> <Gold.Chemscore.Lipo.Weighted>
-7.8864

> <Gold.Chemscore.Internal_Hbond.Weighted>
0.0000

> <Gold.Chemscore.DEClash.Weighted>
0.1898

> <Gold.Chemscore.DEInternal.Weighted>
1.9115

> <Gold.Chemscore.Rot.Weighted>
3.7891

> <Gold.Chemscore.Internal.Correction.Weighted>
   9.000000E+99

> <Gold.Protein.RotatedTorsions>
[ 6907 6896 6895 6894 ] final  135.94 input  -60.11 | X-H torsion
[ 7974 7965 7964 7962 ] final  107.81 input  175.53 | X-H torsion
[ 8008 7997 7996 7995 ] final  -85.25 input   59.86 | X-H torsion
[ 10167 10162 10161 10158 ] final  156.67 input  -65.29 | X-H torsion
[ 10718 10713 10712 10709 ] final   17.01 input   66.30 | X-H torsion
[ 10763 10752 10751 10750 ] final  -48.00 input  -60.55 | X-H torsion
[ 11005 11000 10999 10996 ] final   13.41 input  -57.11 | X-H torsion

> <Gold.Protein.ActiveResidues>
 VAL166  LYS551  ARG553  GLY616  TRP617  ASP618  TYR619  PRO620  LYS621  CYS622 
 ASP623  PHE694  ASN695  SER759  ASP760  ASP761  ALA762  ILE779  LEU786  VAL792 
 PHE793  MET794  SER795  GLU796  ALA797  LYS798  CYS799  TRP800  GLU811  SER814 

> <Gold.Protein.RotatedAtoms>
  152.2949  133.5597  159.5580 H   0  0  0  0  0  0  0  0  0  0  0  0  # atno 6907 bound_to 6896
  150.7251  134.0376  159.3763 H   0  0  0  0  0  0  0  0  0  0  0  0  # atno 6908 bound_to 6896
  151.8279  135.0631  160.0484 H   0  0  0  0  0  0  0  0  0  0  0  0  # atno 6909 bound_to 6896
  145.2888  139.2607  143.3876 H   0  0  0  0  0  0  0  0  0  0  0  0  # atno 7974 bound_to 7965
  154.6386  140.0594  156.9819 H   0  0  0  0  0  0  0  0  0  0  0  0  # atno 8008 bound_to 7997
  155.1552  140.3277  155.4404 H   0  0  0  0  0  0  0  0  0  0  0  0  # atno 8009 bound_to 7997
  156.2520  140.1940  156.6662 H   0  0  0  0  0  0  0  0  0  0  0  0  # atno 8010 bound_to 7997
  139.4821  144.4988  151.8200 H   0  0  0  0  0  0  0  0  0  0  0  0  # atno 10167 bound_to 10162
  157.0760  130.6368  149.5816 H   0  0  0  0  0  0  0  0  0  0  0  0  # atno 10718 bound_to 10713
  154.0707  135.6605  153.4824 H   0  0  0  0  0  0  0  0  0  0  0  0  # atno 10763 bound_to 10752
  153.0392  135.5156  154.7570 H   0  0  0  0  0  0  0  0  0  0  0  0  # atno 10764 bound_to 10752
  154.6634  135.3018  154.9804 H   0  0  0  0  0  0  0  0  0  0  0  0  # atno 10765 bound_to 10752
  140.4810  134.0935  155.7751 H   0  0  0  0  0  0  0  0  0  0  0  0  # atno 11005 bound_to 11000
  146.3192  140.3374  142.8645 LP  0  0  0  0  0  0  0  0  0  0  0  0  # atno 17320 bound_to 7965
  144.9190  140.7846  143.5760 LP  0  0  0  0  0  0  0  0  0  0  0  0  # atno 17321 bound_to 7965
  140.4479  144.1896  150.5895 LP  0  0  0  0  0  0  0  0  0  0  0  0  # atno 17342 bound_to 10162
  140.4616  143.2447  151.9212 LP  0  0  0  0  0  0  0  0  0  0  0  0  # atno 17343 bound_to 10162
  155.9937  130.4998  150.7390 LP  0  0  0  0  0  0  0  0  0  0  0  0  # atno 17370 bound_to 10713
  157.4839  131.0905  151.0505 LP  0  0  0  0  0  0  0  0  0  0  0  0  # atno 17371 bound_to 10713
  141.1531  133.8932  157.2047 LP  0  0  0  0  0  0  0  0  0  0  0  0  # atno 17394 bound_to 11000
  139.9826  135.0093  156.9787 LP  0  0  0  0  0  0  0  0  0  0  0  0  # atno 17395 bound_to 11000

$$$$
