AV-unprocessed.smi:1123|AV-procd|sdf|4832|dock6
  -GOLD-   22720 3393D 1   1.00000     0.00000
 Structure written by MMmdl.
 38 39  0  0  0  0  0  0  0  0  2 V2000
  148.6990  140.4620  153.2204 C   0  0  0  0  0  0  0  0  0  0  0  0
  148.7306  141.4722  154.3855 C   0  0  1  0  0  0  0  0  0  0  0  0
  147.4272  141.4805  155.2004 C   0  0  0  0  0  0  0  0  0  0  0  0
  146.5882  140.5904  155.0567 O   0  0  0  0  0  0  0  0  0  0  0  0
  147.2674  142.5000  156.0598 N   0  0  0  0  0  0  0  0  0  0  0  0
  146.1188  142.6743  156.9408 C   0  0  0  0  0  0  0  0  0  0  0  0
  146.5363  142.6711  158.4239 C   0  0  0  0  0  0  0  0  0  0  0  0
  146.7354  144.0417  158.9570 N   0  3  0  0  0  0  0  0  0  0  0  0
  145.4600  144.7840  159.0986 C   0  0  0  0  0  0  0  0  0  0  0  0
  145.7199  146.2118  159.6083 C   0  0  0  0  0  0  0  0  0  0  0  0
  146.4222  146.1569  160.8433 O   0  0  0  0  0  0  0  0  0  0  0  0
  147.6891  145.5258  160.7063 C   0  0  0  0  0  0  0  0  0  0  0  0
  147.4965  144.0756  160.2310 C   0  0  0  0  0  0  0  0  0  0  0  0
  149.8742  141.2610  155.2646 N   0  0  0  0  0  0  0  0  0  0  0  0
  150.2371  141.9127  156.3716 C   0  0  0  0  0  0  0  0  0  0  0  0
  151.3208  141.4212  156.9558 N   0  0  0  0  0  0  0  0  0  0  0  0
  151.5908  140.3888  156.1032 C   0  0  0  0  0  0  0  0  0  0  0  0
  150.7498  140.2413  155.0798 N   0  0  0  0  0  0  0  0  0  0  0  0
  147.8674  140.6667  152.5453 H   0  0  0  0  0  0  0  0  0  0  0  0
  148.5945  139.4342  153.5705 H   0  0  0  0  0  0  0  0  0  0  0  0
  149.6162  140.5176  152.6337 H   0  0  0  0  0  0  0  0  0  0  0  0
  148.8440  142.4648  153.9462 H   0  0  0  0  0  0  0  0  0  0  0  0
  148.0014  143.1908  156.1203 H   0  0  0  0  0  0  0  0  0  0  0  0
  145.6005  143.5954  156.6723 H   0  0  0  0  0  0  0  0  0  0  0  0
  145.4198  141.8594  156.7503 H   0  0  0  0  0  0  0  0  0  0  0  0
  145.7496  142.1754  158.9948 H   0  0  0  0  0  0  0  0  0  0  0  0
  147.4434  142.0845  158.5784 H   0  0  0  0  0  0  0  0  0  0  0  0
  144.9472  144.8276  158.1371 H   0  0  0  0  0  0  0  0  0  0  0  0
  144.8026  144.2541  159.7900 H   0  0  0  0  0  0  0  0  0  0  0  0
  146.2879  146.7899  158.8778 H   0  0  0  0  0  0  0  0  0  0  0  0
  144.7754  146.7337  159.7623 H   0  0  0  0  0  0  0  0  0  0  0  0
  148.3147  146.0855  160.0090 H   0  0  0  0  0  0  0  0  0  0  0  0
  148.1966  145.5406  161.6710 H   0  0  0  0  0  0  0  0  0  0  0  0
  146.9622  143.5045  160.9919 H   0  0  0  0  0  0  0  0  0  0  0  0
  148.4716  143.6061  160.1074 H   0  0  0  0  0  0  0  0  0  0  0  0
  149.6952  142.7619  156.7612 H   0  0  0  0  0  0  0  0  0  0  0  0
  152.4283  139.7216  156.2449 H   0  0  0  0  0  0  0  0  0  0  0  0
  147.2803  144.5444  158.2709 H   0  0  0  0  0  0  0  0  0  0  0  0
  1  2  1  0  0  0  0
  1 19  1  0  0  0  0
  1 20  1  0  0  0  0
  1 21  1  0  0  0  0
  2  3  1  0  0  0  0
  2 14  1  0  0  0  0
  2 22  1  0  0  0  0
  3  4  2  0  0  0  0
  3  5  1  0  0  0  0
  5  6  1  0  0  0  0
  5 23  1  0  0  0  0
  6  7  1  0  0  0  0
  6 24  1  0  0  0  0
  6 25  1  0  0  0  0
  7  8  1  0  0  0  0
  7 26  1  0  0  0  0
  7 27  1  0  0  0  0
  8 13  1  0  0  0  0
  8  9  1  0  0  0  0
  8 38  1  0  0  0  0
  9 10  1  0  0  0  0
  9 28  1  0  0  0  0
  9 29  1  0  0  0  0
 10 11  1  0  0  0  0
 10 30  1  0  0  0  0
 10 31  1  0  0  0  0
 11 12  1  0  0  0  0
 12 13  1  0  0  0  0
 12 32  1  0  0  0  0
 12 33  1  0  0  0  0
 13 34  1  0  0  0  0
 13 35  1  0  0  0  0
 14 18  1  0  0  0  0
 14 15  1  0  0  0  0
 15 16  2  0  0  0  0
 15 36  1  0  0  0  0
 16 17  1  0  0  0  0
 17 18  2  0  0  0  0
 17 37  1  0  0  0  0
M  CHG  1   8   1
M  END
> <s_m_source_file>
AV-unprocessed.smi

> <i_m_source_file_index>
1123

> <i_lp_mmshare_version>
43012

> <i_f3d_flags>
0

> <s_epik_input>
bjFbY0hdbltjSF1uMVtDQEhdKFtDSDNdKUMoPU8pW05IXVtDSDJdW0NIMl1OMltDSDJdW0NIMl1PW0NIMl1bQ0gyXTI=

> <s_epik_cmdline>
J2VwaWtfcHl0aG9uJywgJy1waCcsICc3LjAnLCAnLXRuJywgJzgnLCAnLW1hJywgJzIwMCcsICctbWV0YWxfYmluZGluZycsICctaW1hZScsICc8aW5maWxlLm1hZT4nLCAnLW9tYWUnLCAnPG91dGZpbGUubWFlPic=

> <r_lp_tautomer_probability>
1

> <r_epik_Ionization_Penalty>
0.71326

> <r_epik_Ionization_Penalty_Charging>
0.713252

> <r_epik_Ionization_Penalty_Neutral>
7.98515e-06

> <r_epik_State_Penalty>
0.737017

> <r_epik_Charging_Adjusted_Penalty>
1.45027

> <i_epik_Tot_Q>
1

> <i_epik_Tot_abs_Q>
1

> <r_epik_Metal_State_Penalty>
0.73702

> <b_epik_Metal_Only>
0

> <s_lp_Force_Field>
OPLS_2005

> <r_lp_Energy>
21.0283

> <b_lp_Chiralities_Consistent>
1

> <s_lp_Variant>
AV-unprocessed.smi:1123-4

> <Gold.Version>
5.8.1

> <Gold.Id.Protein>
6NUR|6NUR_protein|mol2

> <Gold.PLP.Fitness>
40.2202

> <Gold.PLP.PLP>
-26.2187

> <Gold.PLP.part.hbond>
-4.0000

> <Gold.PLP.part.metal>
0.0000

> <Gold.PLP.part.buried>
3.5394

> <Gold.PLP.part.nonpolar>
-24.3253

> <Gold.PLP.part.repulsive>
0.4518

> <Gold.PLP.ligand.clash>
0.0000

> <Gold.PLP.ligand.torsion>
0.5495

> <Gold.PLP.Chemscore.Hbond>
4.0000

> <Gold.PLP.Chemscore.CHOScore>
0.9920

> <Gold.PLP.Chemscore.Metal>
0.0000

> <Gold.Chemscore.Hbonds>
donor molecule, donor type, donor heavy atom, donor atom, acceptor molecule, acceptor atom, score
      L1  H     5    23       P1  8028  1.00
      L1  H     8    38       P1  8029  2.00
      P1  H  7989  7998       L1    18  0.95
      L1  C    15    36       P1  8028  1.00

> <Gold.PLP.Chemscore.Internal.Correction>
0.1246

> <Gold.Rescore>
     Score         DG    S(hbond)    S(metal)    S(lipo)     H(rot)  DE(clash)    DE(int)     intcor
      5.76      -9.21       1.86        0.00      37.55       2.69       1.89       1.56       ----

> <Gold.Chemscore.Fitness>
5.7596

> <Gold.Chemscore.DG>
-9.2107

> <Gold.Chemscore.ZeroCoef>
-5.4800

> <Gold.Chemscore.Hbond>
1.8647

> <Gold.Chemscore.Metal>
0.0000

> <Gold.Chemscore.Lipo>
37.5492

> <Gold.Chemscore.Internal_Hbond>
0.0000

> <Gold.Chemscore.DEClash>
1.8892

> <Gold.Chemscore.DEInternal>
1.5619

> <Gold.Chemscore.Rot>
2.6916

> <Gold.Chemscore.Internal.Correction>
   9.000000E+99

> <Gold.Chemscore.Hbonds>
donor molecule, donor type, donor heavy atom, donor atom, acceptor molecule, acceptor atom, score
      L1  H     5    23       P1  8028  0.39
      L1  H     8    38       P1  8029  0.82
      P1  H  7989  7998       L1    18  0.14

> <Gold.Chemscore.Hbond.Weighted>
-6.2281

> <Gold.Chemscore.Metal.Weighted>
-0.0000

> <Gold.Chemscore.Lipo.Weighted>
-4.3933

> <Gold.Chemscore.Internal_Hbond.Weighted>
0.0000

> <Gold.Chemscore.DEClash.Weighted>
1.8892

> <Gold.Chemscore.DEInternal.Weighted>
1.5619

> <Gold.Chemscore.Rot.Weighted>
6.8906

> <Gold.Chemscore.Internal.Correction.Weighted>
   9.000000E+99

> <Gold.Protein.RotatedTorsions>
[ 6907 6896 6895 6894 ] final  102.53 input  -60.11 | X-H torsion
[ 7974 7965 7964 7962 ] final    3.67 input  175.53 | X-H torsion
[ 8008 7997 7996 7995 ] final  144.04 input   59.86 | X-H torsion
[ 10167 10162 10161 10158 ] final   13.80 input  -65.29 | X-H torsion
[ 10718 10713 10712 10709 ] final  116.30 input   66.30 | X-H torsion
[ 10763 10752 10751 10750 ] final  -39.65 input  -60.55 | X-H torsion
[ 11005 11000 10999 10996 ] final  167.35 input  -57.11 | X-H torsion

> <Gold.Protein.ActiveResidues>
 VAL166  LYS551  ARG553  GLY616  TRP617  ASP618  TYR619  PRO620  LYS621  CYS622 
 ASP623  PHE694  ASN695  SER759  ASP760  ASP761  ALA762  ILE779  LEU786  VAL792 
 PHE793  MET794  SER795  GLU796  ALA797  LYS798  CYS799  TRP800  GLU811  SER814 

> <Gold.Protein.RotatedAtoms>
  152.5321  133.9962  159.7873 H   0  0  0  0  0  0  0  0  0  0  0  0  # atno 6907 bound_to 6896
  151.0189  133.5887  159.2681 H   0  0  0  0  0  0  0  0  0  0  0  0  # atno 6908 bound_to 6896
  151.2935  135.0755  159.9266 H   0  0  0  0  0  0  0  0  0  0  0  0  # atno 6909 bound_to 6896
  146.2445  140.0651  142.8366 H   0  0  0  0  0  0  0  0  0  0  0  0  # atno 7974 bound_to 7965
  156.2917  140.2246  156.4988 H   0  0  0  0  0  0  0  0  0  0  0  0  # atno 8008 bound_to 7997
  154.7708  140.0467  157.1071 H   0  0  0  0  0  0  0  0  0  0  0  0  # atno 8009 bound_to 7997
  154.9877  140.3086  155.4923 H   0  0  0  0  0  0  0  0  0  0  0  0  # atno 8010 bound_to 7997
  140.5978  143.8666  150.6935 H   0  0  0  0  0  0  0  0  0  0  0  0  # atno 10167 bound_to 10162
  157.6169  131.1023  150.7454 H   0  0  0  0  0  0  0  0  0  0  0  0  # atno 10718 bound_to 10713
  153.9329  135.6770  153.4745 H   0  0  0  0  0  0  0  0  0  0  0  0  # atno 10763 bound_to 10752
  153.0970  135.4846  154.8795 H   0  0  0  0  0  0  0  0  0  0  0  0  # atno 10764 bound_to 10752
  154.7418  135.3162  154.8672 H   0  0  0  0  0  0  0  0  0  0  0  0  # atno 10765 bound_to 10752
  140.2759  134.7789  157.3716 H   0  0  0  0  0  0  0  0  0  0  0  0  # atno 11005 bound_to 11000
  145.0866  140.9256  143.4794 LP  0  0  0  0  0  0  0  0  0  0  0  0  # atno 17320 bound_to 7965
  145.0815  139.2956  143.5781 LP  0  0  0  0  0  0  0  0  0  0  0  0  # atno 17321 bound_to 7965
  140.2204  143.3813  152.1647 LP  0  0  0  0  0  0  0  0  0  0  0  0  # atno 17342 bound_to 10162
  139.5270  144.7114  151.5193 LP  0  0  0  0  0  0  0  0  0  0  0  0  # atno 17343 bound_to 10162
  156.7819  130.4862  149.5399 LP  0  0  0  0  0  0  0  0  0  0  0  0  # atno 17370 bound_to 10713
  156.1295  130.6167  151.0312 LP  0  0  0  0  0  0  0  0  0  0  0  0  # atno 17371 bound_to 10713
  140.1329  134.5072  155.8091 LP  0  0  0  0  0  0  0  0  0  0  0  0  # atno 17394 bound_to 11000
  141.2170  133.6796  156.7072 LP  0  0  0  0  0  0  0  0  0  0  0  0  # atno 17395 bound_to 11000

$$$$
