AV-unprocessed.smi:1368|AV-procd|sdf|5576|dock6
  -GOLD-   22720 5173D 1   1.00000     0.00000
 Structure written by MMmdl.
 46 48  0  0  0  0  0  0  0  0  1 V2000
  141.6962  145.7242  155.1963 C   0  0  0  0  0  0  0  0  0  0  0  0
  143.0768  145.2899  154.7137 C   0  0  0  0  0  0  0  0  0  0  0  0
  143.6892  146.0056  153.9224 O   0  0  0  0  0  0  0  0  0  0  0  0
  143.5382  144.1346  155.2284 N   0  0  0  0  0  0  0  0  0  0  0  0
  144.7672  143.4669  154.9713 C   0  0  0  0  0  0  0  0  0  0  0  0
  145.4293  143.7785  153.7668 C   0  0  0  0  0  0  0  0  0  0  0  0
  146.6590  143.1718  153.4484 C   0  0  0  0  0  0  0  0  0  0  0  0
  147.2583  142.2488  154.3282 C   0  0  0  0  0  0  0  0  0  0  0  0
  148.4614  141.7007  153.9375 O   0  0  0  0  0  0  0  0  0  0  0  0
  149.0590  140.7226  154.7785 C   0  0  0  0  0  0  0  0  0  0  0  0
  149.7633  141.4289  155.9477 C   0  0  1  0  0  0  0  0  0  0  0  0
  149.0299  141.1741  157.1299 O   0  0  0  0  0  0  0  0  0  0  0  0
  151.2098  140.9254  156.1291 C   0  0  0  0  0  0  0  0  0  0  0  0
  151.7209  141.1338  157.4777 N   0  0  0  0  0  0  0  0  0  0  0  0
  152.2137  140.2070  158.3356 C   0  0  0  0  0  0  0  0  0  0  0  0
  152.2956  138.7583  157.9722 C   0  0  0  0  0  0  0  0  0  0  0  0
  152.6143  140.6660  159.5213 N   0  0  0  0  0  0  0  0  0  0  0  0
  152.3551  142.0196  159.4250 C   0  0  0  0  0  0  0  0  0  0  0  0
  152.5563  143.0621  160.3582 C   0  0  0  0  0  0  0  0  0  0  0  0
  152.2095  144.3895  160.0315 C   0  0  0  0  0  0  0  0  0  0  0  0
  151.6583  144.6934  158.7698 C   0  0  0  0  0  0  0  0  0  0  0  0
  151.4481  143.6697  157.8261 C   0  0  0  0  0  0  0  0  0  0  0  0
  151.7952  142.3462  158.1571 C   0  0  0  0  0  0  0  0  0  0  0  0
  146.6013  141.9467  155.5469 C   0  0  0  0  0  0  0  0  0  0  0  0
  145.3708  142.5525  155.8672 C   0  0  0  0  0  0  0  0  0  0  0  0
  141.0829  144.8634  155.4657 H   0  0  0  0  0  0  0  0  0  0  0  0
  141.1753  146.2785  154.4148 H   0  0  0  0  0  0  0  0  0  0  0  0
  141.7884  146.3692  156.0704 H   0  0  0  0  0  0  0  0  0  0  0  0
  142.9548  143.7056  155.9318 H   0  0  0  0  0  0  0  0  0  0  0  0
  144.9930  144.4843  153.0747 H   0  0  0  0  0  0  0  0  0  0  0  0
  147.1485  143.4183  152.5174 H   0  0  0  0  0  0  0  0  0  0  0  0
  148.3251  140.0030  155.1466 H   0  0  0  0  0  0  0  0  0  0  0  0
  149.7982  140.1743  154.1919 H   0  0  0  0  0  0  0  0  0  0  0  0
  149.7781  142.5043  155.7685 H   0  0  0  0  0  0  0  0  0  0  0  0
  148.9382  140.2387  157.2292 H   0  0  0  0  0  0  0  0  0  0  0  0
  151.2697  139.8613  155.8968 H   0  0  0  0  0  0  0  0  0  0  0  0
  151.8747  141.4234  155.4231 H   0  0  0  0  0  0  0  0  0  0  0  0
  152.7433  138.1855  158.7851 H   0  0  0  0  0  0  0  0  0  0  0  0
  152.9084  138.6233  157.0813 H   0  0  0  0  0  0  0  0  0  0  0  0
  151.2992  138.3598  157.7817 H   0  0  0  0  0  0  0  0  0  0  0  0
  152.9785  142.8397  161.3272 H   0  0  0  0  0  0  0  0  0  0  0  0
  152.3676  145.1784  160.7522 H   0  0  0  0  0  0  0  0  0  0  0  0
  151.3976  145.7130  158.5263 H   0  0  0  0  0  0  0  0  0  0  0  0
  151.0287  143.8988  156.8578 H   0  0  0  0  0  0  0  0  0  0  0  0
  147.0225  141.2544  156.2596 H   0  0  0  0  0  0  0  0  0  0  0  0
  144.9178  142.3075  156.8150 H   0  0  0  0  0  0  0  0  0  0  0  0
  1  2  1  0  0  0  0
  1 26  1  0  0  0  0
  1 27  1  0  0  0  0
  1 28  1  0  0  0  0
  2  3  2  0  0  0  0
  2  4  1  0  0  0  0
  4  5  1  0  0  0  0
  4 29  1  0  0  0  0
  5 25  1  0  0  0  0
  5  6  2  0  0  0  0
  6  7  1  0  0  0  0
  6 30  1  0  0  0  0
  7  8  2  0  0  0  0
  7 31  1  0  0  0  0
  8  9  1  0  0  0  0
  8 24  1  0  0  0  0
  9 10  1  0  0  0  0
 10 11  1  0  0  0  0
 10 32  1  0  0  0  0
 10 33  1  0  0  0  0
 11 12  1  0  0  0  0
 11 13  1  0  0  0  0
 11 34  1  0  0  0  0
 12 35  1  0  0  0  0
 13 14  1  0  0  0  0
 13 36  1  0  0  0  0
 13 37  1  0  0  0  0
 14 23  1  0  0  0  0
 14 15  1  0  0  0  0
 15 16  1  0  0  0  0
 15 17  2  0  0  0  0
 16 38  1  0  0  0  0
 16 39  1  0  0  0  0
 16 40  1  0  0  0  0
 17 18  1  0  0  0  0
 18 23  2  0  0  0  0
 18 19  1  0  0  0  0
 19 20  2  0  0  0  0
 19 41  1  0  0  0  0
 20 21  1  0  0  0  0
 20 42  1  0  0  0  0
 21 22  2  0  0  0  0
 21 43  1  0  0  0  0
 22 23  1  0  0  0  0
 22 44  1  0  0  0  0
 24 25  2  0  0  0  0
 24 45  1  0  0  0  0
 25 46  1  0  0  0  0
M  END
> <s_m_source_file>
AV-unprocessed.smi

> <i_m_source_file_index>
1368

> <i_lp_mmshare_version>
43012

> <i_f3d_flags>
0

> <s_epik_input>
W0NIM11DKD1PKVtOSF1jMVtjSF1bY0hdYyhbY0hdW2NIXTEpT1tDSDJdW0NASF0oW09IXSlbQ0gyXW4oYyhuMilbQ0gzXSljKGMyMylbY0hdW2NIXVtjSF1bY0hdMw==

> <s_epik_cmdline>
J2VwaWtfcHl0aG9uJywgJy1waCcsICc3LjAnLCAnLXRuJywgJzgnLCAnLW1hJywgJzIwMCcsICctbWV0YWxfYmluZGluZycsICctaW1hZScsICc8aW5maWxlLm1hZT4nLCAnLW9tYWUnLCAnPG91dGZpbGUubWFlPic=

> <r_lp_tautomer_probability>
1

> <r_epik_Ionization_Penalty>
0.119634

> <r_epik_Ionization_Penalty_Charging>
0

> <r_epik_Ionization_Penalty_Neutral>
0.119634

> <r_epik_State_Penalty>
0.10919

> <r_epik_Charging_Adjusted_Penalty>
0.10919

> <i_epik_Tot_Q>
0

> <i_epik_Tot_abs_Q>
0

> <r_epik_Metal_State_Penalty>
0.0906856

> <b_epik_Metal_Only>
0

> <s_lp_Force_Field>
OPLS_2005

> <r_lp_Energy>
21.7849

> <b_lp_Chiralities_Consistent>
1

> <s_lp_Variant>
AV-unprocessed.smi:1368-2

> <Gold.Version>
5.8.1

> <Gold.Id.Protein>
6NUR|6NUR_protein|mol2

> <Gold.PLP.Fitness>
51.3915

> <Gold.PLP.PLP>
-52.1596

> <Gold.PLP.part.hbond>
-3.0000

> <Gold.PLP.part.metal>
0.0000

> <Gold.PLP.part.buried>
-7.4882

> <Gold.PLP.part.nonpolar>
-41.1034

> <Gold.PLP.part.repulsive>
0.2868

> <Gold.PLP.ligand.clash>
0.0000

> <Gold.PLP.ligand.torsion>
1.1549

> <Gold.PLP.Chemscore.Hbond>
0.4867

> <Gold.PLP.Chemscore.CHOScore>
0.0000

> <Gold.PLP.Chemscore.Metal>
0.0000

> <Gold.Chemscore.Hbonds>
donor molecule, donor type, donor heavy atom, donor atom, acceptor molecule, acceptor atom, score
      P1  H  8011  8017       L1     9  0.33

> <Gold.PLP.Chemscore.Internal.Correction>
0.0816

> <Gold.Rescore>
     Score         DG    S(hbond)    S(metal)    S(lipo)     H(rot)  DE(clash)    DE(int)     intcor
     12.95     -17.04       0.48        0.00     137.31       2.39       1.54       2.55       ----

> <Gold.Chemscore.Fitness>
12.9491

> <Gold.Chemscore.DG>
-17.0381

> <Gold.Chemscore.ZeroCoef>
-5.4800

> <Gold.Chemscore.Hbond>
0.4834

> <Gold.Chemscore.Metal>
0.0000

> <Gold.Chemscore.Lipo>
137.3111

> <Gold.Chemscore.Internal_Hbond>
0.0000

> <Gold.Chemscore.DEClash>
1.5412

> <Gold.Chemscore.DEInternal>
2.5477

> <Gold.Chemscore.Rot>
2.3914

> <Gold.Chemscore.Internal.Correction>
   9.000000E+99

> <Gold.Chemscore.Hbonds>
donor molecule, donor type, donor heavy atom, donor atom, acceptor molecule, acceptor atom, score
      P1  H  8011  8017       L1     9  0.29

> <Gold.Chemscore.Hbond.Weighted>
-1.6146

> <Gold.Chemscore.Metal.Weighted>
-0.0000

> <Gold.Chemscore.Lipo.Weighted>
-16.0654

> <Gold.Chemscore.Internal_Hbond.Weighted>
0.0000

> <Gold.Chemscore.DEClash.Weighted>
1.5412

> <Gold.Chemscore.DEInternal.Weighted>
2.5477

> <Gold.Chemscore.Rot.Weighted>
6.1220

> <Gold.Chemscore.Internal.Correction.Weighted>
   9.000000E+99

> <Gold.Protein.RotatedTorsions>
[ 6907 6896 6895 6894 ] final    0.74 input  -60.11 | X-H torsion
[ 7974 7965 7964 7962 ] final  -64.61 input  175.53 | X-H torsion
[ 8008 7997 7996 7995 ] final  115.36 input   59.86 | X-H torsion
[ 10167 10162 10161 10158 ] final  -33.29 input  -65.29 | X-H torsion
[ 10718 10713 10712 10709 ] final  -50.72 input   66.30 | X-H torsion
[ 10763 10752 10751 10750 ] final  -19.89 input  -60.55 | X-H torsion
[ 11005 11000 10999 10996 ] final -140.24 input  -57.11 | X-H torsion

> <Gold.Protein.ActiveResidues>
 VAL166  LYS551  ARG553  GLY616  TRP617  ASP618  TYR619  PRO620  LYS621  CYS622 
 ASP623  PHE694  ASN695  SER759  ASP760  ASP761  ALA762  ILE779  LEU786  VAL792 
 PHE793  MET794  SER795  GLU796  ALA797  LYS798  CYS799  TRP800  GLU811  SER814 

> <Gold.Protein.RotatedAtoms>
  151.5814  135.1058  160.0017 H   0  0  0  0  0  0  0  0  0  0  0  0  # atno 6907 bound_to 6896
  152.4352  133.7344  159.6616 H   0  0  0  0  0  0  0  0  0  0  0  0  # atno 6908 bound_to 6896
  150.8249  133.8119  159.3146 H   0  0  0  0  0  0  0  0  0  0  0  0  # atno 6909 bound_to 6896
  145.7646  140.8844  143.0412 H   0  0  0  0  0  0  0  0  0  0  0  0  # atno 7974 bound_to 7965
  156.2377  140.2940  156.0357 H   0  0  0  0  0  0  0  0  0  0  0  0  # atno 8008 bound_to 7997
  155.2044  140.0410  157.2940 H   0  0  0  0  0  0  0  0  0  0  0  0  # atno 8009 bound_to 7997
  154.6109  140.2451  155.7678 H   0  0  0  0  0  0  0  0  0  0  0  0  # atno 8010 bound_to 7997
  140.7207  143.3631  151.1923 H   0  0  0  0  0  0  0  0  0  0  0  0  # atno 10167 bound_to 10162
  156.1774  130.4150  149.9556 H   0  0  0  0  0  0  0  0  0  0  0  0  # atno 10718 bound_to 10713
  153.6119  135.6996  153.5343 H   0  0  0  0  0  0  0  0  0  0  0  0  # atno 10763 bound_to 10752
  153.3009  135.4129  155.1251 H   0  0  0  0  0  0  0  0  0  0  0  0  # atno 10764 bound_to 10752
  154.8561  135.3648  154.5658 H   0  0  0  0  0  0  0  0  0  0  0  0  # atno 10765 bound_to 10752
  140.8442  134.2365  157.4794 H   0  0  0  0  0  0  0  0  0  0  0  0  # atno 11005 bound_to 11000
  144.6824  139.9770  143.7483 LP  0  0  0  0  0  0  0  0  0  0  0  0  # atno 17320 bound_to 7965
  146.0230  139.3268  143.0801 LP  0  0  0  0  0  0  0  0  0  0  0  0  # atno 17321 bound_to 7965
  139.7187  143.9258  152.2977 LP  0  0  0  0  0  0  0  0  0  0  0  0  # atno 17342 bound_to 10162
  139.9007  144.6913  150.8668 LP  0  0  0  0  0  0  0  0  0  0  0  0  # atno 17343 bound_to 10162
  156.7337  130.9053  151.3627 LP  0  0  0  0  0  0  0  0  0  0  0  0  # atno 17370 bound_to 10713
  157.6845  130.9172  150.0351 LP  0  0  0  0  0  0  0  0  0  0  0  0  # atno 17371 bound_to 10713
  139.8703  134.9651  156.4516 LP  0  0  0  0  0  0  0  0  0  0  0  0  # atno 17394 bound_to 11000
  140.8862  133.7881  155.9521 LP  0  0  0  0  0  0  0  0  0  0  0  0  # atno 17395 bound_to 11000

$$$$
