AV-unprocessed.smi:978|AV-procd|sdf|4308|dock2
  -GOLD-   22720 2213D 1   1.00000     0.00000
 Structure written by MMmdl.
 39 40  0  0  0  0  0  0  0  0  2 V2000
  150.3493  136.4029  155.9985 C   0  0  0  0  0  0  0  0  0  0  0  0
  150.4206  134.9023  155.9372 C   0  0  0  0  0  0  0  0  0  0  0  0
  151.1732  134.2586  156.8176 N   0  0  0  0  0  0  0  0  0  0  0  0
  151.1081  132.8966  156.4857 O   0  0  0  0  0  0  0  0  0  0  0  0
  150.3060  132.7473  155.3996 C   0  0  0  0  0  0  0  0  0  0  0  0
  150.1228  131.3624  154.8774 C   0  0  0  0  0  0  0  0  0  0  0  0
  149.8272  133.9709  155.0346 C   0  0  0  0  0  0  0  0  0  0  0  0
  148.9780  134.2037  153.9233 N   0  0  0  0  0  0  0  0  0  0  0  0
  147.9927  133.4074  153.4817 C   0  0  0  0  0  0  0  0  0  0  0  0
  147.6854  132.3242  153.9781 O   0  0  0  0  0  0  0  0  0  0  0  0
  147.3866  133.9279  152.4049 N   0  0  0  0  0  0  0  0  0  0  0  0
  146.2921  133.2967  151.6730 C   0  0  2  0  0  0  0  0  0  0  0  0
  146.8050  132.7527  150.3294 C   0  0  0  0  0  0  0  0  0  0  0  0
  145.6583  132.1519  149.4982 C   0  0  0  0  0  0  0  0  0  0  0  0
  144.5752  133.1444  149.2860 N   0  3  1  0  0  0  0  0  0  0  0  0
  143.5117  132.6356  148.3933 C   0  0  0  0  0  0  0  0  0  0  0  0
  144.0358  133.6619  150.5681 C   0  0  0  0  0  0  0  0  0  0  0  0
  145.1471  134.2963  151.4209 C   0  0  0  0  0  0  0  0  0  0  0  0
  150.2611  136.8352  155.0020 H   0  0  0  0  0  0  0  0  0  0  0  0
  151.2435  136.8267  156.4570 H   0  0  0  0  0  0  0  0  0  0  0  0
  149.4917  136.7305  156.5860 H   0  0  0  0  0  0  0  0  0  0  0  0
  149.6128  131.3705  153.9139 H   0  0  0  0  0  0  0  0  0  0  0  0
  149.5288  130.7651  155.5693 H   0  0  0  0  0  0  0  0  0  0  0  0
  151.0858  130.8691  154.7443 H   0  0  0  0  0  0  0  0  0  0  0  0
  149.2067  135.0046  153.3529 H   0  0  0  0  0  0  0  0  0  0  0  0
  147.7106  134.8212  152.0633 H   0  0  0  0  0  0  0  0  0  0  0  0
  145.9107  132.4578  152.2590 H   0  0  0  0  0  0  0  0  0  0  0  0
  147.2818  133.5533  149.7614 H   0  0  0  0  0  0  0  0  0  0  0  0
  147.5714  131.9954  150.4999 H   0  0  0  0  0  0  0  0  0  0  0  0
  146.0445  131.8210  148.5334 H   0  0  0  0  0  0  0  0  0  0  0  0
  145.2542  131.2698  149.9977 H   0  0  0  0  0  0  0  0  0  0  0  0
  142.9996  131.7824  148.8402 H   0  0  0  0  0  0  0  0  0  0  0  0
  143.9289  132.3218  147.4359 H   0  0  0  0  0  0  0  0  0  0  0  0
  142.7727  133.4122  148.1943 H   0  0  0  0  0  0  0  0  0  0  0  0
  143.2635  134.4053  150.3664 H   0  0  0  0  0  0  0  0  0  0  0  0
  143.5581  132.8498  151.1188 H   0  0  0  0  0  0  0  0  0  0  0  0
  144.7283  134.6400  152.3676 H   0  0  0  0  0  0  0  0  0  0  0  0
  145.5326  135.1825  150.9140 H   0  0  0  0  0  0  0  0  0  0  0  0
  144.9943  133.9311  148.8108 H   0  0  0  0  0  0  0  0  0  0  0  0
  1  2  1  0  0  0  0
  1 19  1  0  0  0  0
  1 20  1  0  0  0  0
  1 21  1  0  0  0  0
  2  7  1  0  0  0  0
  2  3  2  0  0  0  0
  3  4  1  0  0  0  0
  4  5  1  0  0  0  0
  5  6  1  0  0  0  0
  5  7  2  0  0  0  0
  6 22  1  0  0  0  0
  6 23  1  0  0  0  0
  6 24  1  0  0  0  0
  7  8  1  0  0  0  0
  8  9  1  0  0  0  0
  8 25  1  0  0  0  0
  9 10  2  0  0  0  0
  9 11  1  0  0  0  0
 11 12  1  0  0  0  0
 11 26  1  0  0  0  0
 12 18  1  0  0  0  0
 12 13  1  0  0  0  0
 12 27  1  0  0  0  0
 13 14  1  0  0  0  0
 13 28  1  0  0  0  0
 13 29  1  0  0  0  0
 14 15  1  0  0  0  0
 14 30  1  0  0  0  0
 14 31  1  0  0  0  0
 15 16  1  0  0  0  0
 15 17  1  0  0  0  0
 15 39  1  0  0  0  0
 16 32  1  0  0  0  0
 16 33  1  0  0  0  0
 16 34  1  0  0  0  0
 17 18  1  0  0  0  0
 17 35  1  0  0  0  0
 17 36  1  0  0  0  0
 18 37  1  0  0  0  0
 18 38  1  0  0  0  0
M  CHG  1  15   1
M  END
> <s_m_source_file>
AV-unprocessed.smi

> <i_m_source_file_index>
978

> <i_lp_mmshare_version>
43012

> <i_f3d_flags>
0

> <s_epik_input>
W0NIM11jMW5vYyhbQ0gzXSljMVtOSF1DKD1PKVtOSF1bQ0hdMltDSDJdW0NIMl1OKFtDSDNdKVtDSDJdW0NIMl0y

> <s_epik_cmdline>
J2VwaWtfcHl0aG9uJywgJy1waCcsICc3LjAnLCAnLXRuJywgJzgnLCAnLW1hJywgJzIwMCcsICctbWV0YWxfYmluZGluZycsICctaW1hZScsICc8aW5maWxlLm1hZT4nLCAnLW9tYWUnLCAnPG91dGZpbGUubWFlPic=

> <r_epik_Ionization_Penalty>
0.00369783

> <r_epik_Ionization_Penalty_Charging>
0.00366825

> <r_epik_Ionization_Penalty_Neutral>
2.95799e-05

> <r_epik_State_Penalty>
0.00261101

> <r_epik_Charging_Adjusted_Penalty>
0.00627926

> <i_epik_Tot_Q>
1

> <i_epik_Tot_abs_Q>
1

> <r_epik_Metal_State_Penalty>
-0

> <b_epik_Metal_Only>
0

> <s_lp_Force_Field>
OPLS_2005

> <r_lp_Energy>
17.6402

> <b_lp_Chiralities_Consistent>
1

> <s_lp_Variant>
AV-unprocessed.smi:978-1

> <Gold.Version>
5.8.1

> <Gold.Id.Protein>
6NUR|6NUR_protein|mol2

> <Gold.PLP.Fitness>
40.2770

> <Gold.PLP.PLP>
-32.4002

> <Gold.PLP.part.hbond>
-3.7207

> <Gold.PLP.part.metal>
0.0000

> <Gold.PLP.part.buried>
-2.7417

> <Gold.PLP.part.nonpolar>
-26.5835

> <Gold.PLP.part.repulsive>
0.2327

> <Gold.PLP.ligand.clash>
0.0000

> <Gold.PLP.ligand.torsion>
0.3890

> <Gold.PLP.Chemscore.Hbond>
2.8000

> <Gold.PLP.Chemscore.CHOScore>
0.0000

> <Gold.PLP.Chemscore.Metal>
0.0000

> <Gold.Chemscore.Hbonds>
donor molecule, donor type, donor heavy atom, donor atom, acceptor molecule, acceptor atom, score
      L1  H     8    25       P1  7948  0.80
      L1  H    11    26       P1  7948  1.00
      L1  H    15    39       P1  7921  1.00

> <Gold.PLP.Chemscore.Internal.Correction>
0.2549

> <Gold.Rescore>
     Score         DG    S(hbond)    S(metal)    S(lipo)     H(rot)  DE(clash)    DE(int)     intcor
     16.41     -19.55       2.25        0.00      77.78       1.00       0.35       2.79       ----

> <Gold.Chemscore.Fitness>
16.4072

> <Gold.Chemscore.DG>
-19.5505

> <Gold.Chemscore.ZeroCoef>
-5.4800

> <Gold.Chemscore.Hbond>
2.2544

> <Gold.Chemscore.Metal>
0.0000

> <Gold.Chemscore.Lipo>
77.7848

> <Gold.Chemscore.Internal_Hbond>
0.0000

> <Gold.Chemscore.DEClash>
0.3496

> <Gold.Chemscore.DEInternal>
2.7937

> <Gold.Chemscore.Rot>
1.0000

> <Gold.Chemscore.Internal.Correction>
   9.000000E+99

> <Gold.Chemscore.Hbonds>
donor molecule, donor type, donor heavy atom, donor atom, acceptor molecule, acceptor atom, score
      L1  H     8    25       P1  7948  0.12
      L1  H    11    26       P1  7948  0.69
      L1  H    15    39       P1  7921  0.96

> <Gold.Chemscore.Hbond.Weighted>
-7.5297

> <Gold.Chemscore.Metal.Weighted>
-0.0000

> <Gold.Chemscore.Lipo.Weighted>
-9.1008

> <Gold.Chemscore.Internal_Hbond.Weighted>
0.0000

> <Gold.Chemscore.DEClash.Weighted>
0.3496

> <Gold.Chemscore.DEInternal.Weighted>
2.7937

> <Gold.Chemscore.Rot.Weighted>
2.5600

> <Gold.Chemscore.Internal.Correction.Weighted>
   9.000000E+99

> <Gold.Protein.RotatedTorsions>
[ 6907 6896 6895 6894 ] final  -43.76 input  -60.11 | X-H torsion
[ 7974 7965 7964 7962 ] final   -7.36 input  175.53 | X-H torsion
[ 8008 7997 7996 7995 ] final -178.25 input   59.86 | X-H torsion
[ 10167 10162 10161 10158 ] final   85.96 input  -65.29 | X-H torsion
[ 10718 10713 10712 10709 ] final   58.26 input   66.30 | X-H torsion
[ 10763 10752 10751 10750 ] final   23.24 input  -60.55 | X-H torsion
[ 11005 11000 10999 10996 ] final -101.69 input  -57.11 | X-H torsion

> <Gold.Protein.ActiveResidues>
 VAL166  LYS551  ARG553  GLY616  TRP617  ASP618  TYR619  PRO620  LYS621  CYS622 
 ASP623  PHE694  ASN695  SER759  ASP760  ASP761  ALA762  ILE779  LEU786  VAL792 
 PHE793  MET794  SER795  GLU796  ALA797  LYS798  CYS799  TRP800  GLU811  SER814 

> <Gold.Protein.RotatedAtoms>
  150.9403  134.8812  159.7607 H   0  0  0  0  0  0  0  0  0  0  0  0  # atno 6907 bound_to 6896
  152.5077  134.3952  159.9407 H   0  0  0  0  0  0  0  0  0  0  0  0  # atno 6908 bound_to 6896
  151.3973  133.3729  159.2763 H   0  0  0  0  0  0  0  0  0  0  0  0  # atno 6909 bound_to 6896
  146.2308  140.2308  142.8340 H   0  0  0  0  0  0  0  0  0  0  0  0  # atno 7974 bound_to 7965
  156.0167  140.1252  157.0399 H   0  0  0  0  0  0  0  0  0  0  0  0  # atno 8008 bound_to 7997
  154.4296  140.1077  156.5975 H   0  0  0  0  0  0  0  0  0  0  0  0  # atno 8009 bound_to 7997
  155.6004  140.3470  155.4594 H   0  0  0  0  0  0  0  0  0  0  0  0  # atno 8010 bound_to 7997
  139.8924  144.6378  150.8725 H   0  0  0  0  0  0  0  0  0  0  0  0  # atno 10167 bound_to 10162
  157.5581  130.8815  149.9068 H   0  0  0  0  0  0  0  0  0  0  0  0  # atno 10718 bound_to 10713
  153.0853  135.6631  153.9962 H   0  0  0  0  0  0  0  0  0  0  0  0  # atno 10763 bound_to 10752
  153.9573  135.2978  155.3437 H   0  0  0  0  0  0  0  0  0  0  0  0  # atno 10764 bound_to 10752
  154.7260  135.5144  153.8959 H   0  0  0  0  0  0  0  0  0  0  0  0  # atno 10765 bound_to 10752
  141.1220  133.8498  157.1264 H   0  0  0  0  0  0  0  0  0  0  0  0  # atno 11005 bound_to 11000
  144.9559  140.8226  143.5543 LP  0  0  0  0  0  0  0  0  0  0  0  0  # atno 17320 bound_to 7965
  145.2274  139.2131  143.5061 LP  0  0  0  0  0  0  0  0  0  0  0  0  # atno 17321 bound_to 7965
  140.7724  143.3500  151.2033 LP  0  0  0  0  0  0  0  0  0  0  0  0  # atno 17342 bound_to 10162
  139.7098  143.9395  152.2942 LP  0  0  0  0  0  0  0  0  0  0  0  0  # atno 17343 bound_to 10162
  156.0637  130.3695  150.0925 LP  0  0  0  0  0  0  0  0  0  0  0  0  # atno 17370 bound_to 10713
  156.9091  130.9646  151.3565 LP  0  0  0  0  0  0  0  0  0  0  0  0  # atno 17371 bound_to 10713
  140.0186  134.9956  157.0545 LP  0  0  0  0  0  0  0  0  0  0  0  0  # atno 17394 bound_to 11000
  140.4478  134.1614  155.7179 LP  0  0  0  0  0  0  0  0  0  0  0  0  # atno 17395 bound_to 11000

$$$$
