AV-unprocessed.smi:1995|AV-procd|sdf|8082|dock9
  -GOLD-   2272010293D 1   1.00000     0.00000
 Structure written by MMmdl.
 42 43  0  0  0  0  0  0  0  0  3 V2000
  151.8750  139.7483  159.3289 C   0  0  0  0  0  0  0  0  0  0  0  0
  151.0461  140.4272  158.2241 C   0  0  0  0  0  0  0  0  0  0  0  0
  150.9555  139.6701  156.8640 C   0  0  1  0  0  0  0  0  0  0  0  0
  152.3599  139.6318  156.2028 C   0  0  0  0  0  0  0  0  0  0  0  0
  150.5218  138.1908  157.0949 C   0  0  0  0  0  0  0  0  0  0  0  0
  149.2593  138.0919  157.8300 N   0  0  0  0  0  0  0  0  0  0  0  0
  148.9907  137.2747  158.8583 C   0  0  0  0  0  0  0  0  0  0  0  0
  149.8115  136.4226  159.2035 O   0  0  0  0  0  0  0  0  0  0  0  0
  147.7976  137.5175  159.4427 N   0  5  0  0  0  0  0  0  0  0  0  0
  147.3505  136.7031  160.4121 C   0  0  0  0  0  0  0  0  0  0  0  0
  146.6034  137.1321  161.4360 N   0  0  0  0  0  0  0  0  0  0  0  0
  146.2495  136.1174  162.3273 C   0  0  0  0  0  0  0  0  0  0  0  0
  146.7325  134.8868  161.9693 C   0  0  0  0  0  0  0  0  0  0  0  0
  147.6529  134.9660  160.4941 S   0  0  0  0  0  0  0  0  0  0  0  0
  149.9554  140.3329  155.9473 N   0  3  0  0  0  0  0  0  0  0  0  0
  150.0312  141.8185  155.8794 C   0  0  0  0  0  0  0  0  0  0  0  0
  148.7915  142.3757  155.1651 C   0  0  0  0  0  0  0  0  0  0  0  0
  148.7410  141.8422  153.8487 O   0  0  0  0  0  0  0  0  0  0  0  0
  148.6181  140.4259  153.8573 C   0  0  0  0  0  0  0  0  0  0  0  0
  149.8262  139.7871  154.5676 C   0  0  0  0  0  0  0  0  0  0  0  0
  151.8435  140.3415  160.2430 H   0  0  0  0  0  0  0  0  0  0  0  0
  152.9236  139.6486  159.0504 H   0  0  0  0  0  0  0  0  0  0  0  0
  151.4914  138.7588  159.5750 H   0  0  0  0  0  0  0  0  0  0  0  0
  150.0469  140.5822  158.6308 H   0  0  0  0  0  0  0  0  0  0  0  0
  151.4593  141.4226  158.0589 H   0  0  0  0  0  0  0  0  0  0  0  0
  153.0427  138.9759  156.7432 H   0  0  0  0  0  0  0  0  0  0  0  0
  152.8276  140.6166  156.1790 H   0  0  0  0  0  0  0  0  0  0  0  0
  152.3158  139.2566  155.1795 H   0  0  0  0  0  0  0  0  0  0  0  0
  150.3687  137.6861  156.1413 H   0  0  0  0  0  0  0  0  0  0  0  0
  151.3063  137.6195  157.5916 H   0  0  0  0  0  0  0  0  0  0  0  0
  148.5393  138.7526  157.5757 H   0  0  0  0  0  0  0  0  0  0  0  0
  145.6485  136.3610  163.1909 H   0  0  0  0  0  0  0  0  0  0  0  0
  146.6035  133.9438  162.4787 H   0  0  0  0  0  0  0  0  0  0  0  0
  150.1015  142.2612  156.8709 H   0  0  0  0  0  0  0  0  0  0  0  0
  150.9233  142.1265  155.3327 H   0  0  0  0  0  0  0  0  0  0  0  0
  147.8787  142.1336  155.7125 H   0  0  0  0  0  0  0  0  0  0  0  0
  148.8494  143.4624  155.1031 H   0  0  0  0  0  0  0  0  0  0  0  0
  147.6862  140.1371  154.3466 H   0  0  0  0  0  0  0  0  0  0  0  0
  148.5580  140.0719  152.8280 H   0  0  0  0  0  0  0  0  0  0  0  0
  150.7414  139.9753  154.0049 H   0  0  0  0  0  0  0  0  0  0  0  0
  149.6617  138.7112  154.5674 H   0  0  0  0  0  0  0  0  0  0  0  0
  149.0648  140.1337  156.3827 H   0  0  0  0  0  0  0  0  0  0  0  0
  1  2  1  0  0  0  0
  1 21  1  0  0  0  0
  1 22  1  0  0  0  0
  1 23  1  0  0  0  0
  2  3  1  0  0  0  0
  2 24  1  0  0  0  0
  2 25  1  0  0  0  0
  3  4  1  0  0  0  0
  3  5  1  0  0  0  0
  3 15  1  0  0  0  0
  4 26  1  0  0  0  0
  4 27  1  0  0  0  0
  4 28  1  0  0  0  0
  5  6  1  0  0  0  0
  5 29  1  0  0  0  0
  5 30  1  0  0  0  0
  6  7  1  0  0  0  0
  6 31  1  0  0  0  0
  7  8  2  0  0  0  0
  7  9  1  0  0  0  0
  9 10  1  0  0  0  0
 10 14  1  0  0  0  0
 10 11  2  0  0  0  0
 11 12  1  0  0  0  0
 12 13  2  0  0  0  0
 12 32  1  0  0  0  0
 13 14  1  0  0  0  0
 13 33  1  0  0  0  0
 15 20  1  0  0  0  0
 15 16  1  0  0  0  0
 15 42  1  0  0  0  0
 16 17  1  0  0  0  0
 16 34  1  0  0  0  0
 16 35  1  0  0  0  0
 17 18  1  0  0  0  0
 17 36  1  0  0  0  0
 17 37  1  0  0  0  0
 18 19  1  0  0  0  0
 19 20  1  0  0  0  0
 19 38  1  0  0  0  0
 19 39  1  0  0  0  0
 20 40  1  0  0  0  0
 20 41  1  0  0  0  0
M  CHG  1   9  -1
M  CHG  1  15   1
M  END
> <s_m_source_file>
AV-unprocessed.smi

> <i_m_source_file_index>
1995

> <i_lp_mmshare_version>
43012

> <i_f3d_flags>
0

> <s_epik_input>
W0NIMl0xW0NIMl1PW0NIMl1bQ0gyXU4xW0NAQF0oW0NIM10pKFtDSDJdW0NIM10pW0NIMl1bTkhdQyg9TylbTkhdYzJuW2NIXVtjSF1zMg==

> <s_epik_cmdline>
J2VwaWtfcHl0aG9uJywgJy1waCcsICc3LjAnLCAnLXRuJywgJzgnLCAnLW1hJywgJzIwMCcsICctbWV0YWxfYmluZGluZycsICctaW1hZScsICc8aW5maWxlLm1hZT4nLCAnLW9tYWUnLCAnPG91dGZpbGUubWFlPic=

> <r_lp_tautomer_probability>
0.999

> <r_epik_Ionization_Penalty>
8.09417

> <r_epik_Ionization_Penalty_Charging>
6.70334

> <r_epik_Ionization_Penalty_Neutral>
1.39083

> <r_epik_State_Penalty>
6.86521

> <r_epik_Charging_Adjusted_Penalty>
13.5685

> <i_epik_Tot_Q>
0

> <i_epik_Tot_abs_Q>
2

> <r_epik_Metal_State_Penalty>
2.79608

> <b_epik_Metal_Only>
1

> <s_lp_Force_Field>
OPLS_2005

> <r_lp_Energy>
20.9753

> <b_lp_Chiralities_Consistent>
1

> <s_lp_Variant>
AV-unprocessed.smi:1995-7

> <Gold.Version>
5.8.1

> <Gold.Id.Protein>
6NUR|6NUR_protein|mol2

> <Gold.PLP.Fitness>
41.3593

> <Gold.PLP.PLP>
-34.1014

> <Gold.PLP.part.hbond>
-5.9733

> <Gold.PLP.part.metal>
0.0000

> <Gold.PLP.part.buried>
0.5813

> <Gold.PLP.part.nonpolar>
-27.5444

> <Gold.PLP.part.repulsive>
0.3187

> <Gold.PLP.ligand.clash>
0.0000

> <Gold.PLP.ligand.torsion>
0.5866

> <Gold.PLP.Chemscore.Hbond>
2.7308

> <Gold.PLP.Chemscore.CHOScore>
0.0000

> <Gold.PLP.Chemscore.Metal>
0.0000

> <Gold.Chemscore.Hbonds>
donor molecule, donor type, donor heavy atom, donor atom, acceptor molecule, acceptor atom, score
      P1  H  6896  6909       L1     8  0.92
      P1  H  6934  6947       L1    11  0.40
      P1  H  8011  8017       L1    18  0.53

> <Gold.PLP.Chemscore.Internal.Correction>
0.2388

> <Gold.Rescore>
     Score         DG    S(hbond)    S(metal)    S(lipo)     H(rot)  DE(clash)    DE(int)     intcor
     11.94     -15.63       1.65        0.00      78.09       1.75       1.82       1.87       ----

> <Gold.Chemscore.Fitness>
11.9446

> <Gold.Chemscore.DG>
-15.6293

> <Gold.Chemscore.ZeroCoef>
-5.4800

> <Gold.Chemscore.Hbond>
1.6464

> <Gold.Chemscore.Metal>
0.0000

> <Gold.Chemscore.Lipo>
78.0876

> <Gold.Chemscore.Internal_Hbond>
0.0000

> <Gold.Chemscore.DEClash>
1.8165

> <Gold.Chemscore.DEInternal>
1.8683

> <Gold.Chemscore.Rot>
1.7523

> <Gold.Chemscore.Internal.Correction>
   9.000000E+99

> <Gold.Chemscore.Hbonds>
donor molecule, donor type, donor heavy atom, donor atom, acceptor molecule, acceptor atom, score
      P1  H  6896  6909       L1     8  0.83
      P1  H  6934  6947       L1    11  0.01
      P1  H  8011  8017       L1    18  0.41

> <Gold.Chemscore.Hbond.Weighted>
-5.4989

> <Gold.Chemscore.Metal.Weighted>
-0.0000

> <Gold.Chemscore.Lipo.Weighted>
-9.1362

> <Gold.Chemscore.Internal_Hbond.Weighted>
0.0000

> <Gold.Chemscore.DEClash.Weighted>
1.8165

> <Gold.Chemscore.DEInternal.Weighted>
1.8683

> <Gold.Chemscore.Rot.Weighted>
4.4858

> <Gold.Chemscore.Internal.Correction.Weighted>
   9.000000E+99

> <Gold.Protein.RotatedTorsions>
[ 6907 6896 6895 6894 ] final   51.04 input  -60.11 | X-H torsion
[ 7974 7965 7964 7962 ] final  129.92 input  175.53 | X-H torsion
[ 8008 7997 7996 7995 ] final -125.51 input   59.86 | X-H torsion
[ 10167 10162 10161 10158 ] final  172.88 input  -65.29 | X-H torsion
[ 10718 10713 10712 10709 ] final  -63.15 input   66.30 | X-H torsion
[ 10763 10752 10751 10750 ] final  -76.81 input  -60.55 | X-H torsion
[ 11005 11000 10999 10996 ] final   70.08 input  -57.11 | X-H torsion

> <Gold.Protein.ActiveResidues>
 VAL166  LYS551  ARG553  GLY616  TRP617  ASP618  TYR619  PRO620  LYS621  CYS622 
 ASP623  PHE694  ASN695  SER759  ASP760  ASP761  ALA762  ILE779  LEU786  VAL792 
 PHE793  MET794  SER795  GLU796  ALA797  LYS798  CYS799  TRP800  GLU811  SER814 

> <Gold.Protein.RotatedAtoms>
  152.3083  134.7528  160.0341 H   0  0  0  0  0  0  0  0  0  0  0  0  # atno 6907 bound_to 6896
  151.8017  133.3365  159.3537 H   0  0  0  0  0  0  0  0  0  0  0  0  # atno 6908 bound_to 6896
  150.7307  134.5677  159.5919 H   0  0  0  0  0  0  0  0  0  0  0  0  # atno 6909 bound_to 6896
  145.0235  139.4111  143.5186 H   0  0  0  0  0  0  0  0  0  0  0  0  # atno 7974 bound_to 7965
  155.2145  140.0420  157.2938 H   0  0  0  0  0  0  0  0  0  0  0  0  # atno 8008 bound_to 7997
  154.5990  140.2447  155.7789 H   0  0  0  0  0  0  0  0  0  0  0  0  # atno 8009 bound_to 7997
  156.2309  140.2938  156.0194 H   0  0  0  0  0  0  0  0  0  0  0  0  # atno 8010 bound_to 7997
  139.5090  144.3324  152.0098 H   0  0  0  0  0  0  0  0  0  0  0  0  # atno 10167 bound_to 10162
  156.0809  130.4217  150.1236 H   0  0  0  0  0  0  0  0  0  0  0  0  # atno 10718 bound_to 10713
  154.5048  135.5785  153.6559 H   0  0  0  0  0  0  0  0  0  0  0  0  # atno 10763 bound_to 10752
  152.9885  135.6144  154.2956 H   0  0  0  0  0  0  0  0  0  0  0  0  # atno 10764 bound_to 10752
  154.2866  135.2849  155.2653 H   0  0  0  0  0  0  0  0  0  0  0  0  # atno 10765 bound_to 10752
  139.9617  134.7049  156.0631 H   0  0  0  0  0  0  0  0  0  0  0  0  # atno 11005 bound_to 11000
  146.3489  139.9745  142.8702 LP  0  0  0  0  0  0  0  0  0  0  0  0  # atno 17320 bound_to 7965
  145.1865  140.9791  143.4236 LP  0  0  0  0  0  0  0  0  0  0  0  0  # atno 17321 bound_to 7965
  140.2763  144.3909  150.6134 LP  0  0  0  0  0  0  0  0  0  0  0  0  # atno 17342 bound_to 10162
  140.6051  143.2167  151.6996 LP  0  0  0  0  0  0  0  0  0  0  0  0  # atno 17343 bound_to 10162
  156.9268  130.9701  151.3539 LP  0  0  0  0  0  0  0  0  0  0  0  0  # atno 17370 bound_to 10713
  157.5925  130.8454  149.8681 LP  0  0  0  0  0  0  0  0  0  0  0  0  # atno 17371 bound_to 10713
  141.1295  133.6590  156.3426 LP  0  0  0  0  0  0  0  0  0  0  0  0  # atno 17394 bound_to 11000
  140.5485  134.6051  157.5401 LP  0  0  0  0  0  0  0  0  0  0  0  0  # atno 17395 bound_to 11000

$$$$
