AV-unprocessed.smi:1520|AV-procd|sdf|6129|dock3
  -GOLD-   22720 6273D 1   1.00000     0.00000
 Structure written by MMmdl.
 37 38  0  0  0  0  0  0  0  0  1 V2000
  146.9618  137.6925  159.9307 O   0  0  0  0  0  0  0  0  0  0  0  0
  147.9119  136.9346  159.7345 C   0  0  0  0  0  0  0  0  0  0  0  0
  148.1969  135.7625  160.6818 C   0  0  0  0  0  0  0  0  0  0  0  0
  147.2418  135.6555  161.8880 C   0  0  0  0  0  0  0  0  0  0  0  0
  147.6038  136.5465  162.8103 F   0  0  0  0  0  0  0  0  0  0  0  0
  145.9843  135.9097  161.5228 F   0  0  0  0  0  0  0  0  0  0  0  0
  147.2971  134.4376  162.4291 F   0  0  0  0  0  0  0  0  0  0  0  0
  148.7542  137.0677  158.6981 N   0  0  0  0  0  0  0  0  0  0  0  0
  148.6544  138.0864  157.6596 C   0  0  0  0  0  0  0  0  0  0  0  0
  150.0004  138.7003  157.3228 C   0  0  0  0  0  0  0  0  0  0  0  0
  150.8129  138.1475  156.3124 C   0  0  0  0  0  0  0  0  0  0  0  0
  152.0600  138.7471  156.0515 C   0  0  0  0  0  0  0  0  0  0  0  0
  152.5161  139.8282  156.7194 N   0  0  0  0  0  0  0  0  0  0  0  0
  151.7344  140.3596  157.6900 C   0  0  0  0  0  0  0  0  0  0  0  0
  152.2010  141.4877  158.3797 N   0  0  0  0  0  0  0  0  0  0  0  0
  151.4167  142.6912  158.1309 C   0  0  0  0  0  0  0  0  0  0  0  0
  152.0689  143.8977  158.8287 C   0  0  0  0  0  0  0  0  0  0  0  0
  152.2167  143.6244  160.2192 O   0  0  0  0  0  0  0  0  0  0  0  0
  153.0439  142.4887  160.4567 C   0  0  0  0  0  0  0  0  0  0  0  0
  152.4160  141.2469  159.8011 C   0  0  0  0  0  0  0  0  0  0  0  0
  150.4723  139.8268  158.0271 C   0  0  0  0  0  0  0  0  0  0  0  0
  148.1505  134.8383  160.1041 H   0  0  0  0  0  0  0  0  0  0  0  0
  149.2236  135.8536  161.0388 H   0  0  0  0  0  0  0  0  0  0  0  0
  149.5088  136.4024  158.6104 H   0  0  0  0  0  0  0  0  0  0  0  0
  148.1993  137.6770  156.7560 H   0  0  0  0  0  0  0  0  0  0  0  0
  147.9800  138.8681  158.0103 H   0  0  0  0  0  0  0  0  0  0  0  0
  150.4923  137.2820  155.7516 H   0  0  0  0  0  0  0  0  0  0  0  0
  152.7084  138.3479  155.2857 H   0  0  0  0  0  0  0  0  0  0  0  0
  151.3462  142.8718  157.0575 H   0  0  0  0  0  0  0  0  0  0  0  0
  150.4003  142.5544  158.5030 H   0  0  0  0  0  0  0  0  0  0  0  0
  153.0406  144.1243  158.3869 H   0  0  0  0  0  0  0  0  0  0  0  0
  151.4479  144.7850  158.7052 H   0  0  0  0  0  0  0  0  0  0  0  0
  154.0476  142.6686  160.0679 H   0  0  0  0  0  0  0  0  0  0  0  0
  153.1404  142.3377  161.5319 H   0  0  0  0  0  0  0  0  0  0  0  0
  151.4659  141.0148  160.2845 H   0  0  0  0  0  0  0  0  0  0  0  0
  153.0668  140.3820  159.9353 H   0  0  0  0  0  0  0  0  0  0  0  0
  149.8778  140.2756  158.8097 H   0  0  0  0  0  0  0  0  0  0  0  0
  1  2  2  0  0  0  0
  2  3  1  0  0  0  0
  2  8  1  0  0  0  0
  3  4  1  0  0  0  0
  3 22  1  0  0  0  0
  3 23  1  0  0  0  0
  4  5  1  0  0  0  0
  4  6  1  0  0  0  0
  4  7  1  0  0  0  0
  8  9  1  0  0  0  0
  8 24  1  0  0  0  0
  9 10  1  0  0  0  0
  9 25  1  0  0  0  0
  9 26  1  0  0  0  0
 10 21  1  0  0  0  0
 10 11  2  0  0  0  0
 11 12  1  0  0  0  0
 11 27  1  0  0  0  0
 12 13  2  0  0  0  0
 12 28  1  0  0  0  0
 13 14  1  0  0  0  0
 14 15  1  0  0  0  0
 14 21  2  0  0  0  0
 15 20  1  0  0  0  0
 15 16  1  0  0  0  0
 16 17  1  0  0  0  0
 16 29  1  0  0  0  0
 16 30  1  0  0  0  0
 17 18  1  0  0  0  0
 17 31  1  0  0  0  0
 17 32  1  0  0  0  0
 18 19  1  0  0  0  0
 19 20  1  0  0  0  0
 19 33  1  0  0  0  0
 19 34  1  0  0  0  0
 20 35  1  0  0  0  0
 20 36  1  0  0  0  0
 21 37  1  0  0  0  0
M  END
> <s_m_source_file>
AV-unprocessed.smi

> <i_m_source_file_index>
1520

> <i_lp_mmshare_version>
43012

> <i_f3d_flags>
0

> <s_epik_input>
RkMoRikoRilbQ0gyXUMoPU8pW05IXVtDSDJdYzFbY0hdW2NIXW5jKFtjSF0xKU4yW0NIMl1bQ0gyXU9bQ0gyXVtDSDJdMg==

> <s_epik_cmdline>
J2VwaWtfcHl0aG9uJywgJy1waCcsICc3LjAnLCAnLXRuJywgJzgnLCAnLW1hJywgJzIwMCcsICctbWV0YWxfYmluZGluZycsICctaW1hZScsICc8aW5maWxlLm1hZT4nLCAnLW9tYWUnLCAnPG91dGZpbGUubWFlPic=

> <r_lp_tautomer_probability>
1

> <r_epik_Ionization_Penalty>
0.00358568

> <r_epik_Ionization_Penalty_Charging>
0

> <r_epik_Ionization_Penalty_Neutral>
0.00358568

> <r_epik_State_Penalty>
0.00254794

> <r_epik_Charging_Adjusted_Penalty>
0.00254794

> <i_epik_Tot_Q>
0

> <i_epik_Tot_abs_Q>
0

> <r_epik_Metal_State_Penalty>
-0

> <b_epik_Metal_Only>
0

> <s_lp_Force_Field>
OPLS_2005

> <r_lp_Energy>
12.9291

> <b_lp_Chiralities_Consistent>
1

> <s_lp_Variant>
AV-unprocessed.smi:1520-1

> <Gold.Version>
5.8.1

> <Gold.Id.Protein>
6NUR|6NUR_protein|mol2

> <Gold.PLP.Fitness>
44.4271

> <Gold.PLP.PLP>
-39.8805

> <Gold.PLP.part.hbond>
-2.0000

> <Gold.PLP.part.metal>
0.0000

> <Gold.PLP.part.buried>
-6.1799

> <Gold.PLP.part.nonpolar>
-31.9574

> <Gold.PLP.part.repulsive>
0.1837

> <Gold.PLP.ligand.clash>
0.0000

> <Gold.PLP.ligand.torsion>
0.7868

> <Gold.PLP.Chemscore.Hbond>
2.0000

> <Gold.PLP.Chemscore.CHOScore>
0.0000

> <Gold.PLP.Chemscore.Metal>
0.0000

> <Gold.Chemscore.Hbonds>
donor molecule, donor type, donor heavy atom, donor atom, acceptor molecule, acceptor atom, score
      P1  H  6934  6947       L1     1  1.00
      P1  H  7997  8010       L1    13  1.00

> <Gold.PLP.Chemscore.Internal.Correction>
0.1203

> <Gold.Rescore>
     Score         DG    S(hbond)    S(metal)    S(lipo)     H(rot)  DE(clash)    DE(int)     intcor
     13.30     -15.64       1.95        0.00      75.15       2.01       0.02       2.32       ----

> <Gold.Chemscore.Fitness>
13.3017

> <Gold.Chemscore.DG>
-15.6401

> <Gold.Chemscore.ZeroCoef>
-5.4800

> <Gold.Chemscore.Hbond>
1.9500

> <Gold.Chemscore.Metal>
0.0000

> <Gold.Chemscore.Lipo>
75.1528

> <Gold.Chemscore.Internal_Hbond>
0.0000

> <Gold.Chemscore.DEClash>
0.0159

> <Gold.Chemscore.DEInternal>
2.3225

> <Gold.Chemscore.Rot>
2.0101

> <Gold.Chemscore.Internal.Correction>
   9.000000E+99

> <Gold.Chemscore.Hbonds>
donor molecule, donor type, donor heavy atom, donor atom, acceptor molecule, acceptor atom, score
      P1  H  6934  6947       L1     1  0.92
      P1  H  7997  8010       L1    13  0.90

> <Gold.Chemscore.Hbond.Weighted>
-6.5130

> <Gold.Chemscore.Metal.Weighted>
-0.0000

> <Gold.Chemscore.Lipo.Weighted>
-8.7929

> <Gold.Chemscore.Internal_Hbond.Weighted>
0.0000

> <Gold.Chemscore.DEClash.Weighted>
0.0159

> <Gold.Chemscore.DEInternal.Weighted>
2.3225

> <Gold.Chemscore.Rot.Weighted>
5.1458

> <Gold.Chemscore.Internal.Correction.Weighted>
   9.000000E+99

> <Gold.Protein.RotatedTorsions>
[ 6907 6896 6895 6894 ] final  -50.75 input  -60.11 | X-H torsion
[ 7974 7965 7964 7962 ] final  -28.11 input  175.53 | X-H torsion
[ 8008 7997 7996 7995 ] final   60.29 input   59.86 | X-H torsion
[ 10167 10162 10161 10158 ] final  149.89 input  -65.29 | X-H torsion
[ 10718 10713 10712 10709 ] final   15.86 input   66.30 | X-H torsion
[ 10763 10752 10751 10750 ] final   78.82 input  -60.55 | X-H torsion
[ 11005 11000 10999 10996 ] final   42.05 input  -57.11 | X-H torsion

> <Gold.Protein.ActiveResidues>
 VAL166  LYS551  ARG553  GLY616  TRP617  ASP618  TYR619  PRO620  LYS621  CYS622 
 ASP623  PHE694  ASN695  SER759  ASP760  ASP761  ALA762  ILE779  LEU786  VAL792 
 PHE793  MET794  SER795  GLU796  ALA797  LYS798  CYS799  TRP800  GLU811  SER814 

> <Gold.Protein.RotatedAtoms>
  150.8677  134.8044  159.7130 H   0  0  0  0  0  0  0  0  0  0  0  0  # atno 6907 bound_to 6896
  152.4693  134.4997  159.9731 H   0  0  0  0  0  0  0  0  0  0  0  0  # atno 6908 bound_to 6896
  151.5091  133.3450  159.2917 H   0  0  0  0  0  0  0  0  0  0  0  0  # atno 6909 bound_to 6896
  146.1311  140.5240  142.8693 H   0  0  0  0  0  0  0  0  0  0  0  0  # atno 7974 bound_to 7965
  155.5799  140.3491  155.4537 H   0  0  0  0  0  0  0  0  0  0  0  0  # atno 8008 bound_to 7997
  156.0381  140.1289  157.0211 H   0  0  0  0  0  0  0  0  0  0  0  0  # atno 8009 bound_to 7997
  154.4380  140.1029  156.6182 H   0  0  0  0  0  0  0  0  0  0  0  0  # atno 8010 bound_to 7997
  139.4856  144.5566  151.7307 H   0  0  0  0  0  0  0  0  0  0  0  0  # atno 10167 bound_to 10162
  157.0596  130.6303  149.5783 H   0  0  0  0  0  0  0  0  0  0  0  0  # atno 10718 bound_to 10713
  153.0904  135.4863  154.8678 H   0  0  0  0  0  0  0  0  0  0  0  0  # atno 10763 bound_to 10752
  154.7262  135.3050  154.8970 H   0  0  0  0  0  0  0  0  0  0  0  0  # atno 10764 bound_to 10752
  153.9619  135.6811  153.4798 H   0  0  0  0  0  0  0  0  0  0  0  0  # atno 10765 bound_to 10752
  140.1776  134.4144  155.8219 H   0  0  0  0  0  0  0  0  0  0  0  0  # atno 11005 bound_to 11000
  144.7691  140.5597  143.6682 LP  0  0  0  0  0  0  0  0  0  0  0  0  # atno 17320 bound_to 7965
  145.5259  139.1476  143.3526 LP  0  0  0  0  0  0  0  0  0  0  0  0  # atno 17321 bound_to 7965
  140.5128  144.0999  150.6000 LP  0  0  0  0  0  0  0  0  0  0  0  0  # atno 17342 bound_to 10162
  140.3930  143.2742  152.0038 LP  0  0  0  0  0  0  0  0  0  0  0  0  # atno 17343 bound_to 10162
  155.9982  130.5056  150.7563 LP  0  0  0  0  0  0  0  0  0  0  0  0  # atno 17370 bound_to 10713
  157.4965  131.0915  151.0365 LP  0  0  0  0  0  0  0  0  0  0  0  0  # atno 17371 bound_to 10713
  141.2221  133.6985  156.7873 LP  0  0  0  0  0  0  0  0  0  0  0  0  # atno 17394 bound_to 11000
  140.2305  134.8689  157.3471 LP  0  0  0  0  0  0  0  0  0  0  0  0  # atno 17395 bound_to 11000

$$$$
