AV-unprocessed.smi:2313|AV-procd|sdf|9265|dock8
  -GOLD-   2272012493D 1   1.00000     0.00000
 Structure written by MMmdl.
 37 38  0  0  0  0  0  0  0  0  1 V2000
  152.5983  143.0014  161.6299 C   0  0  0  0  0  0  0  0  0  0  0  0
  152.2470  142.5929  160.2115 C   0  0  0  0  0  0  0  0  0  0  0  0
  151.3688  143.4233  159.4137 C   0  0  0  0  0  0  0  0  0  0  0  0
  151.0660  143.0467  158.1624 C   0  0  0  0  0  0  0  0  0  0  0  0
  151.5782  141.8658  157.5970 N   0  0  0  0  0  0  0  0  0  0  0  0
  151.1713  141.5463  156.2183 C   0  0  0  0  0  0  0  0  0  0  0  0
  149.7652  140.9370  156.1477 C   0  0  0  0  0  0  0  0  0  0  0  0
  149.6087  139.7244  156.2890 O   0  0  0  0  0  0  0  0  0  0  0  0
  148.7611  141.8019  155.9251 N   0  0  0  0  0  0  0  0  0  0  0  0
  147.3315  141.5152  155.7506 C   0  0  2  0  0  0  0  0  0  0  0  0
  146.8569  140.8973  157.0761 C   0  0  0  0  0  0  0  0  0  0  0  0
  147.0965  140.5222  154.6838 C   0  0  0  0  0  0  0  0  0  0  0  0
  146.9151  139.7442  153.8463 N   0  0  0  0  0  0  0  0  0  0  0  0
  146.4608  142.7370  155.4457 C   0  0  0  0  0  0  0  0  0  0  0  0
  145.0200  142.6623  154.9874 C   0  0  0  0  0  0  0  0  0  0  0  0
  146.0935  143.1357  154.0335 C   0  0  0  0  0  0  0  0  0  0  0  0
  152.4136  141.0344  158.2904 C   0  0  0  0  0  0  0  0  0  0  0  0
  152.8603  140.0008  157.7885 O   0  0  0  0  0  0  0  0  0  0  0  0
  152.7363  141.4552  159.6629 C   0  0  0  0  0  0  0  0  0  0  0  0
  153.6026  140.5828  160.3881 C   0  0  0  0  0  0  0  0  0  0  0  0
  154.3195  139.8895  160.9757 N   0  0  0  0  0  0  0  0  0  0  0  0
  152.1189  143.9428  161.8997 H   0  0  0  0  0  0  0  0  0  0  0  0
  153.6760  143.1293  161.7344 H   0  0  0  0  0  0  0  0  0  0  0  0
  152.2705  142.2400  162.3381 H   0  0  0  0  0  0  0  0  0  0  0  0
  150.9549  144.3348  159.8194 H   0  0  0  0  0  0  0  0  0  0  0  0
  150.4108  143.6194  157.5221 H   0  0  0  0  0  0  0  0  0  0  0  0
  151.1853  142.4374  155.5895 H   0  0  0  0  0  0  0  0  0  0  0  0
  151.8973  140.8658  155.7687 H   0  0  0  0  0  0  0  0  0  0  0  0
  149.0189  142.7738  155.8347 H   0  0  0  0  0  0  0  0  0  0  0  0
  145.8028  140.6213  157.0300 H   0  0  0  0  0  0  0  0  0  0  0  0
  146.9779  141.5943  157.9064 H   0  0  0  0  0  0  0  0  0  0  0  0
  147.4188  139.9938  157.3173 H   0  0  0  0  0  0  0  0  0  0  0  0
  146.6679  143.5671  156.1191 H   0  0  0  0  0  0  0  0  0  0  0  0
  144.5731  141.6932  154.7855 H   0  0  0  0  0  0  0  0  0  0  0  0
  144.3336  143.4105  155.3782 H   0  0  0  0  0  0  0  0  0  0  0  0
  146.1183  144.1960  153.7905 H   0  0  0  0  0  0  0  0  0  0  0  0
  146.3660  142.4676  153.2190 H   0  0  0  0  0  0  0  0  0  0  0  0
  1  2  1  0  0  0  0
  1 22  1  0  0  0  0
  1 23  1  0  0  0  0
  1 24  1  0  0  0  0
  2 19  2  0  0  0  0
  2  3  1  0  0  0  0
  3  4  2  0  0  0  0
  3 25  1  0  0  0  0
  4  5  1  0  0  0  0
  4 26  1  0  0  0  0
  5  6  1  0  0  0  0
  5 17  1  0  0  0  0
  6  7  1  0  0  0  0
  6 27  1  0  0  0  0
  6 28  1  0  0  0  0
  7  8  2  0  0  0  0
  7  9  1  0  0  0  0
  9 10  1  0  0  0  0
  9 29  1  0  0  0  0
 10 11  1  0  0  0  0
 10 12  1  0  0  0  0
 10 14  1  0  0  0  0
 11 30  1  0  0  0  0
 11 31  1  0  0  0  0
 11 32  1  0  0  0  0
 12 13  3  0  0  0  0
 14 16  1  0  0  0  0
 14 15  1  0  0  0  0
 14 33  1  0  0  0  0
 15 16  1  0  0  0  0
 15 34  1  0  0  0  0
 15 35  1  0  0  0  0
 16 36  1  0  0  0  0
 16 37  1  0  0  0  0
 17 18  2  0  0  0  0
 17 19  1  0  0  0  0
 19 20  1  0  0  0  0
 20 21  3  0  0  0  0
M  END
> <s_m_source_file>
AV-unprocessed.smi

> <i_m_source_file_index>
2313

> <i_lp_mmshare_version>
43012

> <i_f3d_flags>
0

> <s_epik_input>
W0NIM11jMVtjSF1bY0hdbihjKD1PKWMxQyNOKVtDSDJdQyg9TylbTkhdW0NAQF0oW0NIM10pKEMjTilbQ0hdMltDSDJdW0NIMl0y

> <s_epik_cmdline>
J2VwaWtfcHl0aG9uJywgJy1waCcsICc3LjAnLCAnLXRuJywgJzgnLCAnLW1hJywgJzIwMCcsICctbWV0YWxfYmluZGluZycsICctaW1hZScsICc8aW5maWxlLm1hZT4nLCAnLW9tYWUnLCAnPG91dGZpbGUubWFlPic=

> <r_lp_tautomer_probability>
1

> <r_epik_Ionization_Penalty>
4.65501e-07

> <r_epik_Ionization_Penalty_Charging>
2.39086e-10

> <r_epik_Ionization_Penalty_Neutral>
4.65262e-07

> <r_epik_State_Penalty>
-0

> <r_epik_Charging_Adjusted_Penalty>
2.39086e-10

> <i_epik_Tot_Q>
0

> <i_epik_Tot_abs_Q>
0

> <r_epik_Metal_State_Penalty>
-0

> <b_epik_Metal_Only>
0

> <s_lp_Force_Field>
OPLS_2005

> <r_lp_Energy>
23.1169

> <b_lp_Chiralities_Consistent>
1

> <s_lp_Variant>
AV-unprocessed.smi:2313-2

> <Gold.Version>
5.8.1

> <Gold.Id.Protein>
6NUR|6NUR_protein|mol2

> <Gold.PLP.Fitness>
46.5642

> <Gold.PLP.PLP>
-39.1949

> <Gold.PLP.part.hbond>
-2.0000

> <Gold.PLP.part.metal>
0.0000

> <Gold.PLP.part.buried>
-5.4165

> <Gold.PLP.part.nonpolar>
-30.9908

> <Gold.PLP.part.repulsive>
0.2282

> <Gold.PLP.ligand.clash>
0.0000

> <Gold.PLP.ligand.torsion>
1.4417

> <Gold.PLP.Chemscore.Hbond>
1.9199

> <Gold.PLP.Chemscore.CHOScore>
1.0000

> <Gold.PLP.Chemscore.Metal>
0.0000

> <Gold.Chemscore.Hbonds>
donor molecule, donor type, donor heavy atom, donor atom, acceptor molecule, acceptor atom, score
      L1  H     9    29       P1  8028  1.00
      P1  H  7997  8008       L1    18  1.00
      L1  C     4    26       P1  8028  0.75

> <Gold.PLP.Chemscore.Internal.Correction>
1.4930

> <Gold.Rescore>
     Score         DG    S(hbond)    S(metal)    S(lipo)     H(rot)  DE(clash)    DE(int)     intcor
     14.93     -16.88       1.93        0.00      81.58       1.80       0.04       1.90       ----

> <Gold.Chemscore.Fitness>
14.9265

> <Gold.Chemscore.DG>
-16.8751

> <Gold.Chemscore.ZeroCoef>
-5.4800

> <Gold.Chemscore.Hbond>
1.9303

> <Gold.Chemscore.Metal>
0.0000

> <Gold.Chemscore.Lipo>
81.5751

> <Gold.Chemscore.Internal_Hbond>
0.0000

> <Gold.Chemscore.DEClash>
0.0442

> <Gold.Chemscore.DEInternal>
1.9044

> <Gold.Chemscore.Rot>
1.7955

> <Gold.Chemscore.Internal.Correction>
   9.000000E+99

> <Gold.Chemscore.Hbonds>
donor molecule, donor type, donor heavy atom, donor atom, acceptor molecule, acceptor atom, score
      L1  H     9    29       P1  8028  0.98
      P1  H  7997  8008       L1    18  0.95

> <Gold.Chemscore.Hbond.Weighted>
-6.4473

> <Gold.Chemscore.Metal.Weighted>
-0.0000

> <Gold.Chemscore.Lipo.Weighted>
-9.5443

> <Gold.Chemscore.Internal_Hbond.Weighted>
0.0000

> <Gold.Chemscore.DEClash.Weighted>
0.0442

> <Gold.Chemscore.DEInternal.Weighted>
1.9044

> <Gold.Chemscore.Rot.Weighted>
4.5965

> <Gold.Chemscore.Internal.Correction.Weighted>
   9.000000E+99

> <Gold.Protein.RotatedTorsions>
[ 6907 6896 6895 6894 ] final -175.64 input  -60.11 | X-H torsion
[ 7974 7965 7964 7962 ] final -136.88 input  175.53 | X-H torsion
[ 8008 7997 7996 7995 ] final  -69.09 input   59.86 | X-H torsion
[ 10167 10162 10161 10158 ] final   -6.56 input  -65.29 | X-H torsion
[ 10718 10713 10712 10709 ] final  -28.28 input   66.30 | X-H torsion
[ 10763 10752 10751 10750 ] final  -32.75 input  -60.55 | X-H torsion
[ 11005 11000 10999 10996 ] final  101.47 input  -57.11 | X-H torsion

> <Gold.Protein.ActiveResidues>
 VAL166  LYS551  ARG553  GLY616  TRP617  ASP618  TYR619  PRO620  LYS621  CYS622 
 ASP623  PHE694  ASN695  SER759  ASP760  ASP761  ALA762  ILE779  LEU786  VAL792 
 PHE793  MET794  SER795  GLU796  ALA797  LYS798  CYS799  TRP800  GLU811  SER814 

> <Gold.Protein.RotatedAtoms>
  151.5919  133.3365  159.3029 H   0  0  0  0  0  0  0  0  0  0  0  0  # atno 6907 bound_to 6896
  150.8255  134.7488  159.6821 H   0  0  0  0  0  0  0  0  0  0  0  0  # atno 6908 bound_to 6896
  152.4345  134.5719  159.9975 H   0  0  0  0  0  0  0  0  0  0  0  0  # atno 6909 bound_to 6896
  144.8889  140.6614  143.5158 H   0  0  0  0  0  0  0  0  0  0  0  0  # atno 7974 bound_to 7965
  154.4914  140.0860  156.7602 H   0  0  0  0  0  0  0  0  0  0  0  0  # atno 8008 bound_to 7997
  155.4222  140.3446  155.4254 H   0  0  0  0  0  0  0  0  0  0  0  0  # atno 8009 bound_to 7997
  156.1335  140.1508  156.9018 H   0  0  0  0  0  0  0  0  0  0  0  0  # atno 8010 bound_to 7997
  140.7001  143.6180  150.8640 H   0  0  0  0  0  0  0  0  0  0  0  0  # atno 10167 bound_to 10162
  156.4273  130.4438  149.7142 H   0  0  0  0  0  0  0  0  0  0  0  0  # atno 10718 bound_to 10713
  153.8190  135.6876  153.4830 H   0  0  0  0  0  0  0  0  0  0  0  0  # atno 10763 bound_to 10752
  153.1581  135.4591  154.9731 H   0  0  0  0  0  0  0  0  0  0  0  0  # atno 10764 bound_to 10752
  154.7936  135.3310  154.7664 H   0  0  0  0  0  0  0  0  0  0  0  0  # atno 10765 bound_to 10752
  139.8773  134.9184  156.4912 H   0  0  0  0  0  0  0  0  0  0  0  0  # atno 11005 bound_to 11000
  145.3819  139.1635  143.4276 LP  0  0  0  0  0  0  0  0  0  0  0  0  # atno 17320 bound_to 7965
  146.3041  140.3900  142.8693 LP  0  0  0  0  0  0  0  0  0  0  0  0  # atno 17321 bound_to 7965
  139.9901  143.5856  152.2913 LP  0  0  0  0  0  0  0  0  0  0  0  0  # atno 17342 bound_to 10162
  139.6508  144.7660  151.2151 LP  0  0  0  0  0  0  0  0  0  0  0  0  # atno 17343 bound_to 10162
  156.4059  130.7698  151.2708 LP  0  0  0  0  0  0  0  0  0  0  0  0  # atno 17370 bound_to 10713
  157.7508  131.0226  150.3798 LP  0  0  0  0  0  0  0  0  0  0  0  0  # atno 17371 bound_to 10713
  140.8657  133.8026  155.9311 LP  0  0  0  0  0  0  0  0  0  0  0  0  # atno 17394 bound_to 11000
  140.9004  134.2385  157.5045 LP  0  0  0  0  0  0  0  0  0  0  0  0  # atno 17395 bound_to 11000

$$$$
