AV-unprocessed.smi:39|AV-procd|sdf|358|dock2
  -GOLD-   2262016193D 1   1.00000     0.00000
 Structure written by MMmdl.
 32 33  0  0  0  0  0  0  0  0  3 V2000
  152.3609  138.2412  154.4662 C   0  0  0  0  0  0  0  0  0  0  0  0
  151.4887  139.2793  155.1528 C   0  0  0  0  0  0  0  0  0  0  0  0
  150.3491  139.7586  154.5918 C   0  0  0  0  0  0  0  0  0  0  0  0
  149.5306  140.7032  155.1966 N   0  0  0  0  0  0  0  0  0  0  0  0
  148.2620  141.1866  154.5312 C   0  0  2  0  0  0  0  0  0  0  0  0
  147.0623  141.0062  155.4690 C   0  0  0  0  0  0  0  0  0  0  0  0
  146.3738  139.7916  154.8666 C   0  0  1  0  0  0  0  0  0  0  0  0
  144.9439  139.6783  155.1995 N   0  0  0  0  0  0  0  0  0  0  0  0
  144.4344  140.5518  155.9166 N   0  3  0  0  0  0  0  0  0  0  0  0
  144.0186  141.2942  156.6722 N   0  5  0  0  0  0  0  0  0  0  0  0
  146.6836  139.9608  153.3723 C   0  0  2  0  0  0  0  0  0  0  0  0
  146.5835  138.6535  152.5715 C   0  0  0  0  0  0  0  0  0  0  0  0
  147.4395  138.7071  151.4508 O   0  0  0  0  0  0  0  0  0  0  0  0
  148.0319  140.4196  153.3851 O   0  0  0  0  0  0  0  0  0  0  0  0
  149.8665  141.1897  156.4771 C   0  0  0  0  0  0  0  0  0  0  0  0
  149.1724  141.9999  157.0899 O   0  0  0  0  0  0  0  0  0  0  0  0
  151.0400  140.7033  157.0504 N   0  0  0  0  0  0  0  0  0  0  0  0
  151.9005  139.7669  156.4722 C   0  0  0  0  0  0  0  0  0  0  0  0
  152.9114  139.4155  157.0784 O   0  0  0  0  0  0  0  0  0  0  0  0
  148.4269  142.2227  154.2309 H   0  0  0  0  0  0  0  0  0  0  0  0
  146.8914  138.9015  155.2269 H   0  0  0  0  0  0  0  0  0  0  0  0
  146.0545  140.7396  152.9367 H   0  0  0  0  0  0  0  0  0  0  0  0
  151.2869  141.0541  157.9642 H   0  0  0  0  0  0  0  0  0  0  0  0
  151.9619  137.9578  153.4918 H   0  0  0  0  0  0  0  0  0  0  0  0
  152.4287  137.3386  155.0746 H   0  0  0  0  0  0  0  0  0  0  0  0
  153.3689  138.6291  154.3148 H   0  0  0  0  0  0  0  0  0  0  0  0
  150.0660  139.3755  153.6225 H   0  0  0  0  0  0  0  0  0  0  0  0
  147.3666  140.8655  156.5070 H   0  0  0  0  0  0  0  0  0  0  0  0
  146.4440  141.9023  155.4049 H   0  0  0  0  0  0  0  0  0  0  0  0
  146.8197  137.7882  153.1915 H   0  0  0  0  0  0  0  0  0  0  0  0
  145.5679  138.5179  152.1988 H   0  0  0  0  0  0  0  0  0  0  0  0
  148.0854  139.3813  151.5972 H   0  0  0  0  0  0  0  0  0  0  0  0
  1  2  1  0  0  0  0
  1 24  1  0  0  0  0
  1 25  1  0  0  0  0
  1 26  1  0  0  0  0
  2 18  1  0  0  0  0
  2  3  2  0  0  0  0
  3  4  1  0  0  0  0
  3 27  1  0  0  0  0
  4  5  1  0  0  0  0
  4 15  1  0  0  0  0
  5 20  1  0  0  0  0
  5 14  1  0  0  0  0
  5  6  1  0  0  0  0
  6  7  1  0  0  0  0
  6 28  1  0  0  0  0
  6 29  1  0  0  0  0
  7 21  1  0  0  0  0
  7  8  1  0  0  0  0
  7 11  1  0  0  0  0
  8  9  2  0  0  0  0
  9 10  2  0  0  0  0
 11 22  1  0  0  0  0
 11 12  1  0  0  0  0
 11 14  1  0  0  0  0
 12 13  1  0  0  0  0
 12 30  1  0  0  0  0
 12 31  1  0  0  0  0
 13 32  1  0  0  0  0
 15 16  2  0  0  0  0
 15 17  1  0  0  0  0
 17 23  1  0  0  0  0
 17 18  1  0  0  0  0
 18 19  2  0  0  0  0
M  CHG  1   9   1
M  CHG  1  10  -1
M  END
> <s_m_source_file>
AV-unprocessed.smi

> <i_m_source_file_index>
39

> <i_lp_mmshare_version>
43012

> <i_f3d_flags>
0

> <s_epik_input>
Tz1jMVtuSF1jKD1PKW4oW2NIXWMxW0NIM10pW0NASF0yW0NIMl1bQ0BIXShOPVtOK109W04tXSlbQ0BIXShPMilbQ0gyXVtPSF0=

> <s_epik_cmdline>
J2VwaWtfcHl0aG9uJywgJy1waCcsICc3LjAnLCAnLXRuJywgJzgnLCAnLW1hJywgJzIwMCcsICctbWV0YWxfYmluZGluZycsICctaW1hZScsICc8aW5maWxlLm1hZT4nLCAnLW9tYWUnLCAnPG91dGZpbGUubWFlPic=

> <r_lp_tautomer_probability>
0.999537

> <r_epik_Ionization_Penalty>
0.00127512

> <r_epik_Ionization_Penalty_Charging>
0.00127507

> <r_epik_Ionization_Penalty_Neutral>
5.43433e-08

> <r_epik_State_Penalty>
0.000844892

> <r_epik_Charging_Adjusted_Penalty>
0.00211996

> <i_epik_Tot_Q>
0

> <i_epik_Tot_abs_Q>
2

> <r_epik_Metal_State_Penalty>
0.680636

> <b_epik_Metal_Only>
0

> <s_epik_Chemistry_Notes>
This compound contains an acetal/aminal-like group ( X-CH(R)-Y where X, Y are N, S, or O) that may be acid/base labile, releasing an aldehyde.

> <s_lp_Force_Field>
OPLS_2005

> <r_lp_Energy>
25.9236

> <b_lp_Chiralities_Consistent>
1

> <s_lp_Variant>
AV-unprocessed.smi:39-8

> <Gold.Version>
5.8.1

> <Gold.Id.Protein>
6NUR|6NUR_protein|mol2

> <Gold.PLP.Fitness>
36.3431

> <Gold.PLP.PLP>
-25.5847

> <Gold.PLP.part.hbond>
-4.0000

> <Gold.PLP.part.metal>
0.0000

> <Gold.PLP.part.buried>
-1.8023

> <Gold.PLP.part.nonpolar>
-22.7331

> <Gold.PLP.part.repulsive>
3.6050

> <Gold.PLP.ligand.clash>
0.0000

> <Gold.PLP.ligand.torsion>
0.3910

> <Gold.PLP.Chemscore.Hbond>
2.8400

> <Gold.PLP.Chemscore.CHOScore>
1.0000

> <Gold.PLP.Chemscore.Metal>
0.0000

> <Gold.Chemscore.Hbonds>
donor molecule, donor type, donor heavy atom, donor atom, acceptor molecule, acceptor atom, score
      L1  H    13    32       P1  7957  0.91
      P1  H  7954  7966       L1    13  0.91
      P1  H  7997  8010       L1    19  1.00
      L1  C     3    27       P1  7957  0.87

> <Gold.PLP.Chemscore.Internal.Correction>
0.0204

> <Gold.Rescore>
     Score         DG    S(hbond)    S(metal)    S(lipo)     H(rot)  DE(clash)    DE(int)     intcor
      7.47      -9.66       1.93        0.00      40.87       2.75       0.39       1.80       ----

> <Gold.Chemscore.Fitness>
7.4687

> <Gold.Chemscore.DG>
-9.6649

> <Gold.Chemscore.ZeroCoef>
-5.4800

> <Gold.Chemscore.Hbond>
1.9309

> <Gold.Chemscore.Metal>
0.0000

> <Gold.Chemscore.Lipo>
40.8689

> <Gold.Chemscore.Internal_Hbond>
0.0000

> <Gold.Chemscore.DEClash>
0.3948

> <Gold.Chemscore.DEInternal>
1.8014

> <Gold.Chemscore.Rot>
2.7524

> <Gold.Chemscore.Internal.Correction>
   9.000000E+99

> <Gold.Chemscore.Hbonds>
donor molecule, donor type, donor heavy atom, donor atom, acceptor molecule, acceptor atom, score
      L1  H    13    32       P1  7957  0.88
      P1  H  7954  7966       L1    13  0.20
      P1  H  7997  8010       L1    19  0.97

> <Gold.Chemscore.Hbond.Weighted>
-6.4494

> <Gold.Chemscore.Metal.Weighted>
-0.0000

> <Gold.Chemscore.Lipo.Weighted>
-4.7817

> <Gold.Chemscore.Internal_Hbond.Weighted>
0.0000

> <Gold.Chemscore.DEClash.Weighted>
0.3948

> <Gold.Chemscore.DEInternal.Weighted>
1.8014

> <Gold.Chemscore.Rot.Weighted>
7.0461

> <Gold.Chemscore.Internal.Correction.Weighted>
   9.000000E+99

> <Gold.Protein.RotatedTorsions>
[ 6907 6896 6895 6894 ] final  120.47 input  -60.11 | X-H torsion
[ 7974 7965 7964 7962 ] final  -17.93 input  175.53 | X-H torsion
[ 8008 7997 7996 7995 ] final   58.87 input   59.86 | X-H torsion
[ 10167 10162 10161 10158 ] final   78.71 input  -65.29 | X-H torsion
[ 10718 10713 10712 10709 ] final   41.91 input   66.30 | X-H torsion
[ 10763 10752 10751 10750 ] final -175.78 input  -60.55 | X-H torsion
[ 11005 11000 10999 10996 ] final  -95.21 input  -57.11 | X-H torsion

> <Gold.Protein.ActiveResidues>
 VAL166  LYS551  ARG553  GLY616  TRP617  ASP618  TYR619  PRO620  LYS621  CYS622 
 ASP623  PHE694  ASN695  SER759  ASP760  ASP761  ALA762  ILE779  LEU786  VAL792 
 PHE793  MET794  SER795  GLU796  ALA797  LYS798  CYS799  TRP800  GLU811  SER814 

> <Gold.Protein.RotatedAtoms>
  152.4395  133.7423  159.6647 H   0  0  0  0  0  0  0  0  0  0  0  0  # atno 6907 bound_to 6896
  150.8284  133.8122  159.3115 H   0  0  0  0  0  0  0  0  0  0  0  0  # atno 6908 bound_to 6896
  151.5783  135.1062  160.0063 H   0  0  0  0  0  0  0  0  0  0  0  0  # atno 6909 bound_to 6896
  146.1917  140.3849  142.8455 H   0  0  0  0  0  0  0  0  0  0  0  0  # atno 7974 bound_to 7965
  155.5571  140.3487  155.4482 H   0  0  0  0  0  0  0  0  0  0  0  0  # atno 8008 bound_to 7997
  156.0541  140.1324  157.0042 H   0  0  0  0  0  0  0  0  0  0  0  0  # atno 8009 bound_to 7997
  154.4448  140.0998  156.6405 H   0  0  0  0  0  0  0  0  0  0  0  0  # atno 8010 bound_to 7997
  139.9680  144.5914  150.8011 H   0  0  0  0  0  0  0  0  0  0  0  0  # atno 10167 bound_to 10162
  157.3989  130.7848  149.7331 H   0  0  0  0  0  0  0  0  0  0  0  0  # atno 10718 bound_to 10713
  154.5802  135.2835  155.0740 H   0  0  0  0  0  0  0  0  0  0  0  0  # atno 10763 bound_to 10752
  154.2079  135.6413  153.5110 H   0  0  0  0  0  0  0  0  0  0  0  0  # atno 10764 bound_to 10752
  153.0086  135.5484  154.6454 H   0  0  0  0  0  0  0  0  0  0  0  0  # atno 10765 bound_to 10752
  141.1448  133.8010  157.0404 H   0  0  0  0  0  0  0  0  0  0  0  0  # atno 11005 bound_to 11000
  144.8500  140.6987  143.6174 LP  0  0  0  0  0  0  0  0  0  0  0  0  # atno 17320 bound_to 7965
  145.3771  139.1645  143.4300 LP  0  0  0  0  0  0  0  0  0  0  0  0  # atno 17321 bound_to 7965
  140.7531  143.3003  151.3098 LP  0  0  0  0  0  0  0  0  0  0  0  0  # atno 17342 bound_to 10162
  139.6503  144.0375  152.2621 LP  0  0  0  0  0  0  0  0  0  0  0  0  # atno 17343 bound_to 10162
  155.9818  130.4016  150.3453 LP  0  0  0  0  0  0  0  0  0  0  0  0  # atno 17370 bound_to 10713
  157.1578  131.0337  151.2855 LP  0  0  0  0  0  0  0  0  0  0  0  0  # atno 17371 bound_to 10713
  140.0696  134.9709  157.1445 LP  0  0  0  0  0  0  0  0  0  0  0  0  # atno 17394 bound_to 11000
  140.3730  134.2370  155.7176 LP  0  0  0  0  0  0  0  0  0  0  0  0  # atno 17395 bound_to 11000

$$$$
