AV-unprocessed.smi:1278|AV-procd|sdf|5353|dock8
  -GOLD-   22720 4493D 1   1.00000     0.00000
 Structure written by MMmdl.
 38 39  0  0  0  0  0  0  0  0  3 V2000
  144.4636  132.0819  150.0117 C   0  0  0  0  0  0  0  0  0  0  0  0
  144.2344  132.6061  151.4405 C   0  0  2  0  0  0  0  0  0  0  0  0
  143.7000  134.0499  151.4682 C   0  0  0  0  0  0  0  0  0  0  0  0
  144.8030  135.0581  151.1169 C   0  0  0  0  0  0  0  0  0  0  0  0
  146.0371  134.8602  152.0108 C   0  0  0  0  0  0  0  0  0  0  0  0
  146.5428  133.4660  151.9276 N   0  3  1  0  0  0  0  0  0  0  0  0
  147.8161  133.2879  152.6683 C   0  0  0  0  0  0  0  0  0  0  0  0
  147.8325  134.0649  153.9981 C   0  0  0  0  0  0  0  0  0  0  0  0
  149.0417  134.8687  154.1272 N   0  0  0  0  0  0  0  0  0  0  0  0
  149.9108  134.8136  155.1465 C   0  0  0  0  0  0  0  0  0  0  0  0
  149.7156  134.0293  156.0781 O   0  0  0  0  0  0  0  0  0  0  0  0
  150.9472  135.6725  155.0241 N   0  5  0  0  0  0  0  0  0  0  0  0
  150.7185  136.9633  154.7322 C   0  0  0  0  0  0  0  0  0  0  0  0
  149.4898  137.4874  154.6588 N   0  0  0  0  0  0  0  0  0  0  0  0
  149.4841  138.8481  154.3464 C   0  0  0  0  0  0  0  0  0  0  0  0
  150.7387  139.3741  154.1869 C   0  0  0  0  0  0  0  0  0  0  0  0
  151.9715  138.1689  154.4256 S   0  0  0  0  0  0  0  0  0  0  0  0
  145.4975  132.4805  152.3179 C   0  0  0  0  0  0  0  0  0  0  0  0
  145.2415  132.6409  149.4918 H   0  0  0  0  0  0  0  0  0  0  0  0
  143.5516  132.1524  149.4182 H   0  0  0  0  0  0  0  0  0  0  0  0
  144.7652  131.0339  150.0238 H   0  0  0  0  0  0  0  0  0  0  0  0
  143.4665  131.9685  151.8808 H   0  0  0  0  0  0  0  0  0  0  0  0
  142.8536  134.1604  150.7892 H   0  0  0  0  0  0  0  0  0  0  0  0
  143.3216  134.2724  152.4669 H   0  0  0  0  0  0  0  0  0  0  0  0
  145.0862  134.9519  150.0693 H   0  0  0  0  0  0  0  0  0  0  0  0
  144.4243  136.0744  151.2283 H   0  0  0  0  0  0  0  0  0  0  0  0
  146.8164  135.5562  151.6975 H   0  0  0  0  0  0  0  0  0  0  0  0
  145.7964  135.0994  153.0480 H   0  0  0  0  0  0  0  0  0  0  0  0
  147.9566  132.2307  152.8980 H   0  0  0  0  0  0  0  0  0  0  0  0
  148.6525  133.5755  152.0293 H   0  0  0  0  0  0  0  0  0  0  0  0
  146.9616  134.7126  154.0993 H   0  0  0  0  0  0  0  0  0  0  0  0
  147.7995  133.3681  154.8359 H   0  0  0  0  0  0  0  0  0  0  0  0
  149.2425  135.5204  153.3826 H   0  0  0  0  0  0  0  0  0  0  0  0
  148.5394  139.3637  154.2582 H   0  0  0  0  0  0  0  0  0  0  0  0
  151.0122  140.3902  153.9465 H   0  0  0  0  0  0  0  0  0  0  0  0
  145.2342  132.6399  153.3648 H   0  0  0  0  0  0  0  0  0  0  0  0
  145.8814  131.4632  152.2509 H   0  0  0  0  0  0  0  0  0  0  0  0
  146.7557  133.3011  150.9543 H   0  0  0  0  0  0  0  0  0  0  0  0
  1  2  1  0  0  0  0
  1 19  1  0  0  0  0
  1 20  1  0  0  0  0
  1 21  1  0  0  0  0
  2 18  1  0  0  0  0
  2  3  1  0  0  0  0
  2 22  1  0  0  0  0
  3  4  1  0  0  0  0
  3 23  1  0  0  0  0
  3 24  1  0  0  0  0
  4  5  1  0  0  0  0
  4 25  1  0  0  0  0
  4 26  1  0  0  0  0
  5  6  1  0  0  0  0
  5 27  1  0  0  0  0
  5 28  1  0  0  0  0
  6  7  1  0  0  0  0
  6 18  1  0  0  0  0
  6 38  1  0  0  0  0
  7  8  1  0  0  0  0
  7 29  1  0  0  0  0
  7 30  1  0  0  0  0
  8  9  1  0  0  0  0
  8 31  1  0  0  0  0
  8 32  1  0  0  0  0
  9 10  1  0  0  0  0
  9 33  1  0  0  0  0
 10 11  2  0  0  0  0
 10 12  1  0  0  0  0
 12 13  1  0  0  0  0
 13 17  1  0  0  0  0
 13 14  2  0  0  0  0
 14 15  1  0  0  0  0
 15 16  2  0  0  0  0
 15 34  1  0  0  0  0
 16 17  1  0  0  0  0
 16 35  1  0  0  0  0
 18 36  1  0  0  0  0
 18 37  1  0  0  0  0
M  CHG  1   6   1
M  CHG  1  12  -1
M  END
> <s_m_source_file>
AV-unprocessed.smi

> <i_m_source_file_index>
1278

> <i_lp_mmshare_version>
43012

> <i_f3d_flags>
0

> <s_epik_input>
W0NIM11bQ0BASF0xW0NIMl1bQ0gyXVtDSDJdTihbQ0gyXTEpW0NIMl1bQ0gyXVtOSF1DKD1PKVtOSF1jMm5bY0hdW2NIXXMy

> <s_epik_cmdline>
J2VwaWtfcHl0aG9uJywgJy1waCcsICc3LjAnLCAnLXRuJywgJzgnLCAnLW1hJywgJzIwMCcsICctbWV0YWxfYmluZGluZycsICctaW1hZScsICc8aW5maWxlLm1hZT4nLCAnLW9tYWUnLCAnPG91dGZpbGUubWFlPic=

> <r_lp_tautomer_probability>
0.999

> <r_epik_Ionization_Penalty>
6.22019

> <r_epik_Ionization_Penalty_Charging>
5.38911

> <r_epik_Ionization_Penalty_Neutral>
0.831074

> <r_epik_State_Penalty>
5.38904

> <r_epik_Charging_Adjusted_Penalty>
10.7782

> <i_epik_Tot_Q>
0

> <i_epik_Tot_abs_Q>
2

> <r_epik_Metal_State_Penalty>
1.41502

> <b_epik_Metal_Only>
1

> <s_lp_Force_Field>
OPLS_2005

> <r_lp_Energy>
8.40837

> <b_lp_Chiralities_Consistent>
1

> <s_lp_Variant>
AV-unprocessed.smi:1278-7

> <Gold.Version>
5.8.1

> <Gold.Id.Protein>
6NUR|6NUR_protein|mol2

> <Gold.PLP.Fitness>
39.9971

> <Gold.PLP.PLP>
-33.0935

> <Gold.PLP.part.hbond>
-2.0000

> <Gold.PLP.part.metal>
0.0000

> <Gold.PLP.part.buried>
-2.8024

> <Gold.PLP.part.nonpolar>
-28.0123

> <Gold.PLP.part.repulsive>
0.3578

> <Gold.PLP.ligand.clash>
0.0000

> <Gold.PLP.ligand.torsion>
1.0641

> <Gold.PLP.Chemscore.Hbond>
3.0000

> <Gold.PLP.Chemscore.CHOScore>
0.0000

> <Gold.PLP.Chemscore.Metal>
0.0000

> <Gold.Chemscore.Hbonds>
donor molecule, donor type, donor heavy atom, donor atom, acceptor molecule, acceptor atom, score
      L1  H     9    33       P1  7948  1.00
      P1  H 10752 10765       L1    12  2.00

> <Gold.PLP.Chemscore.Internal.Correction>
0.0318

> <Gold.Rescore>
     Score         DG    S(hbond)    S(metal)    S(lipo)     H(rot)  DE(clash)    DE(int)     intcor
     11.97     -14.42       1.59        0.00      65.32       1.57       0.01       2.44       ----

> <Gold.Chemscore.Fitness>
11.9723

> <Gold.Chemscore.DG>
-14.4244

> <Gold.Chemscore.ZeroCoef>
-5.4800

> <Gold.Chemscore.Hbond>
1.5915

> <Gold.Chemscore.Metal>
0.0000

> <Gold.Chemscore.Lipo>
65.3164

> <Gold.Chemscore.Internal_Hbond>
0.0000

> <Gold.Chemscore.DEClash>
0.0134

> <Gold.Chemscore.DEInternal>
2.4388

> <Gold.Chemscore.Rot>
1.5676

> <Gold.Chemscore.Internal.Correction>
   9.000000E+99

> <Gold.Chemscore.Hbonds>
donor molecule, donor type, donor heavy atom, donor atom, acceptor molecule, acceptor atom, score
      L1  H     9    33       P1  7948  0.34
      P1  H 10752 10765       L1    12  0.28

> <Gold.Chemscore.Hbond.Weighted>
-5.3155

> <Gold.Chemscore.Metal.Weighted>
-0.0000

> <Gold.Chemscore.Lipo.Weighted>
-7.6420

> <Gold.Chemscore.Internal_Hbond.Weighted>
0.0000

> <Gold.Chemscore.DEClash.Weighted>
0.0134

> <Gold.Chemscore.DEInternal.Weighted>
2.4388

> <Gold.Chemscore.Rot.Weighted>
4.0130

> <Gold.Chemscore.Internal.Correction.Weighted>
   9.000000E+99

> <Gold.Protein.RotatedTorsions>
[ 6907 6896 6895 6894 ] final -166.71 input  -60.11 | X-H torsion
[ 7974 7965 7964 7962 ] final -112.01 input  175.53 | X-H torsion
[ 8008 7997 7996 7995 ] final    0.51 input   59.86 | X-H torsion
[ 10167 10162 10161 10158 ] final   92.99 input  -65.29 | X-H torsion
[ 10718 10713 10712 10709 ] final  156.51 input   66.30 | X-H torsion
[ 10763 10752 10751 10750 ] final -176.07 input  -60.55 | X-H torsion
[ 11005 11000 10999 10996 ] final  136.98 input  -57.11 | X-H torsion

> <Gold.Protein.ActiveResidues>
 VAL166  LYS551  ARG553  GLY616  TRP617  ASP618  TYR619  PRO620  LYS621  CYS622 
 ASP623  PHE694  ASN695  SER759  ASP760  ASP761  ALA762  ILE779  LEU786  VAL792 
 PHE793  MET794  SER795  GLU796  ALA797  LYS798  CYS799  TRP800  GLU811  SER814 

> <Gold.Protein.RotatedAtoms>
  151.4479  133.3625  159.2790 H   0  0  0  0  0  0  0  0  0  0  0  0  # atno 6907 bound_to 6896
  150.9112  134.8530  159.7437 H   0  0  0  0  0  0  0  0  0  0  0  0  # atno 6908 bound_to 6896
  152.4933  134.4409  159.9595 H   0  0  0  0  0  0  0  0  0  0  0  0  # atno 6909 bound_to 6896
  145.1491  140.8819  143.3657 H   0  0  0  0  0  0  0  0  0  0  0  0  # atno 7974 bound_to 7965
  154.6689  140.2607  155.7028 H   0  0  0  0  0  0  0  0  0  0  0  0  # atno 8008 bound_to 7997
  156.2650  140.2833  156.1112 H   0  0  0  0  0  0  0  0  0  0  0  0  # atno 8009 bound_to 7997
  155.1198  140.0377  157.2737 H   0  0  0  0  0  0  0  0  0  0  0  0  # atno 8010 bound_to 7997
  139.8223  144.6726  150.9503 H   0  0  0  0  0  0  0  0  0  0  0  0  # atno 10167 bound_to 10162
  157.2040  131.0682  151.2008 H   0  0  0  0  0  0  0  0  0  0  0  0  # atno 10718 bound_to 10713
  154.5768  135.2832  155.0773 H   0  0  0  0  0  0  0  0  0  0  0  0  # atno 10763 bound_to 10752
  154.2124  135.6405  153.5123 H   0  0  0  0  0  0  0  0  0  0  0  0  # atno 10764 bound_to 10752
  153.0075  135.5495  154.6409 H   0  0  0  0  0  0  0  0  0  0  0  0  # atno 10765 bound_to 10752
  140.0083  134.9450  157.0223 H   0  0  0  0  0  0  0  0  0  0  0  0  # atno 11005 bound_to 11000
  145.0450  139.3228  143.5957 LP  0  0  0  0  0  0  0  0  0  0  0  0  # atno 17320 bound_to 7965
  146.3496  139.9837  142.8693 LP  0  0  0  0  0  0  0  0  0  0  0  0  # atno 17321 bound_to 7965
  140.7812  143.4080  151.1039 LP  0  0  0  0  0  0  0  0  0  0  0  0  # atno 17342 bound_to 10162
  139.7740  143.8453  152.3126 LP  0  0  0  0  0  0  0  0  0  0  0  0  # atno 17343 bound_to 10162
  157.3739  130.7195  149.6583 LP  0  0  0  0  0  0  0  0  0  0  0  0  # atno 17370 bound_to 10713
  155.9697  130.4191  150.4360 LP  0  0  0  0  0  0  0  0  0  0  0  0  # atno 17371 bound_to 10713
  140.4601  134.1493  155.7190 LP  0  0  0  0  0  0  0  0  0  0  0  0  # atno 17394 bound_to 11000
  141.1693  133.8641  157.1620 LP  0  0  0  0  0  0  0  0  0  0  0  0  # atno 17395 bound_to 11000

$$$$
