#       Name:                AV-unprocessed.smi:1005
#       Creating user name   scv26
#       Creation time:       Fri Mar 27 02:29:38 2020


#       File generated by GOLD software.
#

@<TRIPOS>MOLECULE
AV-unprocessed.smi:1005
    62    64     1
SMALL
NO_CHARGES


@<TRIPOS>ATOM
      1 ****        -6.8737   1.6237  -2.7832 C.3            1 S1                 0.0000
      2 ****        -5.6527   1.7957  -1.8957 C.ar           1 S1                 0.0000
      3 ****        -5.8501   2.0747  -0.5243 C.ar           1 S1                 0.0000
      4 ****        -4.7143   2.2245   0.2624 C.ar           1 S1                 0.0000
      5 ****        -4.5734   2.5013   1.6241 N.pl3          1 S1                 1.0000
      6 ****        -3.2505   2.5519   1.9435 C.2            1 S1                 0.0000
      7 ****        -2.5445   2.3047   0.8060 N.pl3          1 S1                 0.0000
      8 ****        -1.0932   2.2393   0.5873 C.3            1 S1                 0.0000
      9 ****        -0.5608   0.7938   0.5225 C.3            1 S1                 0.0000
     10 ****        -0.8661   0.1321   1.7351 O.3            1 S1                 0.0000
     11 ****         0.9651   0.7560   0.3079 C.3            1 S1                 0.0000
     12 ****         1.4881  -0.6263   0.1553 N.4            1 S1                 1.0000
     13 ****         1.2204  -1.2220  -1.1769 C.3            1 S1                 0.0000
     14 ****         1.7559  -2.6613  -1.2360 C.3            1 S1                 0.0000
     15 ****         3.1445  -2.6650  -0.9282 O.3            1 S1                 0.0000
     16 ****         3.4135  -2.1907   0.3866 C.3            1 S1                 0.0000
     17 ****         4.9306  -2.3343   0.6225 C.3            1 S1                 0.0000
     18 ****         5.3502  -1.9915   2.0066 N.4            1 S1                 1.0000
     19 ****         6.7921  -1.6674   2.0841 C.3            1 S1                 0.0000
     20 ****         4.9720  -3.0162   3.0077 C.3            1 S1                 0.0000
     21 ****         2.9297  -0.7280   0.4869 C.3            1 S1                 0.0000
     22 ****        -3.4160   2.1036  -0.2697 C.ar           1 S1                 0.0000
     23 ****        -3.2031   1.8331  -1.6192 C.ar           1 S1                 0.0000
     24 ****        -4.3458   1.6791  -2.4365 C.ar           1 S1                 0.0000
     25 ****        -4.1455   1.3842  -3.9135 C.3            1 S1                 0.0000
     26 ****        -7.7982   1.7127  -2.2120 H              1 S1                 0.0000
     27 ****        -6.8692   0.6414  -3.2561 H              1 S1                 0.0000
     28 ****        -6.8894   2.3848  -3.5637 H              1 S1                 0.0000
     29 ****        -6.8421   2.1674  -0.1065 H              1 S1                 0.0000
     30 ****        -2.8379   2.7485   2.9228 H              1 S1                 0.0000
     31 ****        -0.8594   2.7839  -0.3285 H              1 S1                 0.0000
     32 ****        -0.6147   2.7850   1.4019 H              1 S1                 0.0000
     33 ****        -1.0695   0.2702  -0.2859 H              1 S1                 0.0000
     34 ****        -1.8032   0.1512   1.8595 H              1 S1                 0.0000
     35 ****         1.2434   1.3452  -0.5674 H              1 S1                 0.0000
     36 ****         1.4451   1.2367   1.1619 H              1 S1                 0.0000
     37 ****         0.1516  -1.2293  -1.3876 H              1 S1                 0.0000
     38 ****         1.6944  -0.6177  -1.9520 H              1 S1                 0.0000
     39 ****         1.2135  -3.3086  -0.5450 H              1 S1                 0.0000
     40 ****         1.6144  -3.0740  -2.2351 H              1 S1                 0.0000
     41 ****         2.8655  -2.8150   1.0934 H              1 S1                 0.0000
     42 ****         5.2535  -3.3511   0.3934 H              1 S1                 0.0000
     43 ****         5.4492  -1.6862  -0.0861 H              1 S1                 0.0000
     44 ****         7.4017  -2.5307   1.8136 H              1 S1                 0.0000
     45 ****         7.0661  -1.3584   3.0937 H              1 S1                 0.0000
     46 ****         7.0427  -0.8463   1.4116 H              1 S1                 0.0000
     47 ****         5.4370  -3.9764   2.7801 H              1 S1                 0.0000
     48 ****         3.8929  -3.1594   3.0486 H              1 S1                 0.0000
     49 ****         5.2933  -2.7137   4.0052 H              1 S1                 0.0000
     50 ****         3.5030  -0.0915  -0.1894 H              1 S1                 0.0000
     51 ****         3.0962  -0.3534   1.4977 H              1 S1                 0.0000
     52 ****        -2.2087   1.7449  -2.0309 H              1 S1                 0.0000
     53 ****        -3.0872   1.3535  -4.1747 H              1 S1                 0.0000
     54 ****        -4.6164   2.1534  -4.5262 H              1 S1                 0.0000
     55 ****        -4.5810   0.4191  -4.1733 H              1 S1                 0.0000
     56 ****         4.8641  -1.1425   2.2581 H              1 S1                 0.0000
     57 ****         0.9989  -1.1892   0.8371 H              1 S1                 0.0000
     58 ****        -5.3231   2.6479   2.2881 H              1 S1                 0.0000
     59 ****        -0.4151   0.5980   2.4964 LP             1 S1                 0.0000
     60 ****        -0.5509  -0.8159   1.6907 LP             1 S1                 0.0000
     61 ****         3.6198  -2.0784  -1.5841 LP             1 S1                 0.0000
     62 ****         3.4880  -3.6007  -1.0080 LP             1 S1                 0.0000
@<TRIPOS>BOND
    1    1    2 1     
    2    1   26 1     
    3    1   27 1     
    4    1   28 1     
    5    2   24 ar    
    6    2    3 ar    
    7    3    4 ar    
    8    3   29 1     
    9    4   22 ar    
   10    4    5 1     
   11    5    6 2     
   12    5   58 1     
   13    6    7 1     
   14    6   30 1     
   15    7    8 1     
   16    7   22 1     
   17    8    9 1     
   18    8   31 1     
   19    8   32 1     
   20    9   10 1     
   21    9   11 1     
   22    9   33 1     
   23   10   34 1     
   24   11   12 1     
   25   11   35 1     
   26   11   36 1     
   27   12   21 1     
   28   12   13 1     
   29   12   57 1     
   30   13   14 1     
   31   13   37 1     
   32   13   38 1     
   33   14   15 1     
   34   14   39 1     
   35   14   40 1     
   36   15   16 1     
   37   16   17 1     
   38   16   21 1     
   39   16   41 1     
   40   17   18 1     
   41   17   42 1     
   42   17   43 1     
   43   18   19 1     
   44   18   20 1     
   45   18   56 1     
   46   19   44 1     
   47   19   45 1     
   48   19   46 1     
   49   20   47 1     
   50   20   48 1     
   51   20   49 1     
   52   21   50 1     
   53   21   51 1     
   54   22   23 ar    
   55   23   24 ar    
   56   23   52 1     
   57   24   25 1     
   58   25   53 1     
   59   25   54 1     
   60   25   55 1     
   61   10   59 1     
   62   10   60 1     
   63   15   61 1     
   64   15   62 1     
@<TRIPOS>SUBSTRUCTURE
      1 S1             1
@<TRIPOS>SET
LONE_PAIRS      STATIC     ATOMS    <user>   **** ""
4 59 60 61 62
DONOR_HYDROGENS      STATIC     ATOMS    <user>   **** ""
4 58 34 57 56
ATOM$BLUE        STATIC     ATOMS    COLORGROUP SYSTEM
4 59 60 61 62
ATOM$RED        STATIC     ATOMS    COLORGROUP SYSTEM
4 58 34 57 56
