AV-unprocessed.smi:1995|AV-procd|sdf|8078|dock5
  -GOLD-   2272010293D 1   1.00000     0.00000
 Structure written by MMmdl.
 43 44  0  0  0  0  0  0  0  0  2 V2000
  148.7394  134.5876  157.8531 C   0  0  0  0  0  0  0  0  0  0  0  0
  149.6208  135.4902  156.9717 C   0  0  0  0  0  0  0  0  0  0  0  0
  149.3217  135.4562  155.4414 C   0  0  1  0  0  0  0  0  0  0  0  0
  150.0599  134.2490  154.8066 C   0  0  0  0  0  0  0  0  0  0  0  0
  147.7913  135.2466  155.2132 C   0  0  0  0  0  0  0  0  0  0  0  0
  147.4154  135.0717  153.8090 N   0  0  0  0  0  0  0  0  0  0  0  0
  146.4358  134.2761  153.3556 C   0  0  0  0  0  0  0  0  0  0  0  0
  145.7407  133.5710  154.0870 O   0  0  0  0  0  0  0  0  0  0  0  0
  146.3244  134.3563  152.0182 N   0  0  0  0  0  0  0  0  0  0  0  0
  145.4299  133.6528  151.1694 C   0  0  0  0  0  0  0  0  0  0  0  0
  145.8026  132.9677  150.0818 N   0  0  0  0  0  0  0  0  0  0  0  0
  144.7135  132.3772  149.4356 C   0  0  0  0  0  0  0  0  0  0  0  0
  143.5105  132.6280  150.0472 C   0  0  0  0  0  0  0  0  0  0  0  0
  143.6984  133.6205  151.4682 S   0  0  0  0  0  0  0  0  0  0  0  0
  149.7757  136.7322  154.7736 N   0  3  0  0  0  0  0  0  0  0  0  0
  148.9832  137.9510  155.1018 C   0  0  0  0  0  0  0  0  0  0  0  0
  149.4000  139.1219  154.1975 C   0  0  0  0  0  0  0  0  0  0  0  0
  150.7881  139.3762  154.3611 O   0  0  0  0  0  0  0  0  0  0  0  0
  151.5773  138.2570  153.9829 C   0  0  0  0  0  0  0  0  0  0  0  0
  151.2297  137.0478  154.8682 C   0  0  0  0  0  0  0  0  0  0  0  0
  149.0211  134.6916  158.9011 H   0  0  0  0  0  0  0  0  0  0  0  0
  148.8483  133.5345  157.5959 H   0  0  0  0  0  0  0  0  0  0  0  0
  147.6842  134.8484  157.7788 H   0  0  0  0  0  0  0  0  0  0  0  0
  149.5167  136.5067  157.3499 H   0  0  0  0  0  0  0  0  0  0  0  0
  150.6577  135.2102  157.1547 H   0  0  0  0  0  0  0  0  0  0  0  0
  149.5895  133.3018  155.0716 H   0  0  0  0  0  0  0  0  0  0  0  0
  151.0960  134.1797  155.1382 H   0  0  0  0  0  0  0  0  0  0  0  0
  150.0639  134.3055  153.7178 H   0  0  0  0  0  0  0  0  0  0  0  0
  147.4217  134.4034  155.7990 H   0  0  0  0  0  0  0  0  0  0  0  0
  147.2330  136.1047  155.5880 H   0  0  0  0  0  0  0  0  0  0  0  0
  147.9226  135.6240  153.1331 H   0  0  0  0  0  0  0  0  0  0  0  0
  146.9505  134.9952  151.5504 H   0  0  0  0  0  0  0  0  0  0  0  0
  144.8858  131.7938  148.5429 H   0  0  0  0  0  0  0  0  0  0  0  0
  142.5292  132.2901  149.7489 H   0  0  0  0  0  0  0  0  0  0  0  0
  147.9160  137.7827  154.9714 H   0  0  0  0  0  0  0  0  0  0  0  0
  149.1384  138.2339  156.1433 H   0  0  0  0  0  0  0  0  0  0  0  0
  149.1739  138.9082  153.1515 H   0  0  0  0  0  0  0  0  0  0  0  0
  148.8444  140.0205  154.4664 H   0  0  0  0  0  0  0  0  0  0  0  0
  151.4194  138.0250  152.9282 H   0  0  0  0  0  0  0  0  0  0  0  0
  152.6303  138.5151  154.0967 H   0  0  0  0  0  0  0  0  0  0  0  0
  151.5030  137.2637  155.9012 H   0  0  0  0  0  0  0  0  0  0  0  0
  151.8470  136.2142  154.5392 H   0  0  0  0  0  0  0  0  0  0  0  0
  149.6122  136.5668  153.7907 H   0  0  0  0  0  0  0  0  0  0  0  0
  1  2  1  0  0  0  0
  1 21  1  0  0  0  0
  1 22  1  0  0  0  0
  1 23  1  0  0  0  0
  2  3  1  0  0  0  0
  2 24  1  0  0  0  0
  2 25  1  0  0  0  0
  3  4  1  0  0  0  0
  3  5  1  0  0  0  0
  3 15  1  0  0  0  0
  4 26  1  0  0  0  0
  4 27  1  0  0  0  0
  4 28  1  0  0  0  0
  5  6  1  0  0  0  0
  5 29  1  0  0  0  0
  5 30  1  0  0  0  0
  6  7  1  0  0  0  0
  6 31  1  0  0  0  0
  7  8  2  0  0  0  0
  7  9  1  0  0  0  0
  9 10  1  0  0  0  0
  9 32  1  0  0  0  0
 10 14  1  0  0  0  0
 10 11  2  0  0  0  0
 11 12  1  0  0  0  0
 12 13  2  0  0  0  0
 12 33  1  0  0  0  0
 13 14  1  0  0  0  0
 13 34  1  0  0  0  0
 15 20  1  0  0  0  0
 15 16  1  0  0  0  0
 15 43  1  0  0  0  0
 16 17  1  0  0  0  0
 16 35  1  0  0  0  0
 16 36  1  0  0  0  0
 17 18  1  0  0  0  0
 17 37  1  0  0  0  0
 17 38  1  0  0  0  0
 18 19  1  0  0  0  0
 19 20  1  0  0  0  0
 19 39  1  0  0  0  0
 19 40  1  0  0  0  0
 20 41  1  0  0  0  0
 20 42  1  0  0  0  0
M  CHG  1  15   1
M  END
> <s_m_source_file>
AV-unprocessed.smi

> <i_m_source_file_index>
1995

> <i_lp_mmshare_version>
43012

> <i_f3d_flags>
0

> <s_epik_input>
W0NIMl0xW0NIMl1PW0NIMl1bQ0gyXU4xW0NAQF0oW0NIM10pKFtDSDJdW0NIM10pW0NIMl1bTkhdQyg9TylbTkhdYzJuW2NIXVtjSF1zMg==

> <s_epik_cmdline>
J2VwaWtfcHl0aG9uJywgJy1waCcsICc3LjAnLCAnLXRuJywgJzgnLCAnLW1hJywgJzIwMCcsICctbWV0YWxfYmluZGluZycsICctaW1hZScsICc8aW5maWxlLm1hZT4nLCAnLW9tYWUnLCAnPG91dGZpbGUubWFlPic=

> <r_lp_tautomer_probability>
0.999

> <r_epik_Ionization_Penalty>
0.55406

> <r_epik_Ionization_Penalty_Charging>
0.553838

> <r_epik_Ionization_Penalty_Neutral>
0.000222147

> <r_epik_State_Penalty>
0.564424

> <r_epik_Charging_Adjusted_Penalty>
1.11826

> <i_epik_Tot_Q>
1

> <i_epik_Tot_abs_Q>
1

> <r_epik_Metal_State_Penalty>
0.573776

> <b_epik_Metal_Only>
0

> <s_lp_Force_Field>
OPLS_2005

> <r_lp_Energy>
32.5614

> <b_lp_Chiralities_Consistent>
1

> <s_lp_Variant>
AV-unprocessed.smi:1995-3

> <Gold.Version>
5.8.1

> <Gold.Id.Protein>
6NUR|6NUR_protein|mol2

> <Gold.PLP.Fitness>
42.1071

> <Gold.PLP.PLP>
-29.2151

> <Gold.PLP.part.hbond>
-3.8224

> <Gold.PLP.part.metal>
0.0000

> <Gold.PLP.part.buried>
-4.2332

> <Gold.PLP.part.nonpolar>
-21.7167

> <Gold.PLP.part.repulsive>
0.9388

> <Gold.PLP.ligand.clash>
0.0000

> <Gold.PLP.ligand.torsion>
1.1284

> <Gold.PLP.Chemscore.Hbond>
4.4633

> <Gold.PLP.Chemscore.CHOScore>
0.5412

> <Gold.PLP.Chemscore.Metal>
0.0000

> <Gold.Chemscore.Hbonds>
donor molecule, donor type, donor heavy atom, donor atom, acceptor molecule, acceptor atom, score
      L1  H     6    31       P1  7948  1.00
      L1  H     9    32       P1  7948  0.22
      L1  H    15    43       P1  7948  1.98
      P1  H  7989  7998       L1    18  1.00
      L1  C    13    34       P1 10186  0.43
      L1  C    13    34       P1 10952  0.86

> <Gold.PLP.Chemscore.Internal.Correction>
0.1352

> <Gold.Rescore>
     Score         DG    S(hbond)    S(metal)    S(lipo)     H(rot)  DE(clash)    DE(int)     intcor
     15.31     -17.77       2.54        0.00      71.68       1.79       1.32       1.14       ----

> <Gold.Chemscore.Fitness>
15.3144

> <Gold.Chemscore.DG>
-17.7723

> <Gold.Chemscore.ZeroCoef>
-5.4800

> <Gold.Chemscore.Hbond>
2.5444

> <Gold.Chemscore.Metal>
0.0000

> <Gold.Chemscore.Lipo>
71.6828

> <Gold.Chemscore.Internal_Hbond>
0.0000

> <Gold.Chemscore.DEClash>
1.3185

> <Gold.Chemscore.DEInternal>
1.1394

> <Gold.Chemscore.Rot>
1.7942

> <Gold.Chemscore.Internal.Correction>
   9.000000E+99

> <Gold.Chemscore.Hbonds>
donor molecule, donor type, donor heavy atom, donor atom, acceptor molecule, acceptor atom, score
      L1  H     6    31       P1  7948  1.00
      L1  H     9    32       P1  7948  0.21
      L1  H    15    43       P1  7948  0.65
      P1  H  7989  7998       L1    18  0.44

> <Gold.Chemscore.Hbond.Weighted>
-8.4984

> <Gold.Chemscore.Metal.Weighted>
-0.0000

> <Gold.Chemscore.Lipo.Weighted>
-8.3869

> <Gold.Chemscore.Internal_Hbond.Weighted>
0.0000

> <Gold.Chemscore.DEClash.Weighted>
1.3185

> <Gold.Chemscore.DEInternal.Weighted>
1.1394

> <Gold.Chemscore.Rot.Weighted>
4.5931

> <Gold.Chemscore.Internal.Correction.Weighted>
   9.000000E+99

> <Gold.Protein.RotatedTorsions>
[ 6907 6896 6895 6894 ] final  154.19 input  -60.11 | X-H torsion
[ 7974 7965 7964 7962 ] final -177.22 input  175.53 | X-H torsion
[ 8008 7997 7996 7995 ] final  109.04 input   59.86 | X-H torsion
[ 10167 10162 10161 10158 ] final -170.80 input  -65.29 | X-H torsion
[ 10718 10713 10712 10709 ] final   74.46 input   66.30 | X-H torsion
[ 10763 10752 10751 10750 ] final -176.86 input  -60.55 | X-H torsion
[ 11005 11000 10999 10996 ] final   67.87 input  -57.11 | X-H torsion

> <Gold.Protein.ActiveResidues>
 VAL166  LYS551  ARG553  GLY616  TRP617  ASP618  TYR619  PRO620  LYS621  CYS622 
 ASP623  PHE694  ASN695  SER759  ASP760  ASP761  ALA762  ILE779  LEU786  VAL792 
 PHE793  MET794  SER795  GLU796  ALA797  LYS798  CYS799  TRP800  GLU811  SER814 

> <Gold.Protein.RotatedAtoms>
  152.0621  133.4067  159.4421 H   0  0  0  0  0  0  0  0  0  0  0  0  # atno 6907 bound_to 6896
  150.6866  134.3189  159.4787 H   0  0  0  0  0  0  0  0  0  0  0  0  # atno 6908 bound_to 6896
  152.1011  134.9340  160.0620 H   0  0  0  0  0  0  0  0  0  0  0  0  # atno 6909 bound_to 6896
  144.7127  140.1052  143.6414 H   0  0  0  0  0  0  0  0  0  0  0  0  # atno 7974 bound_to 7965
  156.1949  140.3065  155.9407 H   0  0  0  0  0  0  0  0  0  0  0  0  # atno 8008 bound_to 7997
  155.3088  140.0450  157.3051 H   0  0  0  0  0  0  0  0  0  0  0  0  # atno 8009 bound_to 7997
  154.5497  140.2287  155.8513 H   0  0  0  0  0  0  0  0  0  0  0  0  # atno 8010 bound_to 7997
  139.5840  144.1359  152.1552 H   0  0  0  0  0  0  0  0  0  0  0  0  # atno 10167 bound_to 10162
  157.6593  130.9679  150.1214 H   0  0  0  0  0  0  0  0  0  0  0  0  # atno 10718 bound_to 10713
  154.5672  135.2825  155.0862 H   0  0  0  0  0  0  0  0  0  0  0  0  # atno 10763 bound_to 10752
  154.2249  135.6384  153.5160 H   0  0  0  0  0  0  0  0  0  0  0  0  # atno 10764 bound_to 10752
  153.0046  135.5523  154.6284 H   0  0  0  0  0  0  0  0  0  0  0  0  # atno 10765 bound_to 10752
  139.9745  134.6845  156.0381 H   0  0  0  0  0  0  0  0  0  0  0  0  # atno 11005 bound_to 11000
  145.9503  139.2729  143.1216 LP  0  0  0  0  0  0  0  0  0  0  0  0  # atno 17320 bound_to 7965
  145.9330  140.9034  143.0346 LP  0  0  0  0  0  0  0  0  0  0  0  0  # atno 17321 bound_to 7965
  140.0919  144.5614  150.7049 LP  0  0  0  0  0  0  0  0  0  0  0  0  # atno 17342 bound_to 10162
  140.7115  143.2508  151.4567 LP  0  0  0  0  0  0  0  0  0  0  0  0  # atno 17343 bound_to 10162
  156.2084  130.3665  149.8700 LP  0  0  0  0  0  0  0  0  0  0  0  0  # atno 17370 bound_to 10713
  156.6586  130.8773  151.3543 LP  0  0  0  0  0  0  0  0  0  0  0  0  # atno 17371 bound_to 10713
  141.1423  133.6562  156.3765 LP  0  0  0  0  0  0  0  0  0  0  0  0  # atno 17394 bound_to 11000
  140.5224  134.6292  157.5322 LP  0  0  0  0  0  0  0  0  0  0  0  0  # atno 17395 bound_to 11000

$$$$
