AV-unprocessed.smi:332|AV-procd|sdf|2352|dock10
  -GOLD-   2262022263D 1   1.00000     0.00000
 Structure written by MMmdl.
 42 44  0  0  0  0  0  0  0  0  1 V2000
  145.7611  136.0337  152.5245 C   0  0  0  0  0  0  0  0  0  0  0  0
  145.9614  134.5107  152.4573 C   0  0  2  0  0  0  0  0  0  0  0  0
  147.3204  134.2080  152.9036 N   0  0  0  0  0  0  0  0  0  0  0  0
  147.6546  133.3906  153.9145 C   0  0  0  0  0  0  0  0  0  0  0  0
  146.8296  132.8122  154.6226 O   0  0  0  0  0  0  0  0  0  0  0  0
  149.1576  133.2079  154.1634 C   0  0  0  0  0  0  0  0  0  0  0  0
  149.5020  131.8413  154.5893 N   0  0  0  0  0  0  0  0  0  0  0  0
  149.0131  130.7795  153.8027 C   0  0  0  0  0  0  0  0  0  0  0  0
  149.2731  129.4967  154.1006 C   0  0  0  0  0  0  0  0  0  0  0  0
  150.0792  129.2162  155.2652 C   0  0  0  0  0  0  0  0  0  0  0  0
  150.5546  130.2244  156.0229 C   0  0  0  0  0  0  0  0  0  0  0  0
  150.2743  131.6283  155.6999 C   0  0  0  0  0  0  0  0  0  0  0  0
  150.7067  132.5557  156.3855 O   0  0  0  0  0  0  0  0  0  0  0  0
  145.7226  133.9497  151.0320 C   0  0  2  0  0  0  0  0  0  0  0  0
  144.3473  134.3450  150.4399 C   0  0  0  0  0  0  0  0  0  0  0  0
  143.7313  132.9939  150.0360 C   0  0  1  0  0  0  0  0  0  0  0  0
  144.4966  132.4190  148.8307 C   0  0  0  0  0  0  0  0  0  0  0  0
  145.8343  131.9858  149.4577 C   0  0  0  0  0  0  0  0  0  0  0  0
  145.6701  132.4017  150.9322 C   0  0  2  0  0  0  0  0  0  0  0  0
  144.1965  132.0924  151.1716 C   0  0  0  0  0  0  0  0  0  0  0  0
  144.7464  136.3190  152.2479 H   0  0  0  0  0  0  0  0  0  0  0  0
  146.4454  136.5538  151.8532 H   0  0  0  0  0  0  0  0  0  0  0  0
  145.9377  136.4075  153.5337 H   0  0  0  0  0  0  0  0  0  0  0  0
  145.2389  134.0566  153.1371 H   0  0  0  0  0  0  0  0  0  0  0  0
  148.0706  134.6395  152.3836 H   0  0  0  0  0  0  0  0  0  0  0  0
  149.7176  133.4680  153.2630 H   0  0  0  0  0  0  0  0  0  0  0  0
  149.4668  133.9369  154.9134 H   0  0  0  0  0  0  0  0  0  0  0  0
  148.4251  131.0732  152.9452 H   0  0  0  0  0  0  0  0  0  0  0  0
  148.8932  128.6964  153.4830 H   0  0  0  0  0  0  0  0  0  0  0  0
  150.3039  128.1933  155.5289 H   0  0  0  0  0  0  0  0  0  0  0  0
  151.1576  129.9952  156.8894 H   0  0  0  0  0  0  0  0  0  0  0  0
  146.5213  134.3212  150.3876 H   0  0  0  0  0  0  0  0  0  0  0  0
  143.7133  134.8275  151.1850 H   0  0  0  0  0  0  0  0  0  0  0  0
  144.4411  135.0288  149.5955 H   0  0  0  0  0  0  0  0  0  0  0  0
  142.6513  133.0326  149.8911 H   0  0  0  0  0  0  0  0  0  0  0  0
  143.9741  131.5589  148.4104 H   0  0  0  0  0  0  0  0  0  0  0  0
  144.6270  133.1545  148.0360 H   0  0  0  0  0  0  0  0  0  0  0  0
  145.9630  130.9059  149.3735 H   0  0  0  0  0  0  0  0  0  0  0  0
  146.6934  132.4600  148.9817 H   0  0  0  0  0  0  0  0  0  0  0  0
  146.3585  131.8731  151.5909 H   0  0  0  0  0  0  0  0  0  0  0  0
  143.8383  132.4070  152.1531 H   0  0  0  0  0  0  0  0  0  0  0  0
  143.9454  131.0410  151.0206 H   0  0  0  0  0  0  0  0  0  0  0  0
  1  2  1  0  0  0  0
  1 21  1  0  0  0  0
  1 22  1  0  0  0  0
  1 23  1  0  0  0  0
  2  3  1  0  0  0  0
  2 14  1  0  0  0  0
  2 24  1  0  0  0  0
  3  4  1  0  0  0  0
  3 25  1  0  0  0  0
  4  5  2  0  0  0  0
  4  6  1  0  0  0  0
  6  7  1  0  0  0  0
  6 26  1  0  0  0  0
  6 27  1  0  0  0  0
  7 12  1  0  0  0  0
  7  8  1  0  0  0  0
  8  9  2  0  0  0  0
  8 28  1  0  0  0  0
  9 10  1  0  0  0  0
  9 29  1  0  0  0  0
 10 11  2  0  0  0  0
 10 30  1  0  0  0  0
 11 12  1  0  0  0  0
 11 31  1  0  0  0  0
 12 13  2  0  0  0  0
 14 19  1  0  0  0  0
 14 15  1  0  0  0  0
 14 32  1  0  0  0  0
 15 16  1  0  0  0  0
 15 33  1  0  0  0  0
 15 34  1  0  0  0  0
 16 20  1  0  0  0  0
 16 17  1  0  0  0  0
 16 35  1  0  0  0  0
 17 18  1  0  0  0  0
 17 36  1  0  0  0  0
 17 37  1  0  0  0  0
 18 19  1  0  0  0  0
 18 38  1  0  0  0  0
 18 39  1  0  0  0  0
 19 20  1  0  0  0  0
 19 40  1  0  0  0  0
 20 41  1  0  0  0  0
 20 42  1  0  0  0  0
M  END
> <s_m_source_file>
AV-unprocessed.smi

> <i_m_source_file_index>
332

> <i_lp_mmshare_version>
43012

> <i_f3d_flags>
0

> <s_epik_input>
W0NIMl0xW0NIMl1bQ0BIXShbQ0gyXTIpW0NAQEhdKFtDSDJdW0NAQEhdMTIpW0NASF0oW0NIM10pW05IXUMoPU8pW0NIMl1uM1tjSF1bY0hdW2NIXVtjSF1jMz1P

> <s_epik_cmdline>
J2VwaWtfcHl0aG9uJywgJy1waCcsICc3LjAnLCAnLXRuJywgJzgnLCAnLW1hJywgJzIwMCcsICctbWV0YWxfYmluZGluZycsICctaW1hZScsICc8aW5maWxlLm1hZT4nLCAnLW9tYWUnLCAnPG91dGZpbGUubWFlPic=

> <r_lp_tautomer_probability>
1

> <r_epik_Ionization_Penalty>
4.05802e-07

> <r_epik_Ionization_Penalty_Charging>
3.84175e-07

> <r_epik_Ionization_Penalty_Neutral>
2.16269e-08

> <r_epik_State_Penalty>
-0

> <r_epik_Charging_Adjusted_Penalty>
3.84175e-07

> <i_epik_Tot_Q>
0

> <i_epik_Tot_abs_Q>
0

> <r_epik_Metal_State_Penalty>
-0

> <b_epik_Metal_Only>
0

> <s_lp_Force_Field>
OPLS_2005

> <r_lp_Energy>
59.6993

> <b_lp_Chiralities_Consistent>
1

> <s_lp_Variant>
AV-unprocessed.smi:332-1

> <Gold.Version>
5.8.1

> <Gold.Id.Protein>
6NUR|6NUR_protein|mol2

> <Gold.PLP.Fitness>
43.8561

> <Gold.PLP.PLP>
-38.8773

> <Gold.PLP.part.hbond>
-1.0000

> <Gold.PLP.part.metal>
0.0000

> <Gold.PLP.part.buried>
-3.5629

> <Gold.PLP.part.nonpolar>
-33.9458

> <Gold.PLP.part.repulsive>
0.0352

> <Gold.PLP.ligand.clash>
0.0000

> <Gold.PLP.ligand.torsion>
0.5069

> <Gold.PLP.Chemscore.Hbond>
0.9920

> <Gold.PLP.Chemscore.CHOScore>
0.9996

> <Gold.PLP.Chemscore.Metal>
0.0000

> <Gold.Chemscore.Hbonds>
donor molecule, donor type, donor heavy atom, donor atom, acceptor molecule, acceptor atom, score
      L1  H     3    25       P1  7948  0.99
      L1  C     8    28       P1 10747  0.53

> <Gold.PLP.Chemscore.Internal.Correction>
0.0179

> <Gold.Rescore>
     Score         DG    S(hbond)    S(metal)    S(lipo)     H(rot)  DE(clash)    DE(int)     intcor
     15.26     -16.00       0.88        0.00      98.51       1.54       0.21       0.52       ----

> <Gold.Chemscore.Fitness>
15.2586

> <Gold.Chemscore.DG>
-15.9952

> <Gold.Chemscore.ZeroCoef>
-5.4800

> <Gold.Chemscore.Hbond>
0.8778

> <Gold.Chemscore.Metal>
0.0000

> <Gold.Chemscore.Lipo>
98.5052

> <Gold.Chemscore.Internal_Hbond>
0.0000

> <Gold.Chemscore.DEClash>
0.2122

> <Gold.Chemscore.DEInternal>
0.5244

> <Gold.Chemscore.Rot>
1.5398

> <Gold.Chemscore.Internal.Correction>
   9.000000E+99

> <Gold.Chemscore.Hbonds>
donor molecule, donor type, donor heavy atom, donor atom, acceptor molecule, acceptor atom, score
      L1  H     3    25       P1  7948  0.37

> <Gold.Chemscore.Hbond.Weighted>
-2.9320

> <Gold.Chemscore.Metal.Weighted>
-0.0000

> <Gold.Chemscore.Lipo.Weighted>
-11.5251

> <Gold.Chemscore.Internal_Hbond.Weighted>
0.0000

> <Gold.Chemscore.DEClash.Weighted>
0.2122

> <Gold.Chemscore.DEInternal.Weighted>
0.5244

> <Gold.Chemscore.Rot.Weighted>
3.9419

> <Gold.Chemscore.Internal.Correction.Weighted>
   9.000000E+99

> <Gold.Protein.RotatedTorsions>
[ 6907 6896 6895 6894 ] final  155.61 input  -60.11 | X-H torsion
[ 7974 7965 7964 7962 ] final  178.50 input  175.53 | X-H torsion
[ 8008 7997 7996 7995 ] final -177.00 input   59.86 | X-H torsion
[ 10167 10162 10161 10158 ] final  -56.38 input  -65.29 | X-H torsion
[ 10718 10713 10712 10709 ] final -107.20 input   66.30 | X-H torsion
[ 10763 10752 10751 10750 ] final  105.87 input  -60.55 | X-H torsion
[ 11005 11000 10999 10996 ] final  172.32 input  -57.11 | X-H torsion

> <Gold.Protein.ActiveResidues>
 VAL166  LYS551  ARG553  GLY616  TRP617  ASP618  TYR619  PRO620  LYS621  CYS622 
 ASP623  PHE694  ASN695  SER759  ASP760  ASP761  ALA762  ILE779  LEU786  VAL792 
 PHE793  MET794  SER795  GLU796  ALA797  LYS798  CYS799  TRP800  GLU811  SER814 

> <Gold.Protein.RotatedAtoms>
  152.0416  133.3980  159.4339 H   0  0  0  0  0  0  0  0  0  0  0  0  # atno 6907 bound_to 6896
  150.6875  134.3408  159.4876 H   0  0  0  0  0  0  0  0  0  0  0  0  # atno 6908 bound_to 6896
  152.1207  134.9207  160.0614 H   0  0  0  0  0  0  0  0  0  0  0  0  # atno 6909 bound_to 6896
  144.7155  140.0407  143.6437 H   0  0  0  0  0  0  0  0  0  0  0  0  # atno 7974 bound_to 7965
  156.0017  140.1222  157.0541 H   0  0  0  0  0  0  0  0  0  0  0  0  # atno 8008 bound_to 7997
  154.4245  140.1105  156.5775 H   0  0  0  0  0  0  0  0  0  0  0  0  # atno 8009 bound_to 7997
  155.6203  140.3472  155.4652 H   0  0  0  0  0  0  0  0  0  0  0  0  # atno 8010 bound_to 7997
  140.6320  143.2464  151.5215 H   0  0  0  0  0  0  0  0  0  0  0  0  # atno 10167 bound_to 10162
  156.0425  130.5651  150.7788 H   0  0  0  0  0  0  0  0  0  0  0  0  # atno 10718 bound_to 10713
  153.3853  135.3895  155.1885 H   0  0  0  0  0  0  0  0  0  0  0  0  # atno 10763 bound_to 10752
  154.8713  135.3735  154.4806 H   0  0  0  0  0  0  0  0  0  0  0  0  # atno 10764 bound_to 10752
  153.5287  135.7086  153.5755 H   0  0  0  0  0  0  0  0  0  0  0  0  # atno 10765 bound_to 10752
  140.3284  134.7378  157.4116 H   0  0  0  0  0  0  0  0  0  0  0  0  # atno 11005 bound_to 11000
  146.0026  139.3104  143.0918 LP  0  0  0  0  0  0  0  0  0  0  0  0  # atno 17320 bound_to 7965
  145.8775  140.9383  143.0618 LP  0  0  0  0  0  0  0  0  0  0  0  0  # atno 17321 bound_to 7965
  139.5534  144.2338  152.1569 LP  0  0  0  0  0  0  0  0  0  0  0  0  # atno 17342 bound_to 10162
  140.1585  144.5048  150.6646 LP  0  0  0  0  0  0  0  0  0  0  0  0  # atno 17343 bound_to 10162
  157.5262  131.0934  151.0015 LP  0  0  0  0  0  0  0  0  0  0  0  0  # atno 17370 bound_to 10713
  157.0333  130.5720  149.5346 LP  0  0  0  0  0  0  0  0  0  0  0  0  # atno 17371 bound_to 10713
  140.0881  134.5638  155.8471 LP  0  0  0  0  0  0  0  0  0  0  0  0  # atno 17394 bound_to 11000
  141.2069  133.6660  156.6274 LP  0  0  0  0  0  0  0  0  0  0  0  0  # atno 17395 bound_to 11000

$$$$
